# generated using pymatgen
data_Ca2Al2SiO7
_symmetry_space_group_name_H-M   'P 1'
_cell_length_a   15.45850373
_cell_length_b   15.45728988
_cell_length_c   15.28407256
_cell_angle_alpha   90.00179332
_cell_angle_beta   89.99969807
_cell_angle_gamma   89.99508376
_symmetry_Int_Tables_number   1
_chemical_formula_structural   Ca2Al2SiO7
_chemical_formula_sum   'Ca48 Al48 Si24 O168'
_cell_volume   3652.07674813
_cell_formula_units_Z   24
loop_
 _symmetry_equiv_pos_site_id
 _symmetry_equiv_pos_as_xyz
  1  'x, y, z'
loop_
 _atom_type_symbol
 _atom_type_oxidation_number
  Ca2+  2.0
  Al0+  0.0
  Si0+  0.0
  O2-  -2.0
loop_
 _atom_site_type_symbol
 _atom_site_label
 _atom_site_symmetry_multiplicity
 _atom_site_fract_x
 _atom_site_fract_y
 _atom_site_fract_z
 _atom_site_occupancy
  Ca2+  Ca0  1  0.17081032  0.08096545  0.16947454  1
  Ca2+  Ca1  1  0.17770620  0.07702947  0.50383828  1
  Ca2+  Ca2  1  0.16440422  0.07457083  0.84043820  1
  Ca2+  Ca3  1  0.17509382  0.58094422  0.17328257  1
  Ca2+  Ca4  1  0.18033451  0.58007640  0.50892958  1
  Ca2+  Ca5  1  0.17309145  0.57776525  0.83041582  1
  Ca2+  Ca6  1  0.66415143  0.08351766  0.16697876  1
  Ca2+  Ca7  1  0.66134203  0.08701207  0.50265984  1
  Ca2+  Ca8  1  0.66702444  0.08084532  0.84339407  1
  Ca2+  Ca9  1  0.65747053  0.57985182  0.17460775  1
  Ca2+  Ca10  1  0.66374002  0.57224092  0.50425691  1
  Ca2+  Ca11  1  0.66533583  0.57881920  0.83432280  1
  Ca2+  Ca12  1  0.08225903  0.32443935  0.15873513  1
  Ca2+  Ca13  1  0.07766228  0.34610230  0.50245437  1
  Ca2+  Ca14  1  0.07973330  0.32930807  0.82523254  1
  Ca2+  Ca15  1  0.07297618  0.84154649  0.16133442  1
  Ca2+  Ca16  1  0.07876954  0.83516962  0.49626522  1
  Ca2+  Ca17  1  0.07976307  0.84182043  0.83083262  1
  Ca2+  Ca18  1  0.58067759  0.32651071  0.16781013  1
  Ca2+  Ca19  1  0.58006261  0.33105746  0.49561633  1
  Ca2+  Ca20  1  0.58483977  0.32129769  0.82365579  1
  Ca2+  Ca21  1  0.58061028  0.82472105  0.16137447  1
  Ca2+  Ca22  1  0.56889009  0.82461483  0.49286767  1
  Ca2+  Ca23  1  0.58296348  0.82958288  0.82913642  1
  Ca2+  Ca24  1  0.33725634  0.42058651  0.17724152  1
  Ca2+  Ca25  1  0.33998493  0.42470166  0.50707949  1
  Ca2+  Ca26  1  0.34056723  0.41822448  0.82967728  1
  Ca2+  Ca27  1  0.33154837  0.92126551  0.17396772  1
  Ca2+  Ca28  1  0.33868698  0.91812171  0.50578151  1
  Ca2+  Ca29  1  0.32369200  0.91129267  0.83524127  1
  Ca2+  Ca30  1  0.82258964  0.41889856  0.17436350  1
  Ca2+  Ca31  1  0.82180925  0.41932878  0.51098544  1
  Ca2+  Ca32  1  0.83252374  0.41806219  0.82938295  1
  Ca2+  Ca33  1  0.83153743  0.91714819  0.16441093  1
  Ca2+  Ca34  1  0.83139917  0.91634268  0.50184963  1
  Ca2+  Ca35  1  0.82640454  0.92379940  0.84721224  1
  Ca2+  Ca36  1  0.42261372  0.16706860  0.16676931  1
  Ca2+  Ca37  1  0.42505788  0.17603221  0.49261849  1
  Ca2+  Ca38  1  0.42995110  0.16895486  0.82401946  1
  Ca2+  Ca39  1  0.42551963  0.66438497  0.16862400  1
  Ca2+  Ca40  1  0.41207002  0.67121367  0.49294710  1
  Ca2+  Ca41  1  0.41971932  0.67146479  0.82807982  1
  Ca2+  Ca42  1  0.92127486  0.16381583  0.15778478  1
  Ca2+  Ca43  1  0.91795612  0.17485759  0.50099075  1
  Ca2+  Ca44  1  0.92070047  0.16563923  0.83084100  1
  Ca2+  Ca45  1  0.91373702  0.68162449  0.16173193  1
  Ca2+  Ca46  1  0.91698178  0.66780951  0.49545228  1
  Ca2+  Ca47  1  0.91440143  0.67131635  0.82838243  1
  Al0+  Al48  1  -0.00041963  0.00092256  -0.00070941  1
  Al0+  Al49  1  -0.00150219  0.00093639  0.33195285  1
  Al0+  Al50  1  0.00027723  0.00048114  0.66726484  1
  Al0+  Al51  1  0.00057804  0.50147894  0.00298037  1
  Al0+  Al52  1  -0.00129071  0.50077348  0.32947367  1
  Al0+  Al53  1  0.00125480  0.50124863  0.66971725  1
  Al0+  Al54  1  0.49820294  -0.00019319  0.00001719  1
  Al0+  Al55  1  0.50034054  -0.00046510  0.33145871  1
  Al0+  Al56  1  0.50105915  -0.00244195  0.66046990  1
  Al0+  Al57  1  0.50018953  0.50226770  -0.00386875  1
  Al0+  Al58  1  0.49874281  0.49884556  0.33602037  1
  Al0+  Al59  1  0.50259844  0.49859901  0.67489264  1
  Al0+  Al60  1  0.24812716  0.25069330  -0.00507065  1
  Al0+  Al61  1  0.24884433  0.24778349  0.33558548  1
  Al0+  Al62  1  0.25223091  0.24791955  0.66682632  1
  Al0+  Al63  1  0.24871997  0.74825141  0.00667805  1
  Al0+  Al64  1  0.24703954  0.74916586  0.33258134  1
  Al0+  Al65  1  0.24827875  0.75032044  0.67156018  1
  Al0+  Al66  1  0.74919541  0.25224431  0.00133398  1
  Al0+  Al67  1  0.75109672  0.24963453  0.33435465  1
  Al0+  Al68  1  0.75448501  0.24961940  0.66307766  1
  Al0+  Al69  1  0.74990675  0.75011591  -0.00551650  1
  Al0+  Al70  1  0.75122968  0.75125382  0.32692639  1
  Al0+  Al71  1  0.75027496  0.75121396  0.66813129  1
  Al0+  Al72  1  0.57349257  0.17864205  0.31648437  1
  Al0+  Al73  1  0.32289531  0.07012232  0.34779605  1
  Al0+  Al74  1  0.42546539  0.82199350  0.31735608  1
  Al0+  Al75  1  0.68021287  0.42690603  0.68387319  1
  Al0+  Al76  1  0.67630468  0.92721284  0.01570765  1
  Al0+  Al77  1  0.31906956  0.56987252  0.34652601  1
  Al0+  Al78  1  0.57051904  0.67953348  0.98386783  1
  Al0+  Al79  1  0.68004909  0.42899376  0.34687977  1
  Al0+  Al80  1  0.17930994  0.92919112  0.01529232  1
  Al0+  Al81  1  0.17884696  0.93056237  0.67987783  1
  Al0+  Al82  1  0.32312077  0.57174573  0.68380045  1
  Al0+  Al83  1  0.92983747  0.82198552  0.31918575  1
  Al0+  Al84  1  0.07027416  0.17966950  0.98586015  1
  Al0+  Al85  1  0.42906707  0.32193712  0.65154977  1
  Al0+  Al86  1  0.42731220  0.81737407  0.65467880  1
  Al0+  Al87  1  0.93136629  0.82007125  0.98380872  1
  Al0+  Al88  1  0.93299251  0.32191775  0.65318758  1
  Al0+  Al89  1  0.42741069  0.32057221  0.31919609  1
  Al0+  Al90  1  0.81913350  0.07260949  0.01520796  1
  Al0+  Al91  1  0.56950501  0.67861220  0.32108258  1
  Al0+  Al92  1  0.82140069  0.57320191  0.68135620  1
  Al0+  Al93  1  0.57359877  0.17792281  0.65092961  1
  Al0+  Al94  1  0.17955756  0.42672069  0.68188245  1
  Al0+  Al95  1  0.57009888  0.17918356  0.98656118  1
  Si0+  Si96  1  0.07286871  0.17530765  0.64869561  1
  Si0+  Si97  1  0.42760378  0.32309870  0.98315185  1
  Si0+  Si98  1  0.92781889  0.32487547  0.98447932  1
  Si0+  Si99  1  0.07332675  0.67636765  0.98214287  1
  Si0+  Si100  1  0.17819869  0.42822416  0.01556761  1
  Si0+  Si101  1  0.32150687  0.56902591  0.01710068  1
  Si0+  Si102  1  0.32479746  0.06999987  0.68352187  1
  Si0+  Si103  1  0.17626292  0.92959760  0.34962728  1
  Si0+  Si104  1  0.06997447  0.67994827  0.65257174  1
  Si0+  Si105  1  0.82266388  0.57380029  0.34764493  1
  Si0+  Si106  1  0.82209684  0.07014829  0.68027984  1
  Si0+  Si107  1  0.67896918  0.92993728  0.67945911  1
  Si0+  Si108  1  0.92907624  0.32201192  0.31804629  1
  Si0+  Si109  1  0.07104905  0.67654625  0.31566446  1
  Si0+  Si110  1  0.82228410  0.07045162  0.35015853  1
  Si0+  Si111  1  0.57404604  0.67826923  0.65104384  1
  Si0+  Si112  1  0.17519040  0.42596491  0.34821052  1
  Si0+  Si113  1  0.32135615  0.07430187  0.01556864  1
  Si0+  Si114  1  0.67998795  0.92739645  0.34840999  1
  Si0+  Si115  1  0.42534044  0.82169714  0.98448270  1
  Si0+  Si116  1  0.06951860  0.17921293  0.31938980  1
  Si0+  Si117  1  0.67843955  0.43107956  0.01606482  1
  Si0+  Si118  1  0.82231813  0.57155148  0.01606967  1
  Si0+  Si119  1  0.92830842  0.82254760  0.65177020  1
  O2-  O120  1  0.25476314  0.00346663  0.06061543  1
  O2-  O121  1  0.25144463  -0.00933273  0.39377182  1
  O2-  O122  1  0.25332461  0.00437109  0.72821709  1
  O2-  O123  1  0.25119043  0.49636544  0.05842296  1
  O2-  O124  1  0.24468853  0.49364526  0.39132116  1
  O2-  O125  1  0.25540669  0.49426226  0.73318916  1
  O2-  O126  1  0.74617540  0.00183626  0.06626043  1
  O2-  O127  1  0.74849903  0.00167579  0.39121479  1
  O2-  O128  1  0.74790321  0.00276477  0.72145757  1
  O2-  O129  1  0.74984740  0.50227244  0.05837283  1
  O2-  O130  1  0.75418108  0.50584383  0.39169993  1
  O2-  O131  1  0.74982617  0.50214144  0.73362835  1
  O2-  O132  1  0.00245690  0.25383614  0.27644979  1
  O2-  O133  1  0.01086904  0.25044456  0.60447965  1
  O2-  O134  1  -0.00501349  0.25454608  0.94095175  1
  O2-  O135  1  0.00351322  0.74655330  0.27219921  1
  O2-  O136  1  -0.00208312  0.75035852  0.60982414  1
  O2-  O137  1  0.00656234  0.74603018  0.93656830  1
  O2-  O138  1  0.49856776  0.24853108  0.26786351  1
  O2-  O139  1  0.50250910  0.25119599  0.60217839  1
  O2-  O140  1  0.49418031  0.25218030  0.94012471  1
  O2-  O141  1  0.49870010  0.75074925  0.26847576  1
  O2-  O142  1  0.49871377  0.73964995  0.60760844  1
  O2-  O143  1  0.49818111  0.75777043  0.93961103  1
  O2-  O144  1  0.07110240  0.18299929  0.09968359  1
  O2-  O145  1  0.06623500  0.17588599  0.42421457  1
  O2-  O146  1  0.06698741  0.17138756  0.75403288  1
  O2-  O147  1  0.07072594  0.67397243  0.08777688  1
  O2-  O148  1  0.06926877  0.67453464  0.42131599  1
  O2-  O149  1  0.06951386  0.68107778  0.75767966  1
  O2-  O150  1  0.56985772  0.18237326  0.09922349  1
  O2-  O151  1  0.57487855  0.18127341  0.42959619  1
  O2-  O152  1  0.57293106  0.17580315  0.76495192  1
  O2-  O153  1  0.56693163  0.67484736  0.09668229  1
  O2-  O154  1  0.57070454  0.68035932  0.43454537  1
  O2-  O155  1  0.57673230  0.68465124  0.75671986  1
  O2-  O156  1  0.17310831  0.42718605  0.24202037  1
  O2-  O157  1  0.17548702  0.43471845  0.56838860  1
  O2-  O158  1  0.17567928  0.42950726  0.91113879  1
  O2-  O159  1  0.17255282  0.93474366  0.24415175  1
  O2-  O160  1  0.17487438  0.93255653  0.56678960  1
  O2-  O161  1  0.18073872  0.92995103  0.90205437  1
  O2-  O162  1  0.68285463  0.42934721  0.23301897  1
  O2-  O163  1  0.68221254  0.42759250  0.57023082  1
  O2-  O164  1  0.67954409  0.43059381  0.91141371  1
  O2-  O165  1  0.68266932  0.92582960  0.24371213  1
  O2-  O166  1  0.68210981  0.92741617  0.57421043  1
  O2-  O167  1  0.67881648  0.92820809  0.90137226  1
  O2-  O168  1  0.42748906  0.32514053  0.08870402  1
  O2-  O169  1  0.42801641  0.32115515  0.43199238  1
  O2-  O170  1  0.43040280  0.31699510  0.76566340  1
  O2-  O171  1  0.42396477  0.81863000  0.08986411  1
  O2-  O172  1  0.42678511  0.81981917  0.43122931  1
  O2-  O173  1  0.42986603  0.81865128  0.76798552  1
  O2-  O174  1  0.93066567  0.32649244  0.09064104  1
  O2-  O175  1  0.93010444  0.32272957  0.42298230  1
  O2-  O176  1  0.93275343  0.31818509  0.76623803  1
  O2-  O177  1  0.93240178  0.81880424  0.09707167  1
  O2-  O178  1  0.93163932  0.82258517  0.43291132  1
  O2-  O179  1  0.92914534  0.82403723  0.75642123  1
  O2-  O180  1  0.31712593  0.07198664  0.23444769  1
  O2-  O181  1  0.32370249  0.06720588  0.57789113  1
  O2-  O182  1  0.31981680  0.07479303  0.91007956  1
  O2-  O183  1  0.31694596  0.56763798  0.23279222  1
  O2-  O184  1  0.31883992  0.57514256  0.57042627  1
  O2-  O185  1  0.32076492  0.56965991  0.91235723  1
  O2-  O186  1  0.82660514  0.07058466  0.24563388  1
  O2-  O187  1  0.82614559  0.06661824  0.57485613  1
  O2-  O188  1  0.81891524  0.07150304  0.90112755  1
  O2-  O189  1  0.82492227  0.57107484  0.24180786  1
  O2-  O190  1  0.82027205  0.57446360  0.56745288  1
  O2-  O191  1  0.82530228  0.56904335  0.91136654  1
  O2-  O192  1  0.03690657  0.08993577  0.26989686  1
  O2-  O193  1  0.03784871  0.08561843  0.59933984  1
  O2-  O194  1  0.03870901  0.08440987  0.93098866  1
  O2-  O195  1  0.04537532  0.58369162  0.26642641  1
  O2-  O196  1  0.04294738  0.58908596  0.60378357  1
  O2-  O197  1  0.04567622  0.58291321  0.93640394  1
  O2-  O198  1  0.54778328  0.07904291  0.26594419  1
  O2-  O199  1  0.54486397  0.07978379  0.59741208  1
  O2-  O200  1  0.54198655  0.08107756  0.93333593  1
  O2-  O201  1  0.53896727  0.58121610  0.26736241  1
  O2-  O202  1  0.55628780  0.58068341  0.61291179  1
  O2-  O203  1  0.53645873  0.58468024  0.92788460  1
  O2-  O204  1  0.16152821  0.20364994  0.27152199  1
  O2-  O205  1  0.16950574  0.19199564  0.60692485  1
  O2-  O206  1  0.16563902  0.20989996  0.92920478  1
  O2-  O207  1  0.16397034  0.70080732  0.26847591  1
  O2-  O208  1  0.16040833  0.71055677  0.60466307  1
  O2-  O209  1  0.16833256  0.70027025  0.93899487  1
  O2-  O210  1  0.67249599  0.20868589  0.26461001  1
  O2-  O211  1  0.67356554  0.20244356  0.59990986  1
  O2-  O212  1  0.66722615  0.21179241  0.93406774  1
  O2-  O213  1  0.66828339  0.70481608  0.26684949  1
  O2-  O214  1  0.66512053  0.71038132  0.60322942  1
  O2-  O215  1  0.66765257  0.70576339  0.92945295  1
  O2-  O216  1  0.08746417  0.45757632  0.06571188  1
  O2-  O217  1  0.08104894  0.45456312  0.39279261  1
  O2-  O218  1  0.08349728  0.46030478  0.73709035  1
  O2-  O219  1  0.08354991  0.96328212  0.06819300  1
  O2-  O220  1  0.08506946  0.96273450  0.39743163  1
  O2-  O221  1  0.08234982  0.96300729  0.73453566  1
  O2-  O222  1  0.58625581  0.46103715  0.06171176  1
  O2-  O223  1  0.58421369  0.45912849  0.40108406  1
  O2-  O224  1  0.58281030  0.45095687  0.74018482  1
  O2-  O225  1  0.57612917  0.95170713  0.06686200  1
  O2-  O226  1  0.58740125  0.95212198  0.39528919  1
  O2-  O227  1  0.58671115  0.95523324  0.72671389  1
  O2-  O228  1  0.20325462  0.33498442  0.06192521  1
  O2-  O229  1  0.19453968  0.33153685  0.39384388  1
  O2-  O230  1  0.19970728  0.32471246  0.73176906  1
  O2-  O231  1  0.20513103  0.83137456  0.07012007  1
  O2-  O232  1  0.19192726  0.83236050  0.39111551  1
  O2-  O233  1  0.20638681  0.83466466  0.73611965  1
  O2-  O234  1  0.70677317  0.34028490  0.06493171  1
  O2-  O235  1  0.71534469  0.33386996  0.40081229  1
  O2-  O236  1  0.71605711  0.32928577  0.73497697  1
  O2-  O237  1  0.70896685  0.82855191  0.06622443  1
  O2-  O238  1  0.71341248  0.83730724  0.39652458  1
  O2-  O239  1  0.70874326  0.83971187  0.72866474  1
  O2-  O240  1  0.45748649  0.41810724  0.26574581  1
  O2-  O241  1  0.45617102  0.42318012  0.60407074  1
  O2-  O242  1  0.45569673  0.41562263  0.93674160  1
  O2-  O243  1  0.45329957  0.92016737  0.26525554  1
  O2-  O244  1  0.46168995  0.91146535  0.59821814  1
  O2-  O245  1  0.44342078  0.91734984  0.94013386  1
  O2-  O246  1  0.95275038  0.41442080  0.26871647  1
  O2-  O247  1  0.96148437  0.41952722  0.59904564  1
  O2-  O248  1  0.95666861  0.41783209  0.93892932  1
  O2-  O249  1  0.96201887  0.91805839  0.26468172  1
  O2-  O250  1  0.95835801  0.91340076  0.60309870  1
  O2-  O251  1  0.96164281  0.91681932  0.93074873  1
  O2-  O252  1  0.32710737  0.29355848  0.26736216  1
  O2-  O253  1  0.32910417  0.29619417  0.59987288  1
  O2-  O254  1  0.33282362  0.30154197  0.93790500  1
  O2-  O255  1  0.32557551  0.79566259  0.26635713  1
  O2-  O256  1  0.32877948  0.79146660  0.60216717  1
  O2-  O257  1  0.33275896  0.78923831  0.93942380  1
  O2-  O258  1  0.83940690  0.29056371  0.26973521  1
  O2-  O259  1  0.83971709  0.28692475  0.59558814  1
  O2-  O260  1  0.83343529  0.30227235  0.94012880  1
  O2-  O261  1  0.83505305  0.79221757  0.26189036  1
  O2-  O262  1  0.83618908  0.79606667  0.60382459  1
  O2-  O263  1  0.83532100  0.78950296  0.92940265  1
  O2-  O264  1  0.41485445  0.05037315  0.06211135  1
  O2-  O265  1  0.42057476  0.04289001  0.40132252  1
  O2-  O266  1  0.41759773  0.03968512  0.72882825  1
  O2-  O267  1  0.41371534  0.54049036  0.06337509  1
  O2-  O268  1  0.41490374  0.54125082  0.40152872  1
  O2-  O269  1  0.42208577  0.54889966  0.73810368  1
  O2-  O270  1  0.91732340  0.04173966  0.06736631  1
  O2-  O271  1  0.91236266  0.03894055  0.39984439  1
  O2-  O272  1  0.91180953  0.03863666  0.72965580  1
  O2-  O273  1  0.91353907  0.54370706  0.06598196  1
  O2-  O274  1  0.91686341  0.54766500  0.39323400  1
  O2-  O275  1  0.91939970  0.54561357  0.73511296  1
  O2-  O276  1  0.29239326  0.16775728  0.06111781  1
  O2-  O277  1  0.28620834  0.16442667  0.40361909  1
  O2-  O278  1  0.30340435  0.16449932  0.72865994  1
  O2-  O279  1  0.29211196  0.65922100  0.06648604  1
  O2-  O280  1  0.28587888  0.66651866  0.40014016  1
  O2-  O281  1  0.28659778  0.66685202  0.73911866  1
  O2-  O282  1  0.79545867  0.17285785  0.06791267  1
  O2-  O283  1  0.79725151  0.16299278  0.39770689  1
  O2-  O284  1  0.80070778  0.16327945  0.72626460  1
  O2-  O285  1  0.79548390  0.66443313  0.06057884  1
  O2-  O286  1  0.80062869  0.66898281  0.39165767  1
  O2-  O287  1  0.79408543  0.67236484  0.73507288  1
