# generated using pymatgen
data_Ca2Al2SiO7
_symmetry_space_group_name_H-M   'P 1'
_cell_length_a   15.46736099
_cell_length_b   15.46552922
_cell_length_c   15.28911771
_cell_angle_alpha   89.98132081
_cell_angle_beta   90.01383296
_cell_angle_gamma   90.00450346
_symmetry_Int_Tables_number   1
_chemical_formula_structural   Ca2Al2SiO7
_chemical_formula_sum   'Ca48 Al48 Si24 O168'
_cell_volume   3657.32365336
_cell_formula_units_Z   24
loop_
 _symmetry_equiv_pos_site_id
 _symmetry_equiv_pos_as_xyz
  1  'x, y, z'
loop_
 _atom_type_symbol
 _atom_type_oxidation_number
  Ca2+  2.0
  Al0+  0.0
  Si0+  0.0
  O2-  -2.0
loop_
 _atom_site_type_symbol
 _atom_site_label
 _atom_site_symmetry_multiplicity
 _atom_site_fract_x
 _atom_site_fract_y
 _atom_site_fract_z
 _atom_site_occupancy
  Ca2+  Ca0  1  0.17079602  0.08243405  0.17634478  1
  Ca2+  Ca1  1  0.15615067  0.08309511  0.50242693  1
  Ca2+  Ca2  1  0.17068075  0.08635067  0.83851412  1
  Ca2+  Ca3  1  0.15865227  0.57172019  0.16987878  1
  Ca2+  Ca4  1  0.16682531  0.57134686  0.51073851  1
  Ca2+  Ca5  1  0.15328610  0.57286022  0.83417222  1
  Ca2+  Ca6  1  0.67337497  0.08715027  0.16762922  1
  Ca2+  Ca7  1  0.67009182  0.08482713  0.50520088  1
  Ca2+  Ca8  1  0.66758497  0.07564681  0.84176140  1
  Ca2+  Ca9  1  0.68145438  0.58366282  0.17233996  1
  Ca2+  Ca10  1  0.67687173  0.58276495  0.50979887  1
  Ca2+  Ca11  1  0.67860572  0.58823592  0.83469473  1
  Ca2+  Ca12  1  0.08145578  0.33653215  0.16798562  1
  Ca2+  Ca13  1  0.07937016  0.33072279  0.49800595  1
  Ca2+  Ca14  1  0.08210008  0.33085247  0.82498409  1
  Ca2+  Ca15  1  0.08391248  0.82692366  0.16091337  1
  Ca2+  Ca16  1  0.07992974  0.82978510  0.49795945  1
  Ca2+  Ca17  1  0.07472645  0.81988818  0.82320904  1
  Ca2+  Ca18  1  0.58565493  0.32022071  0.16204556  1
  Ca2+  Ca19  1  0.58581756  0.32220165  0.49448349  1
  Ca2+  Ca20  1  0.58550777  0.31935156  0.82727021  1
  Ca2+  Ca21  1  0.58477860  0.83685990  0.16175883  1
  Ca2+  Ca22  1  0.58901348  0.82953582  0.50448903  1
  Ca2+  Ca23  1  0.58743660  0.83350080  0.82498758  1
  Ca2+  Ca24  1  0.31978131  0.41314556  0.17061870  1
  Ca2+  Ca25  1  0.32135149  0.41684086  0.50890678  1
  Ca2+  Ca26  1  0.32122967  0.42054388  0.83460806  1
  Ca2+  Ca27  1  0.32690063  0.92266758  0.16853576  1
  Ca2+  Ca28  1  0.32487811  0.91714956  0.50017443  1
  Ca2+  Ca29  1  0.33173343  0.92303503  0.83743135  1
  Ca2+  Ca30  1  0.84094655  0.42698271  0.17228965  1
  Ca2+  Ca31  1  0.84615351  0.42453364  0.50271602  1
  Ca2+  Ca32  1  0.84416086  0.42715728  0.83225860  1
  Ca2+  Ca33  1  0.83173810  0.93119689  0.16839670  1
  Ca2+  Ca34  1  0.83211890  0.92437340  0.50707586  1
  Ca2+  Ca35  1  0.82512559  0.91851965  0.83610457  1
  Ca2+  Ca36  1  0.42605202  0.16028208  0.15998684  1
  Ca2+  Ca37  1  0.42947272  0.16368073  0.49788330  1
  Ca2+  Ca38  1  0.42554397  0.16066566  0.83018260  1
  Ca2+  Ca39  1  0.41756672  0.67074823  0.16203742  1
  Ca2+  Ca40  1  0.42246477  0.65726451  0.50142836  1
  Ca2+  Ca41  1  0.42376204  0.66578977  0.82299236  1
  Ca2+  Ca42  1  0.91550454  0.16839192  0.16648371  1
  Ca2+  Ca43  1  0.92129184  0.17973848  0.49070411  1
  Ca2+  Ca44  1  0.91912411  0.17386427  0.82318256  1
  Ca2+  Ca45  1  0.91880668  0.66382977  0.15998743  1
  Ca2+  Ca46  1  0.91296465  0.66924632  0.50247766  1
  Ca2+  Ca47  1  0.92021769  0.66653821  0.82491388  1
  Al0+  Al48  1  -0.00133696  -0.00111362  0.00164575  1
  Al0+  Al49  1  -0.00117744  -0.00045500  0.33696580  1
  Al0+  Al50  1  -0.00061712  -0.00146703  0.66446629  1
  Al0+  Al51  1  0.00027442  0.49909548  0.00442858  1
  Al0+  Al52  1  0.00180242  0.50093852  0.33922458  1
  Al0+  Al53  1  0.00069756  0.50007780  0.66811659  1
  Al0+  Al54  1  0.49811525  -0.00111951  0.00322648  1
  Al0+  Al55  1  0.49877840  -0.00265739  0.32909523  1
  Al0+  Al56  1  0.49995962  -0.00138544  0.66432238  1
  Al0+  Al57  1  0.49836906  0.49950524  -0.00014080  1
  Al0+  Al58  1  0.50203142  0.50029259  0.32854961  1
  Al0+  Al59  1  0.49940218  0.49867636  0.66670893  1
  Al0+  Al60  1  0.25015296  0.25100843  0.00875041  1
  Al0+  Al61  1  0.25204122  0.24958903  0.33632760  1
  Al0+  Al62  1  0.25160233  0.24934070  0.66770352  1
  Al0+  Al63  1  0.25081994  0.74776711  -0.00676131  1
  Al0+  Al64  1  0.25145500  0.75136923  0.33568032  1
  Al0+  Al65  1  0.25142857  0.75149680  0.66676503  1
  Al0+  Al66  1  0.74960202  0.25084296  -0.00379409  1
  Al0+  Al67  1  0.75038653  0.25179718  0.32738619  1
  Al0+  Al68  1  0.75130962  0.25129989  0.65825812  1
  Al0+  Al69  1  0.74952344  0.75061514  0.00874050  1
  Al0+  Al70  1  0.75089920  0.75102710  0.33520729  1
  Al0+  Al71  1  0.74828613  0.75072625  0.66611905  1
  Al0+  Al72  1  0.81879314  0.56963111  0.68054000  1
  Al0+  Al73  1  0.67852361  0.92966062  0.01573039  1
  Al0+  Al74  1  0.32306064  0.57285918  0.68207424  1
  Al0+  Al75  1  0.07138059  0.17735873  0.31693180  1
  Al0+  Al76  1  0.92960162  0.32182959  0.65199567  1
  Al0+  Al77  1  0.06900766  0.67823604  0.98704989  1
  Al0+  Al78  1  0.56938882  0.17935793  0.98437389  1
  Al0+  Al79  1  0.17987427  0.43067964  0.01582029  1
  Al0+  Al80  1  0.67959615  0.93198696  0.67885103  1
  Al0+  Al81  1  0.82273739  0.07463842  0.01337938  1
  Al0+  Al82  1  0.57020777  0.17819789  0.31731043  1
  Al0+  Al83  1  0.92653421  0.82008906  0.65143391  1
  Al0+  Al84  1  0.93161720  0.32364951  0.31534765  1
  Al0+  Al85  1  0.57093900  0.17738071  0.65328191  1
  Al0+  Al86  1  0.56964994  0.67812090  0.65437289  1
  Al0+  Al87  1  0.82073149  0.57163594  0.34960317  1
  Al0+  Al88  1  0.18121576  0.42863527  0.34977329  1
  Al0+  Al89  1  0.17951185  0.42905049  0.68375984  1
  Al0+  Al90  1  0.31858876  0.06985839  0.01320405  1
  Al0+  Al91  1  0.17859071  0.92904834  0.34665759  1
  Al0+  Al92  1  0.07398486  0.17812464  0.65446644  1
  Al0+  Al93  1  0.07212576  0.67908115  0.65013481  1
  Al0+  Al94  1  0.81925000  0.56875699  0.01355241  1
  Al0+  Al95  1  0.81904209  0.07308277  0.34823662  1
  Si0+  Si96  1  0.07259630  0.17768267  0.98833898  1
  Si0+  Si97  1  0.93033624  0.32075566  0.98562804  1
  Si0+  Si98  1  0.42930580  0.81990998  0.98386824  1
  Si0+  Si99  1  0.42512278  0.32232965  0.98273813  1
  Si0+  Si100  1  0.57214584  0.67889439  0.98663474  1
  Si0+  Si101  1  0.67645195  0.92888150  0.35127831  1
  Si0+  Si102  1  0.32465083  0.57337886  0.01745045  1
  Si0+  Si103  1  0.32084749  0.06864249  0.68016871  1
  Si0+  Si104  1  0.92751567  0.82129035  0.31673876  1
  Si0+  Si105  1  0.57282409  0.67954842  0.31690306  1
  Si0+  Si106  1  0.07195419  0.68151706  0.31963495  1
  Si0+  Si107  1  0.67616358  0.42506143  0.68247116  1
  Si0+  Si108  1  0.17785253  0.92526416  0.01333781  1
  Si0+  Si109  1  0.32332304  0.07070572  0.35109785  1
  Si0+  Si110  1  0.42886064  0.32068387  0.65067672  1
  Si0+  Si111  1  0.42861352  0.32344935  0.31572552  1
  Si0+  Si112  1  0.42780578  0.82362942  0.64849527  1
  Si0+  Si113  1  0.67456655  0.42759892  0.01555627  1
  Si0+  Si114  1  0.32425409  0.57290574  0.34818281  1
  Si0+  Si115  1  0.92599467  0.82285978  0.98457175  1
  Si0+  Si116  1  0.67700155  0.42927357  0.34886712  1
  Si0+  Si117  1  0.82259363  0.07412489  0.68152743  1
  Si0+  Si118  1  0.17622270  0.92813520  0.68295226  1
  Si0+  Si119  1  0.42774487  0.81891992  0.31608493  1
  O2-  O120  1  0.24060648  -0.00174899  0.05937849  1
  O2-  O121  1  0.24851405  0.00844927  0.39453152  1
  O2-  O122  1  0.24564661  0.00205876  0.72316772  1
  O2-  O123  1  0.25500178  0.50633251  0.06165932  1
  O2-  O124  1  0.25894451  0.50233578  0.39254241  1
  O2-  O125  1  0.24750160  0.50579923  0.73356947  1
  O2-  O126  1  0.74956031  0.00325822  0.06372185  1
  O2-  O127  1  0.74175626  0.00034893  0.39456936  1
  O2-  O128  1  0.75229130  0.00756882  0.72639177  1
  O2-  O129  1  0.74268835  0.49623203  0.06073077  1
  O2-  O130  1  0.74601333  0.49626297  0.39435936  1
  O2-  O131  1  0.74475553  0.49368929  0.72713901  1
  O2-  O132  1  0.00161826  0.24991853  0.26406421  1
  O2-  O133  1  0.00048672  0.24770108  0.60430721  1
  O2-  O134  1  -0.00252687  0.24431118  0.94635795  1
  O2-  O135  1  -0.00045438  0.75041786  0.27546948  1
  O2-  O136  1  0.00040237  0.75079298  0.59928432  1
  O2-  O137  1  -0.00428105  0.75480000  0.94152479  1
  O2-  O138  1  0.49523509  0.25320856  0.27072782  1
  O2-  O139  1  0.50005014  0.25512658  0.60572430  1
  O2-  O140  1  0.49502321  0.25512739  0.93793486  1
  O2-  O141  1  0.50045947  0.74916162  0.27416000  1
  O2-  O142  1  0.49153301  0.74914107  0.60615693  1
  O2-  O143  1  0.50108982  0.74921906  0.94341935  1
  O2-  O144  1  0.07433031  0.17800472  0.09297961  1
  O2-  O145  1  0.06858507  0.17794328  0.42999362  1
  O2-  O146  1  0.07410253  0.17892851  0.76916518  1
  O2-  O147  1  0.06857842  0.67998316  0.10102074  1
  O2-  O148  1  0.07388931  0.68420578  0.42400024  1
  O2-  O149  1  0.06836035  0.68017255  0.76415146  1
  O2-  O150  1  0.56780214  0.18053420  0.09749711  1
  O2-  O151  1  0.56752300  0.17786191  0.43056516  1
  O2-  O152  1  0.56763081  0.17568812  0.76636112  1
  O2-  O153  1  0.56979609  0.68002181  0.09213977  1
  O2-  O154  1  0.57180379  0.67917767  0.42161039  1
  O2-  O155  1  0.57069633  0.68194995  0.76779959  1
  O2-  O156  1  0.18133167  0.43224582  0.23618754  1
  O2-  O157  1  0.18308601  0.42754247  0.57046849  1
  O2-  O158  1  0.17938498  0.42948880  0.90344310  1
  O2-  O159  1  0.18404236  0.92470390  0.23328649  1
  O2-  O160  1  0.17821898  0.92670215  0.57791752  1
  O2-  O161  1  0.18088314  0.92559354  0.90782587  1
  O2-  O162  1  0.67424618  0.43390957  0.24306091  1
  O2-  O163  1  0.67353737  0.42674137  0.57693321  1
  O2-  O164  1  0.67294630  0.42889456  0.91021776  1
  O2-  O165  1  0.67723676  0.92697846  0.24572238  1
  O2-  O166  1  0.67849435  0.93371398  0.56575273  1
  O2-  O167  1  0.67864851  0.92834752  0.90217566  1
  O2-  O168  1  0.42626604  0.32173764  0.08841812  1
  O2-  O169  1  0.43201884  0.32508573  0.42112976  1
  O2-  O170  1  0.42822620  0.31751924  0.75630921  1
  O2-  O171  1  0.42664084  0.81795458  0.08929856  1
  O2-  O172  1  0.42568914  0.81950068  0.42058204  1
  O2-  O173  1  0.43031357  0.82825747  0.75418297  1
  O2-  O174  1  0.93186574  0.32409412  0.09041798  1
  O2-  O175  1  0.93369386  0.32451178  0.42822964  1
  O2-  O176  1  0.92931623  0.32013048  0.76653142  1
  O2-  O177  1  0.92787847  0.82315532  0.09055432  1
  O2-  O178  1  0.92558922  0.82004272  0.42138761  1
  O2-  O179  1  0.92801094  0.82007756  0.76553812  1
  O2-  O180  1  0.32521613  0.06634379  0.24535072  1
  O2-  O181  1  0.32403238  0.06540474  0.57530476  1
  O2-  O182  1  0.31847664  0.06770143  0.89967032  1
  O2-  O183  1  0.32329096  0.57516257  0.24228638  1
  O2-  O184  1  0.32472099  0.56759520  0.56814394  1
  O2-  O185  1  0.32961150  0.57286622  0.91281642  1
  O2-  O186  1  0.81826319  0.07025754  0.23502739  1
  O2-  O187  1  0.82083167  0.07269549  0.57601681  1
  O2-  O188  1  0.82269403  0.07480541  0.89983939  1
  O2-  O189  1  0.81907938  0.57276080  0.23600969  1
  O2-  O190  1  0.81637263  0.56999483  0.56767446  1
  O2-  O191  1  0.81903792  0.56905094  0.90076746  1
  O2-  O192  1  0.04410477  0.07700563  0.26624386  1
  O2-  O193  1  0.05030315  0.07798125  0.60424107  1
  O2-  O194  1  0.05135122  0.08323455  0.94225039  1
  O2-  O195  1  0.04377733  0.58930609  0.27405166  1
  O2-  O196  1  0.04457306  0.58032875  0.60011608  1
  O2-  O197  1  0.03469613  0.58219321  0.93484263  1
  O2-  O198  1  0.53811643  0.08102024  0.26438966  1
  O2-  O199  1  0.53457817  0.08354731  0.59753245  1
  O2-  O200  1  0.53463892  0.08204256  0.93399065  1
  O2-  O201  1  0.54741433  0.58783829  0.26733152  1
  O2-  O202  1  0.54215093  0.58074926  0.59924287  1
  O2-  O203  1  0.54585353  0.58624551  0.94036629  1
  O2-  O204  1  0.17386231  0.20230611  0.26943237  1
  O2-  O205  1  0.17280644  0.20431780  0.60118275  1
  O2-  O206  1  0.16394870  0.20947281  0.94212296  1
  O2-  O207  1  0.16378785  0.71067717  0.27180073  1
  O2-  O208  1  0.17188104  0.70733332  0.59992836  1
  O2-  O209  1  0.16663304  0.70451236  0.93260145  1
  O2-  O210  1  0.66532135  0.21071997  0.26214453  1
  O2-  O211  1  0.66679396  0.20570104  0.59781899  1
  O2-  O212  1  0.66594356  0.20987303  0.92992927  1
  O2-  O213  1  0.66367433  0.71074846  0.26922198  1
  O2-  O214  1  0.66285050  0.71361909  0.59770257  1
  O2-  O215  1  0.66454092  0.70753759  0.94156076  1
  O2-  O216  1  0.08522584  0.46405824  0.07181160  1
  O2-  O217  1  0.08710817  0.46329166  0.40386688  1
  O2-  O218  1  0.08092431  0.45589716  0.73686082  1
  O2-  O219  1  0.08234079  0.94335156  0.05766291  1
  O2-  O220  1  0.08136877  0.95309399  0.40120278  1
  O2-  O221  1  0.08424003  0.95263088  0.73143851  1
  O2-  O222  1  0.58072061  0.45135023  0.06292959  1
  O2-  O223  1  0.58322121  0.45554441  0.39501790  1
  O2-  O224  1  0.58256489  0.44825521  0.72917617  1
  O2-  O225  1  0.57953381  0.95545123  0.06859956  1
  O2-  O226  1  0.58020473  0.94917915  0.39393441  1
  O2-  O227  1  0.58178255  0.96038228  0.73253772  1
  O2-  O228  1  0.21108492  0.33587427  0.07298772  1
  O2-  O229  1  0.21121114  0.33159618  0.40296825  1
  O2-  O230  1  0.21306814  0.33108857  0.73645351  1
  O2-  O231  1  0.21011409  0.83321313  0.05940351  1
  O2-  O232  1  0.21694130  0.83550661  0.40282926  1
  O2-  O233  1  0.20756426  0.83815789  0.73176036  1
  O2-  O234  1  0.70155193  0.33417352  0.06030460  1
  O2-  O235  1  0.69979455  0.33432781  0.39157518  1
  O2-  O236  1  0.70302981  0.33092521  0.72727695  1
  O2-  O237  1  0.70552026  0.83247119  0.07245885  1
  O2-  O238  1  0.70534381  0.83604839  0.39686360  1
  O2-  O239  1  0.70962008  0.83551482  0.73290039  1
  O2-  O240  1  0.45376640  0.41674334  0.26694641  1
  O2-  O241  1  0.45047797  0.41474122  0.60458815  1
  O2-  O242  1  0.44826098  0.41731429  0.93785882  1
  O2-  O243  1  0.45484551  0.90998389  0.26640930  1
  O2-  O244  1  0.45981229  0.91298466  0.59769993  1
  O2-  O245  1  0.45654006  0.91171539  0.93694598  1
  O2-  O246  1  0.96420150  0.42294267  0.26440103  1
  O2-  O247  1  0.95974524  0.41932119  0.60018223  1
  O2-  O248  1  0.96426667  0.41042689  0.93814915  1
  O2-  O249  1  0.95621209  0.91253268  0.26958534  1
  O2-  O250  1  0.95401374  0.91875923  0.59896867  1
  O2-  O251  1  0.94905665  0.91693513  0.93778418  1
  O2-  O252  1  0.33445326  0.29843940  0.27125043  1
  O2-  O253  1  0.33778729  0.29030788  0.60266940  1
  O2-  O254  1  0.33159921  0.29420666  0.93833816  1
  O2-  O255  1  0.33754666  0.78876287  0.26579307  1
  O2-  O256  1  0.33270785  0.80440928  0.60360694  1
  O2-  O257  1  0.33877207  0.79324137  0.93314338  1
  O2-  O258  1  0.83140109  0.29988092  0.26341967  1
  O2-  O259  1  0.83142300  0.29884308  0.59579237  1
  O2-  O260  1  0.83732910  0.29954273  0.93779392  1
  O2-  O261  1  0.83601226  0.79214485  0.26874517  1
  O2-  O262  1  0.82978885  0.79027343  0.59682896  1
  O2-  O263  1  0.83175390  0.79500683  0.94160433  1
  O2-  O264  1  0.41191472  0.03364927  0.06953331  1
  O2-  O265  1  0.41408559  0.03542158  0.39766330  1
  O2-  O266  1  0.41011619  0.03469678  0.72926387  1
  O2-  O267  1  0.41786324  0.54818174  0.06622529  1
  O2-  O268  1  0.42031910  0.54985315  0.39064166  1
  O2-  O269  1  0.42080566  0.54164659  0.73610093  1
  O2-  O270  1  0.92064306  0.04474678  0.06849178  1
  O2-  O271  1  0.91419597  0.03945533  0.40187256  1
  O2-  O272  1  0.91569946  0.04686751  0.72785601  1
  O2-  O273  1  0.91388095  0.53541132  0.06936003  1
  O2-  O274  1  0.91746426  0.54332980  0.40267220  1
  O2-  O275  1  0.91540059  0.53994421  0.73470728  1
  O2-  O276  1  0.29333470  0.16582029  0.07004083  1
  O2-  O277  1  0.30814869  0.16665961  0.39487812  1
  O2-  O278  1  0.29862833  0.16114521  0.72819342  1
  O2-  O279  1  0.29957361  0.66840728  0.06137681  1
  O2-  O280  1  0.29908824  0.66588310  0.39473708  1
  O2-  O281  1  0.30467355  0.67546800  0.73076355  1
  O2-  O282  1  0.79408543  0.17340184  0.06549092  1
  O2-  O283  1  0.78950740  0.17144626  0.39866548  1
  O2-  O284  1  0.79881763  0.16939221  0.72443070  1
  O2-  O285  1  0.79029357  0.66457949  0.07030636  1
  O2-  O286  1  0.78735249  0.66813610  0.40193193  1
  O2-  O287  1  0.78496923  0.66543198  0.73399696  1
