# generated using pymatgen
data_Ca2Al2SiO7
_symmetry_space_group_name_H-M   'P 1'
_cell_length_a   15.46015582
_cell_length_b   15.46110938
_cell_length_c   15.28529041
_cell_angle_alpha   89.99673035
_cell_angle_beta   89.99161485
_cell_angle_gamma   90.00830038
_symmetry_Int_Tables_number   1
_chemical_formula_structural   Ca2Al2SiO7
_chemical_formula_sum   'Ca48 Al48 Si24 O168'
_cell_volume   3653.66061725
_cell_formula_units_Z   24
loop_
 _symmetry_equiv_pos_site_id
 _symmetry_equiv_pos_as_xyz
  1  'x, y, z'
loop_
 _atom_type_symbol
 _atom_type_oxidation_number
  Ca2+  2.0
  Al0+  0.0
  Si0+  0.0
  O2-  -2.0
loop_
 _atom_site_type_symbol
 _atom_site_label
 _atom_site_symmetry_multiplicity
 _atom_site_fract_x
 _atom_site_fract_y
 _atom_site_fract_z
 _atom_site_occupancy
  Ca2+  Ca0  1  0.17456700  0.08474298  0.16686105  1
  Ca2+  Ca1  1  0.17747104  0.07737706  0.50831546  1
  Ca2+  Ca2  1  0.17536642  0.07367867  0.84292295  1
  Ca2+  Ca3  1  0.16823421  0.59438852  0.16567967  1
  Ca2+  Ca4  1  0.16798089  0.58543556  0.50308994  1
  Ca2+  Ca5  1  0.17560671  0.58635972  0.84021606  1
  Ca2+  Ca6  1  0.66709793  0.08626696  0.17316868  1
  Ca2+  Ca7  1  0.67695844  0.08298675  0.50203332  1
  Ca2+  Ca8  1  0.66980212  0.08197298  0.83315213  1
  Ca2+  Ca9  1  0.67429374  0.57465611  0.17728847  1
  Ca2+  Ca10  1  0.67120817  0.57266776  0.50250735  1
  Ca2+  Ca11  1  0.66124693  0.57581917  0.83625046  1
  Ca2+  Ca12  1  0.07671835  0.32728399  0.16244883  1
  Ca2+  Ca13  1  0.07416418  0.33025024  0.49158611  1
  Ca2+  Ca14  1  0.08892140  0.32262771  0.83362401  1
  Ca2+  Ca15  1  0.07413598  0.82916833  0.15988617  1
  Ca2+  Ca16  1  0.08095344  0.83024499  0.49344053  1
  Ca2+  Ca17  1  0.08790063  0.83698443  0.83349426  1
  Ca2+  Ca18  1  0.58307149  0.32190006  0.16210472  1
  Ca2+  Ca19  1  0.58768022  0.32951594  0.49331250  1
  Ca2+  Ca20  1  0.57928758  0.32913520  0.83375006  1
  Ca2+  Ca21  1  0.57529990  0.83333683  0.15874526  1
  Ca2+  Ca22  1  0.57755107  0.84450120  0.50193709  1
  Ca2+  Ca23  1  0.56969626  0.83806962  0.82684977  1
  Ca2+  Ca24  1  0.33554294  0.41799249  0.16462941  1
  Ca2+  Ca25  1  0.33155081  0.42483827  0.50633247  1
  Ca2+  Ca26  1  0.34153070  0.42894556  0.84084798  1
  Ca2+  Ca27  1  0.33075596  0.92426790  0.16626056  1
  Ca2+  Ca28  1  0.32965147  0.92539106  0.50920305  1
  Ca2+  Ca29  1  0.32668959  0.91816867  0.84102340  1
  Ca2+  Ca30  1  0.83029841  0.42017735  0.17971541  1
  Ca2+  Ca31  1  0.82435437  0.41370327  0.49949975  1
  Ca2+  Ca32  1  0.82613035  0.41573677  0.83485021  1
  Ca2+  Ca33  1  0.83724423  0.91896198  0.17234561  1
  Ca2+  Ca34  1  0.83294190  0.92550812  0.50562953  1
  Ca2+  Ca35  1  0.82936188  0.91553606  0.83575931  1
  Ca2+  Ca36  1  0.42450323  0.16554921  0.15742723  1
  Ca2+  Ca37  1  0.42245253  0.16027133  0.49240148  1
  Ca2+  Ca38  1  0.41715587  0.16174753  0.83143399  1
  Ca2+  Ca39  1  0.41657812  0.67217293  0.15706636  1
  Ca2+  Ca40  1  0.41354730  0.67289688  0.50176156  1
  Ca2+  Ca41  1  0.40366323  0.67766846  0.83036421  1
  Ca2+  Ca42  1  0.91556807  0.17117181  0.16290746  1
  Ca2+  Ca43  1  0.91115300  0.16712301  0.49225230  1
  Ca2+  Ca44  1  0.92423052  0.15809444  0.83154392  1
  Ca2+  Ca45  1  0.92378651  0.67193929  0.16107016  1
  Ca2+  Ca46  1  0.92162668  0.67390766  0.48508768  1
  Ca2+  Ca47  1  0.92318596  0.67325781  0.83351821  1
  Al0+  Al48  1  -0.00161826  0.00093390  -0.00279228  1
  Al0+  Al49  1  0.00190613  -0.00112948  0.33404152  1
  Al0+  Al50  1  0.00174361  -0.00022755  0.67020571  1
  Al0+  Al51  1  -0.00091554  0.50135926  -0.00513122  1
  Al0+  Al52  1  0.00173374  0.49988593  0.32891761  1
  Al0+  Al53  1  -0.00085537  0.49875021  0.66553227  1
  Al0+  Al54  1  0.50198711  -0.00098006  -0.00457715  1
  Al0+  Al55  1  0.49954929  0.00146860  0.33169009  1
  Al0+  Al56  1  0.50238632  0.00115289  0.66570090  1
  Al0+  Al57  1  0.50089137  0.49763579  0.00452471  1
  Al0+  Al58  1  0.49850833  0.50050956  0.33751242  1
  Al0+  Al59  1  0.50068903  0.50008418  0.67257738  1
  Al0+  Al60  1  0.24969394  0.25299760  -0.00356020  1
  Al0+  Al61  1  0.25131015  0.25233193  0.33885780  1
  Al0+  Al62  1  0.24998238  0.25091338  0.66577456  1
  Al0+  Al63  1  0.24883822  0.74967098  0.00332766  1
  Al0+  Al64  1  0.25005288  0.75118287  0.33056638  1
  Al0+  Al65  1  0.25043597  0.74978928  0.66590452  1
  Al0+  Al66  1  0.74802958  0.24955379  -0.00433996  1
  Al0+  Al67  1  0.74909111  0.24805315  0.33184529  1
  Al0+  Al68  1  0.74992223  0.25158435  0.67538964  1
  Al0+  Al69  1  0.75066704  0.74902263  -0.00306834  1
  Al0+  Al70  1  0.74741613  0.74958336  0.33456848  1
  Al0+  Al71  1  0.75063371  0.74854193  0.66790924  1
  Al0+  Al72  1  0.32289269  0.07338344  0.68160571  1
  Al0+  Al73  1  0.92623385  0.82312254  0.31997651  1
  Al0+  Al74  1  0.82189369  0.06852450  0.34323817  1
  Al0+  Al75  1  0.82132983  0.07142322  0.68298313  1
  Al0+  Al76  1  0.42912843  0.32167169  0.98523515  1
  Al0+  Al77  1  0.42964036  0.81920425  0.98761082  1
  Al0+  Al78  1  0.56909107  0.18023389  0.32118780  1
  Al0+  Al79  1  0.07081836  0.67952450  0.98186693  1
  Al0+  Al80  1  0.92747178  0.82233727  0.98236981  1
  Al0+  Al81  1  0.32002136  0.57006049  0.01571327  1
  Al0+  Al82  1  0.92890110  0.31813766  0.32119796  1
  Al0+  Al83  1  0.32280649  0.07249716  0.01536215  1
  Al0+  Al84  1  0.67910762  0.42790489  0.34749951  1
  Al0+  Al85  1  0.18057658  0.92857563  0.68127105  1
  Al0+  Al86  1  0.82344814  0.57227521  0.34729746  1
  Al0+  Al87  1  0.42960841  0.82104559  0.65142160  1
  Al0+  Al88  1  0.57143147  0.17763102  0.98150814  1
  Al0+  Al89  1  0.67978452  0.43031601  0.68306250  1
  Al0+  Al90  1  0.07066143  0.17994190  0.98736120  1
  Al0+  Al91  1  0.07198767  0.67886612  0.31777069  1
  Al0+  Al92  1  0.17667114  0.92913234  0.01852615  1
  Al0+  Al93  1  0.31869983  0.56900990  0.67941643  1
  Al0+  Al94  1  0.67981147  0.92699919  0.68175538  1
  Al0+  Al95  1  0.32157524  0.07206420  0.34660651  1
  Si0+  Si96  1  0.57199084  0.18125878  0.64997049  1
  Si0+  Si97  1  0.57307216  0.67582385  0.64925112  1
  Si0+  Si98  1  0.82444744  0.57203469  0.68436584  1
  Si0+  Si99  1  0.67554343  0.92664760  0.34766349  1
  Si0+  Si100  1  0.07010166  0.67841884  0.65106320  1
  Si0+  Si101  1  0.81946788  0.07159522  0.01556583  1
  Si0+  Si102  1  0.92801083  0.82119178  0.65068399  1
  Si0+  Si103  1  0.17479052  0.42825033  0.01732138  1
  Si0+  Si104  1  0.18016911  0.92778115  0.35000577  1
  Si0+  Si105  1  0.07135242  0.17837665  0.65011387  1
  Si0+  Si106  1  0.42936844  0.32329231  0.65070261  1
  Si0+  Si107  1  0.32047405  0.57310630  0.34889900  1
  Si0+  Si108  1  0.56955898  0.67562146  0.31972836  1
  Si0+  Si109  1  0.67986869  0.92735885  0.01484252  1
  Si0+  Si110  1  0.42597187  0.32505681  0.31852948  1
  Si0+  Si111  1  0.57236010  0.67665044  0.98517336  1
  Si0+  Si112  1  0.68040125  0.42802535  0.01753084  1
  Si0+  Si113  1  0.43074102  0.82066126  0.31828645  1
  Si0+  Si114  1  0.92848876  0.32002430  0.65156625  1
  Si0+  Si115  1  0.92664588  0.32253759  0.98199529  1
  Si0+  Si116  1  0.17893366  0.42850833  0.34831989  1
  Si0+  Si117  1  0.07529899  0.17792471  0.31909688  1
  Si0+  Si118  1  0.82114272  0.57072043  0.01460760  1
  Si0+  Si119  1  0.17509172  0.42779420  0.68288467  1
  O2-  O120  1  0.24946895  0.00212916  0.06662921  1
  O2-  O121  1  0.24600959  -0.00087152  0.39399265  1
  O2-  O122  1  0.25294011  -0.00000585  0.73095766  1
  O2-  O123  1  0.24365067  0.49662900  0.06244708  1
  O2-  O124  1  0.24874024  0.50184689  0.38944222  1
  O2-  O125  1  0.24510485  0.49415945  0.72713660  1
  O2-  O126  1  0.74985022  -0.00089439  0.05751251  1
  O2-  O127  1  0.75104763  -0.01053018  0.38914465  1
  O2-  O128  1  0.75223489  -0.00277882  0.73369478  1
  O2-  O129  1  0.75229812  0.49840836  0.05816936  1
  O2-  O130  1  0.75171620  0.49978869  0.39768420  1
  O2-  O131  1  0.75292798  0.50685563  0.72977731  1
  O2-  O132  1  0.00257213  0.24237292  0.27472811  1
  O2-  O133  1  -0.00122423  0.24855996  0.60855046  1
  O2-  O134  1  -0.00380560  0.25485214  0.93826060  1
  O2-  O135  1  -0.00447979  0.74788850  0.27079442  1
  O2-  O136  1  -0.00175223  0.74868316  0.60923206  1
  O2-  O137  1  0.00271873  0.75448073  0.93088692  1
  O2-  O138  1  0.49363183  0.25505771  0.27618522  1
  O2-  O139  1  0.49698668  0.24917251  0.60811052  1
  O2-  O140  1  0.49485577  0.24554856  0.93229273  1
  O2-  O141  1  0.50166811  0.74905549  0.27688087  1
  O2-  O142  1  0.50767075  0.74805536  0.60458430  1
  O2-  O143  1  0.50244891  0.74269717  0.94011965  1
  O2-  O144  1  0.06765313  0.18273219  0.10082766  1
  O2-  O145  1  0.07618527  0.18208251  0.42501690  1
  O2-  O146  1  0.07169368  0.18077275  0.75502294  1
  O2-  O147  1  0.06596360  0.67747245  0.09505029  1
  O2-  O148  1  0.07509207  0.68161621  0.43218072  1
  O2-  O149  1  0.06902422  0.67608622  0.75556979  1
  O2-  O150  1  0.57599361  0.18080523  0.09523847  1
  O2-  O151  1  0.56915134  0.18037531  0.43462547  1
  O2-  O152  1  0.57315030  0.18324610  0.75471833  1
  O2-  O153  1  0.57323393  0.67909405  0.09130358  1
  O2-  O154  1  0.56633733  0.67195844  0.42451099  1
  O2-  O155  1  0.57166065  0.67383529  0.75469916  1
  O2-  O156  1  0.18066871  0.42315892  0.24390785  1
  O2-  O157  1  0.17372075  0.42948754  0.57679921  1
  O2-  O158  1  0.17343195  0.42978847  0.91163121  1
  O2-  O159  1  0.18211794  0.92642549  0.24500925  1
  O2-  O160  1  0.18002725  0.92999928  0.56699597  1
  O2-  O161  1  0.17940092  0.93019116  0.90496804  1
  O2-  O162  1  0.67947508  0.43007941  0.23387120  1
  O2-  O163  1  0.68131385  0.42893405  0.57015419  1
  O2-  O164  1  0.68089010  0.42954269  0.91217295  1
  O2-  O165  1  0.67081399  0.92837236  0.24202372  1
  O2-  O166  1  0.68165859  0.92980421  0.56764034  1
  O2-  O167  1  0.68116726  0.92589522  0.91014071  1
  O2-  O168  1  0.43457108  0.32384474  0.09909430  1
  O2-  O169  1  0.42549312  0.32708487  0.42446114  1
  O2-  O170  1  0.43110228  0.32551221  0.75520874  1
  O2-  O171  1  0.43364023  0.81853278  0.10149951  1
  O2-  O172  1  0.43055419  0.82002899  0.42350814  1
  O2-  O173  1  0.42797843  0.81791667  0.76399157  1
  O2-  O174  1  0.92522306  0.32180697  0.08771868  1
  O2-  O175  1  0.93003749  0.31686737  0.43478290  1
  O2-  O176  1  0.93074756  0.32212670  0.75654103  1
  O2-  O177  1  0.92338858  0.81852129  0.09569813  1
  O2-  O178  1  0.92989318  0.82370970  0.43421758  1
  O2-  O179  1  0.92724957  0.81946240  0.75538785  1
  O2-  O180  1  0.32257851  0.07128387  0.23405169  1
  O2-  O181  1  0.32001276  0.07288033  0.56730651  1
  O2-  O182  1  0.32169722  0.06967084  0.90212854  1
  O2-  O183  1  0.32276409  0.57341089  0.24423512  1
  O2-  O184  1  0.31675026  0.56802982  0.56552474  1
  O2-  O185  1  0.32016873  0.56888063  0.90268377  1
  O2-  O186  1  0.81927144  0.07043614  0.23016171  1
  O2-  O187  1  0.82006328  0.07280343  0.56896978  1
  O2-  O188  1  0.81792521  0.07275812  0.91065530  1
  O2-  O189  1  0.82014096  0.56997245  0.23334582  1
  O2-  O190  1  0.82640722  0.56963086  0.57909017  1
  O2-  O191  1  0.81888590  0.56893380  0.90926375  1
  O2-  O192  1  0.05585820  0.08260687  0.27596828  1
  O2-  O193  1  0.04476410  0.08607950  0.60323883  1
  O2-  O194  1  0.03805849  0.08557609  0.93116143  1
  O2-  O195  1  0.05107179  0.57903174  0.26508667  1
  O2-  O196  1  0.04324097  0.58544910  0.60368992  1
  O2-  O197  1  0.03971349  0.58182151  0.92721651  1
  O2-  O198  1  0.53889516  0.08415899  0.26519507  1
  O2-  O199  1  0.54932581  0.08844822  0.60229660  1
  O2-  O200  1  0.54989834  0.07798181  0.92946859  1
  O2-  O201  1  0.53869594  0.58548977  0.27001034  1
  O2-  O202  1  0.54208591  0.58340447  0.60286201  1
  O2-  O203  1  0.54897317  0.58161339  0.94226756  1
  O2-  O204  1  0.16699048  0.21041486  0.27307504  1
  O2-  O205  1  0.16254773  0.20831281  0.60137334  1
  O2-  O206  1  0.16535808  0.21192128  0.93047414  1
  O2-  O207  1  0.16972155  0.71027378  0.26435449  1
  O2-  O208  1  0.16139317  0.70634127  0.60285964  1
  O2-  O209  1  0.17124175  0.70390461  0.93292822  1
  O2-  O210  1  0.66420787  0.21095179  0.26495315  1
  O2-  O211  1  0.66373838  0.21510470  0.60539797  1
  O2-  O212  1  0.66749356  0.21259411  0.92670690  1
  O2-  O213  1  0.66237459  0.69920162  0.27259404  1
  O2-  O214  1  0.66890842  0.69619483  0.60475100  1
  O2-  O215  1  0.66490142  0.70149449  0.93724954  1
  O2-  O216  1  0.07992380  0.45355725  0.06178728  1
  O2-  O217  1  0.08723537  0.45529264  0.39647964  1
  O2-  O218  1  0.08192673  0.45302880  0.72952294  1
  O2-  O219  1  0.07675056  0.95858902  0.06810232  1
  O2-  O220  1  0.08585951  0.94994687  0.39613437  1
  O2-  O221  1  0.08260698  0.95600210  0.73410539  1
  O2-  O222  1  0.58989540  0.45584296  0.06633164  1
  O2-  O223  1  0.58056802  0.45704171  0.40115662  1
  O2-  O224  1  0.58445163  0.46120843  0.73880942  1
  O2-  O225  1  0.58819671  0.95461800  0.06243290  1
  O2-  O226  1  0.58551273  0.96027965  0.39649337  1
  O2-  O227  1  0.58204236  0.95729320  0.73337502  1
  O2-  O228  1  0.20003686  0.33512870  0.06411226  1
  O2-  O229  1  0.20755806  0.33952338  0.40187494  1
  O2-  O230  1  0.19943439  0.33349861  0.72677331  1
  O2-  O231  1  0.20502558  0.83067586  0.07046048  1
  O2-  O232  1  0.21008040  0.83538008  0.39718916  1
  O2-  O233  1  0.20752800  0.82980302  0.73241475  1
  O2-  O234  1  0.70929924  0.33558962  0.06252845  1
  O2-  O235  1  0.70973277  0.33058111  0.40074757  1
  O2-  O236  1  0.71329432  0.33705733  0.74070118  1
  O2-  O237  1  0.70692400  0.83474046  0.06224598  1
  O2-  O238  1  0.69066413  0.83099781  0.39333724  1
  O2-  O239  1  0.70366535  0.82684561  0.73343982  1
  O2-  O240  1  0.45104576  0.41897698  0.27261529  1
  O2-  O241  1  0.46065638  0.41441373  0.60308632  1
  O2-  O242  1  0.46577778  0.41838759  0.93190547  1
  O2-  O243  1  0.46010656  0.91131135  0.27027607  1
  O2-  O244  1  0.46118339  0.91810321  0.59663166  1
  O2-  O245  1  0.46251483  0.91338096  0.93198138  1
  O2-  O246  1  0.96064102  0.41365038  0.26604456  1
  O2-  O247  1  0.95664636  0.41161448  0.60274070  1
  O2-  O248  1  0.94980324  0.41609988  0.93509410  1
  O2-  O249  1  0.95750389  0.92054153  0.26578978  1
  O2-  O250  1  0.95714629  0.91365752  0.60510135  1
  O2-  O251  1  0.94954914  0.92235991  0.93118744  1
  O2-  O252  1  0.33167229  0.30129641  0.27344745  1
  O2-  O253  1  0.33491750  0.30132896  0.60420087  1
  O2-  O254  1  0.32766317  0.30716431  0.93423109  1
  O2-  O255  1  0.33964058  0.79205567  0.27107779  1
  O2-  O256  1  0.33453541  0.78562384  0.59560357  1
  O2-  O257  1  0.33302935  0.78821424  0.93574713  1
  O2-  O258  1  0.83362523  0.28807455  0.26513177  1
  O2-  O259  1  0.83550923  0.29214280  0.60683732  1
  O2-  O260  1  0.83405672  0.29536544  0.93507685  1
  O2-  O261  1  0.82454375  0.80100808  0.27035647  1
  O2-  O262  1  0.83568673  0.79456746  0.60338516  1
  O2-  O263  1  0.83077456  0.78757287  0.92783551  1
  O2-  O264  1  0.42273405  0.04167811  0.06520154  1
  O2-  O265  1  0.41723759  0.03769411  0.40068003  1
  O2-  O266  1  0.42350676  0.05007985  0.72912359  1
  O2-  O267  1  0.41705436  0.53833306  0.07027235  1
  O2-  O268  1  0.41087567  0.54494305  0.39894952  1
  O2-  O269  1  0.41476101  0.54005893  0.73393629  1
  O2-  O270  1  0.91178844  0.04698623  0.06212723  1
  O2-  O271  1  0.92016734  0.04472696  0.39876460  1
  O2-  O272  1  0.92049053  0.04500206  0.73386340  1
  O2-  O273  1  0.91370582  0.54387036  0.06026638  1
  O2-  O274  1  0.92334203  0.54553981  0.39772290  1
  O2-  O275  1  0.91624392  0.54125299  0.73179091  1
  O2-  O276  1  0.29549551  0.17356460  0.06425019  1
  O2-  O277  1  0.29502294  0.16964084  0.40174621  1
  O2-  O278  1  0.29469832  0.17294634  0.73178071  1
  O2-  O279  1  0.29087741  0.66594046  0.07137400  1
  O2-  O280  1  0.29199950  0.66490394  0.39640968  1
  O2-  O281  1  0.28634099  0.66454691  0.73231664  1
  O2-  O282  1  0.78994727  0.16425196  0.06120084  1
  O2-  O283  1  0.78679714  0.16289902  0.39889453  1
  O2-  O284  1  0.79220950  0.16814734  0.73804841  1
  O2-  O285  1  0.79161591  0.66206388  0.06156066  1
  O2-  O286  1  0.79313722  0.67006490  0.40130441  1
  O2-  O287  1  0.80271825  0.66642537  0.72948974  1
