# generated using pymatgen
data_Ca2Al2SiO7
_symmetry_space_group_name_H-M   'P 1'
_cell_length_a   15.45671912
_cell_length_b   15.45870830
_cell_length_c   15.28246199
_cell_angle_alpha   89.98997009
_cell_angle_beta   90.01019373
_cell_angle_gamma   90.01725016
_symmetry_Int_Tables_number   1
_chemical_formula_structural   Ca2Al2SiO7
_chemical_formula_sum   'Ca48 Al48 Si24 O168'
_cell_volume   3651.60512910
_cell_formula_units_Z   24
loop_
 _symmetry_equiv_pos_site_id
 _symmetry_equiv_pos_as_xyz
  1  'x, y, z'
loop_
 _atom_type_symbol
 _atom_type_oxidation_number
  Ca2+  2.0
  Al0+  0.0
  Si0+  0.0
  O2-  -2.0
loop_
 _atom_site_type_symbol
 _atom_site_label
 _atom_site_symmetry_multiplicity
 _atom_site_fract_x
 _atom_site_fract_y
 _atom_site_fract_z
 _atom_site_occupancy
  Ca2+  Ca0  1  0.17977483  0.08797917  0.17096334  1
  Ca2+  Ca1  1  0.17089444  0.09206108  0.50247101  1
  Ca2+  Ca2  1  0.17001463  0.07949318  0.84174851  1
  Ca2+  Ca3  1  0.16815785  0.56886000  0.17160431  1
  Ca2+  Ca4  1  0.16876075  0.57173912  0.51015532  1
  Ca2+  Ca5  1  0.16794087  0.57673251  0.83476291  1
  Ca2+  Ca6  1  0.67726746  0.08379373  0.17765404  1
  Ca2+  Ca7  1  0.67429903  0.09018510  0.50366658  1
  Ca2+  Ca8  1  0.67754020  0.09522212  0.83535810  1
  Ca2+  Ca9  1  0.66781501  0.57236328  0.17651775  1
  Ca2+  Ca10  1  0.66477898  0.58398633  0.50037619  1
  Ca2+  Ca11  1  0.66426826  0.57895772  0.83701542  1
  Ca2+  Ca12  1  0.07914930  0.33220322  0.16196607  1
  Ca2+  Ca13  1  0.08811998  0.32676262  0.49459818  1
  Ca2+  Ca14  1  0.08026276  0.33316700  0.82962356  1
  Ca2+  Ca15  1  0.08614495  0.83177655  0.16091092  1
  Ca2+  Ca16  1  0.08307561  0.82541622  0.49788717  1
  Ca2+  Ca17  1  0.08629293  0.83033465  0.82743673  1
  Ca2+  Ca18  1  0.58394044  0.33142129  0.16062103  1
  Ca2+  Ca19  1  0.58429391  0.32479879  0.49300577  1
  Ca2+  Ca20  1  0.57714673  0.33235286  0.83151965  1
  Ca2+  Ca21  1  0.58460016  0.83054473  0.16568635  1
  Ca2+  Ca22  1  0.58960216  0.82363112  0.49149184  1
  Ca2+  Ca23  1  0.57543442  0.82868371  0.82843427  1
  Ca2+  Ca24  1  0.32230382  0.40239682  0.16817575  1
  Ca2+  Ca25  1  0.32172943  0.41840657  0.50618117  1
  Ca2+  Ca26  1  0.32376787  0.41701098  0.83782850  1
  Ca2+  Ca27  1  0.33479217  0.92388977  0.16516971  1
  Ca2+  Ca28  1  0.33666515  0.92368565  0.49843922  1
  Ca2+  Ca29  1  0.32897667  0.92156693  0.84453449  1
  Ca2+  Ca30  1  0.82326004  0.41555538  0.17089876  1
  Ca2+  Ca31  1  0.82721620  0.41749346  0.49576622  1
  Ca2+  Ca32  1  0.82627045  0.41260198  0.84229419  1
  Ca2+  Ca33  1  0.82851717  0.92831268  0.17398347  1
  Ca2+  Ca34  1  0.82757808  0.92662093  0.49940523  1
  Ca2+  Ca35  1  0.83334003  0.93060937  0.83717117  1
  Ca2+  Ca36  1  0.42115084  0.16514591  0.16275335  1
  Ca2+  Ca37  1  0.42726915  0.16399671  0.49116552  1
  Ca2+  Ca38  1  0.41574283  0.17256557  0.83107717  1
  Ca2+  Ca39  1  0.42248522  0.67267293  0.16105831  1
  Ca2+  Ca40  1  0.42507648  0.66222921  0.49705400  1
  Ca2+  Ca41  1  0.41517024  0.67150197  0.82604018  1
  Ca2+  Ca42  1  0.91856584  0.16634892  0.16188633  1
  Ca2+  Ca43  1  0.92666158  0.15951501  0.49519628  1
  Ca2+  Ca44  1  0.91858482  0.16943697  0.82823606  1
  Ca2+  Ca45  1  0.91284743  0.66534657  0.16546775  1
  Ca2+  Ca46  1  0.91923144  0.66245297  0.49380734  1
  Ca2+  Ca47  1  0.92522468  0.66986416  0.82608679  1
  Al0+  Al48  1  0.00003726  -0.00212591  0.00641921  1
  Al0+  Al49  1  0.00171061  -0.00218537  0.33120367  1
  Al0+  Al50  1  -0.00163715  0.00174600  0.66664722  1
  Al0+  Al51  1  0.00039628  0.49962172  -0.00132296  1
  Al0+  Al52  1  0.00030857  0.49826279  0.33974927  1
  Al0+  Al53  1  -0.00244926  0.50052966  0.66605059  1
  Al0+  Al54  1  0.50226182  -0.00276952  -0.00355183  1
  Al0+  Al55  1  0.49945934  -0.00085796  0.33575105  1
  Al0+  Al56  1  0.50042271  -0.00002571  0.66430702  1
  Al0+  Al57  1  0.50032614  0.49790236  -0.00106810  1
  Al0+  Al58  1  0.49808320  0.50002648  0.33083192  1
  Al0+  Al59  1  0.49791311  0.50196858  0.66657080  1
  Al0+  Al60  1  0.25148363  0.24925031  0.00188677  1
  Al0+  Al61  1  0.24988744  0.24776877  0.33849430  1
  Al0+  Al62  1  0.24808420  0.25079981  0.66856970  1
  Al0+  Al63  1  0.25185905  0.74923377  -0.00014648  1
  Al0+  Al64  1  0.24987081  0.75008682  0.33152139  1
  Al0+  Al65  1  0.24914417  0.75059302  0.66310370  1
  Al0+  Al66  1  0.75235069  0.25167209  0.00433173  1
  Al0+  Al67  1  0.75186132  0.25147103  0.33781398  1
  Al0+  Al68  1  0.74961231  0.25175708  0.66713871  1
  Al0+  Al69  1  0.75280375  0.75085941  -0.00427649  1
  Al0+  Al70  1  0.75136366  0.75019673  0.33394368  1
  Al0+  Al71  1  0.74791769  0.75211117  0.66567655  1
  Al0+  Al72  1  0.67525597  0.42851737  0.34957225  1
  Al0+  Al73  1  0.67833123  0.43076590  0.01223026  1
  Al0+  Al74  1  0.32006659  0.06928957  0.34839596  1
  Al0+  Al75  1  0.57161474  0.67847212  0.31768819  1
  Al0+  Al76  1  0.42991546  0.82052862  0.98560354  1
  Al0+  Al77  1  0.18033681  0.42874499  0.34770124  1
  Al0+  Al78  1  0.42779294  0.32001978  0.98601164  1
  Al0+  Al79  1  0.07006840  0.67909925  0.65238479  1
  Al0+  Al80  1  0.81991769  0.07124318  0.68172883  1
  Al0+  Al81  1  0.17857088  0.42963712  0.01427674  1
  Al0+  Al82  1  0.17930357  0.92638894  0.01454566  1
  Al0+  Al83  1  0.92944756  0.32074073  0.98723741  1
  Al0+  Al84  1  0.82005646  0.07151130  0.01409861  1
  Al0+  Al85  1  0.32323352  0.07129537  0.01381556  1
  Al0+  Al86  1  0.81986260  0.57080808  0.34788372  1
  Al0+  Al87  1  0.17661489  0.42761319  0.68453352  1
  Al0+  Al88  1  0.32096960  0.57184142  0.68193278  1
  Al0+  Al89  1  0.06970921  0.17994404  0.65479737  1
  Al0+  Al90  1  0.56985465  0.67954062  0.65252110  1
  Al0+  Al91  1  0.67835572  0.92953081  0.34760556  1
  Al0+  Al92  1  0.82311544  0.07239934  0.34951101  1
  Al0+  Al93  1  0.57057944  0.18080229  0.65372659  1
  Al0+  Al94  1  0.57296388  0.17936780  0.31958446  1
  Al0+  Al95  1  0.07190021  0.17790236  0.31802658  1
  Si0+  Si96  1  0.42666214  0.82210715  0.31510790  1
  Si0+  Si97  1  0.42792408  0.32051296  0.31818892  1
  Si0+  Si98  1  0.42684436  0.32190464  0.65002412  1
  Si0+  Si99  1  0.32077723  0.57535047  0.34866451  1
  Si0+  Si100  1  0.81989752  0.57419875  0.68246998  1
  Si0+  Si101  1  0.07120846  0.67694345  0.31761021  1
  Si0+  Si102  1  0.32270448  0.57165470  0.01716205  1
  Si0+  Si103  1  0.92922456  0.82247772  0.98387067  1
  Si0+  Si104  1  0.42659610  0.82309604  0.64770305  1
  Si0+  Si105  1  0.17893264  0.93018888  0.67902309  1
  Si0+  Si106  1  0.07091397  0.67898012  0.98587847  1
  Si0+  Si107  1  0.57367216  0.17792626  0.98508415  1
  Si0+  Si108  1  0.93030654  0.81962775  0.31689218  1
  Si0+  Si109  1  0.82256320  0.57376438  0.01345240  1
  Si0+  Si110  1  0.67939305  0.92511692  0.01483143  1
  Si0+  Si111  1  0.92795864  0.82282392  0.64920440  1
  Si0+  Si112  1  0.32284123  0.07081543  0.68148161  1
  Si0+  Si113  1  0.92582115  0.32337757  0.64881851  1
  Si0+  Si114  1  0.67894551  0.43034167  0.68211044  1
  Si0+  Si115  1  0.17784373  0.92519745  0.35156127  1
  Si0+  Si116  1  0.67683702  0.92732907  0.68528168  1
  Si0+  Si117  1  0.93012438  0.32289879  0.31673005  1
  Si0+  Si118  1  0.57318491  0.67756636  0.98330199  1
  Si0+  Si119  1  0.07148939  0.17705506  0.98511195  1
  O2-  O120  1  0.24942312  0.00039912  0.06352573  1
  O2-  O121  1  0.24433332  -0.00451416  0.39601129  1
  O2-  O122  1  0.25054085  0.00018462  0.72208140  1
  O2-  O123  1  0.25671408  0.50063652  0.06191357  1
  O2-  O124  1  0.25355464  0.50545665  0.39251582  1
  O2-  O125  1  0.24866087  0.50076595  0.73296713  1
  O2-  O126  1  0.74384511  -0.00244204  0.05854090  1
  O2-  O127  1  0.74520112  0.00594163  0.39880311  1
  O2-  O128  1  0.74262655  -0.00100762  0.72934129  1
  O2-  O129  1  0.75142587  0.50797573  0.05671493  1
  O2-  O130  1  0.74477433  0.50327859  0.39977897  1
  O2-  O131  1  0.74931350  0.50274694  0.72438254  1
  O2-  O132  1  -0.00482355  0.25074623  0.27216375  1
  O2-  O133  1  -0.00259390  0.25660894  0.60688457  1
  O2-  O134  1  0.00336944  0.24560710  0.93975033  1
  O2-  O135  1  0.00084862  0.74761720  0.27406668  1
  O2-  O136  1  -0.00645931  0.75150267  0.60415191  1
  O2-  O137  1  0.00187803  0.75230049  0.94308562  1
  O2-  O138  1  0.50121366  0.25706598  0.27317865  1
  O2-  O139  1  0.49391213  0.25229476  0.60535107  1
  O2-  O140  1  0.50155399  0.24323775  0.94042017  1
  O2-  O141  1  0.49651522  0.75354907  0.27211285  1
  O2-  O142  1  0.49563510  0.75429032  0.60484642  1
  O2-  O143  1  0.50393185  0.74523191  0.93851849  1
  O2-  O144  1  0.07040880  0.17858164  0.09063318  1
  O2-  O145  1  0.07186641  0.18019090  0.43149277  1
  O2-  O146  1  0.06836799  0.17674030  0.76794945  1
  O2-  O147  1  0.06840576  0.67842996  0.09117480  1
  O2-  O148  1  0.07119854  0.67905829  0.42265896  1
  O2-  O149  1  0.06886075  0.68251688  0.76601396  1
  O2-  O150  1  0.57421466  0.17915856  0.09056908  1
  O2-  O151  1  0.57012503  0.18036430  0.43300600  1
  O2-  O152  1  0.57090211  0.18416407  0.76712546  1
  O2-  O153  1  0.57434703  0.67961475  0.08865351  1
  O2-  O154  1  0.56957503  0.68004206  0.43091989  1
  O2-  O155  1  0.57063795  0.68167832  0.76589359  1
  O2-  O156  1  0.17976605  0.42994214  0.23425714  1
  O2-  O157  1  0.17904275  0.42744300  0.57088457  1
  O2-  O158  1  0.17670516  0.43307743  0.90167037  1
  O2-  O159  1  0.17975807  0.92158941  0.24630041  1
  O2-  O160  1  0.17896742  0.93011814  0.57408566  1
  O2-  O161  1  0.17923943  0.92683190  0.90010091  1
  O2-  O162  1  0.67727686  0.42896117  0.23588069  1
  O2-  O163  1  0.67984996  0.42978658  0.57747259  1
  O2-  O164  1  0.67950046  0.43176779  0.89840308  1
  O2-  O165  1  0.68229172  0.92917495  0.23352369  1
  O2-  O166  1  0.67896506  0.92465187  0.58024470  1
  O2-  O167  1  0.68287796  0.92133074  0.90915069  1
  O2-  O168  1  0.42876953  0.31975704  0.09886171  1
  O2-  O169  1  0.42718928  0.31806756  0.42402145  1
  O2-  O170  1  0.42790980  0.32059800  0.75593095  1
  O2-  O171  1  0.43091480  0.81854013  0.09845258  1
  O2-  O172  1  0.42324166  0.81971724  0.42067388  1
  O2-  O173  1  0.42672809  0.82341027  0.75352057  1
  O2-  O174  1  0.92974796  0.32182567  0.09991276  1
  O2-  O175  1  0.93273845  0.32551015  0.42240555  1
  O2-  O176  1  0.92356422  0.32196301  0.75484852  1
  O2-  O177  1  0.92583510  0.81991435  0.08865405  1
  O2-  O178  1  0.93282358  0.81954079  0.42203530  1
  O2-  O179  1  0.93058663  0.82230072  0.75533954  1
  O2-  O180  1  0.32065576  0.06888254  0.23564934  1
  O2-  O181  1  0.32341694  0.06974147  0.57653339  1
  O2-  O182  1  0.32074374  0.07044299  0.89938696  1
  O2-  O183  1  0.31724270  0.57937483  0.24302907  1
  O2-  O184  1  0.32057765  0.56920826  0.56819060  1
  O2-  O185  1  0.31982722  0.57352273  0.91163719  1
  O2-  O186  1  0.82371043  0.06898175  0.23574362  1
  O2-  O187  1  0.82149661  0.06858814  0.56936588  1
  O2-  O188  1  0.82026811  0.07068195  0.90050816  1
  O2-  O189  1  0.82102244  0.56915065  0.23387973  1
  O2-  O190  1  0.81975920  0.57494166  0.57790826  1
  O2-  O191  1  0.82252715  0.57496162  0.90742258  1
  O2-  O192  1  0.04608976  0.07917807  0.26559844  1
  O2-  O193  1  0.03810428  0.08386434  0.59943872  1
  O2-  O194  1  0.04559886  0.08196336  0.94152068  1
  O2-  O195  1  0.04233829  0.58473449  0.27176349  1
  O2-  O196  1  0.03916939  0.58242732  0.59881674  1
  O2-  O197  1  0.04002449  0.58949807  0.93589629  1
  O2-  O198  1  0.54029388  0.08215903  0.26785533  1
  O2-  O199  1  0.54385080  0.08242333  0.60121675  1
  O2-  O200  1  0.55540183  0.08256944  0.93939297  1
  O2-  O201  1  0.54040647  0.58193371  0.26305493  1
  O2-  O202  1  0.53977420  0.58271876  0.59833257  1
  O2-  O203  1  0.54869254  0.58365015  0.93784443  1
  O2-  O204  1  0.16881240  0.21138177  0.26627491  1
  O2-  O205  1  0.16756525  0.20829941  0.60110495  1
  O2-  O206  1  0.16557702  0.20146113  0.94001081  1
  O2-  O207  1  0.16273820  0.70521996  0.26959632  1
  O2-  O208  1  0.16513320  0.71171165  0.59643924  1
  O2-  O209  1  0.16315999  0.70492051  0.93897427  1
  O2-  O210  1  0.67171148  0.20771690  0.26851895  1
  O2-  O211  1  0.66642751  0.21424500  0.60020419  1
  O2-  O212  1  0.66550601  0.21033049  0.93908602  1
  O2-  O213  1  0.66894169  0.70958804  0.26497441  1
  O2-  O214  1  0.66713804  0.71012136  0.59911080  1
  O2-  O215  1  0.66704130  0.70360320  0.93633053  1
  O2-  O216  1  0.08315821  0.46464147  0.06842765  1
  O2-  O217  1  0.08528884  0.45940633  0.40330015  1
  O2-  O218  1  0.07644009  0.45637304  0.73389589  1
  O2-  O219  1  0.07994472  0.94813756  0.06777425  1
  O2-  O220  1  0.08335809  0.94725489  0.39608875  1
  O2-  O221  1  0.08720834  0.95726417  0.72714816  1
  O2-  O222  1  0.58164886  0.45809415  0.06707436  1
  O2-  O223  1  0.57511224  0.45392686  0.40022845  1
  O2-  O224  1  0.58654346  0.45777401  0.72835078  1
  O2-  O225  1  0.58399053  0.94449469  0.05811256  1
  O2-  O226  1  0.57783244  0.94741154  0.39918754  1
  O2-  O227  1  0.58139316  0.95024884  0.72923346  1
  O2-  O228  1  0.20732546  0.33222576  0.06676702  1
  O2-  O229  1  0.21333945  0.33415928  0.40304422  1
  O2-  O230  1  0.20612377  0.32948640  0.73818533  1
  O2-  O231  1  0.20891385  0.82841167  0.06811063  1
  O2-  O232  1  0.20569944  0.83203282  0.39870652  1
  O2-  O233  1  0.20561405  0.83810227  0.72627977  1
  O2-  O234  1  0.71213796  0.33665139  0.06792823  1
  O2-  O235  1  0.70833256  0.33280445  0.40490239  1
  O2-  O236  1  0.70879621  0.34007619  0.73130147  1
  O2-  O237  1  0.70979571  0.83297407  0.06187725  1
  O2-  O238  1  0.71386003  0.83362932  0.40136019  1
  O2-  O239  1  0.70525072  0.83502348  0.73358881  1
  O2-  O240  1  0.44394461  0.41637092  0.27291881  1
  O2-  O241  1  0.45282651  0.41542973  0.60510085  1
  O2-  O242  1  0.45936717  0.41638619  0.93056091  1
  O2-  O243  1  0.45201956  0.91559958  0.26969345  1
  O2-  O244  1  0.45261686  0.91657714  0.60170099  1
  O2-  O245  1  0.46006936  0.91601246  0.92767638  1
  O2-  O246  1  0.95997865  0.41548263  0.27012626  1
  O2-  O247  1  0.94685643  0.41828229  0.60400525  1
  O2-  O248  1  0.95882528  0.41769262  0.93160938  1
  O2-  O249  1  0.95963836  0.90982491  0.26717448  1
  O2-  O250  1  0.95743509  0.91455987  0.60241914  1
  O2-  O251  1  0.95710725  0.91426621  0.93601183  1
  O2-  O252  1  0.33634662  0.28743282  0.27241557  1
  O2-  O253  1  0.33258755  0.29714106  0.60558553  1
  O2-  O254  1  0.33137616  0.28961941  0.93013393  1
  O2-  O255  1  0.33336197  0.79517382  0.26771069  1
  O2-  O256  1  0.33312026  0.79948937  0.60079541  1
  O2-  O257  1  0.33303758  0.78953624  0.93080797  1
  O2-  O258  1  0.83459350  0.30123300  0.27348644  1
  O2-  O259  1  0.83339365  0.29589269  0.60205430  1
  O2-  O260  1  0.83284708  0.28989027  0.93223431  1
  O2-  O261  1  0.83952461  0.79159207  0.26796377  1
  O2-  O262  1  0.83319347  0.79972698  0.60552028  1
  O2-  O263  1  0.83925780  0.79403778  0.93198816  1
  O2-  O264  1  0.42257175  0.04096967  0.06383046  1
  O2-  O265  1  0.41514195  0.03676974  0.40421499  1
  O2-  O266  1  0.41436013  0.04269838  0.72926399  1
  O2-  O267  1  0.41778962  0.54955067  0.06048162  1
  O2-  O268  1  0.41509827  0.55080913  0.39248833  1
  O2-  O269  1  0.41959080  0.54520121  0.73608845  1
  O2-  O270  1  0.91513108  0.03853017  0.06865148  1
  O2-  O271  1  0.92032952  0.03558629  0.40048096  1
  O2-  O272  1  0.91548830  0.03696269  0.73660522  1
  O2-  O273  1  0.91531974  0.54748395  0.05978955  1
  O2-  O274  1  0.91676615  0.54004948  0.40332137  1
  O2-  O275  1  0.91196197  0.54775568  0.73000164  1
  O2-  O276  1  0.29615801  0.16881306  0.06831064  1
  O2-  O277  1  0.28897272  0.16392206  0.40550555  1
  O2-  O278  1  0.29529018  0.16288090  0.72794331  1
  O2-  O279  1  0.29448394  0.66371577  0.06440566  1
  O2-  O280  1  0.29463061  0.66794218  0.39648951  1
  O2-  O281  1  0.29213049  0.67198365  0.73228584  1
  O2-  O282  1  0.79156388  0.16726320  0.06920488  1
  O2-  O283  1  0.80209591  0.17210323  0.40163366  1
  O2-  O284  1  0.78938826  0.16896893  0.73468498  1
  O2-  O285  1  0.80038536  0.66863049  0.05872563  1
  O2-  O286  1  0.79737054  0.67028773  0.40038415  1
  O2-  O287  1  0.79262911  0.66638817  0.73042369  1
