# generated using pymatgen
data_Ca2Al2SiO7
_symmetry_space_group_name_H-M   'P 1'
_cell_length_a   15.46143500
_cell_length_b   15.46072411
_cell_length_c   15.28516495
_cell_angle_alpha   89.99288102
_cell_angle_beta   89.99459808
_cell_angle_gamma   90.00635135
_symmetry_Int_Tables_number   1
_chemical_formula_structural   Ca2Al2SiO7
_chemical_formula_sum   'Ca48 Al48 Si24 O168'
_cell_volume   3653.84189795
_cell_formula_units_Z   24
loop_
 _symmetry_equiv_pos_site_id
 _symmetry_equiv_pos_as_xyz
  1  'x, y, z'
loop_
 _atom_type_symbol
 _atom_type_oxidation_number
  Ca2+  2.0
  Al0+  0.0
  Si0+  0.0
  O2-  -2.0
loop_
 _atom_site_type_symbol
 _atom_site_label
 _atom_site_symmetry_multiplicity
 _atom_site_fract_x
 _atom_site_fract_y
 _atom_site_fract_z
 _atom_site_occupancy
  Ca2+  Ca0  1  0.16575511  0.07155323  0.17153392  1
  Ca2+  Ca1  1  0.17408428  0.07724591  0.51064633  1
  Ca2+  Ca2  1  0.16129619  0.07650500  0.83504768  1
  Ca2+  Ca3  1  0.16346449  0.57652949  0.16888115  1
  Ca2+  Ca4  1  0.15887194  0.57947793  0.50804438  1
  Ca2+  Ca5  1  0.15679484  0.56901877  0.83477547  1
  Ca2+  Ca6  1  0.68024676  0.08964635  0.16946051  1
  Ca2+  Ca7  1  0.67192966  0.08639996  0.50387509  1
  Ca2+  Ca8  1  0.67106722  0.08792889  0.83494371  1
  Ca2+  Ca9  1  0.67968701  0.57580450  0.17426428  1
  Ca2+  Ca10  1  0.67475428  0.58320713  0.50766222  1
  Ca2+  Ca11  1  0.67749854  0.59050783  0.83596229  1
  Ca2+  Ca12  1  0.07709426  0.32379265  0.15295366  1
  Ca2+  Ca13  1  0.08812412  0.32798198  0.50291824  1
  Ca2+  Ca14  1  0.08766191  0.32436520  0.82992705  1
  Ca2+  Ca15  1  0.09101296  0.82952112  0.16482904  1
  Ca2+  Ca16  1  0.08665309  0.82776087  0.49907549  1
  Ca2+  Ca17  1  0.08003469  0.83070040  0.82399536  1
  Ca2+  Ca18  1  0.57876552  0.33668113  0.16141352  1
  Ca2+  Ca19  1  0.58045701  0.33286273  0.49954166  1
  Ca2+  Ca20  1  0.57011028  0.32950219  0.82459733  1
  Ca2+  Ca21  1  0.57425193  0.83482520  0.15942681  1
  Ca2+  Ca22  1  0.58475668  0.82743299  0.50040577  1
  Ca2+  Ca23  1  0.57631002  0.83116744  0.82712335  1
  Ca2+  Ca24  1  0.32687265  0.40850023  0.16431518  1
  Ca2+  Ca25  1  0.32733384  0.41722601  0.51055234  1
  Ca2+  Ca26  1  0.32505872  0.40758431  0.83439885  1
  Ca2+  Ca27  1  0.32507426  0.92005479  0.17267308  1
  Ca2+  Ca28  1  0.32241161  0.92574560  0.50669327  1
  Ca2+  Ca29  1  0.32211150  0.91749104  0.83850808  1
  Ca2+  Ca30  1  0.83536799  0.42389449  0.17214643  1
  Ca2+  Ca31  1  0.83065332  0.42853898  0.50345961  1
  Ca2+  Ca32  1  0.83996648  0.42920500  0.83964406  1
  Ca2+  Ca33  1  0.83740649  0.93164281  0.16835990  1
  Ca2+  Ca34  1  0.83933841  0.91946528  0.50384049  1
  Ca2+  Ca35  1  0.83619084  0.92105550  0.83715917  1
  Ca2+  Ca36  1  0.41705147  0.16840073  0.16079470  1
  Ca2+  Ca37  1  0.41279801  0.16541991  0.50194150  1
  Ca2+  Ca38  1  0.41532143  0.17476126  0.82277586  1
  Ca2+  Ca39  1  0.41794787  0.67479015  0.15827335  1
  Ca2+  Ca40  1  0.42311401  0.66347623  0.49794140  1
  Ca2+  Ca41  1  0.42121847  0.67250435  0.82873957  1
  Ca2+  Ca42  1  0.91749769  0.17059225  0.15473236  1
  Ca2+  Ca43  1  0.92455152  0.16218397  0.49643894  1
  Ca2+  Ca44  1  0.92632430  0.16820737  0.83247194  1
  Ca2+  Ca45  1  0.91905736  0.66155237  0.16615752  1
  Ca2+  Ca46  1  0.92343784  0.66664593  0.49954085  1
  Ca2+  Ca47  1  0.91776045  0.67137120  0.82153955  1
  Al0+  Al48  1  0.00027777  -0.00179502  0.00563758  1
  Al0+  Al49  1  0.00013241  -0.00299439  0.33947421  1
  Al0+  Al50  1  -0.00016492  0.00141997  0.66261884  1
  Al0+  Al51  1  0.00090675  0.49899638  0.00735052  1
  Al0+  Al52  1  -0.00010179  0.49989225  0.33270272  1
  Al0+  Al53  1  -0.00112251  0.50048046  0.67161977  1
  Al0+  Al54  1  0.49904007  -0.00160033  -0.00527139  1
  Al0+  Al55  1  0.50074668  0.00179202  0.33427278  1
  Al0+  Al56  1  0.50106616  0.00186744  0.66600673  1
  Al0+  Al57  1  0.50095848  0.50117204  -0.00489547  1
  Al0+  Al58  1  0.49951007  0.49840293  0.33276346  1
  Al0+  Al59  1  0.49991361  0.50018467  0.65979216  1
  Al0+  Al60  1  0.25071581  0.24811433  -0.00212329  1
  Al0+  Al61  1  0.25012506  0.24936825  0.33391593  1
  Al0+  Al62  1  0.24940567  0.25057919  0.66501743  1
  Al0+  Al63  1  0.25042270  0.74930059  -0.00155967  1
  Al0+  Al64  1  0.25027493  0.74801551  0.33183325  1
  Al0+  Al65  1  0.24993600  0.74975409  0.66658745  1
  Al0+  Al66  1  0.74991547  0.25236042  -0.00130765  1
  Al0+  Al67  1  0.74909908  0.25057621  0.34085734  1
  Al0+  Al68  1  0.74816761  0.25236986  0.66465502  1
  Al0+  Al69  1  0.75095899  0.75002812  0.00761271  1
  Al0+  Al70  1  0.75180662  0.75077394  0.33235633  1
  Al0+  Al71  1  0.74942640  0.75247064  0.66263351  1
  Al0+  Al72  1  0.06913832  0.18040285  0.65198737  1
  Al0+  Al73  1  0.17943000  0.43052335  0.68005016  1
  Al0+  Al74  1  0.17749470  0.92818007  0.68360965  1
  Al0+  Al75  1  0.07010219  0.17597813  0.98629711  1
  Al0+  Al76  1  0.07115845  0.67758281  0.65406504  1
  Al0+  Al77  1  0.32158680  0.07240706  0.34816960  1
  Al0+  Al78  1  0.92765531  0.32335144  0.98533739  1
  Al0+  Al79  1  0.18129982  0.42708548  0.01473665  1
  Al0+  Al80  1  0.42795166  0.31999540  0.64864288  1
  Al0+  Al81  1  0.67676527  0.42949583  0.34989487  1
  Al0+  Al82  1  0.42941563  0.32096970  0.98647249  1
  Al0+  Al83  1  0.07086160  0.67854204  0.31732853  1
  Al0+  Al84  1  0.81819866  0.57151277  0.68114963  1
  Al0+  Al85  1  0.17923941  0.92726788  0.01471221  1
  Al0+  Al86  1  0.82214115  0.57197848  0.01553936  1
  Al0+  Al87  1  0.42750611  0.82129708  0.98565510  1
  Al0+  Al88  1  0.57051980  0.68086206  0.65334339  1
  Al0+  Al89  1  0.82255525  0.57189585  0.35141196  1
  Al0+  Al90  1  0.82083988  0.07063773  0.34797022  1
  Al0+  Al91  1  0.92868593  0.82263232  0.65218575  1
  Al0+  Al92  1  0.32147712  0.07077642  0.68412186  1
  Al0+  Al93  1  0.17980455  0.92574910  0.35018399  1
  Al0+  Al94  1  0.81913136  0.07154003  0.01060314  1
  Al0+  Al95  1  0.57242298  0.17814439  0.64944165  1
  Si0+  Si96  1  0.67635035  0.42976059  0.01438408  1
  Si0+  Si97  1  0.32324141  0.57150926  0.01535278  1
  Si0+  Si98  1  0.57297998  0.17742171  0.98431780  1
  Si0+  Si99  1  0.67625308  0.92788847  0.01590769  1
  Si0+  Si100  1  0.67687045  0.92847996  0.34910235  1
  Si0+  Si101  1  0.17953153  0.42893051  0.34716598  1
  Si0+  Si102  1  0.57358965  0.68024100  0.98489923  1
  Si0+  Si103  1  0.57215318  0.67760089  0.31667922  1
  Si0+  Si104  1  0.67624104  0.42848512  0.68544208  1
  Si0+  Si105  1  0.92857259  0.82002054  0.98821542  1
  Si0+  Si106  1  0.32362837  0.07080947  0.01562481  1
  Si0+  Si107  1  0.82129943  0.07354090  0.68157152  1
  Si0+  Si108  1  0.32528516  0.57283749  0.68280347  1
  Si0+  Si109  1  0.07136465  0.17762019  0.31892983  1
  Si0+  Si110  1  0.07069882  0.67837609  0.98630531  1
  Si0+  Si111  1  0.32137784  0.57032395  0.34596696  1
  Si0+  Si112  1  0.42723802  0.82283781  0.64849816  1
  Si0+  Si113  1  0.92757942  0.82340607  0.31284496  1
  Si0+  Si114  1  0.67956728  0.92967488  0.68109726  1
  Si0+  Si115  1  0.43109937  0.82035221  0.31912677  1
  Si0+  Si116  1  0.92713941  0.32392081  0.64968850  1
  Si0+  Si117  1  0.42789517  0.32124679  0.31629024  1
  Si0+  Si118  1  0.57216231  0.17958510  0.31677622  1
  Si0+  Si119  1  0.92912376  0.31853498  0.32022449  1
  O2-  O120  1  0.25454641  0.00262332  0.05988292  1
  O2-  O121  1  0.24807924  0.00220408  0.39765748  1
  O2-  O122  1  0.25029442  -0.00131666  0.73487177  1
  O2-  O123  1  0.25768126  0.50079209  0.06154663  1
  O2-  O124  1  0.25023496  0.50034645  0.38864486  1
  O2-  O125  1  0.25413803  0.50651189  0.72597450  1
  O2-  O126  1  0.74223977  -0.00069471  0.05928246  1
  O2-  O127  1  0.74785895  -0.00610896  0.39402795  1
  O2-  O128  1  0.74942818  0.00233631  0.72256973  1
  O2-  O129  1  0.74824783  0.49462908  0.05940054  1
  O2-  O130  1  0.74643506  0.50351512  0.39984498  1
  O2-  O131  1  0.74432658  0.49697721  0.73025973  1
  O2-  O132  1  -0.00216069  0.24583200  0.27643481  1
  O2-  O133  1  -0.00687435  0.25350028  0.60388012  1
  O2-  O134  1  -0.00000068  0.25089093  0.93702777  1
  O2-  O135  1  -0.00363301  0.75389563  0.26961294  1
  O2-  O136  1  0.00245577  0.75202858  0.60304731  1
  O2-  O137  1  -0.00254238  0.74761358  0.94559519  1
  O2-  O138  1  0.49975316  0.24990123  0.27516503  1
  O2-  O139  1  0.49960424  0.24808656  0.59769316  1
  O2-  O140  1  0.50298133  0.24473388  0.94128670  1
  O2-  O141  1  0.50291890  0.75040813  0.27449426  1
  O2-  O142  1  0.49344563  0.75174589  0.60357656  1
  O2-  O143  1  0.50483884  0.74844045  0.94060844  1
  O2-  O144  1  0.06754492  0.17607067  0.10089175  1
  O2-  O145  1  0.07211314  0.18149028  0.42392158  1
  O2-  O146  1  0.06684071  0.17898642  0.76478479  1
  O2-  O147  1  0.07144621  0.67947697  0.09174228  1
  O2-  O148  1  0.07075346  0.67665191  0.42967977  1
  O2-  O149  1  0.06680376  0.67577161  0.76801842  1
  O2-  O150  1  0.57327967  0.17746746  0.09043326  1
  O2-  O151  1  0.57276186  0.17854123  0.42117430  1
  O2-  O152  1  0.57496277  0.18113850  0.76324862  1
  O2-  O153  1  0.57171490  0.68101840  0.09086463  1
  O2-  O154  1  0.56995376  0.67811614  0.42168112  1
  O2-  O155  1  0.57075896  0.68512267  0.76663354  1
  O2-  O156  1  0.18140174  0.42732815  0.24210637  1
  O2-  O157  1  0.18012393  0.43212657  0.56609862  1
  O2-  O158  1  0.18060556  0.42886257  0.90218293  1
  O2-  O159  1  0.18314679  0.92647975  0.23596422  1
  O2-  O160  1  0.17974215  0.92887155  0.57020944  1
  O2-  O161  1  0.17799507  0.92528583  0.90241192  1
  O2-  O162  1  0.67579758  0.43052492  0.23570474  1
  O2-  O163  1  0.67771812  0.42985589  0.57979480  1
  O2-  O164  1  0.67378869  0.43272077  0.90933827  1
  O2-  O165  1  0.67412303  0.93107899  0.24337865  1
  O2-  O166  1  0.67987081  0.92843692  0.57587963  1
  O2-  O167  1  0.67760091  0.92466881  0.91051107  1
  O2-  O168  1  0.43175638  0.31982842  0.10043511  1
  O2-  O169  1  0.42631127  0.32360907  0.42051515  1
  O2-  O170  1  0.43011328  0.31997493  0.76236492  1
  O2-  O171  1  0.42975558  0.81987584  0.09958650  1
  O2-  O172  1  0.43325688  0.81756052  0.42387942  1
  O2-  O173  1  0.43005315  0.82162390  0.75421915  1
  O2-  O174  1  0.92828115  0.32131326  0.09994175  1
  O2-  O175  1  0.93178273  0.31864982  0.42526080  1
  O2-  O176  1  0.92777547  0.32309352  0.75511116  1
  O2-  O177  1  0.92843138  0.82050436  0.09317499  1
  O2-  O178  1  0.92548380  0.82398092  0.41787167  1
  O2-  O179  1  0.92627560  0.82145067  0.76665009  1
  O2-  O180  1  0.32273711  0.07160295  0.23403864  1
  O2-  O181  1  0.31979950  0.06813358  0.57035623  1
  O2-  O182  1  0.32602314  0.06918878  0.91076741  1
  O2-  O183  1  0.32290452  0.56966917  0.24082232  1
  O2-  O184  1  0.32684325  0.57102497  0.57658654  1
  O2-  O185  1  0.32311442  0.57330556  0.91027412  1
  O2-  O186  1  0.81908234  0.07235012  0.23451146  1
  O2-  O187  1  0.82023122  0.07251624  0.57630174  1
  O2-  O188  1  0.81855991  0.06821449  0.89760991  1
  O2-  O189  1  0.82178120  0.56789618  0.23744782  1
  O2-  O190  1  0.81752501  0.57015877  0.56837146  1
  O2-  O191  1  0.81939120  0.57663210  0.90271483  1
  O2-  O192  1  0.04619222  0.08322892  0.27601307  1
  O2-  O193  1  0.03800275  0.08552241  0.59548893  1
  O2-  O194  1  0.03753098  0.07822121  0.93445323  1
  O2-  O195  1  0.03938249  0.58119895  0.26282574  1
  O2-  O196  1  0.03850967  0.58016267  0.60084097  1
  O2-  O197  1  0.04398610  0.58528642  0.94264681  1
  O2-  O198  1  0.54602869  0.08725921  0.26841619  1
  O2-  O199  1  0.54851259  0.07824769  0.59698187  1
  O2-  O200  1  0.55128254  0.08288026  0.93860490  1
  O2-  O201  1  0.54111176  0.58675368  0.26909950  1
  O2-  O202  1  0.54310161  0.58476263  0.59698294  1
  O2-  O203  1  0.54952689  0.58754197  0.93717166  1
  O2-  O204  1  0.16235994  0.20789822  0.27096623  1
  O2-  O205  1  0.16404263  0.21382514  0.59710354  1
  O2-  O206  1  0.16905664  0.20202770  0.93500149  1
  O2-  O207  1  0.16908074  0.70674603  0.26288626  1
  O2-  O208  1  0.17194101  0.69952036  0.60201332  1
  O2-  O209  1  0.16190983  0.70568191  0.93887563  1
  O2-  O210  1  0.66400614  0.21004376  0.26993556  1
  O2-  O211  1  0.67065202  0.20833671  0.59555976  1
  O2-  O212  1  0.66566895  0.20358007  0.93742498  1
  O2-  O213  1  0.66489499  0.70350187  0.27009586  1
  O2-  O214  1  0.66340481  0.71675438  0.59594405  1
  O2-  O215  1  0.66729483  0.70839250  0.94061294  1
  O2-  O216  1  0.08661818  0.45921075  0.07198450  1
  O2-  O217  1  0.08807712  0.45638115  0.39393242  1
  O2-  O218  1  0.08371659  0.46007586  0.73621229  1
  O2-  O219  1  0.08379964  0.95714541  0.07169435  1
  O2-  O220  1  0.07964886  0.94727442  0.40024538  1
  O2-  O221  1  0.07804547  0.95907183  0.73348497  1
  O2-  O222  1  0.58414717  0.45909608  0.06309827  1
  O2-  O223  1  0.57710633  0.45605350  0.40128604  1
  O2-  O224  1  0.58146652  0.45473486  0.72820666  1
  O2-  O225  1  0.58138380  0.95150855  0.06093528  1
  O2-  O226  1  0.58514735  0.95592188  0.39745193  1
  O2-  O227  1  0.58789268  0.95591968  0.72955422  1
  O2-  O228  1  0.21229962  0.33019101  0.06944295  1
  O2-  O229  1  0.20790797  0.33759759  0.39472570  1
  O2-  O230  1  0.21133358  0.33464139  0.73336184  1
  O2-  O231  1  0.21276828  0.83070406  0.06828516  1
  O2-  O232  1  0.21279175  0.82801803  0.40121942  1
  O2-  O233  1  0.20429732  0.82786586  0.73444714  1
  O2-  O234  1  0.69702733  0.33469526  0.05979999  1
  O2-  O235  1  0.70521795  0.33249619  0.40409108  1
  O2-  O236  1  0.70064867  0.33417190  0.73040976  1
  O2-  O237  1  0.70297860  0.83653085  0.06631696  1
  O2-  O238  1  0.69925226  0.83311966  0.39276696  1
  O2-  O239  1  0.70840240  0.83936136  0.73036834  1
  O2-  O240  1  0.45539509  0.41302241  0.26736293  1
  O2-  O241  1  0.45567488  0.41865399  0.59525638  1
  O2-  O242  1  0.45866286  0.41787511  0.93216593  1
  O2-  O243  1  0.45939024  0.91250392  0.27161527  1
  O2-  O244  1  0.45766836  0.91477034  0.60285949  1
  O2-  O245  1  0.45741847  0.91652269  0.92906937  1
  O2-  O246  1  0.95868305  0.40963236  0.27237009  1
  O2-  O247  1  0.95657318  0.41610900  0.60364901  1
  O2-  O248  1  0.95720796  0.42278646  0.93596168  1
  O2-  O249  1  0.95454986  0.91769447  0.26749829  1
  O2-  O250  1  0.95392685  0.92078482  0.59799153  1
  O2-  O251  1  0.95702452  0.91112812  0.94087993  1
  O2-  O252  1  0.33612134  0.29220721  0.26822996  1
  O2-  O253  1  0.32993149  0.29262688  0.59525234  1
  O2-  O254  1  0.33327416  0.29139056  0.93270384  1
  O2-  O255  1  0.34065681  0.79006020  0.27063403  1
  O2-  O256  1  0.33347974  0.79904680  0.60298834  1
  O2-  O257  1  0.33338575  0.78647638  0.93017507  1
  O2-  O258  1  0.83557097  0.29250502  0.27506856  1
  O2-  O259  1  0.83244806  0.30173769  0.60460060  1
  O2-  O260  1  0.82866446  0.29823136  0.93234008  1
  O2-  O261  1  0.83282804  0.80011163  0.26624263  1
  O2-  O262  1  0.83132854  0.79460450  0.59709686  1
  O2-  O263  1  0.83485868  0.79488555  0.94263672  1
  O2-  O264  1  0.41783129  0.04420364  0.06194882  1
  O2-  O265  1  0.42062728  0.04433783  0.39961316  1
  O2-  O266  1  0.42251002  0.04611947  0.73375297  1
  O2-  O267  1  0.41879455  0.54979706  0.06050294  1
  O2-  O268  1  0.41265352  0.54230030  0.39420133  1
  O2-  O269  1  0.41875035  0.54601052  0.72879638  1
  O2-  O270  1  0.91267307  0.03716420  0.06840450  1
  O2-  O271  1  0.91679544  0.04097695  0.40269528  1
  O2-  O272  1  0.91226954  0.04455888  0.72832569  1
  O2-  O273  1  0.91736144  0.54153987  0.07203864  1
  O2-  O274  1  0.91988773  0.53809601  0.40267521  1
  O2-  O275  1  0.91369049  0.54036767  0.73629617  1
  O2-  O276  1  0.30002227  0.16466064  0.06154572  1
  O2-  O277  1  0.29418746  0.17133579  0.40045133  1
  O2-  O278  1  0.29257126  0.17009979  0.73297859  1
  O2-  O279  1  0.29411049  0.66341222  0.06358617  1
  O2-  O280  1  0.29680157  0.66202169  0.39391488  1
  O2-  O281  1  0.30451782  0.66792900  0.72716485  1
  O2-  O282  1  0.78978338  0.16878835  0.06581203  1
  O2-  O283  1  0.78918779  0.16519892  0.40383775  1
  O2-  O284  1  0.79306456  0.16579918  0.72786719  1
  O2-  O285  1  0.78997592  0.66694744  0.07328862  1
  O2-  O286  1  0.79760034  0.67306910  0.39898042  1
  O2-  O287  1  0.78514674  0.66912131  0.73247381  1
