# generated using pymatgen
data_Ca2Al2SiO7
_symmetry_space_group_name_H-M   'P 1'
_cell_length_a   15.45473842
_cell_length_b   15.45579905
_cell_length_c   15.28168487
_cell_angle_alpha   90.01163348
_cell_angle_beta   90.00838731
_cell_angle_gamma   90.00529965
_symmetry_Int_Tables_number   1
_chemical_formula_structural   Ca2Al2SiO7
_chemical_formula_sum   'Ca48 Al48 Si24 O168'
_cell_volume   3650.26459022
_cell_formula_units_Z   24
loop_
 _symmetry_equiv_pos_site_id
 _symmetry_equiv_pos_as_xyz
  1  'x, y, z'
loop_
 _atom_type_symbol
 _atom_type_oxidation_number
  Ca2+  2.0
  Al0+  0.0
  Si0+  0.0
  O2-  -2.0
loop_
 _atom_site_type_symbol
 _atom_site_label
 _atom_site_symmetry_multiplicity
 _atom_site_fract_x
 _atom_site_fract_y
 _atom_site_fract_z
 _atom_site_occupancy
  Ca2+  Ca0  1  0.17374674  0.07791266  0.17882391  1
  Ca2+  Ca1  1  0.17133847  0.08286993  0.50799918  1
  Ca2+  Ca2  1  0.17128521  0.08271123  0.82767669  1
  Ca2+  Ca3  1  0.16448095  0.57577595  0.17261901  1
  Ca2+  Ca4  1  0.15843562  0.57192387  0.50349715  1
  Ca2+  Ca5  1  0.16981222  0.56917998  0.83666877  1
  Ca2+  Ca6  1  0.66633933  0.07666538  0.16859508  1
  Ca2+  Ca7  1  0.67363983  0.08180268  0.51244008  1
  Ca2+  Ca8  1  0.65987700  0.07652998  0.83057706  1
  Ca2+  Ca9  1  0.66453349  0.56951696  0.17017507  1
  Ca2+  Ca10  1  0.67135260  0.57992681  0.50751823  1
  Ca2+  Ca11  1  0.66731705  0.58463664  0.83364685  1
  Ca2+  Ca12  1  0.08586905  0.33278696  0.16733438  1
  Ca2+  Ca13  1  0.08377273  0.32446065  0.49349031  1
  Ca2+  Ca14  1  0.08783212  0.32862411  0.82407328  1
  Ca2+  Ca15  1  0.08402280  0.82868523  0.16295519  1
  Ca2+  Ca16  1  0.08981955  0.83091963  0.49343527  1
  Ca2+  Ca17  1  0.07698292  0.83726975  0.82680651  1
  Ca2+  Ca18  1  0.57957279  0.33446016  0.15789734  1
  Ca2+  Ca19  1  0.58113884  0.32957361  0.49770584  1
  Ca2+  Ca20  1  0.57237640  0.33327566  0.82469887  1
  Ca2+  Ca21  1  0.57775993  0.83289531  0.15605685  1
  Ca2+  Ca22  1  0.58164806  0.83489278  0.50420939  1
  Ca2+  Ca23  1  0.57788677  0.83607736  0.82312000  1
  Ca2+  Ca24  1  0.32387349  0.41259702  0.16950845  1
  Ca2+  Ca25  1  0.32134066  0.41094162  0.50617713  1
  Ca2+  Ca26  1  0.32597679  0.40381687  0.83546138  1
  Ca2+  Ca27  1  0.33147740  0.92272204  0.17693205  1
  Ca2+  Ca28  1  0.32321955  0.92585148  0.50804384  1
  Ca2+  Ca29  1  0.33880090  0.91851828  0.83317264  1
  Ca2+  Ca30  1  0.82252248  0.40905090  0.17386389  1
  Ca2+  Ca31  1  0.83379553  0.41879003  0.50340120  1
  Ca2+  Ca32  1  0.82651591  0.42461802  0.83687486  1
  Ca2+  Ca33  1  0.83021604  0.91091607  0.16383989  1
  Ca2+  Ca34  1  0.82956664  0.92501250  0.51280918  1
  Ca2+  Ca35  1  0.82305590  0.92026113  0.83562633  1
  Ca2+  Ca36  1  0.41389864  0.17074065  0.16317159  1
  Ca2+  Ca37  1  0.41488613  0.16349409  0.50418877  1
  Ca2+  Ca38  1  0.41917443  0.17506933  0.82208566  1
  Ca2+  Ca39  1  0.41634830  0.67464776  0.15974796  1
  Ca2+  Ca40  1  0.41754359  0.67237400  0.50289934  1
  Ca2+  Ca41  1  0.42405569  0.67803275  0.82377429  1
  Ca2+  Ca42  1  0.92417009  0.17036633  0.16924558  1
  Ca2+  Ca43  1  0.92843139  0.16556279  0.49536360  1
  Ca2+  Ca44  1  0.92234766  0.16628133  0.82421665  1
  Ca2+  Ca45  1  0.92496524  0.67021067  0.16449822  1
  Ca2+  Ca46  1  0.92055792  0.66652879  0.49605537  1
  Ca2+  Ca47  1  0.91147097  0.67132783  0.82929144  1
  Al0+  Al48  1  0.00086404  -0.00025587  -0.00281288  1
  Al0+  Al49  1  -0.00182237  -0.00051853  0.32966318  1
  Al0+  Al50  1  -0.00006763  0.00091675  0.66947145  1
  Al0+  Al51  1  0.00063387  0.49858536  0.00417158  1
  Al0+  Al52  1  -0.00206194  0.50198164  0.32689003  1
  Al0+  Al53  1  -0.00128520  0.50083953  0.67756561  1
  Al0+  Al54  1  0.50136777  0.00067399  0.00216484  1
  Al0+  Al55  1  0.49996997  0.00070339  0.33611693  1
  Al0+  Al56  1  0.49866588  0.00175317  0.66433985  1
  Al0+  Al57  1  0.49890429  0.50071796  -0.00078471  1
  Al0+  Al58  1  0.50084025  0.49992872  0.33691806  1
  Al0+  Al59  1  0.49794247  0.50214328  0.65710932  1
  Al0+  Al60  1  0.25064071  0.24868108  0.00195275  1
  Al0+  Al61  1  0.25177616  0.25036477  0.33612936  1
  Al0+  Al62  1  0.24817765  0.24798990  0.66630594  1
  Al0+  Al63  1  0.24988265  0.74860328  -0.00556408  1
  Al0+  Al64  1  0.25083969  0.75005353  0.33047995  1
  Al0+  Al65  1  0.24858251  0.74780290  0.66668247  1
  Al0+  Al66  1  0.75326930  0.24875421  0.00322001  1
  Al0+  Al67  1  0.74822171  0.24793270  0.33317878  1
  Al0+  Al68  1  0.74959847  0.25278078  0.66857573  1
  Al0+  Al69  1  0.75251206  0.75079765  0.00247834  1
  Al0+  Al70  1  0.74809417  0.74762252  0.33073875  1
  Al0+  Al71  1  0.75058382  0.74957495  0.66891953  1
  Al0+  Al72  1  0.93054746  0.82024044  0.98443744  1
  Al0+  Al73  1  0.67825401  0.42690216  0.34857159  1
  Al0+  Al74  1  0.07394935  0.17852497  0.31728460  1
  Al0+  Al75  1  0.18075751  0.42921547  0.67992900  1
  Al0+  Al76  1  0.57255261  0.18018971  0.65152456  1
  Al0+  Al77  1  0.67935990  0.93026780  0.68021973  1
  Al0+  Al78  1  0.42650528  0.82272942  0.64922842  1
  Al0+  Al79  1  0.42687605  0.32132108  0.64882912  1
  Al0+  Al80  1  0.17804784  0.43169638  0.34674385  1
  Al0+  Al81  1  0.32032075  0.07017972  0.68385448  1
  Al0+  Al82  1  0.42929545  0.82260672  0.98710785  1
  Al0+  Al83  1  0.32172822  0.07194237  0.34978268  1
  Al0+  Al84  1  0.67961361  0.93051558  0.01446472  1
  Al0+  Al85  1  0.18051074  0.42750347  0.01595170  1
  Al0+  Al86  1  0.82049192  0.57045042  0.68021846  1
  Al0+  Al87  1  0.82245386  0.07498727  0.68144673  1
  Al0+  Al88  1  0.57358139  0.68027642  0.65016692  1
  Al0+  Al89  1  0.06825455  0.17918520  0.65364408  1
  Al0+  Al90  1  0.67898074  0.42951275  0.01172995  1
  Al0+  Al91  1  0.17860518  0.92561611  0.68301979  1
  Al0+  Al92  1  0.92805267  0.32077499  0.31874274  1
  Al0+  Al93  1  0.17702857  0.92768998  0.34575571  1
  Al0+  Al94  1  0.07143349  0.68016046  0.32006524  1
  Al0+  Al95  1  0.42969178  0.32012600  0.98793569  1
  Si0+  Si96  1  0.32352280  0.57233760  0.68316271  1
  Si0+  Si97  1  0.67475215  0.42922620  0.68222652  1
  Si0+  Si98  1  0.07182586  0.67538597  0.98044987  1
  Si0+  Si99  1  0.43037836  0.32246353  0.31762655  1
  Si0+  Si100  1  0.32044867  0.06924782  0.01498572  1
  Si0+  Si101  1  0.32327012  0.57349469  0.35004169  1
  Si0+  Si102  1  0.57200098  0.67761611  0.31578468  1
  Si0+  Si103  1  0.43205609  0.82076471  0.31807786  1
  Si0+  Si104  1  0.67897451  0.92683913  0.34742178  1
  Si0+  Si105  1  0.57222165  0.67811006  0.98521283  1
  Si0+  Si106  1  0.92779064  0.32131662  0.98441089  1
  Si0+  Si107  1  0.57098539  0.17795717  0.31657817  1
  Si0+  Si108  1  0.17802446  0.92768196  0.01395567  1
  Si0+  Si109  1  0.92809174  0.32577431  0.65360015  1
  Si0+  Si110  1  0.06936150  0.67680410  0.65414283  1
  Si0+  Si111  1  0.92456120  0.82257942  0.31712707  1
  Si0+  Si112  1  0.07110299  0.18032663  0.98487812  1
  Si0+  Si113  1  0.81985488  0.57209704  0.34861613  1
  Si0+  Si114  1  0.81950436  0.06949423  0.34667599  1
  Si0+  Si115  1  0.82277118  0.57262756  0.02018948  1
  Si0+  Si116  1  0.57498859  0.17843943  0.98503715  1
  Si0+  Si117  1  0.93017236  0.82040746  0.65247602  1
  Si0+  Si118  1  0.32110198  0.57389013  0.01601280  1
  Si0+  Si119  1  0.82607953  0.07170039  0.01976615  1
  O2-  O120  1  0.25301018  -0.00576957  0.05639945  1
  O2-  O121  1  0.24394524  0.00385736  0.39579863  1
  O2-  O122  1  0.25304915  -0.00604659  0.73503802  1
  O2-  O123  1  0.25397213  0.50424484  0.06143631  1
  O2-  O124  1  0.25272162  0.50645563  0.39362676  1
  O2-  O125  1  0.25941277  0.49946876  0.72771481  1
  O2-  O126  1  0.75488171  0.00429340  0.06298758  1
  O2-  O127  1  0.75350850  -0.00621249  0.38806453  1
  O2-  O128  1  0.74774604  0.00557730  0.73107648  1
  O2-  O129  1  0.75417557  0.50250922  0.06229959  1
  O2-  O130  1  0.75437817  0.50080281  0.39313366  1
  O2-  O131  1  0.74282664  0.49862841  0.72636808  1
  O2-  O132  1  0.00382886  0.25293987  0.26677831  1
  O2-  O133  1  -0.00830134  0.25307268  0.60888100  1
  O2-  O134  1  0.00059393  0.25229744  0.94281582  1
  O2-  O135  1  -0.00121051  0.75835626  0.27467207  1
  O2-  O136  1  0.00331818  0.75179563  0.61035198  1
  O2-  O137  1  0.00382286  0.74476822  0.93636673  1
  O2-  O138  1  0.50072406  0.25030017  0.27500463  1
  O2-  O139  1  0.50169071  0.25198530  0.59885939  1
  O2-  O140  1  0.50952499  0.25069358  0.94258257  1
  O2-  O141  1  0.50185308  0.74936271  0.27358566  1
  O2-  O142  1  0.50117048  0.75215941  0.59978927  1
  O2-  O143  1  0.50605933  0.74950018  0.94211452  1
  O2-  O144  1  0.07107074  0.18007709  0.08994350  1
  O2-  O145  1  0.07067095  0.17781291  0.43032609  1
  O2-  O146  1  0.06852478  0.18170615  0.76753052  1
  O2-  O147  1  0.07196443  0.67697542  0.08640572  1
  O2-  O148  1  0.06769998  0.67858804  0.43327759  1
  O2-  O149  1  0.06578761  0.67540936  0.75918738  1
  O2-  O150  1  0.57287569  0.17730975  0.09136190  1
  O2-  O151  1  0.57349593  0.17687294  0.42081633  1
  O2-  O152  1  0.57190542  0.18339013  0.76562760  1
  O2-  O153  1  0.56931502  0.67767552  0.09147961  1
  O2-  O154  1  0.57518234  0.67898052  0.41999569  1
  O2-  O155  1  0.57272382  0.68057508  0.76426197  1
  O2-  O156  1  0.18180195  0.43245468  0.23326888  1
  O2-  O157  1  0.17672662  0.43235327  0.56691267  1
  O2-  O158  1  0.18124873  0.42653848  0.90303469  1
  O2-  O159  1  0.18247074  0.92632275  0.23110966  1
  O2-  O160  1  0.17706025  0.92595650  0.56962640  1
  O2-  O161  1  0.17586854  0.93008556  0.90952996  1
  O2-  O162  1  0.67678432  0.42882267  0.23486564  1
  O2-  O163  1  0.67795238  0.42894569  0.57657004  1
  O2-  O164  1  0.68039026  0.43191274  0.89907642  1
  O2-  O165  1  0.67777665  0.92783040  0.24190015  1
  O2-  O166  1  0.68505392  0.92883603  0.56591785  1
  O2-  O167  1  0.67851401  0.93170271  0.90243356  1
  O2-  O168  1  0.42879073  0.31683944  0.10159750  1
  O2-  O169  1  0.43170231  0.32418586  0.42195548  1
  O2-  O170  1  0.42828241  0.32012508  0.76307891  1
  O2-  O171  1  0.43020288  0.82112554  0.10115954  1
  O2-  O172  1  0.43371399  0.82003238  0.42229901  1
  O2-  O173  1  0.42855652  0.81938250  0.76328634  1
  O2-  O174  1  0.92583047  0.31930832  0.08932430  1
  O2-  O175  1  0.92714497  0.31863923  0.43219949  1
  O2-  O176  1  0.93159776  0.32722200  0.75973647  1
  O2-  O177  1  0.93330630  0.81884688  0.09804784  1
  O2-  O178  1  0.91870608  0.82027064  0.42236670  1
  O2-  O179  1  0.92973303  0.81848225  0.75766487  1
  O2-  O180  1  0.32531607  0.06806696  0.23487418  1
  O2-  O181  1  0.31590563  0.07083947  0.57069699  1
  O2-  O182  1  0.31965981  0.07143516  0.91067695  1
  O2-  O183  1  0.32507603  0.57303333  0.24397450  1
  O2-  O184  1  0.31938220  0.57417631  0.57748617  1
  O2-  O185  1  0.31965398  0.57582070  0.91095747  1
  O2-  O186  1  0.81716792  0.07002017  0.24124844  1
  O2-  O187  1  0.82417741  0.07021078  0.56718089  1
  O2-  O188  1  0.82859954  0.07219664  0.91495017  1
  O2-  O189  1  0.81570276  0.57537745  0.24307132  1
  O2-  O190  1  0.82379175  0.56833828  0.56700470  1
  O2-  O191  1  0.82258243  0.57258626  0.91457675  1
  O2-  O192  1  0.04188593  0.08056767  0.26271826  1
  O2-  O193  1  0.03821034  0.08232866  0.59952488  1
  O2-  O194  1  0.04304575  0.08879393  0.93773088  1
  O2-  O195  1  0.03698064  0.58724925  0.26052095  1
  O2-  O196  1  0.03462007  0.58671350  0.60715521  1
  O2-  O197  1  0.04465901  0.58096604  0.93682034  1
  O2-  O198  1  0.54150893  0.08599038  0.26846475  1
  O2-  O199  1  0.54662773  0.08172474  0.59789723  1
  O2-  O200  1  0.54522574  0.08619548  0.93970625  1
  O2-  O201  1  0.54199539  0.58565644  0.26904203  1
  O2-  O202  1  0.54580129  0.58312010  0.59405613  1
  O2-  O203  1  0.54487926  0.58625063  0.93715577  1
  O2-  O204  1  0.17372083  0.20558381  0.26537610  1
  O2-  O205  1  0.16301811  0.21169386  0.59934327  1
  O2-  O206  1  0.16275793  0.20896152  0.93832158  1
  O2-  O207  1  0.16873051  0.70717224  0.26349726  1
  O2-  O208  1  0.16226215  0.69738495  0.60654135  1
  O2-  O209  1  0.16564685  0.69863109  0.93466364  1
  O2-  O210  1  0.66199632  0.20450862  0.26677397  1
  O2-  O211  1  0.67226839  0.20812700  0.59872348  1
  O2-  O212  1  0.67091149  0.19818572  0.94217733  1
  O2-  O213  1  0.66307883  0.70454776  0.26550399  1
  O2-  O214  1  0.67239429  0.70870047  0.59682594  1
  O2-  O215  1  0.66790606  0.70044798  0.94345233  1
  O2-  O216  1  0.08282833  0.45648855  0.06916763  1
  O2-  O217  1  0.08000878  0.46341037  0.39658902  1
  O2-  O218  1  0.08727900  0.46383406  0.73807284  1
  O2-  O219  1  0.08768793  0.95893238  0.06249541  1
  O2-  O220  1  0.07419518  0.94619051  0.39313758  1
  O2-  O221  1  0.08149547  0.95832758  0.73610806  1
  O2-  O222  1  0.58209380  0.46066345  0.06685163  1
  O2-  O223  1  0.58315839  0.46022004  0.40286245  1
  O2-  O224  1  0.58006029  0.45597782  0.72498291  1
  O2-  O225  1  0.58396745  0.96247956  0.07183981  1
  O2-  O226  1  0.58900729  0.95793493  0.39494668  1
  O2-  O227  1  0.57968928  0.95566772  0.73074076  1
  O2-  O228  1  0.21417812  0.33180917  0.07064170  1
  O2-  O229  1  0.20917474  0.33513082  0.39919064  1
  O2-  O230  1  0.20968868  0.33272134  0.73414993  1
  O2-  O231  1  0.20129064  0.83274105  0.05761741  1
  O2-  O232  1  0.20877142  0.82986741  0.39768641  1
  O2-  O233  1  0.20012717  0.82458803  0.73444543  1
  O2-  O234  1  0.70920534  0.33211225  0.06624917  1
  O2-  O235  1  0.70705064  0.32934811  0.40059182  1
  O2-  O236  1  0.69980463  0.33694162  0.73042046  1
  O2-  O237  1  0.71069659  0.83357665  0.06953371  1
  O2-  O238  1  0.70259799  0.83290950  0.39187187  1
  O2-  O239  1  0.71106752  0.83353270  0.73391355  1
  O2-  O240  1  0.45894243  0.41460397  0.27023540  1
  O2-  O241  1  0.44888987  0.42094219  0.59604171  1
  O2-  O242  1  0.45426113  0.41872312  0.93511308  1
  O2-  O243  1  0.46213361  0.91245894  0.27058409  1
  O2-  O244  1  0.45258907  0.92124568  0.59701136  1
  O2-  O245  1  0.45988707  0.91975780  0.93515124  1
  O2-  O246  1  0.94929265  0.42032329  0.26455255  1
  O2-  O247  1  0.95841132  0.41826129  0.60797760  1
  O2-  O248  1  0.95291843  0.41525570  0.94010028  1
  O2-  O249  1  0.94316564  0.91692506  0.26981111  1
  O2-  O250  1  0.95546304  0.91289201  0.60588272  1
  O2-  O251  1  0.96122082  0.91701183  0.93101749  1
  O2-  O252  1  0.33854040  0.29458178  0.27018442  1
  O2-  O253  1  0.32952054  0.28872023  0.59726473  1
  O2-  O254  1  0.33460502  0.28387519  0.93453742  1
  O2-  O255  1  0.34041133  0.79371980  0.26941886  1
  O2-  O256  1  0.32864638  0.78874574  0.59713271  1
  O2-  O257  1  0.33297823  0.79271082  0.93269661  1
  O2-  O258  1  0.83068972  0.28555194  0.26469165  1
  O2-  O259  1  0.83218755  0.30805999  0.61028490  1
  O2-  O260  1  0.83680114  0.29236540  0.93577952  1
  O2-  O261  1  0.83339750  0.79033123  0.26733871  1
  O2-  O262  1  0.83998149  0.78996001  0.60422111  1
  O2-  O263  1  0.83289226  0.79001693  0.93214021  1
  O2-  O264  1  0.41322816  0.04563094  0.06314449  1
  O2-  O265  1  0.41894666  0.03911782  0.40241362  1
  O2-  O266  1  0.42081985  0.04809086  0.73469446  1
  O2-  O267  1  0.41548769  0.55100819  0.06208946  1
  O2-  O268  1  0.41611986  0.54757179  0.39684096  1
  O2-  O269  1  0.41966663  0.55261196  0.72595119  1
  O2-  O270  1  0.91844665  0.04169401  0.06693948  1
  O2-  O271  1  0.91278960  0.04593158  0.39258939  1
  O2-  O272  1  0.91809519  0.04233067  0.73653406  1
  O2-  O273  1  0.91669012  0.54710579  0.06558783  1
  O2-  O274  1  0.91468205  0.54993031  0.39238658  1
  O2-  O275  1  0.91288220  0.53851768  0.74197128  1
  O2-  O276  1  0.28812386  0.15860827  0.06491702  1
  O2-  O277  1  0.30025049  0.17181771  0.40065223  1
  O2-  O278  1  0.28579091  0.16653649  0.73775324  1
  O2-  O279  1  0.29318928  0.66698535  0.06411953  1
  O2-  O280  1  0.29956282  0.66779846  0.39434865  1
  O2-  O281  1  0.29338978  0.66321373  0.73191424  1
  O2-  O282  1  0.80155012  0.16531750  0.06683409  1
  O2-  O283  1  0.78703695  0.15859087  0.39506846  1
  O2-  O284  1  0.79976364  0.17520803  0.73389097  1
  O2-  O285  1  0.79820788  0.66596143  0.06699042  1
  O2-  O286  1  0.79098341  0.66461807  0.39618926  1
  O2-  O287  1  0.79114575  0.66638812  0.73599692  1
