# generated using pymatgen
data_Ca2Al2SiO7
_symmetry_space_group_name_H-M   'P 1'
_cell_length_a   15.47024423
_cell_length_b   15.46695275
_cell_length_c   15.29162146
_cell_angle_alpha   90.01094175
_cell_angle_beta   89.97796181
_cell_angle_gamma   90.01249887
_symmetry_Int_Tables_number   1
_chemical_formula_structural   Ca2Al2SiO7
_chemical_formula_sum   'Ca48 Al48 Si24 O168'
_cell_volume   3658.94108695
_cell_formula_units_Z   24
loop_
 _symmetry_equiv_pos_site_id
 _symmetry_equiv_pos_as_xyz
  1  'x, y, z'
loop_
 _atom_type_symbol
 _atom_type_oxidation_number
  Ca2+  2.0
  Al0+  0.0
  Si0+  0.0
  O2-  -2.0
loop_
 _atom_site_type_symbol
 _atom_site_label
 _atom_site_symmetry_multiplicity
 _atom_site_fract_x
 _atom_site_fract_y
 _atom_site_fract_z
 _atom_site_occupancy
  Ca2+  Ca0  1  0.16493906  0.07396509  0.16573862  1
  Ca2+  Ca1  1  0.17251927  0.08847072  0.51031957  1
  Ca2+  Ca2  1  0.16926935  0.08732147  0.83651497  1
  Ca2+  Ca3  1  0.16295507  0.58034962  0.16813388  1
  Ca2+  Ca4  1  0.16355861  0.58619412  0.50087197  1
  Ca2+  Ca5  1  0.16724784  0.57412909  0.84167550  1
  Ca2+  Ca6  1  0.67782585  0.08409973  0.16822229  1
  Ca2+  Ca7  1  0.67617724  0.08019860  0.50345212  1
  Ca2+  Ca8  1  0.67789105  0.07506480  0.83637966  1
  Ca2+  Ca9  1  0.67742762  0.57390087  0.16682032  1
  Ca2+  Ca10  1  0.67766701  0.58026645  0.50224643  1
  Ca2+  Ca11  1  0.67924453  0.57658852  0.83896597  1
  Ca2+  Ca12  1  0.07577518  0.33212278  0.15745347  1
  Ca2+  Ca13  1  0.07544266  0.32685832  0.50614391  1
  Ca2+  Ca14  1  0.07287430  0.33057411  0.82952762  1
  Ca2+  Ca15  1  0.07264578  0.82789859  0.16216889  1
  Ca2+  Ca16  1  0.06724416  0.82935680  0.49365804  1
  Ca2+  Ca17  1  0.07093424  0.83812673  0.83321441  1
  Ca2+  Ca18  1  0.58941700  0.33225212  0.16006623  1
  Ca2+  Ca19  1  0.58232545  0.32911744  0.49221974  1
  Ca2+  Ca20  1  0.57391301  0.34085336  0.83070174  1
  Ca2+  Ca21  1  0.57869725  0.83652435  0.15496814  1
  Ca2+  Ca22  1  0.58563080  0.83833643  0.49923732  1
  Ca2+  Ca23  1  0.58795376  0.84044499  0.83169933  1
  Ca2+  Ca24  1  0.32654733  0.40723899  0.16433663  1
  Ca2+  Ca25  1  0.33161127  0.41395192  0.50654149  1
  Ca2+  Ca26  1  0.32843850  0.40914496  0.84131746  1
  Ca2+  Ca27  1  0.32561903  0.90634950  0.16575383  1
  Ca2+  Ca28  1  0.32825023  0.92548515  0.50955150  1
  Ca2+  Ca29  1  0.32670137  0.92326355  0.84149642  1
  Ca2+  Ca30  1  0.82953562  0.42352247  0.17190071  1
  Ca2+  Ca31  1  0.83363618  0.42597351  0.50513408  1
  Ca2+  Ca32  1  0.84000266  0.42444764  0.84304396  1
  Ca2+  Ca33  1  0.84146870  0.92572611  0.16777445  1
  Ca2+  Ca34  1  0.83474578  0.92298526  0.50877466  1
  Ca2+  Ca35  1  0.83333443  0.92420911  0.84057840  1
  Ca2+  Ca36  1  0.43016141  0.17090685  0.15990704  1
  Ca2+  Ca37  1  0.42410241  0.16734216  0.49806846  1
  Ca2+  Ca38  1  0.41641947  0.17474910  0.82694671  1
  Ca2+  Ca39  1  0.42322321  0.67110369  0.15719817  1
  Ca2+  Ca40  1  0.42158743  0.66886969  0.49496516  1
  Ca2+  Ca41  1  0.41898042  0.67426014  0.83304973  1
  Ca2+  Ca42  1  0.90967571  0.17079269  0.15907406  1
  Ca2+  Ca43  1  0.90853878  0.16758505  0.49923045  1
  Ca2+  Ca44  1  0.91363659  0.17411440  0.82723364  1
  Ca2+  Ca45  1  0.90804288  0.67378194  0.16283569  1
  Ca2+  Ca46  1  0.90872981  0.67652826  0.49504518  1
  Ca2+  Ca47  1  0.90353560  0.67662351  0.83028576  1
  Al0+  Al48  1  0.00439597  -0.00191712  0.00461518  1
  Al0+  Al49  1  0.00135682  -0.00057710  0.33505350  1
  Al0+  Al50  1  0.00145977  -0.00127762  0.66214657  1
  Al0+  Al51  1  0.00329203  0.49983263  0.00614180  1
  Al0+  Al52  1  0.00217541  0.49896595  0.33664269  1
  Al0+  Al53  1  0.00164868  0.49907835  0.66679387  1
  Al0+  Al54  1  0.50039723  0.00163172  -0.00312663  1
  Al0+  Al55  1  0.49877420  0.00341530  0.32768013  1
  Al0+  Al56  1  0.49722674  0.00167055  0.67359207  1
  Al0+  Al57  1  0.50122243  0.50106179  -0.00208641  1
  Al0+  Al58  1  0.49583030  0.50071545  0.33506703  1
  Al0+  Al59  1  0.49871693  0.50252275  0.66111530  1
  Al0+  Al60  1  0.25208711  0.24963460  0.00360705  1
  Al0+  Al61  1  0.24946374  0.25004629  0.33412388  1
  Al0+  Al62  1  0.25019974  0.25155510  0.66298135  1
  Al0+  Al63  1  0.25175334  0.74991181  -0.00142381  1
  Al0+  Al64  1  0.24753888  0.74897519  0.33281817  1
  Al0+  Al65  1  0.25151078  0.75029669  0.66660773  1
  Al0+  Al66  1  0.75050712  0.24907194  -0.00145003  1
  Al0+  Al67  1  0.74808022  0.24802617  0.33680208  1
  Al0+  Al68  1  0.74633028  0.25028552  0.66561595  1
  Al0+  Al69  1  0.74881725  0.74967460  0.00208303  1
  Al0+  Al70  1  0.74641557  0.75014126  0.33007153  1
  Al0+  Al71  1  0.74768991  0.74669752  0.66758182  1
  Al0+  Al72  1  0.67798738  0.42812267  0.01209487  1
  Al0+  Al73  1  0.31846588  0.07277658  0.68079956  1
  Al0+  Al74  1  0.82189354  0.06872479  0.34794291  1
  Al0+  Al75  1  0.67831925  0.92941339  0.01535477  1
  Al0+  Al76  1  0.82177964  0.56752816  0.68065560  1
  Al0+  Al77  1  0.06964859  0.17875031  0.65376060  1
  Al0+  Al78  1  0.18075117  0.42794302  0.01398333  1
  Al0+  Al79  1  0.67952468  0.92829027  0.68009499  1
  Al0+  Al80  1  0.82358724  0.57113757  0.01530859  1
  Al0+  Al81  1  0.67735964  0.42844541  0.34904963  1
  Al0+  Al82  1  0.42989144  0.32182300  0.65174365  1
  Al0+  Al83  1  0.92545905  0.32204847  0.65147592  1
  Al0+  Al84  1  0.82341724  0.07011756  0.01422702  1
  Al0+  Al85  1  0.92763340  0.81884914  0.65449364  1
  Al0+  Al86  1  0.07116768  0.67747289  0.31755020  1
  Al0+  Al87  1  0.43064551  0.32018578  0.98702745  1
  Al0+  Al88  1  0.82414527  0.07230417  0.68174078  1
  Al0+  Al89  1  0.82177056  0.57190290  0.34967225  1
  Al0+  Al90  1  0.92893180  0.32106353  0.98960135  1
  Al0+  Al91  1  0.92636131  0.82116318  0.31689995  1
  Al0+  Al92  1  0.42879961  0.82213873  0.98457447  1
  Al0+  Al93  1  0.18129305  0.92776031  0.01438867  1
  Al0+  Al94  1  0.92932348  0.81990962  0.98564233  1
  Al0+  Al95  1  0.57135601  0.18079954  0.31837188  1
  Si0+  Si96  1  0.56872853  0.67692668  0.31711176  1
  Si0+  Si97  1  0.07434362  0.17886785  0.31777596  1
  Si0+  Si98  1  0.56896950  0.67994481  0.64941149  1
  Si0+  Si99  1  0.17952490  0.42620347  0.35198588  1
  Si0+  Si100  1  0.42799429  0.82245761  0.65114722  1
  Si0+  Si101  1  0.93014594  0.31846394  0.32033028  1
  Si0+  Si102  1  0.42659399  0.32301991  0.31571973  1
  Si0+  Si103  1  0.32258477  0.07300510  0.01879101  1
  Si0+  Si104  1  0.18200333  0.43101500  0.68136924  1
  Si0+  Si105  1  0.32242765  0.57194188  0.01594158  1
  Si0+  Si106  1  0.32037518  0.07098646  0.34769044  1
  Si0+  Si107  1  0.42921524  0.82134382  0.32000743  1
  Si0+  Si108  1  0.18059401  0.92798015  0.35049187  1
  Si0+  Si109  1  0.32342453  0.57358129  0.68167791  1
  Si0+  Si110  1  0.57406681  0.17763885  0.97927403  1
  Si0+  Si111  1  0.67357532  0.92906651  0.34707456  1
  Si0+  Si112  1  0.17861201  0.92594780  0.68282841  1
  Si0+  Si113  1  0.31869562  0.57226606  0.34922580  1
  Si0+  Si114  1  0.07284951  0.17755529  0.98673989  1
  Si0+  Si115  1  0.56977193  0.17609355  0.64944824  1
  Si0+  Si116  1  0.07481549  0.67734553  0.65224116  1
  Si0+  Si117  1  0.57198006  0.67879999  0.98084342  1
  Si0+  Si118  1  0.67471570  0.42848503  0.68110493  1
  Si0+  Si119  1  0.07324791  0.67743610  0.98304244  1
  O2-  O120  1  0.25783489  0.00047319  0.06313903  1
  O2-  O121  1  0.24979651  0.00098284  0.39213106  1
  O2-  O122  1  0.24256327  -0.00072843  0.72660447  1
  O2-  O123  1  0.25610480  0.50200834  0.06150858  1
  O2-  O124  1  0.24934510  0.50000423  0.39212371  1
  O2-  O125  1  0.25182238  0.50377149  0.72309474  1
  O2-  O126  1  0.75254378  -0.00231267  0.06638220  1
  O2-  O127  1  0.74871301  -0.00977551  0.39104985  1
  O2-  O128  1  0.75497682  -0.00355560  0.72971870  1
  O2-  O129  1  0.75452048  0.49474378  0.06249210  1
  O2-  O130  1  0.75039101  0.49885990  0.39993338  1
  O2-  O131  1  0.75189067  0.48700785  0.72512408  1
  O2-  O132  1  -0.00004636  0.24628501  0.27685269  1
  O2-  O133  1  -0.00892867  0.24294222  0.60179174  1
  O2-  O134  1  0.00154385  0.24349956  0.94382951  1
  O2-  O135  1  -0.00555967  0.74400208  0.26809405  1
  O2-  O136  1  0.00414599  0.74418117  0.60934633  1
  O2-  O137  1  0.00168910  0.74226224  0.93842278  1
  O2-  O138  1  0.50025919  0.26011935  0.27261535  1
  O2-  O139  1  0.50563672  0.24944278  0.60459941  1
  O2-  O140  1  0.50607134  0.24876812  0.93716072  1
  O2-  O141  1  0.50179636  0.75306644  0.27663485  1
  O2-  O142  1  0.50043044  0.75434831  0.60718707  1
  O2-  O143  1  0.50662340  0.75160380  0.93683817  1
  O2-  O144  1  0.07452190  0.17971501  0.09295383  1
  O2-  O145  1  0.08022558  0.18179394  0.42229346  1
  O2-  O146  1  0.07502830  0.18528146  0.76690937  1
  O2-  O147  1  0.07617081  0.68026092  0.08840697  1
  O2-  O148  1  0.07769425  0.68400612  0.43107788  1
  O2-  O149  1  0.08066454  0.67751957  0.75729291  1
  O2-  O150  1  0.57174216  0.17696860  0.08521726  1
  O2-  O151  1  0.56582999  0.17761647  0.43136546  1
  O2-  O152  1  0.56651690  0.17489884  0.75458383  1
  O2-  O153  1  0.56724168  0.67682577  0.08669717  1
  O2-  O154  1  0.56519122  0.67626204  0.42247007  1
  O2-  O155  1  0.56505978  0.67669342  0.75390458  1
  O2-  O156  1  0.18194561  0.42197780  0.24717003  1
  O2-  O157  1  0.18331285  0.43227931  0.57588527  1
  O2-  O158  1  0.18243304  0.42839553  0.90074345  1
  O2-  O159  1  0.18335629  0.92717887  0.24543945  1
  O2-  O160  1  0.18462100  0.92226751  0.57698976  1
  O2-  O161  1  0.18165334  0.92998346  0.90150103  1
  O2-  O162  1  0.67826632  0.43042405  0.23579903  1
  O2-  O163  1  0.67070473  0.43442592  0.57570986  1
  O2-  O164  1  0.67392127  0.43313908  0.89858649  1
  O2-  O165  1  0.66720880  0.93320501  0.24235550  1
  O2-  O166  1  0.67756620  0.93020618  0.56585670  1
  O2-  O167  1  0.67946965  0.93233549  0.90208270  1
  O2-  O168  1  0.42867163  0.31663962  0.10009448  1
  O2-  O169  1  0.42356081  0.32078257  0.42130637  1
  O2-  O170  1  0.42931222  0.32239275  0.76469360  1
  O2-  O171  1  0.42770606  0.81670919  0.09851115  1
  O2-  O172  1  0.42914557  0.82080166  0.42549058  1
  O2-  O173  1  0.42468707  0.81916748  0.75555096  1
  O2-  O174  1  0.93138561  0.32066175  0.10336147  1
  O2-  O175  1  0.93278196  0.31794889  0.42533945  1
  O2-  O176  1  0.93160288  0.32664987  0.76468374  1
  O2-  O177  1  0.93209231  0.82097708  0.09838781  1
  O2-  O178  1  0.92876701  0.82226326  0.43090864  1
  O2-  O179  1  0.92888909  0.81856691  0.76746874  1
  O2-  O180  1  0.31916248  0.07057335  0.24297750  1
  O2-  O181  1  0.31959405  0.06915809  0.56686215  1
  O2-  O182  1  0.31858631  0.07547537  0.91326942  1
  O2-  O183  1  0.31984490  0.57445035  0.24457402  1
  O2-  O184  1  0.32311055  0.57515687  0.57632544  1
  O2-  O185  1  0.32017554  0.57284383  0.91011393  1
  O2-  O186  1  0.82245104  0.07128602  0.23536902  1
  O2-  O187  1  0.82021471  0.07020969  0.56780516  1
  O2-  O188  1  0.82400618  0.07069788  0.90101831  1
  O2-  O189  1  0.82037331  0.56974021  0.23664060  1
  O2-  O190  1  0.81847329  0.57031095  0.56763195  1
  O2-  O191  1  0.82164727  0.57056254  0.90140983  1
  O2-  O192  1  0.05154857  0.08469143  0.27354350  1
  O2-  O193  1  0.05612449  0.07736439  0.60106665  1
  O2-  O194  1  0.05369216  0.08254755  0.94237890  1
  O2-  O195  1  0.05371750  0.57429910  0.27014545  1
  O2-  O196  1  0.05246608  0.58317894  0.60623745  1
  O2-  O197  1  0.05300105  0.58146966  0.94023054  1
  O2-  O198  1  0.53401839  0.08753551  0.26102570  1
  O2-  O199  1  0.53596751  0.08473921  0.60276409  1
  O2-  O200  1  0.54441812  0.08592927  0.93227839  1
  O2-  O201  1  0.53291172  0.58814060  0.26887008  1
  O2-  O202  1  0.53568153  0.59181980  0.59761101  1
  O2-  O203  1  0.54077903  0.58800467  0.93222329  1
  O2-  O204  1  0.16440732  0.21020057  0.26818989  1
  O2-  O205  1  0.16454748  0.21682128  0.59690246  1
  O2-  O206  1  0.16580962  0.20662254  0.94146555  1
  O2-  O207  1  0.16878737  0.70983101  0.26329772  1
  O2-  O208  1  0.16844498  0.70399671  0.60409339  1
  O2-  O209  1  0.16641098  0.70425588  0.93624092  1
  O2-  O210  1  0.66855786  0.20845777  0.26444346  1
  O2-  O211  1  0.66413661  0.19720126  0.60341423  1
  O2-  O212  1  0.66755404  0.20064407  0.93339250  1
  O2-  O213  1  0.66084086  0.69904343  0.26938814  1
  O2-  O214  1  0.66010934  0.70558092  0.60031658  1
  O2-  O215  1  0.66581570  0.70151516  0.93526776  1
  O2-  O216  1  0.08736471  0.45912971  0.07286094  1
  O2-  O217  1  0.08847650  0.45200583  0.40100758  1
  O2-  O218  1  0.09064513  0.45742229  0.72952608  1
  O2-  O219  1  0.08827644  0.95992604  0.07361664  1
  O2-  O220  1  0.08917271  0.95516276  0.39763825  1
  O2-  O221  1  0.08342987  0.94625006  0.72549961  1
  O2-  O222  1  0.58074265  0.46044069  0.06666567  1
  O2-  O223  1  0.57676634  0.45695153  0.39923515  1
  O2-  O224  1  0.58382827  0.46466114  0.72731353  1
  O2-  O225  1  0.57821436  0.95809440  0.06589544  1
  O2-  O226  1  0.58152132  0.96051226  0.39523876  1
  O2-  O227  1  0.58110694  0.95728319  0.73307600  1
  O2-  O228  1  0.21322012  0.33290145  0.07102081  1
  O2-  O229  1  0.21209024  0.33622794  0.40107893  1
  O2-  O230  1  0.21349085  0.34090197  0.72793421  1
  O2-  O231  1  0.21501675  0.83184288  0.06866993  1
  O2-  O232  1  0.21184146  0.83750092  0.39825646  1
  O2-  O233  1  0.21033408  0.83469442  0.73046450  1
  O2-  O234  1  0.70046347  0.32800132  0.06228625  1
  O2-  O235  1  0.70323836  0.32972537  0.40164329  1
  O2-  O236  1  0.68591992  0.33091653  0.72192899  1
  O2-  O237  1  0.69777139  0.82840078  0.06533166  1
  O2-  O238  1  0.68956951  0.83181025  0.38898711  1
  O2-  O239  1  0.69968526  0.82727023  0.73014578  1
  O2-  O240  1  0.44305481  0.41974610  0.27285315  1
  O2-  O241  1  0.45586285  0.41994354  0.59690082  1
  O2-  O242  1  0.45545660  0.41893592  0.93364550  1
  O2-  O243  1  0.45227871  0.91347761  0.27160404  1
  O2-  O244  1  0.45355392  0.91557821  0.60527765  1
  O2-  O245  1  0.45271411  0.92088386  0.93229494  1
  O2-  O246  1  0.96073341  0.41003257  0.27474781  1
  O2-  O247  1  0.96479436  0.41725158  0.59673693  1
  O2-  O248  1  0.96533177  0.41700816  0.93749403  1
  O2-  O249  1  0.96370124  0.91836788  0.26609697  1
  O2-  O250  1  0.95837583  0.91437506  0.59825439  1
  O2-  O251  1  0.96690014  0.91599316  0.93412580  1
  O2-  O252  1  0.33449842  0.29075782  0.26973109  1
  O2-  O253  1  0.33467741  0.29000207  0.59608712  1
  O2-  O254  1  0.33371253  0.28715012  0.93399624  1
  O2-  O255  1  0.33814303  0.78972585  0.27382400  1
  O2-  O256  1  0.33776981  0.79162364  0.60092258  1
  O2-  O257  1  0.33437940  0.78660425  0.92890480  1
  O2-  O258  1  0.83758510  0.29159461  0.27549425  1
  O2-  O259  1  0.82405866  0.30213838  0.60050320  1
  O2-  O260  1  0.83250249  0.29489622  0.93387794  1
  O2-  O261  1  0.82535310  0.79967129  0.26621138  1
  O2-  O262  1  0.83154840  0.78557304  0.60052137  1
  O2-  O263  1  0.83114412  0.79106861  0.93405340  1
  O2-  O264  1  0.41772342  0.05057212  0.06139607  1
  O2-  O265  1  0.41191590  0.04199409  0.39482003  1
  O2-  O266  1  0.41227691  0.04097286  0.73771547  1
  O2-  O267  1  0.41648816  0.54879265  0.06102300  1
  O2-  O268  1  0.40986558  0.54607091  0.39908186  1
  O2-  O269  1  0.41492928  0.54585666  0.72849548  1
  O2-  O270  1  0.92228566  0.04404440  0.06773375  1
  O2-  O271  1  0.92058628  0.04304389  0.40114256  1
  O2-  O272  1  0.92535731  0.04824280  0.73002468  1
  O2-  O273  1  0.92271845  0.54846837  0.06809916  1
  O2-  O274  1  0.92170664  0.54514430  0.40124197  1
  O2-  O275  1  0.92090638  0.54356399  0.73253912  1
  O2-  O276  1  0.29358185  0.16364368  0.06865313  1
  O2-  O277  1  0.29239713  0.16295211  0.39533130  1
  O2-  O278  1  0.28807912  0.16997853  0.73330404  1
  O2-  O279  1  0.29561498  0.66439548  0.06340876  1
  O2-  O280  1  0.29015742  0.66338457  0.39908546  1
  O2-  O281  1  0.29758462  0.66580357  0.72948427  1
  O2-  O282  1  0.79280547  0.16828407  0.06644145  1
  O2-  O283  1  0.78703568  0.16351200  0.40265597  1
  O2-  O284  1  0.79329829  0.17166805  0.73211853  1
  O2-  O285  1  0.78872923  0.66694529  0.06854060  1
  O2-  O286  1  0.78836767  0.67098366  0.40000021  1
  O2-  O287  1  0.78301121  0.66121682  0.73440690  1
