# generated using pymatgen
data_Ca2Al2SiO7
_symmetry_space_group_name_H-M   'P 1'
_cell_length_a   15.46102797
_cell_length_b   15.46272799
_cell_length_c   15.28574097
_cell_angle_alpha   90.00679723
_cell_angle_beta   89.99565044
_cell_angle_gamma   90.00934896
_symmetry_Int_Tables_number   1
_chemical_formula_structural   Ca2Al2SiO7
_chemical_formula_sum   'Ca48 Al48 Si24 O168'
_cell_volume   3654.35696175
_cell_formula_units_Z   24
loop_
 _symmetry_equiv_pos_site_id
 _symmetry_equiv_pos_as_xyz
  1  'x, y, z'
loop_
 _atom_type_symbol
 _atom_type_oxidation_number
  Ca2+  2.0
  Al0+  0.0
  Si0+  0.0
  O2-  -2.0
loop_
 _atom_site_type_symbol
 _atom_site_label
 _atom_site_symmetry_multiplicity
 _atom_site_fract_x
 _atom_site_fract_y
 _atom_site_fract_z
 _atom_site_occupancy
  Ca2+  Ca0  1  0.17510764  0.09675089  0.16898360  1
  Ca2+  Ca1  1  0.17113945  0.08710147  0.50708442  1
  Ca2+  Ca2  1  0.16778545  0.08493116  0.83559471  1
  Ca2+  Ca3  1  0.16993358  0.57931493  0.16998313  1
  Ca2+  Ca4  1  0.16547359  0.58022460  0.50668386  1
  Ca2+  Ca5  1  0.17409593  0.59484791  0.83566263  1
  Ca2+  Ca6  1  0.67863641  0.07868228  0.16908275  1
  Ca2+  Ca7  1  0.67124039  0.07039136  0.50436199  1
  Ca2+  Ca8  1  0.67743500  0.07749276  0.83717261  1
  Ca2+  Ca9  1  0.67419773  0.57333135  0.16589465  1
  Ca2+  Ca10  1  0.67024076  0.57240578  0.50457227  1
  Ca2+  Ca11  1  0.67387013  0.57238533  0.84020532  1
  Ca2+  Ca12  1  0.07726267  0.32756801  0.16368185  1
  Ca2+  Ca13  1  0.08351564  0.32488938  0.48977009  1
  Ca2+  Ca14  1  0.08039881  0.32307139  0.83106202  1
  Ca2+  Ca15  1  0.07196491  0.83378169  0.16113216  1
  Ca2+  Ca16  1  0.07770557  0.83368089  0.50112057  1
  Ca2+  Ca17  1  0.07200761  0.83257420  0.82341316  1
  Ca2+  Ca18  1  0.58510877  0.33686044  0.16221695  1
  Ca2+  Ca19  1  0.58281575  0.33615511  0.49638162  1
  Ca2+  Ca20  1  0.58581097  0.33659851  0.82977332  1
  Ca2+  Ca21  1  0.57796973  0.83657893  0.16149814  1
  Ca2+  Ca22  1  0.58591158  0.83609174  0.49413821  1
  Ca2+  Ca23  1  0.57586345  0.83767552  0.82916817  1
  Ca2+  Ca24  1  0.32505501  0.42086800  0.16966248  1
  Ca2+  Ca25  1  0.32331223  0.42125117  0.50358763  1
  Ca2+  Ca26  1  0.33044055  0.43003261  0.83751405  1
  Ca2+  Ca27  1  0.33268236  0.92540377  0.16888615  1
  Ca2+  Ca28  1  0.32290817  0.92942206  0.50905614  1
  Ca2+  Ca29  1  0.32456638  0.92348366  0.83863368  1
  Ca2+  Ca30  1  0.83104434  0.41156940  0.17077853  1
  Ca2+  Ca31  1  0.82498971  0.40618268  0.50224752  1
  Ca2+  Ca32  1  0.82617286  0.41670484  0.84519136  1
  Ca2+  Ca33  1  0.83788000  0.91894823  0.17015030  1
  Ca2+  Ca34  1  0.82778805  0.90664413  0.50387423  1
  Ca2+  Ca35  1  0.83315434  0.91361058  0.83918127  1
  Ca2+  Ca36  1  0.41715261  0.16235204  0.16181008  1
  Ca2+  Ca37  1  0.41455964  0.16192037  0.49622146  1
  Ca2+  Ca38  1  0.41446889  0.16348613  0.83026603  1
  Ca2+  Ca39  1  0.41863412  0.67236765  0.15536062  1
  Ca2+  Ca40  1  0.41668256  0.66550777  0.49906130  1
  Ca2+  Ca41  1  0.41180957  0.66919939  0.82978696  1
  Ca2+  Ca42  1  0.92486830  0.17381635  0.15618833  1
  Ca2+  Ca43  1  0.93171719  0.16917415  0.49261565  1
  Ca2+  Ca44  1  0.92446945  0.16518702  0.83317723  1
  Ca2+  Ca45  1  0.91055044  0.67540723  0.16024378  1
  Ca2+  Ca46  1  0.91819956  0.67646120  0.49921086  1
  Ca2+  Ca47  1  0.91563018  0.67402223  0.82828513  1
  Al0+  Al48  1  -0.00010261  -0.00179518  -0.00388904  1
  Al0+  Al49  1  0.00386111  -0.00058273  0.32492711  1
  Al0+  Al50  1  -0.00071108  0.00229356  0.65925303  1
  Al0+  Al51  1  0.00008927  0.49998278  -0.00069145  1
  Al0+  Al52  1  0.00077643  0.50072858  0.33492994  1
  Al0+  Al53  1  -0.00218820  0.50025025  0.66277812  1
  Al0+  Al54  1  0.49782724  0.00010061  -0.00229217  1
  Al0+  Al55  1  0.50085205  0.00075307  0.33978826  1
  Al0+  Al56  1  0.50119554  0.00086526  0.67191234  1
  Al0+  Al57  1  0.49948430  0.50014929  0.00683897  1
  Al0+  Al58  1  0.50286720  0.50098069  0.33511223  1
  Al0+  Al59  1  0.49899907  0.50003298  0.67236850  1
  Al0+  Al60  1  0.25231305  0.25036850  -0.00110679  1
  Al0+  Al61  1  0.25340027  0.25409130  0.33748898  1
  Al0+  Al62  1  0.25151045  0.25347514  0.66691835  1
  Al0+  Al63  1  0.25095394  0.75274888  0.00220741  1
  Al0+  Al64  1  0.25199161  0.75306250  0.33240395  1
  Al0+  Al65  1  0.24925534  0.75227882  0.66771461  1
  Al0+  Al66  1  0.74926539  0.24580512  0.00384416  1
  Al0+  Al67  1  0.74924055  0.24792188  0.33590311  1
  Al0+  Al68  1  0.74662124  0.24686827  0.66929145  1
  Al0+  Al69  1  0.74628021  0.74569769  -0.00097518  1
  Al0+  Al70  1  0.74909179  0.74822395  0.33173954  1
  Al0+  Al71  1  0.74610643  0.74740365  0.66763137  1
  Al0+  Al72  1  0.17593951  0.93071780  0.68138240  1
  Al0+  Al73  1  0.07550721  0.18008427  0.31713566  1
  Al0+  Al74  1  0.07290979  0.67857111  0.65159905  1
  Al0+  Al75  1  0.68182943  0.92911533  0.34497224  1
  Al0+  Al76  1  0.68001640  0.42774558  0.68084316  1
  Al0+  Al77  1  0.92718564  0.32061535  0.31912103  1
  Al0+  Al78  1  0.82346130  0.57127789  0.01484677  1
  Al0+  Al79  1  0.32013157  0.07109508  0.01454218  1
  Al0+  Al80  1  0.92677451  0.32149766  0.98464936  1
  Al0+  Al81  1  0.68053436  0.42779004  0.34887856  1
  Al0+  Al82  1  0.92862874  0.81865718  0.31803948  1
  Al0+  Al83  1  0.31998246  0.07090496  0.34702701  1
  Al0+  Al84  1  0.82299964  0.06735201  0.01302497  1
  Al0+  Al85  1  0.68038427  0.42642172  0.01627289  1
  Al0+  Al86  1  0.31958865  0.57333993  0.01458334  1
  Al0+  Al87  1  0.92687206  0.81860107  0.98618295  1
  Al0+  Al88  1  0.92599013  0.82105022  0.65126674  1
  Al0+  Al89  1  0.32027752  0.07354670  0.68334696  1
  Al0+  Al90  1  0.42913941  0.82201162  0.98526964  1
  Al0+  Al91  1  0.17904620  0.43207789  0.34659515  1
  Al0+  Al92  1  0.07333369  0.17958332  0.98347994  1
  Al0+  Al93  1  0.68007340  0.92612028  0.68141979  1
  Al0+  Al94  1  0.31859580  0.57131121  0.67909223  1
  Al0+  Al95  1  0.07205434  0.18209321  0.65153126  1
  Si0+  Si96  1  0.17745941  0.92614866  0.34985297  1
  Si0+  Si97  1  0.07490783  0.67806953  0.31625490  1
  Si0+  Si98  1  0.82131985  0.07101637  0.68154271  1
  Si0+  Si99  1  0.92442327  0.32106262  0.65135302  1
  Si0+  Si100  1  0.82529932  0.07068926  0.34930482  1
  Si0+  Si101  1  0.43157519  0.32291573  0.65168777  1
  Si0+  Si102  1  0.56873545  0.67588483  0.98134182  1
  Si0+  Si103  1  0.57052085  0.17777152  0.65052212  1
  Si0+  Si104  1  0.42969873  0.82311054  0.65031178  1
  Si0+  Si105  1  0.56942844  0.17723607  0.31917307  1
  Si0+  Si106  1  0.32288786  0.57436189  0.34904051  1
  Si0+  Si107  1  0.57018737  0.67767681  0.31716587  1
  Si0+  Si108  1  0.43057625  0.32236598  0.98538080  1
  Si0+  Si109  1  0.17884718  0.42729060  0.01543522  1
  Si0+  Si110  1  0.57050942  0.17795767  0.98497032  1
  Si0+  Si111  1  0.43116181  0.82262921  0.31968999  1
  Si0+  Si112  1  0.56751990  0.67764150  0.65115130  1
  Si0+  Si113  1  0.17747586  0.92870211  0.01790484  1
  Si0+  Si114  1  0.07322323  0.67783350  0.98578411  1
  Si0+  Si115  1  0.82146902  0.57110704  0.68245205  1
  Si0+  Si116  1  0.67696948  0.92727916  0.01483490  1
  Si0+  Si117  1  0.17535270  0.42883270  0.68351151  1
  Si0+  Si118  1  0.43192214  0.32327219  0.31850266  1
  Si0+  Si119  1  0.82214028  0.57264674  0.35134173  1
  O2-  O120  1  0.24306303  0.00042164  0.06277899  1
  O2-  O121  1  0.24162704  0.00008255  0.39236597  1
  O2-  O122  1  0.24651381  0.00367153  0.73268592  1
  O2-  O123  1  0.24342710  0.50041231  0.05990740  1
  O2-  O124  1  0.25074944  0.51034453  0.39340686  1
  O2-  O125  1  0.23816556  0.50339632  0.72703554  1
  O2-  O126  1  0.75096112  -0.01081715  0.05959382  1
  O2-  O127  1  0.76098951  -0.00232962  0.39383749  1
  O2-  O128  1  0.75943023  -0.00412874  0.72610522  1
  O2-  O129  1  0.75711399  0.49380874  0.06541595  1
  O2-  O130  1  0.75948064  0.49784637  0.39561621  1
  O2-  O131  1  0.75959550  0.49624914  0.72628634  1
  O2-  O132  1  -0.00150252  0.24794708  0.26906132  1
  O2-  O133  1  -0.00215756  0.25836740  0.60629582  1
  O2-  O134  1  -0.00045576  0.25059280  0.93435376  1
  O2-  O135  1  0.00501370  0.74500437  0.27167390  1
  O2-  O136  1  0.00047105  0.75059839  0.60197773  1
  O2-  O137  1  0.00006117  0.74158936  0.94176951  1
  O2-  O138  1  0.50200802  0.25142840  0.27619497  1
  O2-  O139  1  0.49902740  0.24865594  0.60851311  1
  O2-  O140  1  0.50269377  0.25257089  0.94323040  1
  O2-  O141  1  0.49901922  0.74928220  0.27617702  1
  O2-  O142  1  0.49982069  0.75120848  0.60688851  1
  O2-  O143  1  0.50182770  0.74614026  0.93678489  1
  O2-  O144  1  0.07552627  0.18404447  0.09681000  1
  O2-  O145  1  0.07563402  0.18240022  0.43099799  1
  O2-  O146  1  0.07175544  0.18308835  0.76426908  1
  O2-  O147  1  0.07572174  0.68097724  0.09162486  1
  O2-  O148  1  0.07704527  0.68016619  0.42152731  1
  O2-  O149  1  0.07192250  0.67974497  0.76517990  1
  O2-  O150  1  0.56804916  0.17532366  0.09034809  1
  O2-  O151  1  0.56708885  0.17623186  0.42440129  1
  O2-  O152  1  0.57194121  0.17849964  0.75558260  1
  O2-  O153  1  0.56714092  0.67646932  0.08734988  1
  O2-  O154  1  0.56846025  0.67588005  0.42256376  1
  O2-  O155  1  0.56509726  0.67643971  0.75583064  1
  O2-  O156  1  0.18359679  0.43295331  0.23349813  1
  O2-  O157  1  0.18026025  0.42744871  0.57779908  1
  O2-  O158  1  0.18279880  0.42557948  0.90986848  1
  O2-  O159  1  0.18197610  0.91913662  0.24472261  1
  O2-  O160  1  0.17990244  0.93119617  0.56736427  1
  O2-  O161  1  0.17995472  0.92686921  0.91262246  1
  O2-  O162  1  0.67571897  0.43112195  0.23671057  1
  O2-  O163  1  0.67855580  0.42959299  0.56753213  1
  O2-  O164  1  0.67738799  0.42961887  0.90255553  1
  O2-  O165  1  0.67755350  0.93248514  0.23220045  1
  O2-  O166  1  0.67802668  0.92840563  0.56802753  1
  O2-  O167  1  0.67565987  0.93100736  0.90919922  1
  O2-  O168  1  0.43030201  0.32197914  0.09080498  1
  O2-  O169  1  0.43329153  0.32513403  0.42378578  1
  O2-  O170  1  0.43382572  0.32498723  0.75680300  1
  O2-  O171  1  0.43260053  0.82217906  0.09920359  1
  O2-  O172  1  0.43258297  0.82154329  0.42480524  1
  O2-  O173  1  0.43171581  0.82231620  0.75528304  1
  O2-  O174  1  0.92754211  0.31933065  0.09807634  1
  O2-  O175  1  0.92676087  0.31694671  0.43320304  1
  O2-  O176  1  0.92292746  0.31891919  0.75661008  1
  O2-  O177  1  0.92850803  0.81836861  0.09953998  1
  O2-  O178  1  0.92615013  0.81581907  0.43072360  1
  O2-  O179  1  0.92426284  0.81738477  0.76473991  1
  O2-  O180  1  0.32403920  0.06819520  0.23401470  1
  O2-  O181  1  0.32179195  0.07153547  0.56942699  1
  O2-  O182  1  0.32189411  0.06978890  0.90222260  1
  O2-  O183  1  0.32395187  0.57345328  0.24355087  1
  O2-  O184  1  0.32294035  0.56654547  0.56586562  1
  O2-  O185  1  0.31963795  0.57157474  0.90144889  1
  O2-  O186  1  0.82065583  0.07093254  0.24375210  1
  O2-  O187  1  0.81578121  0.07503496  0.57601508  1
  O2-  O188  1  0.81974039  0.06731863  0.89980448  1
  O2-  O189  1  0.81763968  0.57554872  0.24614486  1
  O2-  O190  1  0.81728296  0.57349484  0.57675346  1
  O2-  O191  1  0.81839234  0.57253007  0.90119741  1
  O2-  O192  1  0.05666698  0.07925839  0.26556158  1
  O2-  O193  1  0.04196919  0.08671074  0.59477647  1
  O2-  O194  1  0.04527221  0.08047157  0.93249520  1
  O2-  O195  1  0.05208303  0.58349217  0.27165110  1
  O2-  O196  1  0.04553590  0.57923019  0.59754692  1
  O2-  O197  1  0.05667527  0.58215291  0.94091880  1
  O2-  O198  1  0.53726905  0.08722649  0.27076739  1
  O2-  O199  1  0.54241274  0.08583576  0.60283879  1
  O2-  O200  1  0.53862741  0.08877068  0.93499132  1
  O2-  O201  1  0.54104041  0.58692172  0.26823398  1
  O2-  O202  1  0.53545126  0.58694346  0.60279899  1
  O2-  O203  1  0.53978376  0.58263670  0.93646271  1
  O2-  O204  1  0.17346793  0.21577304  0.26703327  1
  O2-  O205  1  0.16975049  0.21408131  0.59910598  1
  O2-  O206  1  0.17185751  0.21029207  0.93080407  1
  O2-  O207  1  0.16921879  0.70433688  0.27010361  1
  O2-  O208  1  0.17201748  0.70586274  0.59794076  1
  O2-  O209  1  0.16532151  0.70889737  0.93967003  1
  O2-  O210  1  0.66246407  0.20154460  0.27311128  1
  O2-  O211  1  0.66149574  0.20592204  0.60124456  1
  O2-  O212  1  0.66264515  0.20214402  0.93716891  1
  O2-  O213  1  0.66081541  0.70576560  0.26884001  1
  O2-  O214  1  0.65956279  0.70235646  0.60292731  1
  O2-  O215  1  0.66229904  0.69874201  0.93480521  1
  O2-  O216  1  0.08416721  0.44827397  0.06023305  1
  O2-  O217  1  0.08211695  0.45776399  0.40259017  1
  O2-  O218  1  0.07846276  0.44598494  0.72507921  1
  O2-  O219  1  0.08265744  0.95035305  0.06188089  1
  O2-  O220  1  0.08165564  0.94689421  0.39255081  1
  O2-  O221  1  0.07554482  0.95673285  0.73055908  1
  O2-  O222  1  0.58339617  0.45959904  0.07026198  1
  O2-  O223  1  0.58502357  0.46405543  0.40360909  1
  O2-  O224  1  0.58558529  0.46332362  0.73529732  1
  O2-  O225  1  0.58575984  0.96026614  0.06128358  1
  O2-  O226  1  0.58795758  0.96412525  0.40241716  1
  O2-  O227  1  0.58594880  0.96205306  0.73632198  1
  O2-  O228  1  0.21287013  0.33743070  0.06351503  1
  O2-  O229  1  0.21719620  0.33959363  0.40396625  1
  O2-  O230  1  0.20986297  0.33948783  0.73181919  1
  O2-  O231  1  0.20754093  0.83758647  0.06677431  1
  O2-  O232  1  0.20893327  0.83508183  0.39897232  1
  O2-  O233  1  0.20608726  0.83309370  0.73423454  1
  O2-  O234  1  0.70054634  0.32598200  0.06770758  1
  O2-  O235  1  0.70418772  0.32881168  0.40279518  1
  O2-  O236  1  0.70312209  0.32884023  0.73343485  1
  O2-  O237  1  0.69311510  0.83054721  0.05702185  1
  O2-  O238  1  0.70599435  0.83005971  0.39794402  1
  O2-  O239  1  0.70198595  0.82748923  0.73499782  1
  O2-  O240  1  0.46094149  0.41474102  0.27041606  1
  O2-  O241  1  0.46396497  0.41284523  0.60278893  1
  O2-  O242  1  0.45806785  0.41482485  0.93878661  1
  O2-  O243  1  0.46362392  0.91327646  0.27269199  1
  O2-  O244  1  0.46042805  0.91484264  0.60415590  1
  O2-  O245  1  0.46160269  0.91703110  0.92923089  1
  O2-  O246  1  0.95381742  0.42128815  0.26978115  1
  O2-  O247  1  0.94117863  0.41719890  0.60697306  1
  O2-  O248  1  0.95262101  0.42135313  0.93250826  1
  O2-  O249  1  0.95772587  0.91558613  0.26360859  1
  O2-  O250  1  0.94943407  0.92025452  0.59773757  1
  O2-  O251  1  0.95773079  0.91415181  0.93124501  1
  O2-  O252  1  0.34055608  0.29635889  0.27100720  1
  O2-  O253  1  0.33894281  0.29910469  0.60401578  1
  O2-  O254  1  0.34035854  0.29411376  0.93597531  1
  O2-  O255  1  0.33870465  0.79865604  0.27150435  1
  O2-  O256  1  0.33810998  0.79584422  0.60300704  1
  O2-  O257  1  0.33206696  0.79192692  0.93256555  1
  O2-  O258  1  0.82690079  0.29336758  0.26860052  1
  O2-  O259  1  0.83174891  0.28930706  0.60544057  1
  O2-  O260  1  0.82740636  0.29033533  0.93444814  1
  O2-  O261  1  0.83153011  0.78724094  0.26440194  1
  O2-  O262  1  0.82726694  0.78737645  0.59957459  1
  O2-  O263  1  0.82818281  0.79010764  0.93452989  1
  O2-  O264  1  0.41660550  0.03726657  0.06813543  1
  O2-  O265  1  0.41455919  0.03659655  0.40348001  1
  O2-  O266  1  0.41893669  0.04436289  0.73463962  1
  O2-  O267  1  0.41437545  0.54052976  0.07032870  1
  O2-  O268  1  0.41522306  0.54454731  0.39535114  1
  O2-  O269  1  0.41197669  0.53481163  0.73584520  1
  O2-  O270  1  0.91976223  0.03909630  0.06718395  1
  O2-  O271  1  0.92182162  0.04944480  0.39025602  1
  O2-  O272  1  0.91737099  0.05356072  0.72338929  1
  O2-  O273  1  0.92488439  0.55321922  0.06565736  1
  O2-  O274  1  0.91834355  0.55605031  0.39459827  1
  O2-  O275  1  0.91770456  0.55374014  0.72560468  1
  O2-  O276  1  0.29500812  0.17000431  0.06759483  1
  O2-  O277  1  0.29714031  0.16973361  0.39995617  1
  O2-  O278  1  0.29718597  0.17451182  0.73319880  1
  O2-  O279  1  0.29192758  0.67022804  0.06970989  1
  O2-  O280  1  0.30278659  0.67011470  0.39339122  1
  O2-  O281  1  0.29515282  0.66974589  0.73206442  1
  O2-  O282  1  0.78698283  0.16057460  0.06988952  1
  O2-  O283  1  0.79377420  0.16118780  0.39778582  1
  O2-  O284  1  0.78641388  0.15995312  0.73177325  1
  O2-  O285  1  0.78555110  0.66661919  0.07022000  1
  O2-  O286  1  0.78681610  0.66232584  0.39954841  1
  O2-  O287  1  0.78735143  0.66076078  0.73068027  1
