# generated using pymatgen
data_Ca2Al2SiO7
_symmetry_space_group_name_H-M   'P 1'
_cell_length_a   15.45936222
_cell_length_b   15.45862488
_cell_length_c   15.28454555
_cell_angle_alpha   89.99402951
_cell_angle_beta   89.99355384
_cell_angle_gamma   89.98830040
_symmetry_Int_Tables_number   1
_chemical_formula_structural   Ca2Al2SiO7
_chemical_formula_sum   'Ca48 Al48 Si24 O168'
_cell_volume   3652.70793642
_cell_formula_units_Z   24
loop_
 _symmetry_equiv_pos_site_id
 _symmetry_equiv_pos_as_xyz
  1  'x, y, z'
loop_
 _atom_type_symbol
 _atom_type_oxidation_number
  Ca2+  2.0
  Al0+  0.0
  Si0+  0.0
  O2-  -2.0
loop_
 _atom_site_type_symbol
 _atom_site_label
 _atom_site_symmetry_multiplicity
 _atom_site_fract_x
 _atom_site_fract_y
 _atom_site_fract_z
 _atom_site_occupancy
  Ca2+  Ca0  1  0.15484438  0.07870271  0.16602119  1
  Ca2+  Ca1  1  0.17217345  0.08317191  0.50552233  1
  Ca2+  Ca2  1  0.16727926  0.07955321  0.83951811  1
  Ca2+  Ca3  1  0.17453521  0.57826070  0.17270207  1
  Ca2+  Ca4  1  0.17791951  0.57314319  0.50822737  1
  Ca2+  Ca5  1  0.17548196  0.58537190  0.83672381  1
  Ca2+  Ca6  1  0.67483072  0.08641363  0.16748186  1
  Ca2+  Ca7  1  0.66068206  0.07735615  0.51179640  1
  Ca2+  Ca8  1  0.66575903  0.07787298  0.83827819  1
  Ca2+  Ca9  1  0.67739111  0.59054827  0.16490176  1
  Ca2+  Ca10  1  0.67145874  0.58827113  0.50323935  1
  Ca2+  Ca11  1  0.66908627  0.58823830  0.84244490  1
  Ca2+  Ca12  1  0.08607752  0.32429440  0.16083819  1
  Ca2+  Ca13  1  0.09447588  0.33095124  0.49506893  1
  Ca2+  Ca14  1  0.07897983  0.33669263  0.83268719  1
  Ca2+  Ca15  1  0.07893718  0.82562415  0.15199348  1
  Ca2+  Ca16  1  0.08953599  0.82196749  0.49930616  1
  Ca2+  Ca17  1  0.08465903  0.82423274  0.83686117  1
  Ca2+  Ca18  1  0.57067649  0.34237864  0.16280458  1
  Ca2+  Ca19  1  0.56907907  0.33098467  0.49980655  1
  Ca2+  Ca20  1  0.56908633  0.33082718  0.82651200  1
  Ca2+  Ca21  1  0.57399717  0.82671836  0.16325434  1
  Ca2+  Ca22  1  0.57789848  0.83120930  0.49961570  1
  Ca2+  Ca23  1  0.58959190  0.82207440  0.82865823  1
  Ca2+  Ca24  1  0.33445428  0.42529810  0.17234194  1
  Ca2+  Ca25  1  0.32766098  0.41714429  0.50613387  1
  Ca2+  Ca26  1  0.33439276  0.42199998  0.83607626  1
  Ca2+  Ca27  1  0.32516575  0.91291129  0.16955862  1
  Ca2+  Ca28  1  0.34124271  0.92462618  0.50624514  1
  Ca2+  Ca29  1  0.33038863  0.92585630  0.83874172  1
  Ca2+  Ca30  1  0.84196346  0.42819092  0.16709219  1
  Ca2+  Ca31  1  0.83300415  0.42312974  0.50178881  1
  Ca2+  Ca32  1  0.82965095  0.41989246  0.84342415  1
  Ca2+  Ca33  1  0.84001493  0.92037161  0.16379528  1
  Ca2+  Ca34  1  0.82382283  0.91946343  0.50804372  1
  Ca2+  Ca35  1  0.83131582  0.91880369  0.84105656  1
  Ca2+  Ca36  1  0.41436593  0.18315253  0.16128091  1
  Ca2+  Ca37  1  0.40950734  0.17759104  0.49966479  1
  Ca2+  Ca38  1  0.41395999  0.17711416  0.82489113  1
  Ca2+  Ca39  1  0.41481916  0.66522386  0.15977247  1
  Ca2+  Ca40  1  0.41769762  0.66338561  0.49651742  1
  Ca2+  Ca41  1  0.42481934  0.65948560  0.82813094  1
  Ca2+  Ca42  1  0.92549311  0.17216937  0.15459245  1
  Ca2+  Ca43  1  0.92569441  0.17082501  0.49259612  1
  Ca2+  Ca44  1  0.91852012  0.16584382  0.83746806  1
  Ca2+  Ca45  1  0.92175125  0.66699479  0.15398189  1
  Ca2+  Ca46  1  0.92279017  0.66315468  0.49855730  1
  Ca2+  Ca47  1  0.93046868  0.66115239  0.83272340  1
  Al0+  Al48  1  -0.00114344  -0.00042323  -0.00043459  1
  Al0+  Al49  1  -0.00032968  -0.00054460  0.33416777  1
  Al0+  Al50  1  -0.00220670  0.00043526  0.66494633  1
  Al0+  Al51  1  0.00088048  0.49841596  -0.00308262  1
  Al0+  Al52  1  0.00020218  0.49951341  0.34212858  1
  Al0+  Al53  1  0.00059842  0.50067427  0.66421506  1
  Al0+  Al54  1  0.49888409  0.00042887  0.00481757  1
  Al0+  Al55  1  0.50026916  -0.00204312  0.32698878  1
  Al0+  Al56  1  0.50129059  -0.00136063  0.67669344  1
  Al0+  Al57  1  0.49956719  0.50080950  -0.00348497  1
  Al0+  Al58  1  0.50453499  0.50067949  0.33257978  1
  Al0+  Al59  1  0.50146432  0.49962712  0.65891676  1
  Al0+  Al60  1  0.25030727  0.25004155  -0.00859953  1
  Al0+  Al61  1  0.25062175  0.24779803  0.32558640  1
  Al0+  Al62  1  0.24709594  0.24983140  0.67193891  1
  Al0+  Al63  1  0.25045026  0.75222585  0.00370220  1
  Al0+  Al64  1  0.24993667  0.74967255  0.33318081  1
  Al0+  Al65  1  0.24923008  0.74947658  0.66492380  1
  Al0+  Al66  1  0.74806355  0.24894960  0.00315336  1
  Al0+  Al67  1  0.75137541  0.25074746  0.33524141  1
  Al0+  Al68  1  0.75124621  0.25094968  0.66193264  1
  Al0+  Al69  1  0.74823068  0.75089631  -0.00061558  1
  Al0+  Al70  1  0.75020142  0.75203832  0.33837822  1
  Al0+  Al71  1  0.75002349  0.75206309  0.66589366  1
  Al0+  Al72  1  0.07015332  0.17837757  0.98221347  1
  Al0+  Al73  1  0.82197561  0.57032844  0.01082571  1
  Al0+  Al74  1  0.07046936  0.17876244  0.31967595  1
  Al0+  Al75  1  0.42833011  0.82051395  0.31934702  1
  Al0+  Al76  1  0.57123056  0.17723873  0.65410888  1
  Al0+  Al77  1  0.56836971  0.68163257  0.98775481  1
  Al0+  Al78  1  0.32347755  0.57267931  0.34855248  1
  Al0+  Al79  1  0.92702814  0.32171969  0.98570051  1
  Al0+  Al80  1  0.43050347  0.32130557  0.31858728  1
  Al0+  Al81  1  0.42987550  0.32155051  0.98496665  1
  Al0+  Al82  1  0.82058292  0.57228990  0.34813869  1
  Al0+  Al83  1  0.18152807  0.42655973  0.34647475  1
  Al0+  Al84  1  0.32158591  0.56996235  0.01311204  1
  Al0+  Al85  1  0.07385202  0.67692101  0.98659984  1
  Al0+  Al86  1  0.57233528  0.67896088  0.65130452  1
  Al0+  Al87  1  0.67955184  0.92955760  0.68197996  1
  Al0+  Al88  1  0.07208406  0.67871707  0.65052939  1
  Al0+  Al89  1  0.81907706  0.07068112  0.01440577  1
  Al0+  Al90  1  0.17751467  0.42873916  0.68471410  1
  Al0+  Al91  1  0.92800852  0.82077822  0.98549586  1
  Al0+  Al92  1  0.31992507  0.07000179  0.67996974  1
  Al0+  Al93  1  0.42620983  0.31981039  0.65008127  1
  Al0+  Al94  1  0.32345220  0.57113747  0.68200724  1
  Al0+  Al95  1  0.18007851  0.93128996  0.01342772  1
  Si0+  Si96  1  0.32139843  0.06835827  0.34518471  1
  Si0+  Si97  1  0.42787228  0.82178588  0.65346040  1
  Si0+  Si98  1  0.67618449  0.92664802  0.02077986  1
  Si0+  Si99  1  0.92827025  0.82033978  0.31975206  1
  Si0+  Si100  1  0.57166149  0.17602879  0.98526703  1
  Si0+  Si101  1  0.92866587  0.82235067  0.64843962  1
  Si0+  Si102  1  0.17695244  0.92858327  0.34899106  1
  Si0+  Si103  1  0.17486354  0.92731294  0.68225709  1
  Si0+  Si104  1  0.82219023  0.07125342  0.34945354  1
  Si0+  Si105  1  0.67823375  0.42624746  0.35224340  1
  Si0+  Si106  1  0.32231812  0.07453162  0.01902506  1
  Si0+  Si107  1  0.82289793  0.07411851  0.68283462  1
  Si0+  Si108  1  0.92833329  0.32256302  0.64944305  1
  Si0+  Si109  1  0.57364199  0.17658601  0.31641390  1
  Si0+  Si110  1  0.92681686  0.32312160  0.31742553  1
  Si0+  Si111  1  0.67718127  0.42828671  0.01550490  1
  Si0+  Si112  1  0.42654841  0.82439225  0.98283628  1
  Si0+  Si113  1  0.17818548  0.42657425  0.01593418  1
  Si0+  Si114  1  0.67848910  0.93185363  0.34881487  1
  Si0+  Si115  1  0.68040588  0.42815640  0.68014935  1
  Si0+  Si116  1  0.06874746  0.17800763  0.65124097  1
  Si0+  Si117  1  0.81976068  0.57113517  0.68198987  1
  Si0+  Si118  1  0.06942129  0.67847895  0.31931947  1
  Si0+  Si119  1  0.57458068  0.67944840  0.31646022  1
  O2-  O120  1  0.25337725  0.00625698  0.06347504  1
  O2-  O121  1  0.25060522  -0.00242945  0.38984360  1
  O2-  O122  1  0.24504620  -0.00536754  0.72526785  1
  O2-  O123  1  0.24570545  0.49640461  0.05998629  1
  O2-  O124  1  0.25435409  0.49735467  0.39733070  1
  O2-  O125  1  0.25143915  0.49960637  0.73284747  1
  O2-  O126  1  0.74461795  -0.00354282  0.06407894  1
  O2-  O127  1  0.74707396  0.00519753  0.39207476  1
  O2-  O128  1  0.75202194  0.00764093  0.72591481  1
  O2-  O129  1  0.75042189  0.49291849  0.05917777  1
  O2-  O130  1  0.74663303  0.49653708  0.39505380  1
  O2-  O131  1  0.74777342  0.50161631  0.72419669  1
  O2-  O132  1  -0.00387278  0.25467873  0.27490577  1
  O2-  O133  1  -0.00000627  0.25109638  0.60870406  1
  O2-  O134  1  -0.00115139  0.25146372  0.93262839  1
  O2-  O135  1  -0.00255367  0.74848040  0.27697351  1
  O2-  O136  1  -0.00132798  0.75565079  0.60328450  1
  O2-  O137  1  -0.00212481  0.74612868  0.93711244  1
  O2-  O138  1  0.50841805  0.24825115  0.27240691  1
  O2-  O139  1  0.49712893  0.24490859  0.60129459  1
  O2-  O140  1  0.50206511  0.24283844  0.94120062  1
  O2-  O141  1  0.49852804  0.74072886  0.27369983  1
  O2-  O142  1  0.49289166  0.75031391  0.60722101  1
  O2-  O143  1  0.49522519  0.75650096  0.93880306  1
  O2-  O144  1  0.06793661  0.17899403  0.09618521  1
  O2-  O145  1  0.06869685  0.17600513  0.43333104  1
  O2-  O146  1  0.06544346  0.17361808  0.75548958  1
  O2-  O147  1  0.07247734  0.67801267  0.10096163  1
  O2-  O148  1  0.06850116  0.68184900  0.42450008  1
  O2-  O149  1  0.07070123  0.67901181  0.76311809  1
  O2-  O150  1  0.57096420  0.17630485  0.09130462  1
  O2-  O151  1  0.57220260  0.17357965  0.42169380  1
  O2-  O152  1  0.57260704  0.18140076  0.76741598  1
  O2-  O153  1  0.56906540  0.68310696  0.10111614  1
  O2-  O154  1  0.57813735  0.68434336  0.42198066  1
  O2-  O155  1  0.57650790  0.68088487  0.76408192  1
  O2-  O156  1  0.17994040  0.42808203  0.23296408  1
  O2-  O157  1  0.17833234  0.42789417  0.57082904  1
  O2-  O158  1  0.17888988  0.42718278  0.91064873  1
  O2-  O159  1  0.17411884  0.92951045  0.24426027  1
  O2-  O160  1  0.17360015  0.93006605  0.57596195  1
  O2-  O161  1  0.18316079  0.93163326  0.90024058  1
  O2-  O162  1  0.67809005  0.42397068  0.24685639  1
  O2-  O163  1  0.68481674  0.42773913  0.57496015  1
  O2-  O164  1  0.67697595  0.42958657  0.90968196  1
  O2-  O165  1  0.67994709  0.93116662  0.24407523  1
  O2-  O166  1  0.68147746  0.92997982  0.56790229  1
  O2-  O167  1  0.67523426  0.92758580  0.91542878  1
  O2-  O168  1  0.43170254  0.32214905  0.09858964  1
  O2-  O169  1  0.42881253  0.31736186  0.43120174  1
  O2-  O170  1  0.42945471  0.31987824  0.76338959  1
  O2-  O171  1  0.42797361  0.82415161  0.08887212  1
  O2-  O172  1  0.43356634  0.82819622  0.43212593  1
  O2-  O173  1  0.42913269  0.82239624  0.75874126  1
  O2-  O174  1  0.92889399  0.32152631  0.09959804  1
  O2-  O175  1  0.92366348  0.31970412  0.42331380  1
  O2-  O176  1  0.92504838  0.32267476  0.75398653  1
  O2-  O177  1  0.93040210  0.81927028  0.10019014  1
  O2-  O178  1  0.92893395  0.82149898  0.42492880  1
  O2-  O179  1  0.92829613  0.82307183  0.75329804  1
  O2-  O180  1  0.32133592  0.06639471  0.24047787  1
  O2-  O181  1  0.31822195  0.06910460  0.56575447  1
  O2-  O182  1  0.32401207  0.07155068  0.91350402  1
  O2-  O183  1  0.31962050  0.57318764  0.23476330  1
  O2-  O184  1  0.32214822  0.57057698  0.56831275  1
  O2-  O185  1  0.32422869  0.56863104  0.90052770  1
  O2-  O186  1  0.82310152  0.06928826  0.24470367  1
  O2-  O187  1  0.82533521  0.07158712  0.57663606  1
  O2-  O188  1  0.81598890  0.06972639  0.90133148  1
  O2-  O189  1  0.82059107  0.57393883  0.23519002  1
  O2-  O190  1  0.81896115  0.56968205  0.57636323  1
  O2-  O191  1  0.81916513  0.56984593  0.89768520  1
  O2-  O192  1  0.03596368  0.08208885  0.26716392  1
  O2-  O193  1  0.03943111  0.08709604  0.60094160  1
  O2-  O194  1  0.03833670  0.08118320  0.93007259  1
  O2-  O195  1  0.04161188  0.58536107  0.27567307  1
  O2-  O196  1  0.03653511  0.58403312  0.59517956  1
  O2-  O197  1  0.04751004  0.57928259  0.93262939  1
  O2-  O198  1  0.54744034  0.08446178  0.26780464  1
  O2-  O199  1  0.54622575  0.07572248  0.60582890  1
  O2-  O200  1  0.54814064  0.08083342  0.94129037  1
  O2-  O201  1  0.56100858  0.58272009  0.27357850  1
  O2-  O202  1  0.54816010  0.58226446  0.59464778  1
  O2-  O203  1  0.53998674  0.58563735  0.93244914  1
  O2-  O204  1  0.16619427  0.20430776  0.26251775  1
  O2-  O205  1  0.16119904  0.20433384  0.60505428  1
  O2-  O206  1  0.16895106  0.20245856  0.92952727  1
  O2-  O207  1  0.16088978  0.70707872  0.27265667  1
  O2-  O208  1  0.16785793  0.71028364  0.59426382  1
  O2-  O209  1  0.16996216  0.71287409  0.93387137  1
  O2-  O210  1  0.66970185  0.20008114  0.27335235  1
  O2-  O211  1  0.66951695  0.20590281  0.59873310  1
  O2-  O212  1  0.66528333  0.19990773  0.93999307  1
  O2-  O213  1  0.66546035  0.71513780  0.26991947  1
  O2-  O214  1  0.66745697  0.71544238  0.59636867  1
  O2-  O215  1  0.66438599  0.71235655  0.93290120  1
  O2-  O216  1  0.08366258  0.44906037  0.06131639  1
  O2-  O217  1  0.08305065  0.45229653  0.40138079  1
  O2-  O218  1  0.07794381  0.45891346  0.73443264  1
  O2-  O219  1  0.08320953  0.96085099  0.06806995  1
  O2-  O220  1  0.08640701  0.95810443  0.39880833  1
  O2-  O221  1  0.08164199  0.95572349  0.72740875  1
  O2-  O222  1  0.58686729  0.46162803  0.06343217  1
  O2-  O223  1  0.58562571  0.45216774  0.39961587  1
  O2-  O224  1  0.58691974  0.45253016  0.72420530  1
  O2-  O225  1  0.58240964  0.95263992  0.06780570  1
  O2-  O226  1  0.58586431  0.95877309  0.39534154  1
  O2-  O227  1  0.58476627  0.95501909  0.74099590  1
  O2-  O228  1  0.20524910  0.33188548  0.05932493  1
  O2-  O229  1  0.20951948  0.32602843  0.39691046  1
  O2-  O230  1  0.19980679  0.32912020  0.73685706  1
  O2-  O231  1  0.21103456  0.83627926  0.07142344  1
  O2-  O232  1  0.20341086  0.83636513  0.39573117  1
  O2-  O233  1  0.19782999  0.83300126  0.72623538  1
  O2-  O234  1  0.69532441  0.33339649  0.06199507  1
  O2-  O235  1  0.70498779  0.33300254  0.39996031  1
  O2-  O236  1  0.71146990  0.33732284  0.72777325  1
  O2-  O237  1  0.70299967  0.83427529  0.06814848  1
  O2-  O238  1  0.70894167  0.84187618  0.39847316  1
  O2-  O239  1  0.71552170  0.83455327  0.73581175  1
  O2-  O240  1  0.46297977  0.41845430  0.26549550  1
  O2-  O241  1  0.45937088  0.41553523  0.59503482  1
  O2-  O242  1  0.46553124  0.41513457  0.92983091  1
  O2-  O243  1  0.46324613  0.91411218  0.26065289  1
  O2-  O244  1  0.45939939  0.91429275  0.60780348  1
  O2-  O245  1  0.45178461  0.91956939  0.93961996  1
  O2-  O246  1  0.95169809  0.41845013  0.27546539  1
  O2-  O247  1  0.95538042  0.41389092  0.60088661  1
  O2-  O248  1  0.95333499  0.41925503  0.93040489  1
  O2-  O249  1  0.95719086  0.91204266  0.27294746  1
  O2-  O250  1  0.95124469  0.91713461  0.60130294  1
  O2-  O251  1  0.95776868  0.91763157  0.93195202  1
  O2-  O252  1  0.33682609  0.28673270  0.26189588  1
  O2-  O253  1  0.32678935  0.28874815  0.59998952  1
  O2-  O254  1  0.33444689  0.29275928  0.92941173  1
  O2-  O255  1  0.32974637  0.79476901  0.26606707  1
  O2-  O256  1  0.33287333  0.80405141  0.60653525  1
  O2-  O257  1  0.33278925  0.80135199  0.93826527  1
  O2-  O258  1  0.83312812  0.29804597  0.27117345  1
  O2-  O259  1  0.83817936  0.29419379  0.59828668  1
  O2-  O260  1  0.82715196  0.29300648  0.93514623  1
  O2-  O261  1  0.83505661  0.79594058  0.27395034  1
  O2-  O262  1  0.83640319  0.79392080  0.60060253  1
  O2-  O263  1  0.82793628  0.79827825  0.93500867  1
  O2-  O264  1  0.41601791  0.05016214  0.06644218  1
  O2-  O265  1  0.41371734  0.03979207  0.39188251  1
  O2-  O266  1  0.41454947  0.04002862  0.73759127  1
  O2-  O267  1  0.41789153  0.53723463  0.06759082  1
  O2-  O268  1  0.42610433  0.55126914  0.39521651  1
  O2-  O269  1  0.42460481  0.54351628  0.72999623  1
  O2-  O270  1  0.91484161  0.03837842  0.06917304  1
  O2-  O271  1  0.91166299  0.03836417  0.39924100  1
  O2-  O272  1  0.91521522  0.04516131  0.72969453  1
  O2-  O273  1  0.91913092  0.54117241  0.06572755  1
  O2-  O274  1  0.91536922  0.54128550  0.40608847  1
  O2-  O275  1  0.91155192  0.54146496  0.72664651  1
  O2-  O276  1  0.29626397  0.16929891  0.06182520  1
  O2-  O277  1  0.29201987  0.15975282  0.39157720  1
  O2-  O278  1  0.28749060  0.16441275  0.73548116  1
  O2-  O279  1  0.29459921  0.66804952  0.06604834  1
  O2-  O280  1  0.29307297  0.67112843  0.40122468  1
  O2-  O281  1  0.29554754  0.67140192  0.73193914  1
  O2-  O282  1  0.78828052  0.16651308  0.07196418  1
  O2-  O283  1  0.80049957  0.16521589  0.39575542  1
  O2-  O284  1  0.80092836  0.16944427  0.72600793  1
  O2-  O285  1  0.78806917  0.66619784  0.06549483  1
  O2-  O286  1  0.78903937  0.66842745  0.40430437  1
  O2-  O287  1  0.79387893  0.66400566  0.72642309  1
