# generated using pymatgen
data_Ca2Al2SiO7
_symmetry_space_group_name_H-M   'P 1'
_cell_length_a   15.45458474
_cell_length_b   15.45428639
_cell_length_c   15.28067216
_cell_angle_alpha   90.00407143
_cell_angle_beta   90.00278819
_cell_angle_gamma   89.98724278
_symmetry_Int_Tables_number   1
_chemical_formula_structural   Ca2Al2SiO7
_chemical_formula_sum   'Ca48 Al48 Si24 O168'
_cell_volume   3649.62919298
_cell_formula_units_Z   24
loop_
 _symmetry_equiv_pos_site_id
 _symmetry_equiv_pos_as_xyz
  1  'x, y, z'
loop_
 _atom_type_symbol
 _atom_type_oxidation_number
  Ca2+  2.0
  Al0+  0.0
  Si0+  0.0
  O2-  -2.0
loop_
 _atom_site_type_symbol
 _atom_site_label
 _atom_site_symmetry_multiplicity
 _atom_site_fract_x
 _atom_site_fract_y
 _atom_site_fract_z
 _atom_site_occupancy
  Ca2+  Ca0  1  0.17064683  0.08023666  0.17387616  1
  Ca2+  Ca1  1  0.17242731  0.09298168  0.50218645  1
  Ca2+  Ca2  1  0.16393172  0.07843703  0.83826643  1
  Ca2+  Ca3  1  0.16617459  0.58204190  0.17031939  1
  Ca2+  Ca4  1  0.16307336  0.57818694  0.49825669  1
  Ca2+  Ca5  1  0.17561763  0.58402078  0.84390958  1
  Ca2+  Ca6  1  0.66972688  0.07724812  0.17087037  1
  Ca2+  Ca7  1  0.65654034  0.08163955  0.50155469  1
  Ca2+  Ca8  1  0.66926569  0.07957573  0.84007150  1
  Ca2+  Ca9  1  0.67608766  0.57656729  0.17122918  1
  Ca2+  Ca10  1  0.66051701  0.57129611  0.50643963  1
  Ca2+  Ca11  1  0.66935019  0.57975239  0.83740813  1
  Ca2+  Ca12  1  0.08330137  0.32965369  0.16316237  1
  Ca2+  Ca13  1  0.08094611  0.32782789  0.49408681  1
  Ca2+  Ca14  1  0.06847146  0.32871615  0.82732188  1
  Ca2+  Ca15  1  0.08196336  0.82326242  0.15613481  1
  Ca2+  Ca16  1  0.08098873  0.82482949  0.49135345  1
  Ca2+  Ca17  1  0.08151758  0.83285604  0.83800386  1
  Ca2+  Ca18  1  0.58322277  0.32883786  0.16295349  1
  Ca2+  Ca19  1  0.58640383  0.32661368  0.49684068  1
  Ca2+  Ca20  1  0.57429256  0.33323081  0.82316877  1
  Ca2+  Ca21  1  0.57997408  0.84378256  0.16619952  1
  Ca2+  Ca22  1  0.57566604  0.83334562  0.49402475  1
  Ca2+  Ca23  1  0.58170894  0.82740387  0.82621131  1
  Ca2+  Ca24  1  0.33076277  0.42129875  0.16986197  1
  Ca2+  Ca25  1  0.32649713  0.40981863  0.50411187  1
  Ca2+  Ca26  1  0.33846388  0.42013047  0.84100486  1
  Ca2+  Ca27  1  0.32883905  0.92026031  0.17351948  1
  Ca2+  Ca28  1  0.34258504  0.92161986  0.49954862  1
  Ca2+  Ca29  1  0.32790681  0.91485759  0.83934276  1
  Ca2+  Ca30  1  0.83669910  0.42041020  0.16953781  1
  Ca2+  Ca31  1  0.82233915  0.41070194  0.50496780  1
  Ca2+  Ca32  1  0.82954289  0.41372612  0.83820154  1
  Ca2+  Ca33  1  0.82530900  0.91544880  0.16616432  1
  Ca2+  Ca34  1  0.82696097  0.91801451  0.50210526  1
  Ca2+  Ca35  1  0.82827322  0.92468877  0.84999938  1
  Ca2+  Ca36  1  0.42003246  0.16842537  0.16650007  1
  Ca2+  Ca37  1  0.42583708  0.16867977  0.49480801  1
  Ca2+  Ca38  1  0.42247084  0.17850338  0.82650176  1
  Ca2+  Ca39  1  0.41545517  0.66995323  0.16302866  1
  Ca2+  Ca40  1  0.42037798  0.67831123  0.49924507  1
  Ca2+  Ca41  1  0.42237734  0.67008637  0.82580822  1
  Ca2+  Ca42  1  0.91868921  0.17027488  0.16046954  1
  Ca2+  Ca43  1  0.92711519  0.17085862  0.49812518  1
  Ca2+  Ca44  1  0.91401599  0.17449968  0.82897609  1
  Ca2+  Ca45  1  0.92708067  0.66662656  0.15609431  1
  Ca2+  Ca46  1  0.92173239  0.66699673  0.49386219  1
  Ca2+  Ca47  1  0.91544397  0.66803315  0.83840800  1
  Al0+  Al48  1  0.00029543  -0.00209571  0.00667527  1
  Al0+  Al49  1  -0.00051577  0.00026436  0.32987680  1
  Al0+  Al50  1  0.00007324  -0.00122611  0.66339014  1
  Al0+  Al51  1  0.00100981  0.49780391  -0.00633029  1
  Al0+  Al52  1  0.00149141  0.50117112  0.33450073  1
  Al0+  Al53  1  -0.00090494  0.50059030  0.66454570  1
  Al0+  Al54  1  0.49872800  0.00045356  0.00095797  1
  Al0+  Al55  1  0.49965776  0.00136003  0.33210352  1
  Al0+  Al56  1  0.49799940  0.00088657  0.66578076  1
  Al0+  Al57  1  0.49886273  0.50056542  0.00249937  1
  Al0+  Al58  1  0.50015204  0.50260587  0.33812077  1
  Al0+  Al59  1  0.49860971  0.50115498  0.66316044  1
  Al0+  Al60  1  0.25148455  0.25038977  -0.00545054  1
  Al0+  Al61  1  0.24978692  0.25080069  0.33707990  1
  Al0+  Al62  1  0.24942915  0.24920919  0.66643694  1
  Al0+  Al63  1  0.25145603  0.74933860  0.00446490  1
  Al0+  Al64  1  0.25011934  0.75046528  0.32608527  1
  Al0+  Al65  1  0.24893730  0.75037798  0.66307177  1
  Al0+  Al66  1  0.74992569  0.24721802  0.00011811  1
  Al0+  Al67  1  0.75057227  0.24994495  0.33245695  1
  Al0+  Al68  1  0.75000651  0.24995301  0.66481407  1
  Al0+  Al69  1  0.75002932  0.74787859  0.00586473  1
  Al0+  Al70  1  0.74891682  0.75041743  0.33944622  1
  Al0+  Al71  1  0.75092390  0.74853393  0.66280488  1
  Al0+  Al72  1  0.67695972  0.92757652  0.01416946  1
  Al0+  Al73  1  0.42743872  0.82100840  0.65302350  1
  Al0+  Al74  1  0.42787672  0.32318822  0.65057945  1
  Al0+  Al75  1  0.17993527  0.92920069  0.01420924  1
  Al0+  Al76  1  0.07317538  0.17942188  0.31794051  1
  Al0+  Al77  1  0.92832860  0.32300365  0.64976495  1
  Al0+  Al78  1  0.43193960  0.82057380  0.31688330  1
  Al0+  Al79  1  0.92832623  0.31959495  0.98727023  1
  Al0+  Al80  1  0.43027505  0.32204246  0.98793049  1
  Al0+  Al81  1  0.06905753  0.67920785  0.31869423  1
  Al0+  Al82  1  0.57370283  0.67918690  0.65160341  1
  Al0+  Al83  1  0.57106323  0.17962601  0.65276166  1
  Al0+  Al84  1  0.06970977  0.17702190  0.65280696  1
  Al0+  Al85  1  0.82220483  0.56848106  0.01282912  1
  Al0+  Al86  1  0.67963324  0.93131860  0.34970436  1
  Al0+  Al87  1  0.18039659  0.43080404  0.34669413  1
  Al0+  Al88  1  0.31911838  0.06995448  0.34738776  1
  Al0+  Al89  1  0.67923612  0.42856982  0.34649895  1
  Al0+  Al90  1  0.57121033  0.18054690  0.31749056  1
  Al0+  Al91  1  0.32237136  0.57051725  0.01341540  1
  Al0+  Al92  1  0.92756891  0.82048980  0.98622324  1
  Al0+  Al93  1  0.07311144  0.67856529  0.98284441  1
  Al0+  Al94  1  0.67910599  0.42911751  0.68148490  1
  Al0+  Al95  1  0.82168576  0.07301476  0.01567468  1
  Si0+  Si96  1  0.32229726  0.57522520  0.35235631  1
  Si0+  Si97  1  0.57309859  0.67638094  0.31499201  1
  Si0+  Si98  1  0.17709823  0.92689179  0.35004874  1
  Si0+  Si99  1  0.82413600  0.07304942  0.35235842  1
  Si0+  Si100  1  0.07162352  0.67986766  0.65185583  1
  Si0+  Si101  1  0.32106337  0.07401185  0.01588674  1
  Si0+  Si102  1  0.82401031  0.57360610  0.68459719  1
  Si0+  Si103  1  0.17787675  0.92739958  0.68065563  1
  Si0+  Si104  1  0.67713700  0.42750424  0.01543116  1
  Si0+  Si105  1  0.31760058  0.57185413  0.68030191  1
  Si0+  Si106  1  0.82260682  0.06814365  0.68047080  1
  Si0+  Si107  1  0.57111464  0.67823303  0.98787235  1
  Si0+  Si108  1  0.82273055  0.57129689  0.35085259  1
  Si0+  Si109  1  0.07323718  0.17638944  0.98484471  1
  Si0+  Si110  1  0.57100689  0.17697573  0.98351661  1
  Si0+  Si111  1  0.42757922  0.32424127  0.31752927  1
  Si0+  Si112  1  0.42976179  0.82154068  0.98616548  1
  Si0+  Si113  1  0.92489360  0.82241443  0.31651470  1
  Si0+  Si114  1  0.32091541  0.07101299  0.68350411  1
  Si0+  Si115  1  0.92878999  0.82152936  0.65178276  1
  Si0+  Si116  1  0.17867449  0.42706928  0.01378739  1
  Si0+  Si117  1  0.67840219  0.92821605  0.68081835  1
  Si0+  Si118  1  0.92913498  0.32112442  0.31649099  1
  Si0+  Si119  1  0.17745055  0.42788817  0.68340956  1
  O2-  O120  1  0.25166687  0.00656722  0.06039040  1
  O2-  O121  1  0.24262297  -0.00290540  0.39655551  1
  O2-  O122  1  0.24862200  -0.00081847  0.72298684  1
  O2-  O123  1  0.24647578  0.49635854  0.05841219  1
  O2-  O124  1  0.25619652  0.50366657  0.39621812  1
  O2-  O125  1  0.25017759  0.49792490  0.72464651  1
  O2-  O126  1  0.74961100  -0.00035146  0.06328998  1
  O2-  O127  1  0.75500646  0.00491406  0.39776801  1
  O2-  O128  1  0.74946976  -0.00115133  0.72286123  1
  O2-  O129  1  0.75036290  0.49125295  0.05989242  1
  O2-  O130  1  0.75272947  0.50425716  0.39462217  1
  O2-  O131  1  0.75469557  0.50431154  0.72699681  1
  O2-  O132  1  -0.00272171  0.25245216  0.27146324  1
  O2-  O133  1  0.00261102  0.25268353  0.60142803  1
  O2-  O134  1  0.00121028  0.24200921  0.94162405  1
  O2-  O135  1  -0.00489937  0.75494895  0.27385284  1
  O2-  O136  1  -0.00215709  0.74832575  0.61032714  1
  O2-  O137  1  -0.00005267  0.75001620  0.93313079  1
  O2-  O138  1  0.49903699  0.25891759  0.27246130  1
  O2-  O139  1  0.50128873  0.25294962  0.60102917  1
  O2-  O140  1  0.50559172  0.24890056  0.94022909  1
  O2-  O141  1  0.50619662  0.74573572  0.26903715  1
  O2-  O142  1  0.50403421  0.75414490  0.60302347  1
  O2-  O143  1  0.50283087  0.75228837  0.94522424  1
  O2-  O144  1  0.07689889  0.18066825  0.09033262  1
  O2-  O145  1  0.07173216  0.18163989  0.43091258  1
  O2-  O146  1  0.06616645  0.17469926  0.76661898  1
  O2-  O147  1  0.07216264  0.67890707  0.09623540  1
  O2-  O148  1  0.06690474  0.68024660  0.43290895  1
  O2-  O149  1  0.07539186  0.68145672  0.75646058  1
  O2-  O150  1  0.56917393  0.17655619  0.08910856  1
  O2-  O151  1  0.56890456  0.18058684  0.43033151  1
  O2-  O152  1  0.56825462  0.17792925  0.76663098  1
  O2-  O153  1  0.56852106  0.67532102  0.09272988  1
  O2-  O154  1  0.57114557  0.67687053  0.42042278  1
  O2-  O155  1  0.57311322  0.68104059  0.76610135  1
  O2-  O156  1  0.18052956  0.43161225  0.23348927  1
  O2-  O157  1  0.17682299  0.43012334  0.57816261  1
  O2-  O158  1  0.18084351  0.42735101  0.90792388  1
  O2-  O159  1  0.18001884  0.92735442  0.24469410  1
  O2-  O160  1  0.17618104  0.92453576  0.57592510  1
  O2-  O161  1  0.18278791  0.92974532  0.90008961  1
  O2-  O162  1  0.68100540  0.43030375  0.23310696  1
  O2-  O163  1  0.68121516  0.43021761  0.56837671  1
  O2-  O164  1  0.67526717  0.43061670  0.90980676  1
  O2-  O165  1  0.68088823  0.93237366  0.23698532  1
  O2-  O166  1  0.67997742  0.92864411  0.57569064  1
  O2-  O167  1  0.67564473  0.92905322  0.89968760  1
  O2-  O168  1  0.43036142  0.32178037  0.10102394  1
  O2-  O169  1  0.42711867  0.32171491  0.42295913  1
  O2-  O170  1  0.42864123  0.32171422  0.76463503  1
  O2-  O171  1  0.43011406  0.82207866  0.09106326  1
  O2-  O172  1  0.43277228  0.81924805  0.43004481  1
  O2-  O173  1  0.42536088  0.81816986  0.76719043  1
  O2-  O174  1  0.93132055  0.32109424  0.10040547  1
  O2-  O175  1  0.93002048  0.32064302  0.42198157  1
  O2-  O176  1  0.92862550  0.32130368  0.76358812  1
  O2-  O177  1  0.92828052  0.81693754  0.09949266  1
  O2-  O178  1  0.92628039  0.82099137  0.42323372  1
  O2-  O179  1  0.92843421  0.82410726  0.75642890  1
  O2-  O180  1  0.31781048  0.06881869  0.23401493  1
  O2-  O181  1  0.32158232  0.07076236  0.57854937  1
  O2-  O182  1  0.32148531  0.07249353  0.91006043  1
  O2-  O183  1  0.32233361  0.57394193  0.24670194  1
  O2-  O184  1  0.31242245  0.57514158  0.57546846  1
  O2-  O185  1  0.32355752  0.57079664  0.89968374  1
  O2-  O186  1  0.82376503  0.07273477  0.24711824  1
  O2-  O187  1  0.82621897  0.06352681  0.57553176  1
  O2-  O188  1  0.81881739  0.07301769  0.90110577  1
  O2-  O189  1  0.82368303  0.56995244  0.24517582  1
  O2-  O190  1  0.82645867  0.57558910  0.57912956  1
  O2-  O191  1  0.81780348  0.56949780  0.89978385  1
  O2-  O192  1  0.04528020  0.08116705  0.26553780  1
  O2-  O193  1  0.04048029  0.07978400  0.59704103  1
  O2-  O194  1  0.05136025  0.08064760  0.94281683  1
  O2-  O195  1  0.03824774  0.58282427  0.26472108  1
  O2-  O196  1  0.04539222  0.58779652  0.60439772  1
  O2-  O197  1  0.04688368  0.58015116  0.92929345  1
  O2-  O198  1  0.53599690  0.08607468  0.26330204  1
  O2-  O199  1  0.53979754  0.08186810  0.60007476  1
  O2-  O200  1  0.54163712  0.08465224  0.93598058  1
  O2-  O201  1  0.54643171  0.58293405  0.26875889  1
  O2-  O202  1  0.54038835  0.58365486  0.59761558  1
  O2-  O203  1  0.53999869  0.58834212  0.93849622  1
  O2-  O204  1  0.16932875  0.21243336  0.26492133  1
  O2-  O205  1  0.16924981  0.20312734  0.60281384  1
  O2-  O206  1  0.16521309  0.20333184  0.93531256  1
  O2-  O207  1  0.16570854  0.70722720  0.26453045  1
  O2-  O208  1  0.16030949  0.71082106  0.60065834  1
  O2-  O209  1  0.17196125  0.71084399  0.93193405  1
  O2-  O210  1  0.66901353  0.20882477  0.26432728  1
  O2-  O211  1  0.66995248  0.20304079  0.59975111  1
  O2-  O212  1  0.66592401  0.19769856  0.93893844  1
  O2-  O213  1  0.66899442  0.70044821  0.27326063  1
  O2-  O214  1  0.67261837  0.70261838  0.59705880  1
  O2-  O215  1  0.66326166  0.70347360  0.94069279  1
  O2-  O216  1  0.08509174  0.45155559  0.05924596  1
  O2-  O217  1  0.08493994  0.46434874  0.40285199  1
  O2-  O218  1  0.08543728  0.45799240  0.72942820  1
  O2-  O219  1  0.08338541  0.95328572  0.07039730  1
  O2-  O220  1  0.08087456  0.94783783  0.39329835  1
  O2-  O221  1  0.08595862  0.95567185  0.72865131  1
  O2-  O222  1  0.58645917  0.45817283  0.06402625  1
  O2-  O223  1  0.58248334  0.45844709  0.40150750  1
  O2-  O224  1  0.58078528  0.46090763  0.73290664  1
  O2-  O225  1  0.57872980  0.95815549  0.06708216  1
  O2-  O226  1  0.58339989  0.96427272  0.40245256  1
  O2-  O227  1  0.58588040  0.95500900  0.72755573  1
  O2-  O228  1  0.20589838  0.33348949  0.05951252  1
  O2-  O229  1  0.20975044  0.33520059  0.40336174  1
  O2-  O230  1  0.20258907  0.33521993  0.73025122  1
  O2-  O231  1  0.21416490  0.83474014  0.06941411  1
  O2-  O232  1  0.20486466  0.83286796  0.39463575  1
  O2-  O233  1  0.20753095  0.83622366  0.72912945  1
  O2-  O234  1  0.69769197  0.33174214  0.05810201  1
  O2-  O235  1  0.71144054  0.33230313  0.40059012  1
  O2-  O236  1  0.70922262  0.33160834  0.73505340  1
  O2-  O237  1  0.70318830  0.82981309  0.06906656  1
  O2-  O238  1  0.70800106  0.83367599  0.40493972  1
  O2-  O239  1  0.70622276  0.83505122  0.72568069  1
  O2-  O240  1  0.44960408  0.42058375  0.27532574  1
  O2-  O241  1  0.44907875  0.42268179  0.59846368  1
  O2-  O242  1  0.46040495  0.41900975  0.93358709  1
  O2-  O243  1  0.46333003  0.91658071  0.26316891  1
  O2-  O244  1  0.45278220  0.92008772  0.60179016  1
  O2-  O245  1  0.45390956  0.91427022  0.93791277  1
  O2-  O246  1  0.95613090  0.41531013  0.27275275  1
  O2-  O247  1  0.95477756  0.42225281  0.59725104  1
  O2-  O248  1  0.96030251  0.41328519  0.92873145  1
  O2-  O249  1  0.94701793  0.91684168  0.27186418  1
  O2-  O250  1  0.95900233  0.91058751  0.60078554  1
  O2-  O251  1  0.95656128  0.92008054  0.93486512  1
  O2-  O252  1  0.33512208  0.29543646  0.27172140  1
  O2-  O253  1  0.32930488  0.29267960  0.60031381  1
  O2-  O254  1  0.33458872  0.29215852  0.93048483  1
  O2-  O255  1  0.33504906  0.79119834  0.26285275  1
  O2-  O256  1  0.33119908  0.78911973  0.59722200  1
  O2-  O257  1  0.33912478  0.79094803  0.93897014  1
  O2-  O258  1  0.83592195  0.29649880  0.26993119  1
  O2-  O259  1  0.83157137  0.29139569  0.59724091  1
  O2-  O260  1  0.83082683  0.29031617  0.93305487  1
  O2-  O261  1  0.83079395  0.79570058  0.27310042  1
  O2-  O262  1  0.83762982  0.79511967  0.60219892  1
  O2-  O263  1  0.82859360  0.79053704  0.93407670  1
  O2-  O264  1  0.41391417  0.04695389  0.06222075  1
  O2-  O265  1  0.41443637  0.03600292  0.40149008  1
  O2-  O266  1  0.41167941  0.04220976  0.73304204  1
  O2-  O267  1  0.41685529  0.53882483  0.07127683  1
  O2-  O268  1  0.41698139  0.55472366  0.39816097  1
  O2-  O269  1  0.41122521  0.54853909  0.72596797  1
  O2-  O270  1  0.91995991  0.04729318  0.06918978  1
  O2-  O271  1  0.91791898  0.04535942  0.39845290  1
  O2-  O272  1  0.91326310  0.03753336  0.72920397  1
  O2-  O273  1  0.92030905  0.53822874  0.06438434  1
  O2-  O274  1  0.91568245  0.54519938  0.39806207  1
  O2-  O275  1  0.91831057  0.54905955  0.73052200  1
  O2-  O276  1  0.29651525  0.16817947  0.06131427  1
  O2-  O277  1  0.29036334  0.16638961  0.40273186  1
  O2-  O278  1  0.29273060  0.16251461  0.73209791  1
  O2-  O279  1  0.29303325  0.66588045  0.06953645  1
  O2-  O280  1  0.29131747  0.66805895  0.39693806  1
  O2-  O281  1  0.28593497  0.66264889  0.72895732  1
  O2-  O282  1  0.79268447  0.17040614  0.07110347  1
  O2-  O283  1  0.79981731  0.16721540  0.39704694  1
  O2-  O284  1  0.79634899  0.16102636  0.72580347  1
  O2-  O285  1  0.79032829  0.66248526  0.07055297  1
  O2-  O286  1  0.79993140  0.66547998  0.39754042  1
  O2-  O287  1  0.79764131  0.66788978  0.73034010  1
