# generated using pymatgen
data_Ca2Al2SiO7
_symmetry_space_group_name_H-M   'P 1'
_cell_length_a   15.45584443
_cell_length_b   15.45544362
_cell_length_c   15.28242109
_cell_angle_alpha   90.00384899
_cell_angle_beta   89.98927668
_cell_angle_gamma   90.01577934
_symmetry_Int_Tables_number   1
_chemical_formula_structural   Ca2Al2SiO7
_chemical_formula_sum   'Ca48 Al48 Si24 O168'
_cell_volume   3650.61765618
_cell_formula_units_Z   24
loop_
 _symmetry_equiv_pos_site_id
 _symmetry_equiv_pos_as_xyz
  1  'x, y, z'
loop_
 _atom_type_symbol
 _atom_type_oxidation_number
  Ca2+  2.0
  Al0+  0.0
  Si0+  0.0
  O2-  -2.0
loop_
 _atom_site_type_symbol
 _atom_site_label
 _atom_site_symmetry_multiplicity
 _atom_site_fract_x
 _atom_site_fract_y
 _atom_site_fract_z
 _atom_site_occupancy
  Ca2+  Ca0  1  0.17075116  0.08983134  0.16320012  1
  Ca2+  Ca1  1  0.16074633  0.07584122  0.50750933  1
  Ca2+  Ca2  1  0.16311679  0.08245305  0.83578207  1
  Ca2+  Ca3  1  0.16996159  0.57367680  0.17680848  1
  Ca2+  Ca4  1  0.17135470  0.58520761  0.50021436  1
  Ca2+  Ca5  1  0.18069222  0.57684301  0.84174733  1
  Ca2+  Ca6  1  0.67025586  0.07327830  0.17611206  1
  Ca2+  Ca7  1  0.67991014  0.07334924  0.50407661  1
  Ca2+  Ca8  1  0.66972201  0.07390350  0.83509603  1
  Ca2+  Ca9  1  0.67349307  0.57995556  0.17207893  1
  Ca2+  Ca10  1  0.68041332  0.58261002  0.50557063  1
  Ca2+  Ca11  1  0.67162089  0.58053951  0.82765101  1
  Ca2+  Ca12  1  0.08303922  0.33528026  0.16323137  1
  Ca2+  Ca13  1  0.07958006  0.32865923  0.49353863  1
  Ca2+  Ca14  1  0.09264948  0.32135730  0.83129262  1
  Ca2+  Ca15  1  0.07827782  0.82607865  0.16907162  1
  Ca2+  Ca16  1  0.07224893  0.82977136  0.49456505  1
  Ca2+  Ca17  1  0.07706655  0.83556377  0.82155801  1
  Ca2+  Ca18  1  0.57585367  0.33092541  0.15874795  1
  Ca2+  Ca19  1  0.58084648  0.34047156  0.50016291  1
  Ca2+  Ca20  1  0.57199754  0.33918876  0.82428403  1
  Ca2+  Ca21  1  0.58326629  0.83718991  0.16668013  1
  Ca2+  Ca22  1  0.57975709  0.83878173  0.49344547  1
  Ca2+  Ca23  1  0.58578584  0.83665407  0.82979539  1
  Ca2+  Ca24  1  0.32355412  0.42184086  0.16993625  1
  Ca2+  Ca25  1  0.33050224  0.42706859  0.50461306  1
  Ca2+  Ca26  1  0.33490515  0.42152192  0.84070634  1
  Ca2+  Ca27  1  0.33733458  0.92291455  0.17202137  1
  Ca2+  Ca28  1  0.32629482  0.91311847  0.50380268  1
  Ca2+  Ca29  1  0.32398446  0.92400853  0.83741722  1
  Ca2+  Ca30  1  0.83696651  0.41972315  0.17843427  1
  Ca2+  Ca31  1  0.83637625  0.42677143  0.50397140  1
  Ca2+  Ca32  1  0.83062871  0.41853173  0.83119504  1
  Ca2+  Ca33  1  0.82453924  0.91994042  0.17724327  1
  Ca2+  Ca34  1  0.83273419  0.91871860  0.50873735  1
  Ca2+  Ca35  1  0.82771825  0.91745569  0.83147447  1
  Ca2+  Ca36  1  0.41503378  0.17189375  0.15602111  1
  Ca2+  Ca37  1  0.41861065  0.17479872  0.49796632  1
  Ca2+  Ca38  1  0.40880525  0.17954210  0.82953621  1
  Ca2+  Ca39  1  0.41059945  0.66861878  0.16681505  1
  Ca2+  Ca40  1  0.41494574  0.66902159  0.49236045  1
  Ca2+  Ca41  1  0.41730166  0.66041942  0.82704609  1
  Ca2+  Ca42  1  0.91966845  0.17007935  0.16547646  1
  Ca2+  Ca43  1  0.91620414  0.16570177  0.49521805  1
  Ca2+  Ca44  1  0.92729036  0.16131147  0.82544741  1
  Ca2+  Ca45  1  0.91963257  0.66508434  0.16999683  1
  Ca2+  Ca46  1  0.91447878  0.67362205  0.49053366  1
  Ca2+  Ca47  1  0.91772256  0.67256133  0.82415753  1
  Al0+  Al48  1  -0.00183162  -0.00012682  -0.00214209  1
  Al0+  Al49  1  0.00173407  0.00044281  0.32843398  1
  Al0+  Al50  1  0.00025518  -0.00178818  0.66590299  1
  Al0+  Al51  1  -0.00012574  0.50118602  -0.00031981  1
  Al0+  Al52  1  0.00030753  0.49750324  0.33467503  1
  Al0+  Al53  1  0.00337981  0.49829694  0.67263094  1
  Al0+  Al54  1  0.49986216  -0.00113657  0.00558366  1
  Al0+  Al55  1  0.50025653  0.00085986  0.33384333  1
  Al0+  Al56  1  0.49973569  0.00240902  0.66864334  1
  Al0+  Al57  1  0.50217836  0.50241647  0.00011857  1
  Al0+  Al58  1  0.49798489  0.50067099  0.33317437  1
  Al0+  Al59  1  0.50021565  0.50176966  0.66621467  1
  Al0+  Al60  1  0.24897088  0.24996939  -0.00085684  1
  Al0+  Al61  1  0.25046907  0.25106583  0.33693190  1
  Al0+  Al62  1  0.25067546  0.25044122  0.65309521  1
  Al0+  Al63  1  0.24984362  0.75100213  0.00120655  1
  Al0+  Al64  1  0.25110148  0.75124542  0.32631546  1
  Al0+  Al65  1  0.25003667  0.75016604  0.67623310  1
  Al0+  Al66  1  0.75022137  0.24944026  -0.00177355  1
  Al0+  Al67  1  0.74950666  0.24710647  0.33155366  1
  Al0+  Al68  1  0.74980789  0.24962939  0.67511776  1
  Al0+  Al69  1  0.74860897  0.75008698  0.00311386  1
  Al0+  Al70  1  0.74650010  0.74863788  0.33471002  1
  Al0+  Al71  1  0.74923745  0.74966480  0.66974372  1
  Al0+  Al72  1  0.32416947  0.57257214  0.01736443  1
  Al0+  Al73  1  0.31959783  0.57050352  0.68054557  1
  Al0+  Al74  1  0.82306224  0.07097387  0.68318791  1
  Al0+  Al75  1  0.17980169  0.92995533  0.67841472  1
  Al0+  Al76  1  0.82480679  0.57181777  0.68194949  1
  Al0+  Al77  1  0.42987407  0.82158974  0.31988518  1
  Al0+  Al78  1  0.67839254  0.92853154  0.34978060  1
  Al0+  Al79  1  0.06925847  0.17901748  0.65101491  1
  Al0+  Al80  1  0.07072394  0.67839168  0.31915779  1
  Al0+  Al81  1  0.92895918  0.31875998  0.32214424  1
  Al0+  Al82  1  0.06849896  0.18054276  0.98608040  1
  Al0+  Al83  1  0.31810941  0.06956814  0.01155980  1
  Al0+  Al84  1  0.67911586  0.42951016  0.68050653  1
  Al0+  Al85  1  0.82051407  0.56930152  0.34505082  1
  Al0+  Al86  1  0.92894901  0.81736635  0.65369732  1
  Al0+  Al87  1  0.43080163  0.32277339  0.64990068  1
  Al0+  Al88  1  0.17912722  0.42893770  0.01457340  1
  Al0+  Al89  1  0.43140118  0.32042184  0.98705687  1
  Al0+  Al90  1  0.68034405  0.92946206  0.01633897  1
  Al0+  Al91  1  0.17797995  0.42758886  0.35170314  1
  Al0+  Al92  1  0.82342645  0.07053797  0.34739835  1
  Al0+  Al93  1  0.92568224  0.82220951  0.31768924  1
  Al0+  Al94  1  0.32017666  0.57260360  0.34903177  1
  Al0+  Al95  1  0.67673283  0.92861575  0.68223097  1
  Si0+  Si96  1  0.56924021  0.17986607  0.31792051  1
  Si0+  Si97  1  0.32175512  0.07441847  0.68061476  1
  Si0+  Si98  1  0.57376140  0.17718929  0.64980441  1
  Si0+  Si99  1  0.82014331  0.57033897  0.01510001  1
  Si0+  Si100  1  0.57108573  0.67579889  0.31577351  1
  Si0+  Si101  1  0.42844327  0.82282167  0.98373924  1
  Si0+  Si102  1  0.92627729  0.32323050  0.65170969  1
  Si0+  Si103  1  0.67957591  0.42823270  0.01420038  1
  Si0+  Si104  1  0.17971686  0.42435411  0.68330191  1
  Si0+  Si105  1  0.92554741  0.32514629  0.98153275  1
  Si0+  Si106  1  0.42763298  0.82257753  0.65520450  1
  Si0+  Si107  1  0.07487219  0.17706328  0.31499084  1
  Si0+  Si108  1  0.42864470  0.32206405  0.31656524  1
  Si0+  Si109  1  0.67629148  0.42573255  0.34669663  1
  Si0+  Si110  1  0.92845217  0.81829818  0.98492757  1
  Si0+  Si111  1  0.07463811  0.67652182  0.65346676  1
  Si0+  Si112  1  0.07182815  0.67838994  0.98366056  1
  Si0+  Si113  1  0.82353358  0.07260014  0.01779002  1
  Si0+  Si114  1  0.18054258  0.92977368  0.34544962  1
  Si0+  Si115  1  0.56969222  0.68061343  0.65127928  1
  Si0+  Si116  1  0.57270606  0.17565647  0.98287426  1
  Si0+  Si117  1  0.32197563  0.07228880  0.34891329  1
  Si0+  Si118  1  0.57199019  0.68105506  0.98333827  1
  Si0+  Si119  1  0.17449147  0.92716947  0.01821478  1
  O2-  O120  1  0.24547488  -0.00579608  0.06151118  1
  O2-  O121  1  0.24891096  0.00302093  0.38926579  1
  O2-  O122  1  0.25322557  0.00598868  0.72488384  1
  O2-  O123  1  0.24908791  0.50290039  0.06490316  1
  O2-  O124  1  0.24870629  0.50151057  0.40036544  1
  O2-  O125  1  0.24662675  0.49471205  0.72737785  1
  O2-  O126  1  0.75194240  0.00714530  0.06166120  1
  O2-  O127  1  0.75829105  -0.00757463  0.39780635  1
  O2-  O128  1  0.74868870  0.00049615  0.73230008  1
  O2-  O129  1  0.75553470  0.49307138  0.05683826  1
  O2-  O130  1  0.74579392  0.49361617  0.38984620  1
  O2-  O131  1  0.75482473  0.49727727  0.73175514  1
  O2-  O132  1  0.00416932  0.24519590  0.27360436  1
  O2-  O133  1  -0.00688164  0.25321154  0.60675372  1
  O2-  O134  1  -0.00656744  0.25506205  0.93869114  1
  O2-  O135  1  -0.00403637  0.74790035  0.26762697  1
  O2-  O136  1  0.00037073  0.73853236  0.60879860  1
  O2-  O137  1  0.00284358  0.75133017  0.94127154  1
  O2-  O138  1  0.50010120  0.25195986  0.27394917  1
  O2-  O139  1  0.50751176  0.24842592  0.60454666  1
  O2-  O140  1  0.50642970  0.24633609  0.93818443  1
  O2-  O141  1  0.50346741  0.74614775  0.27213213  1
  O2-  O142  1  0.50055791  0.75465468  0.61157550  1
  O2-  O143  1  0.49686373  0.74886608  0.94180601  1
  O2-  O144  1  0.06665747  0.18040496  0.09909084  1
  O2-  O145  1  0.07649429  0.17577141  0.42035869  1
  O2-  O146  1  0.07165689  0.18047860  0.76437929  1
  O2-  O147  1  0.06939076  0.67748183  0.08843459  1
  O2-  O148  1  0.07218724  0.68283745  0.43286805  1
  O2-  O149  1  0.07519163  0.68110938  0.75954278  1
  O2-  O150  1  0.57191378  0.17812156  0.08892450  1
  O2-  O151  1  0.56694359  0.18040783  0.42278059  1
  O2-  O152  1  0.56959406  0.17522654  0.75540930  1
  O2-  O153  1  0.57594068  0.68118621  0.08810827  1
  O2-  O154  1  0.57011729  0.67302711  0.42117609  1
  O2-  O155  1  0.56865053  0.67921434  0.75697523  1
  O2-  O156  1  0.18125243  0.42488266  0.23802971  1
  O2-  O157  1  0.17984593  0.42530213  0.57804721  1
  O2-  O158  1  0.18170742  0.42970760  0.90074296  1
  O2-  O159  1  0.18239214  0.93126946  0.24012781  1
  O2-  O160  1  0.18209334  0.92833014  0.56508416  1
  O2-  O161  1  0.17468145  0.92713588  0.91249133  1
  O2-  O162  1  0.67570522  0.42682558  0.24033568  1
  O2-  O163  1  0.67865993  0.43390700  0.56685474  1
  O2-  O164  1  0.67795407  0.43112213  0.90961081  1
  O2-  O165  1  0.67633956  0.93348633  0.23593883  1
  O2-  O166  1  0.67475744  0.92973189  0.56939388  1
  O2-  O167  1  0.68218878  0.92821532  0.90351466  1
  O2-  O168  1  0.43399060  0.31789195  0.10046763  1
  O2-  O169  1  0.43066955  0.32158738  0.42159116  1
  O2-  O170  1  0.42948566  0.32141615  0.76333452  1
  O2-  O171  1  0.43041889  0.82444958  0.08864770  1
  O2-  O172  1  0.42948185  0.82237912  0.43348952  1
  O2-  O173  1  0.42778181  0.82143772  0.76050501  1
  O2-  O174  1  0.92346657  0.32548602  0.08712507  1
  O2-  O175  1  0.92830460  0.31766775  0.43502927  1
  O2-  O176  1  0.92876356  0.32355176  0.75755895  1
  O2-  O177  1  0.92820048  0.81598506  0.08972620  1
  O2-  O178  1  0.92872940  0.82235866  0.43118332  1
  O2-  O179  1  0.93090425  0.81723973  0.76775028  1
  O2-  O180  1  0.32267099  0.07311432  0.24358212  1
  O2-  O181  1  0.32319176  0.07175579  0.57470679  1
  O2-  O182  1  0.31691177  0.06836636  0.89850254  1
  O2-  O183  1  0.32074536  0.56932993  0.23576173  1
  O2-  O184  1  0.31899351  0.57371106  0.56800565  1
  O2-  O185  1  0.32452777  0.57047756  0.90345332  1
  O2-  O186  1  0.81820434  0.07315498  0.23345791  1
  O2-  O187  1  0.82283018  0.06949063  0.56981050  1
  O2-  O188  1  0.82493976  0.07056024  0.91251214  1
  O2-  O189  1  0.81813328  0.56684301  0.23112702  1
  O2-  O190  1  0.82274696  0.57271673  0.56861995  1
  O2-  O191  1  0.81812769  0.57255993  0.91027394  1
  O2-  O192  1  0.05286995  0.08391469  0.26638468  1
  O2-  O193  1  0.03943280  0.08196994  0.59782238  1
  O2-  O194  1  0.03896192  0.08249546  0.93208791  1
  O2-  O195  1  0.04302660  0.57942627  0.26680776  1
  O2-  O196  1  0.05781685  0.57939658  0.61206483  1
  O2-  O197  1  0.04245035  0.58745273  0.93500336  1
  O2-  O198  1  0.53809247  0.08962609  0.26918721  1
  O2-  O199  1  0.54398941  0.08521578  0.60152582  1
  O2-  O200  1  0.54511093  0.08178536  0.93907093  1
  O2-  O201  1  0.54426251  0.58288651  0.26681565  1
  O2-  O202  1  0.53958075  0.59098319  0.60208855  1
  O2-  O203  1  0.54714661  0.58857192  0.93535249  1
  O2-  O204  1  0.16880041  0.20557096  0.26984710  1
  O2-  O205  1  0.16474256  0.20726514  0.59313275  1
  O2-  O206  1  0.16504013  0.21037776  0.93115903  1
  O2-  O207  1  0.16629267  0.71112792  0.26223025  1
  O2-  O208  1  0.16652678  0.70936964  0.60808748  1
  O2-  O209  1  0.16513443  0.70435183  0.93756494  1
  O2-  O210  1  0.66064740  0.20508001  0.26818569  1
  O2-  O211  1  0.66909593  0.20058161  0.60684060  1
  O2-  O212  1  0.66782159  0.19789403  0.93816284  1
  O2-  O213  1  0.66409560  0.70001319  0.26758010  1
  O2-  O214  1  0.66218305  0.70624525  0.60481404  1
  O2-  O215  1  0.66229618  0.71293911  0.93444341  1
  O2-  O216  1  0.07884246  0.45632250  0.06540249  1
  O2-  O217  1  0.07936890  0.45312283  0.40383475  1
  O2-  O218  1  0.08595246  0.44423546  0.73111551  1
  O2-  O219  1  0.08141985  0.95486114  0.06372384  1
  O2-  O220  1  0.08808664  0.95555771  0.39211031  1
  O2-  O221  1  0.08488746  0.96064997  0.73444568  1
  O2-  O222  1  0.59091383  0.46162549  0.06423160  1
  O2-  O223  1  0.58308604  0.45219726  0.39231375  1
  O2-  O224  1  0.58345885  0.46551996  0.73500108  1
  O2-  O225  1  0.58291383  0.95708349  0.06997498  1
  O2-  O226  1  0.58207191  0.96520610  0.40238980  1
  O2-  O227  1  0.57803475  0.95792426  0.73638776  1
  O2-  O228  1  0.20786438  0.33116904  0.06743490  1
  O2-  O229  1  0.20904632  0.32973549  0.40490681  1
  O2-  O230  1  0.21018059  0.33051925  0.72581598  1
  O2-  O231  1  0.19884622  0.83312352  0.06309645  1
  O2-  O232  1  0.21180025  0.83955824  0.39238722  1
  O2-  O233  1  0.21169376  0.83688341  0.73884608  1
  O2-  O234  1  0.70010318  0.33346223  0.05980168  1
  O2-  O235  1  0.69892858  0.33166827  0.39148093  1
  O2-  O236  1  0.69903342  0.33064591  0.73635090  1
  O2-  O237  1  0.71272671  0.83320808  0.07031576  1
  O2-  O238  1  0.69335023  0.82605591  0.39735688  1
  O2-  O239  1  0.70430640  0.83047034  0.73574123  1
  O2-  O240  1  0.45532247  0.41396788  0.26895133  1
  O2-  O241  1  0.46373918  0.41898370  0.59595175  1
  O2-  O242  1  0.46430281  0.41758407  0.93454736  1
  O2-  O243  1  0.46155472  0.91861134  0.26524482  1
  O2-  O244  1  0.45099976  0.91591840  0.60815559  1
  O2-  O245  1  0.45915500  0.91388835  0.93618400  1
  O2-  O246  1  0.95863737  0.41461460  0.26604278  1
  O2-  O247  1  0.95421754  0.41731636  0.60689726  1
  O2-  O248  1  0.95016477  0.41935481  0.93585339  1
  O2-  O249  1  0.95780544  0.91916500  0.26235561  1
  O2-  O250  1  0.96404766  0.91205275  0.60002513  1
  O2-  O251  1  0.95263657  0.91162807  0.93876738  1
  O2-  O252  1  0.33697897  0.29110921  0.27106586  1
  O2-  O253  1  0.33736602  0.29025553  0.59108060  1
  O2-  O254  1  0.33541000  0.28819342  0.93338569  1
  O2-  O255  1  0.33498786  0.79414599  0.26102148  1
  O2-  O256  1  0.33605189  0.79162475  0.60898527  1
  O2-  O257  1  0.33415890  0.80017061  0.93787292  1
  O2-  O258  1  0.83201738  0.28957983  0.26509686  1
  O2-  O259  1  0.83023160  0.30178110  0.60952063  1
  O2-  O260  1  0.83087729  0.30110196  0.93582473  1
  O2-  O261  1  0.82591375  0.79430298  0.26679391  1
  O2-  O262  1  0.83064042  0.79026110  0.60166664  1
  O2-  O263  1  0.83757976  0.78555275  0.93824628  1
  O2-  O264  1  0.41436936  0.04044542  0.06776178  1
  O2-  O265  1  0.41227217  0.04253241  0.39723307  1
  O2-  O266  1  0.41445257  0.05066216  0.72849515  1
  O2-  O267  1  0.42363747  0.54528997  0.06850279  1
  O2-  O268  1  0.41936959  0.54362131  0.40085791  1
  O2-  O269  1  0.41671717  0.54052336  0.73311416  1
  O2-  O270  1  0.91572608  0.04379533  0.06462802  1
  O2-  O271  1  0.92596416  0.05095096  0.39478768  1
  O2-  O272  1  0.91949129  0.03733153  0.73658033  1
  O2-  O273  1  0.91382405  0.54837753  0.06085119  1
  O2-  O274  1  0.91583170  0.53951824  0.39970373  1
  O2-  O275  1  0.92356860  0.54668327  0.73683248  1
  O2-  O276  1  0.28667554  0.16476741  0.06749817  1
  O2-  O277  1  0.29709958  0.16417416  0.39695504  1
  O2-  O278  1  0.29420921  0.16879157  0.72296418  1
  O2-  O279  1  0.29858259  0.67374706  0.06554574  1
  O2-  O280  1  0.29372000  0.67344650  0.39773811  1
  O2-  O281  1  0.29039058  0.66529573  0.73948167  1
  O2-  O282  1  0.80132763  0.16875958  0.06083656  1
  O2-  O283  1  0.78808928  0.16680091  0.40089479  1
  O2-  O284  1  0.79864650  0.16936280  0.73811615  1
  O2-  O285  1  0.78531202  0.65894520  0.06387022  1
  O2-  O286  1  0.78805075  0.66464897  0.39941614  1
  O2-  O287  1  0.78955109  0.66691854  0.73734477  1
