# generated using pymatgen
data_Ca2Al2SiO7
_symmetry_space_group_name_H-M   'P 1'
_cell_length_a   15.45695561
_cell_length_b   15.45601811
_cell_length_c   15.28252680
_cell_angle_alpha   90.00854390
_cell_angle_beta   90.00445237
_cell_angle_gamma   89.99471191
_symmetry_Int_Tables_number   1
_chemical_formula_structural   Ca2Al2SiO7
_chemical_formula_sum   'Ca48 Al48 Si24 O168'
_cell_volume   3651.04121537
_cell_formula_units_Z   24
loop_
 _symmetry_equiv_pos_site_id
 _symmetry_equiv_pos_as_xyz
  1  'x, y, z'
loop_
 _atom_type_symbol
 _atom_type_oxidation_number
  Ca2+  2.0
  Al0+  0.0
  Si0+  0.0
  O2-  -2.0
loop_
 _atom_site_type_symbol
 _atom_site_label
 _atom_site_symmetry_multiplicity
 _atom_site_fract_x
 _atom_site_fract_y
 _atom_site_fract_z
 _atom_site_occupancy
  Ca2+  Ca0  1  0.17064827  0.07722142  0.17489064  1
  Ca2+  Ca1  1  0.16874345  0.07806356  0.49913866  1
  Ca2+  Ca2  1  0.16381407  0.07337396  0.83873763  1
  Ca2+  Ca3  1  0.17272339  0.57547159  0.18120760  1
  Ca2+  Ca4  1  0.17169866  0.58524676  0.49524557  1
  Ca2+  Ca5  1  0.16983728  0.57937814  0.83820228  1
  Ca2+  Ca6  1  0.66406310  0.08716976  0.16935223  1
  Ca2+  Ca7  1  0.67297930  0.07477380  0.51024220  1
  Ca2+  Ca8  1  0.67210901  0.08724891  0.83585083  1
  Ca2+  Ca9  1  0.66444369  0.57490142  0.17170641  1
  Ca2+  Ca10  1  0.66595903  0.58052150  0.50042855  1
  Ca2+  Ca11  1  0.66158264  0.58167116  0.83998099  1
  Ca2+  Ca12  1  0.09551432  0.31905709  0.16645566  1
  Ca2+  Ca13  1  0.07914902  0.32926406  0.49027803  1
  Ca2+  Ca14  1  0.07759181  0.32372195  0.82667253  1
  Ca2+  Ca15  1  0.09366167  0.82837604  0.16650931  1
  Ca2+  Ca16  1  0.08259687  0.83610641  0.49378498  1
  Ca2+  Ca17  1  0.08117673  0.83871787  0.82768797  1
  Ca2+  Ca18  1  0.57600956  0.33647029  0.16042754  1
  Ca2+  Ca19  1  0.57354719  0.33456110  0.49396513  1
  Ca2+  Ca20  1  0.57705435  0.33395966  0.83295567  1
  Ca2+  Ca21  1  0.56625635  0.82779684  0.15892395  1
  Ca2+  Ca22  1  0.58409608  0.82902660  0.49476573  1
  Ca2+  Ca23  1  0.58641379  0.82325051  0.82649651  1
  Ca2+  Ca24  1  0.33567987  0.42072408  0.17848930  1
  Ca2+  Ca25  1  0.33222166  0.41414079  0.49837663  1
  Ca2+  Ca26  1  0.34172762  0.41484248  0.83547949  1
  Ca2+  Ca27  1  0.32868800  0.91827328  0.17663562  1
  Ca2+  Ca28  1  0.32577517  0.91674992  0.49990238  1
  Ca2+  Ca29  1  0.32243570  0.91162470  0.84067042  1
  Ca2+  Ca30  1  0.81825315  0.41989170  0.17586499  1
  Ca2+  Ca31  1  0.83143134  0.41952249  0.50205616  1
  Ca2+  Ca32  1  0.82793718  0.41561918  0.83995636  1
  Ca2+  Ca33  1  0.82853451  0.91834580  0.16935299  1
  Ca2+  Ca34  1  0.83166545  0.92098203  0.51224570  1
  Ca2+  Ca35  1  0.83075351  0.91781861  0.82876931  1
  Ca2+  Ca36  1  0.41471628  0.17786981  0.16241415  1
  Ca2+  Ca37  1  0.41090920  0.17365419  0.49242205  1
  Ca2+  Ca38  1  0.42000468  0.17709125  0.83224492  1
  Ca2+  Ca39  1  0.41100064  0.67555680  0.16360998  1
  Ca2+  Ca40  1  0.41914913  0.67197528  0.49352250  1
  Ca2+  Ca41  1  0.42845338  0.67051213  0.83356752  1
  Ca2+  Ca42  1  0.93112316  0.16546659  0.16346168  1
  Ca2+  Ca43  1  0.91909291  0.16790401  0.49713324  1
  Ca2+  Ca44  1  0.91915717  0.16792314  0.82756576  1
  Ca2+  Ca45  1  0.92088777  0.66040423  0.17111146  1
  Ca2+  Ca46  1  0.92038697  0.67237757  0.49273071  1
  Ca2+  Ca47  1  0.91904197  0.67460463  0.82484136  1
  Al0+  Al48  1  0.00058780  -0.00113663  0.00172507  1
  Al0+  Al49  1  -0.00179335  0.00064471  0.33099775  1
  Al0+  Al50  1  0.00063636  -0.00028633  0.67034193  1
  Al0+  Al51  1  0.00055153  0.50049841  0.00068706  1
  Al0+  Al52  1  -0.00247087  0.50133593  0.33545046  1
  Al0+  Al53  1  0.00078248  0.49845365  0.66486847  1
  Al0+  Al54  1  0.49836967  0.00238019  -0.00795765  1
  Al0+  Al55  1  0.49970508  -0.00020886  0.33399181  1
  Al0+  Al56  1  0.49840860  -0.00073367  0.67256205  1
  Al0+  Al57  1  0.50015934  0.50237430  -0.00166459  1
  Al0+  Al58  1  0.50092860  0.50017902  0.33843882  1
  Al0+  Al59  1  0.49999506  0.50096857  0.65870542  1
  Al0+  Al60  1  0.24848195  0.24780556  -0.01137787  1
  Al0+  Al61  1  0.25013359  0.24921620  0.33256729  1
  Al0+  Al62  1  0.24952107  0.25020413  0.66476836  1
  Al0+  Al63  1  0.24824077  0.74811621  -0.00143213  1
  Al0+  Al64  1  0.24793752  0.74910336  0.33387013  1
  Al0+  Al65  1  0.25280537  0.74741121  0.67327549  1
  Al0+  Al66  1  0.75028077  0.25125299  0.00397072  1
  Al0+  Al67  1  0.74962149  0.24986885  0.33795802  1
  Al0+  Al68  1  0.74983671  0.25078772  0.66666830  1
  Al0+  Al69  1  0.75225493  0.75151974  -0.00040280  1
  Al0+  Al70  1  0.75049217  0.74951217  0.33353289  1
  Al0+  Al71  1  0.75231826  0.74887117  0.66157853  1
  Al0+  Al72  1  0.67816760  0.92608351  0.68198073  1
  Al0+  Al73  1  0.93288803  0.82053936  0.65338658  1
  Al0+  Al74  1  0.42889000  0.82093523  0.32197596  1
  Al0+  Al75  1  0.43042515  0.32064139  0.32007346  1
  Al0+  Al76  1  0.82048328  0.57207082  0.35007530  1
  Al0+  Al77  1  0.17959228  0.92903920  0.01619932  1
  Al0+  Al78  1  0.18171014  0.92907317  0.68107200  1
  Al0+  Al79  1  0.06953394  0.67959059  0.32017452  1
  Al0+  Al80  1  0.32272292  0.07138520  0.34697297  1
  Al0+  Al81  1  0.17879431  0.42674121  0.34737463  1
  Al0+  Al82  1  0.32157540  0.57222348  0.34888286  1
  Al0+  Al83  1  0.57438542  0.17897280  0.98468289  1
  Al0+  Al84  1  0.17793284  0.92878955  0.34778048  1
  Al0+  Al85  1  0.57182206  0.68156807  0.98698929  1
  Al0+  Al86  1  0.67799230  0.42769140  0.35176542  1
  Al0+  Al87  1  0.82035068  0.07237691  0.68277599  1
  Al0+  Al88  1  0.57138410  0.68091637  0.65046881  1
  Al0+  Al89  1  0.92751569  0.32159025  0.65271450  1
  Al0+  Al90  1  0.42527866  0.82219193  0.98394896  1
  Al0+  Al91  1  0.06961467  0.17936056  0.32015551  1
  Al0+  Al92  1  0.42893700  0.32261704  0.98554942  1
  Al0+  Al93  1  0.43000908  0.31932638  0.64966819  1
  Al0+  Al94  1  0.67923868  0.43103599  0.01257209  1
  Al0+  Al95  1  0.07002884  0.17731549  0.98461197  1
  Si0+  Si96  1  0.92635232  0.82305419  0.31457113  1
  Si0+  Si97  1  0.07494332  0.67646686  0.65099138  1
  Si0+  Si98  1  0.17727613  0.42711914  0.01223151  1
  Si0+  Si99  1  0.82057066  0.07075983  0.01655194  1
  Si0+  Si100  1  0.32194218  0.07387919  0.01496787  1
  Si0+  Si101  1  0.06991991  0.67731995  0.98472590  1
  Si0+  Si102  1  0.07042620  0.17796154  0.64886330  1
  Si0+  Si103  1  0.82123129  0.07030204  0.34716567  1
  Si0+  Si104  1  0.31926426  0.56831917  0.01365770  1
  Si0+  Si105  1  0.82305545  0.56981422  0.68238578  1
  Si0+  Si106  1  0.17841877  0.42824611  0.68280067  1
  Si0+  Si107  1  0.42625878  0.82252930  0.65090136  1
  Si0+  Si108  1  0.57379419  0.17717874  0.31919573  1
  Si0+  Si109  1  0.82468874  0.57476005  0.01626045  1
  Si0+  Si110  1  0.57201997  0.17617944  0.65009484  1
  Si0+  Si111  1  0.92914130  0.82142721  0.98479019  1
  Si0+  Si112  1  0.67771534  0.92817952  0.01440468  1
  Si0+  Si113  1  0.92884757  0.32211039  0.98619250  1
  Si0+  Si114  1  0.32249634  0.56874977  0.68411627  1
  Si0+  Si115  1  0.32163171  0.07563381  0.68620976  1
  Si0+  Si116  1  0.57329597  0.67884124  0.31617877  1
  Si0+  Si117  1  0.67868251  0.92942512  0.34543052  1
  Si0+  Si118  1  0.67815586  0.43137858  0.68236504  1
  Si0+  Si119  1  0.92586484  0.32265917  0.31594548  1
  O2-  O120  1  0.25770701  0.00129310  0.05989529  1
  O2-  O121  1  0.25093584  -0.00063191  0.39767570  1
  O2-  O122  1  0.25705399  0.00244380  0.72960714  1
  O2-  O123  1  0.25131145  0.49399334  0.05463548  1
  O2-  O124  1  0.25096664  0.49810224  0.39880215  1
  O2-  O125  1  0.25034369  0.49799107  0.72623434  1
  O2-  O126  1  0.74503131  0.00314579  0.05786714  1
  O2-  O127  1  0.74965317  -0.00007820  0.38801431  1
  O2-  O128  1  0.74644174  0.00176931  0.73310900  1
  O2-  O129  1  0.75434702  0.50679687  0.05765211  1
  O2-  O130  1  0.75022895  0.49975596  0.40182127  1
  O2-  O131  1  0.75173574  0.49979686  0.72562489  1
  O2-  O132  1  -0.00240731  0.25708361  0.27176195  1
  O2-  O133  1  0.00119529  0.24653734  0.60559776  1
  O2-  O134  1  -0.00333296  0.25426476  0.93960374  1
  O2-  O135  1  -0.00396920  0.75508836  0.27095489  1
  O2-  O136  1  0.00953908  0.74802655  0.60753485  1
  O2-  O137  1  -0.00113950  0.74832410  0.94364073  1
  O2-  O138  1  0.50660722  0.24681663  0.27476199  1
  O2-  O139  1  0.50133967  0.24104878  0.60400607  1
  O2-  O140  1  0.50204763  0.25116924  0.93577142  1
  O2-  O141  1  0.50152777  0.74470364  0.27349051  1
  O2-  O142  1  0.50085027  0.76082735  0.60626167  1
  O2-  O143  1  0.50399914  0.75662853  0.93498662  1
  O2-  O144  1  0.06992420  0.17768609  0.09763353  1
  O2-  O145  1  0.06471110  0.17767686  0.43308779  1
  O2-  O146  1  0.06959079  0.17997986  0.75489418  1
  O2-  O147  1  0.07016421  0.67473617  0.08933756  1
  O2-  O148  1  0.06859417  0.68215201  0.43325498  1
  O2-  O149  1  0.07215790  0.67407084  0.75737332  1
  O2-  O150  1  0.57514049  0.18014369  0.09832885  1
  O2-  O151  1  0.57522758  0.17595613  0.42464905  1
  O2-  O152  1  0.57322227  0.18047072  0.75552689  1
  O2-  O153  1  0.57023439  0.68175230  0.10023883  1
  O2-  O154  1  0.57586959  0.68329718  0.42186913  1
  O2-  O155  1  0.56951834  0.67797428  0.76375539  1
  O2-  O156  1  0.18198810  0.42711560  0.23288914  1
  O2-  O157  1  0.17724356  0.42844535  0.57837434  1
  O2-  O158  1  0.17285991  0.43225989  0.90690403  1
  O2-  O159  1  0.17934800  0.93025887  0.23403516  1
  O2-  O160  1  0.18175118  0.92919068  0.56853555  1
  O2-  O161  1  0.17745922  0.93003420  0.90273760  1
  O2-  O162  1  0.67827190  0.42766026  0.23777540  1
  O2-  O163  1  0.67889753  0.43282363  0.57772811  1
  O2-  O164  1  0.68176001  0.43226262  0.89890269  1
  O2-  O165  1  0.67980945  0.93065672  0.23988107  1
  O2-  O166  1  0.68142947  0.92745176  0.56773562  1
  O2-  O167  1  0.68355201  0.92451012  0.90996787  1
  O2-  O168  1  0.42768115  0.32349548  0.09881909  1
  O2-  O169  1  0.43091728  0.31794888  0.43316924  1
  O2-  O170  1  0.43293717  0.32109969  0.76278412  1
  O2-  O171  1  0.42419459  0.81877683  0.09771769  1
  O2-  O172  1  0.43326431  0.82119827  0.43517499  1
  O2-  O173  1  0.42342907  0.81692753  0.75629192  1
  O2-  O174  1  0.92959887  0.32154825  0.09142076  1
  O2-  O175  1  0.92510597  0.31860231  0.42168386  1
  O2-  O176  1  0.93078107  0.32321794  0.76637695  1
  O2-  O177  1  0.92631628  0.82216530  0.08966520  1
  O2-  O178  1  0.92505360  0.82421480  0.41998319  1
  O2-  O179  1  0.93333282  0.81789578  0.76717380  1
  O2-  O180  1  0.32313447  0.07137577  0.23322271  1
  O2-  O181  1  0.31940489  0.07806789  0.58083669  1
  O2-  O182  1  0.31735788  0.07541775  0.90928850  1
  O2-  O183  1  0.31966024  0.57196691  0.23457222  1
  O2-  O184  1  0.32110124  0.57095023  0.57962847  1
  O2-  O185  1  0.31700196  0.56835367  0.90800644  1
  O2-  O186  1  0.82132979  0.06978808  0.24158379  1
  O2-  O187  1  0.81984446  0.07023618  0.56875042  1
  O2-  O188  1  0.82227398  0.06994032  0.91183826  1
  O2-  O189  1  0.81751919  0.57139468  0.23587416  1
  O2-  O190  1  0.82434113  0.56859508  0.57794573  1
  O2-  O191  1  0.82848491  0.57447237  0.91044733  1
  O2-  O192  1  0.03442142  0.08479250  0.26366675  1
  O2-  O193  1  0.04466183  0.08436364  0.60466886  1
  O2-  O194  1  0.03462274  0.08174455  0.93165169  1
  O2-  O195  1  0.03762132  0.58298843  0.26479529  1
  O2-  O196  1  0.04696864  0.58410009  0.60481809  1
  O2-  O197  1  0.04230144  0.58581911  0.93480591  1
  O2-  O198  1  0.54934916  0.08368801  0.27226641  1
  O2-  O199  1  0.55070044  0.07962078  0.60779814  1
  O2-  O200  1  0.55008438  0.08085614  0.92920771  1
  O2-  O201  1  0.55069899  0.58330022  0.27463852  1
  O2-  O202  1  0.53589423  0.58727823  0.59468837  1
  O2-  O203  1  0.53945053  0.58560723  0.93148160  1
  O2-  O204  1  0.16597737  0.20846647  0.26506961  1
  O2-  O205  1  0.16359045  0.20531614  0.60398616  1
  O2-  O206  1  0.16368955  0.20655833  0.92519125  1
  O2-  O207  1  0.16541421  0.70863586  0.26377460  1
  O2-  O208  1  0.17080023  0.69886552  0.60942188  1
  O2-  O209  1  0.16061646  0.70445745  0.93518981  1
  O2-  O210  1  0.66845191  0.20111013  0.27328679  1
  O2-  O211  1  0.66528036  0.20311417  0.60420512  1
  O2-  O212  1  0.67362634  0.20826280  0.93290450  1
  O2-  O213  1  0.66580340  0.70702604  0.26886617  1
  O2-  O214  1  0.66896756  0.70680091  0.59653940  1
  O2-  O215  1  0.67246442  0.70585534  0.93496638  1
  O2-  O216  1  0.08708297  0.45722795  0.06177025  1
  O2-  O217  1  0.07943720  0.45408081  0.39794576  1
  O2-  O218  1  0.08715928  0.45774995  0.73182594  1
  O2-  O219  1  0.08256181  0.95983439  0.06935640  1
  O2-  O220  1  0.07827610  0.95837346  0.39794654  1
  O2-  O221  1  0.08561039  0.96077253  0.73597476  1
  O2-  O222  1  0.58285443  0.46316828  0.06638861  1
  O2-  O223  1  0.58146748  0.45754184  0.40636512  1
  O2-  O224  1  0.58673802  0.46350967  0.72783971  1
  O2-  O225  1  0.58325606  0.95262675  0.05790150  1
  O2-  O226  1  0.58839058  0.95600032  0.39522004  1
  O2-  O227  1  0.57727118  0.94623938  0.73348901  1
  O2-  O228  1  0.20161582  0.33225210  0.05365143  1
  O2-  O229  1  0.20579798  0.32912939  0.40147042  1
  O2-  O230  1  0.20524873  0.33583317  0.73015649  1
  O2-  O231  1  0.20703499  0.82923640  0.06580525  1
  O2-  O232  1  0.20364594  0.83039521  0.40030441  1
  O2-  O233  1  0.20968265  0.83105067  0.73623074  1
  O2-  O234  1  0.71044528  0.33547523  0.06883334  1
  O2-  O235  1  0.70661262  0.32910487  0.40508463  1
  O2-  O236  1  0.70361078  0.33836677  0.72829855  1
  O2-  O237  1  0.71105568  0.83897352  0.06456460  1
  O2-  O238  1  0.70666819  0.83790687  0.39241014  1
  O2-  O239  1  0.71390200  0.82865276  0.73376511  1
  O2-  O240  1  0.46015566  0.41915715  0.26895059  1
  O2-  O241  1  0.46252515  0.41477708  0.59576712  1
  O2-  O242  1  0.45804594  0.42051713  0.93168522  1
  O2-  O243  1  0.46178077  0.91653147  0.26632630  1
  O2-  O244  1  0.44222668  0.92022101  0.61019640  1
  O2-  O245  1  0.44387876  0.92296097  0.93346673  1
  O2-  O246  1  0.94480671  0.41826763  0.27282300  1
  O2-  O247  1  0.96003390  0.41736961  0.59813701  1
  O2-  O248  1  0.95379093  0.41637281  0.93949290  1
  O2-  O249  1  0.94915357  0.91682328  0.26770588  1
  O2-  O250  1  0.96074978  0.91832934  0.60066196  1
  O2-  O251  1  0.95947870  0.91178720  0.93704862  1
  O2-  O252  1  0.33404876  0.29052027  0.26581707  1
  O2-  O253  1  0.33079799  0.29226818  0.59906881  1
  O2-  O254  1  0.33189381  0.29445030  0.92850861  1
  O2-  O255  1  0.33224881  0.79085652  0.26857972  1
  O2-  O256  1  0.33525298  0.78815643  0.60449283  1
  O2-  O257  1  0.32982790  0.78464396  0.92966325  1
  O2-  O258  1  0.83310922  0.29182525  0.27019264  1
  O2-  O259  1  0.83041104  0.29327461  0.59880776  1
  O2-  O260  1  0.83567535  0.29607776  0.94017119  1
  O2-  O261  1  0.83335415  0.79506015  0.26690598  1
  O2-  O262  1  0.83805578  0.78851151  0.59764434  1
  O2-  O263  1  0.83795719  0.79496707  0.93532672  1
  O2-  O264  1  0.41882954  0.05599418  0.05732051  1
  O2-  O265  1  0.42098147  0.04404295  0.40192420  1
  O2-  O266  1  0.41718912  0.05616338  0.73080592  1
  O2-  O267  1  0.41178752  0.54545584  0.06073860  1
  O2-  O268  1  0.42027023  0.54841366  0.40178463  1
  O2-  O269  1  0.41401071  0.53719068  0.72999942  1
  O2-  O270  1  0.90978132  0.03639427  0.06537004  1
  O2-  O271  1  0.91140724  0.04143722  0.39592965  1
  O2-  O272  1  0.91789749  0.04210491  0.73644329  1
  O2-  O273  1  0.91777818  0.54713891  0.06355619  1
  O2-  O274  1  0.91891809  0.54693350  0.40359385  1
  O2-  O275  1  0.91524416  0.54213652  0.73089786  1
  O2-  O276  1  0.29055084  0.16699628  0.05954521  1
  O2-  O277  1  0.29129922  0.16788863  0.40088669  1
  O2-  O278  1  0.29098304  0.16777355  0.73347714  1
  O2-  O279  1  0.28655144  0.65853333  0.06072627  1
  O2-  O280  1  0.28840813  0.66805155  0.40388438  1
  O2-  O281  1  0.29576380  0.65914977  0.73550019  1
  O2-  O282  1  0.79753836  0.16319554  0.06502989  1
  O2-  O283  1  0.79577795  0.16168421  0.39596560  1
  O2-  O284  1  0.79306976  0.17166177  0.73625703  1
  O2-  O285  1  0.80241058  0.66918725  0.06218604  1
  O2-  O286  1  0.79297659  0.67158349  0.40235549  1
  O2-  O287  1  0.79587910  0.66218439  0.72860574  1
