# generated using pymatgen
data_Ca2Al2SiO7
_symmetry_space_group_name_H-M   'P 1'
_cell_length_a   15.46661352
_cell_length_b   15.46955348
_cell_length_c   15.29070061
_cell_angle_alpha   90.01701834
_cell_angle_beta   89.98457122
_cell_angle_gamma   89.97500263
_symmetry_Int_Tables_number   1
_chemical_formula_structural   Ca2Al2SiO7
_chemical_formula_sum   'Ca48 Al48 Si24 O168'
_cell_volume   3658.47692709
_cell_formula_units_Z   24
loop_
 _symmetry_equiv_pos_site_id
 _symmetry_equiv_pos_as_xyz
  1  'x, y, z'
loop_
 _atom_type_symbol
 _atom_type_oxidation_number
  Ca2+  2.0
  Al0+  0.0
  Si0+  0.0
  O2-  -2.0
loop_
 _atom_site_type_symbol
 _atom_site_label
 _atom_site_symmetry_multiplicity
 _atom_site_fract_x
 _atom_site_fract_y
 _atom_site_fract_z
 _atom_site_occupancy
  Ca2+  Ca0  1  0.16634593  0.06825106  0.16888967  1
  Ca2+  Ca1  1  0.16651725  0.07421083  0.50183037  1
  Ca2+  Ca2  1  0.16968687  0.07239816  0.83977089  1
  Ca2+  Ca3  1  0.17406560  0.58308859  0.16622521  1
  Ca2+  Ca4  1  0.17319634  0.57332601  0.50922420  1
  Ca2+  Ca5  1  0.17540716  0.58947240  0.83598803  1
  Ca2+  Ca6  1  0.66287693  0.07891654  0.17042832  1
  Ca2+  Ca7  1  0.66878751  0.07471901  0.50599603  1
  Ca2+  Ca8  1  0.66929496  0.08475597  0.83828433  1
  Ca2+  Ca9  1  0.68133710  0.59968501  0.16529962  1
  Ca2+  Ca10  1  0.67025975  0.58946571  0.50374037  1
  Ca2+  Ca11  1  0.66899881  0.59242866  0.84124552  1
  Ca2+  Ca12  1  0.08020686  0.33734746  0.16236558  1
  Ca2+  Ca13  1  0.09044339  0.33548661  0.49371064  1
  Ca2+  Ca14  1  0.07803469  0.33980142  0.82982529  1
  Ca2+  Ca15  1  0.08008443  0.82931531  0.15510993  1
  Ca2+  Ca16  1  0.08180945  0.82725501  0.49904094  1
  Ca2+  Ca17  1  0.08187554  0.82109403  0.83124640  1
  Ca2+  Ca18  1  0.57511513  0.32689764  0.15864619  1
  Ca2+  Ca19  1  0.56858344  0.33475621  0.49732885  1
  Ca2+  Ca20  1  0.57103111  0.33473622  0.83353727  1
  Ca2+  Ca21  1  0.57394937  0.83374859  0.16135194  1
  Ca2+  Ca22  1  0.57507061  0.83138218  0.49694066  1
  Ca2+  Ca23  1  0.57287354  0.82000378  0.83015487  1
  Ca2+  Ca24  1  0.33619813  0.42131888  0.17048012  1
  Ca2+  Ca25  1  0.32758078  0.41688243  0.51097114  1
  Ca2+  Ca26  1  0.33608004  0.42678054  0.83648817  1
  Ca2+  Ca27  1  0.32411302  0.90572375  0.17041653  1
  Ca2+  Ca28  1  0.33172213  0.90740933  0.50212325  1
  Ca2+  Ca29  1  0.33085977  0.90752969  0.84201203  1
  Ca2+  Ca30  1  0.83576287  0.42832308  0.16744473  1
  Ca2+  Ca31  1  0.83035006  0.42479588  0.50220344  1
  Ca2+  Ca32  1  0.83085345  0.42412034  0.84427389  1
  Ca2+  Ca33  1  0.82428740  0.91127350  0.17228787  1
  Ca2+  Ca34  1  0.82717140  0.91768627  0.50882494  1
  Ca2+  Ca35  1  0.84153531  0.91738030  0.83725150  1
  Ca2+  Ca36  1  0.41834576  0.17884875  0.15940529  1
  Ca2+  Ca37  1  0.40813832  0.17988015  0.49582055  1
  Ca2+  Ca38  1  0.41761074  0.17701165  0.83301897  1
  Ca2+  Ca39  1  0.41949046  0.67526659  0.15605924  1
  Ca2+  Ca40  1  0.41662096  0.67087033  0.50172245  1
  Ca2+  Ca41  1  0.41649629  0.66934298  0.82687672  1
  Ca2+  Ca42  1  0.91887551  0.17573289  0.15822338  1
  Ca2+  Ca43  1  0.91522175  0.16529495  0.50076322  1
  Ca2+  Ca44  1  0.91432340  0.17179321  0.82994536  1
  Ca2+  Ca45  1  0.92318362  0.66687932  0.15470212  1
  Ca2+  Ca46  1  0.92153213  0.66477649  0.49956542  1
  Ca2+  Ca47  1  0.92593478  0.67241276  0.83108305  1
  Al0+  Al48  1  0.00012309  0.00230350  0.00354188  1
  Al0+  Al49  1  0.00133432  0.00062653  0.33680053  1
  Al0+  Al50  1  -0.00103785  0.00188459  0.66744273  1
  Al0+  Al51  1  -0.00010796  0.49976372  -0.00399042  1
  Al0+  Al52  1  0.00118606  0.50074645  0.34085645  1
  Al0+  Al53  1  -0.00317324  0.49903018  0.66515893  1
  Al0+  Al54  1  0.50060176  0.00201121  -0.00634559  1
  Al0+  Al55  1  0.49977548  0.00053870  0.33546175  1
  Al0+  Al56  1  0.50062253  -0.00005881  0.66593761  1
  Al0+  Al57  1  0.50174278  0.49857299  0.00084633  1
  Al0+  Al58  1  0.50413233  0.50163426  0.32745422  1
  Al0+  Al59  1  0.49954787  0.49860897  0.66077121  1
  Al0+  Al60  1  0.24919475  0.24816850  -0.00270200  1
  Al0+  Al61  1  0.24869521  0.24853564  0.32857367  1
  Al0+  Al62  1  0.24652807  0.24706355  0.66803016  1
  Al0+  Al63  1  0.24826100  0.74788208  0.00368821  1
  Al0+  Al64  1  0.24892552  0.74779142  0.33517014  1
  Al0+  Al65  1  0.24796367  0.74726300  0.66193220  1
  Al0+  Al66  1  0.75106772  0.25044589  -0.00473966  1
  Al0+  Al67  1  0.75104040  0.25274708  0.33345156  1
  Al0+  Al68  1  0.75020400  0.24910881  0.66920147  1
  Al0+  Al69  1  0.74985287  0.75380563  -0.00180498  1
  Al0+  Al70  1  0.75178089  0.75298067  0.34490876  1
  Al0+  Al71  1  0.74876643  0.75143072  0.66201542  1
  Al0+  Al72  1  0.57178172  0.17859589  0.98503455  1
  Al0+  Al73  1  0.92789486  0.82372193  0.98845187  1
  Al0+  Al74  1  0.57100261  0.67697105  0.65020059  1
  Al0+  Al75  1  0.18011854  0.92867282  0.01261685  1
  Al0+  Al76  1  0.42626208  0.32266294  0.98435767  1
  Al0+  Al77  1  0.07141397  0.67764019  0.98645234  1
  Al0+  Al78  1  0.67785729  0.93146536  0.34833546  1
  Al0+  Al79  1  0.93058046  0.82315837  0.65046119  1
  Al0+  Al80  1  0.18273617  0.42925357  0.34427607  1
  Al0+  Al81  1  0.32321941  0.56953927  0.01428618  1
  Al0+  Al82  1  0.82021708  0.57228257  0.01123746  1
  Al0+  Al83  1  0.57235811  0.67946962  0.98857938  1
  Al0+  Al84  1  0.42753784  0.82205294  0.65107476  1
  Al0+  Al85  1  0.06976387  0.67630981  0.64849190  1
  Al0+  Al86  1  0.42785824  0.31776780  0.65298942  1
  Al0+  Al87  1  0.42871313  0.81947973  0.31875669  1
  Al0+  Al88  1  0.42719789  0.81969595  0.98726322  1
  Al0+  Al89  1  0.17875026  0.92685995  0.34894419  1
  Al0+  Al90  1  0.93117111  0.32086530  0.98696577  1
  Al0+  Al91  1  0.81999395  0.06971124  0.68260614  1
  Al0+  Al92  1  0.42776487  0.32201348  0.31891122  1
  Al0+  Al93  1  0.82077362  0.57076024  0.34805103  1
  Al0+  Al94  1  0.32058437  0.56943081  0.68127399  1
  Al0+  Al95  1  0.17643687  0.42592603  0.68302836  1
  Si0+  Si96  1  0.32159744  0.07135891  0.68120883  1
  Si0+  Si97  1  0.67882026  0.93151419  0.01439274  1
  Si0+  Si98  1  0.07146386  0.17674658  0.98265977  1
  Si0+  Si99  1  0.81892427  0.57225438  0.68300670  1
  Si0+  Si100  1  0.18023068  0.92929801  0.68055477  1
  Si0+  Si101  1  0.57335831  0.17914893  0.31914675  1
  Si0+  Si102  1  0.17812569  0.42621824  0.01550688  1
  Si0+  Si103  1  0.07029536  0.17733764  0.31685730  1
  Si0+  Si104  1  0.06917263  0.17925601  0.65047139  1
  Si0+  Si105  1  0.67933100  0.42605905  0.01735017  1
  Si0+  Si106  1  0.82255010  0.07483141  0.34884037  1
  Si0+  Si107  1  0.57675665  0.68032293  0.31595326  1
  Si0+  Si108  1  0.93019834  0.32257830  0.31950228  1
  Si0+  Si109  1  0.92672550  0.32025930  0.64975110  1
  Si0+  Si110  1  0.92987468  0.82267124  0.31986282  1
  Si0+  Si111  1  0.32031760  0.07130527  0.34886993  1
  Si0+  Si112  1  0.67917901  0.42875761  0.68110867  1
  Si0+  Si113  1  0.67816931  0.42547212  0.35070440  1
  Si0+  Si114  1  0.67678196  0.92739000  0.68738219  1
  Si0+  Si115  1  0.82114779  0.07367149  0.01662704  1
  Si0+  Si116  1  0.06853281  0.67804163  0.31808600  1
  Si0+  Si117  1  0.32353180  0.07253907  0.01674162  1
  Si0+  Si118  1  0.32575390  0.57135988  0.34903163  1
  Si0+  Si119  1  0.57358525  0.17877584  0.64894230  1
  O2-  O120  1  0.25796142  0.00059534  0.06045976  1
  O2-  O121  1  0.25669864  -0.00125315  0.39505465  1
  O2-  O122  1  0.25781131  -0.00655294  0.72240671  1
  O2-  O123  1  0.25027361  0.49110987  0.05949725  1
  O2-  O124  1  0.26331068  0.49617349  0.39177026  1
  O2-  O125  1  0.24766480  0.49830454  0.73219886  1
  O2-  O126  1  0.75106341  0.00190256  0.05804512  1
  O2-  O127  1  0.75303090  0.00757268  0.39280995  1
  O2-  O128  1  0.74751308  -0.00552323  0.73136705  1
  O2-  O129  1  0.74387150  0.49973361  0.06051870  1
  O2-  O130  1  0.74340218  0.49798254  0.39416180  1
  O2-  O131  1  0.74538498  0.50369481  0.72431895  1
  O2-  O132  1  -0.00077176  0.24963770  0.27693982  1
  O2-  O133  1  0.00184913  0.25369144  0.60714733  1
  O2-  O134  1  0.00677633  0.24849643  0.93802675  1
  O2-  O135  1  -0.00002916  0.75194379  0.27630231  1
  O2-  O136  1  -0.00134819  0.74928193  0.59756294  1
  O2-  O137  1  -0.00071295  0.75127312  0.93953674  1
  O2-  O138  1  0.50506146  0.24801362  0.27519836  1
  O2-  O139  1  0.50120423  0.24245163  0.60374875  1
  O2-  O140  1  0.49912296  0.25017083  0.93626350  1
  O2-  O141  1  0.50357667  0.74447835  0.27279848  1
  O2-  O142  1  0.49970923  0.75023918  0.60106782  1
  O2-  O143  1  0.49426488  0.74338820  0.93751448  1
  O2-  O144  1  0.06832070  0.17543073  0.08863750  1
  O2-  O145  1  0.07008220  0.17591492  0.42207115  1
  O2-  O146  1  0.06725272  0.17683162  0.75517198  1
  O2-  O147  1  0.06993278  0.67751901  0.10094573  1
  O2-  O148  1  0.06666103  0.67737225  0.42286577  1
  O2-  O149  1  0.06950007  0.67830910  0.76169456  1
  O2-  O150  1  0.57187837  0.17930131  0.09934121  1
  O2-  O151  1  0.57505164  0.18107016  0.42464682  1
  O2-  O152  1  0.57507629  0.18181645  0.75405028  1
  O2-  O153  1  0.57540737  0.68716056  0.10224849  1
  O2-  O154  1  0.57719888  0.68094970  0.42128520  1
  O2-  O155  1  0.57204742  0.67803061  0.76343211  1
  O2-  O156  1  0.17870953  0.43171404  0.23147089  1
  O2-  O157  1  0.18036432  0.42452202  0.56886484  1
  O2-  O158  1  0.17678595  0.42603681  0.91044121  1
  O2-  O159  1  0.17506392  0.92954045  0.23618671  1
  O2-  O160  1  0.17897793  0.93340253  0.57512340  1
  O2-  O161  1  0.17910903  0.93201302  0.89926999  1
  O2-  O162  1  0.68192563  0.41738040  0.24603964  1
  O2-  O163  1  0.68353193  0.42643258  0.57570812  1
  O2-  O164  1  0.68284463  0.42284660  0.91163828  1
  O2-  O165  1  0.67971585  0.93198062  0.23478219  1
  O2-  O166  1  0.67698560  0.93146695  0.58141166  1
  O2-  O167  1  0.67966912  0.93282746  0.90985344  1
  O2-  O168  1  0.42711987  0.31950013  0.09836635  1
  O2-  O169  1  0.42660938  0.31853126  0.43213470  1
  O2-  O170  1  0.42994298  0.31679322  0.76531407  1
  O2-  O171  1  0.42953869  0.82097063  0.10115441  1
  O2-  O172  1  0.42958203  0.81812826  0.43146615  1
  O2-  O173  1  0.42831471  0.82288291  0.76426440  1
  O2-  O174  1  0.93229611  0.31979702  0.10085149  1
  O2-  O175  1  0.92971712  0.32098793  0.42467009  1
  O2-  O176  1  0.92530044  0.31825907  0.75457355  1
  O2-  O177  1  0.92749572  0.82247631  0.10292485  1
  O2-  O178  1  0.93176979  0.82340301  0.42460411  1
  O2-  O179  1  0.93505335  0.82399129  0.76368505  1
  O2-  O180  1  0.31704491  0.07305753  0.24358418  1
  O2-  O181  1  0.31702413  0.07559014  0.57606300  1
  O2-  O182  1  0.32033290  0.07416791  0.91098883  1
  O2-  O183  1  0.32244835  0.57265893  0.24337376  1
  O2-  O184  1  0.32074944  0.56646107  0.56709682  1
  O2-  O185  1  0.32222018  0.57094120  0.90178031  1
  O2-  O186  1  0.82336689  0.07609215  0.24330987  1
  O2-  O187  1  0.81744378  0.07145493  0.56899336  1
  O2-  O188  1  0.82160410  0.07442125  0.91181775  1
  O2-  O189  1  0.82236112  0.57004271  0.23487295  1
  O2-  O190  1  0.81973885  0.56821440  0.57744724  1
  O2-  O191  1  0.81954832  0.56992207  0.89831075  1
  O2-  O192  1  0.04018234  0.08634368  0.26865472  1
  O2-  O193  1  0.03678779  0.09011004  0.60025725  1
  O2-  O194  1  0.04124214  0.08569776  0.93504832  1
  O2-  O195  1  0.03655734  0.58698705  0.27200663  1
  O2-  O196  1  0.03761651  0.57823537  0.59546838  1
  O2-  O197  1  0.04316208  0.58123356  0.93173209  1
  O2-  O198  1  0.54820059  0.08554031  0.27359147  1
  O2-  O199  1  0.55227935  0.08332926  0.60552371  1
  O2-  O200  1  0.54518044  0.08222238  0.92789256  1
  O2-  O201  1  0.56096725  0.58411965  0.27123000  1
  O2-  O202  1  0.54556413  0.57889220  0.59459897  1
  O2-  O203  1  0.55737539  0.57674514  0.94167565  1
  O2-  O204  1  0.16057207  0.20396659  0.26686614  1
  O2-  O205  1  0.16132631  0.20241708  0.60141589  1
  O2-  O206  1  0.16625854  0.19602304  0.93746736  1
  O2-  O207  1  0.16166967  0.70321172  0.27282992  1
  O2-  O208  1  0.16720616  0.70423784  0.59415150  1
  O2-  O209  1  0.16794895  0.70876449  0.93354904  1
  O2-  O210  1  0.66752234  0.20413321  0.27249128  1
  O2-  O211  1  0.66578799  0.20877778  0.60197180  1
  O2-  O212  1  0.66963725  0.20661057  0.93154168  1
  O2-  O213  1  0.67011380  0.71314252  0.27327047  1
  O2-  O214  1  0.66913780  0.70600160  0.59644060  1
  O2-  O215  1  0.66685327  0.71455975  0.93257053  1
  O2-  O216  1  0.08504873  0.45487626  0.06173525  1
  O2-  O217  1  0.08808064  0.46154589  0.40155216  1
  O2-  O218  1  0.07483065  0.45129675  0.73053963  1
  O2-  O219  1  0.08518062  0.96491354  0.06901150  1
  O2-  O220  1  0.08422774  0.96360244  0.40439819  1
  O2-  O221  1  0.09159790  0.96626666  0.72728809  1
  O2-  O222  1  0.58435595  0.44415680  0.06256177  1
  O2-  O223  1  0.58309846  0.44985143  0.39451946  1
  O2-  O224  1  0.58538928  0.45128459  0.72536024  1
  O2-  O225  1  0.58719064  0.96186246  0.06189445  1
  O2-  O226  1  0.58230712  0.96277656  0.40460092  1
  O2-  O227  1  0.58354071  0.95538343  0.73272281  1
  O2-  O228  1  0.19785299  0.32985815  0.06007688  1
  O2-  O229  1  0.20530207  0.32882337  0.39554237  1
  O2-  O230  1  0.20015394  0.32546446  0.73400269  1
  O2-  O231  1  0.20653098  0.83269826  0.06950796  1
  O2-  O232  1  0.20670713  0.82959920  0.40258116  1
  O2-  O233  1  0.20135427  0.83510347  0.72447370  1
  O2-  O234  1  0.71219784  0.33463334  0.06452190  1
  O2-  O235  1  0.70783648  0.33452274  0.40125956  1
  O2-  O236  1  0.71185324  0.33912736  0.72955348  1
  O2-  O237  1  0.70724064  0.84117953  0.06422830  1
  O2-  O238  1  0.71080601  0.83837453  0.40696789  1
  O2-  O239  1  0.70114924  0.83239365  0.72972305  1
  O2-  O240  1  0.45770192  0.41906324  0.26554529  1
  O2-  O241  1  0.46020107  0.41207780  0.59650215  1
  O2-  O242  1  0.45738809  0.41966078  0.93182298  1
  O2-  O243  1  0.45769728  0.91876197  0.26872910  1
  O2-  O244  1  0.45487058  0.92206490  0.59877413  1
  O2-  O245  1  0.45547334  0.91769948  0.93477356  1
  O2-  O246  1  0.96174984  0.41362983  0.27332414  1
  O2-  O247  1  0.94849556  0.41310251  0.60239456  1
  O2-  O248  1  0.95901132  0.41592984  0.93008961  1
  O2-  O249  1  0.95594348  0.91569987  0.27371339  1
  O2-  O250  1  0.95985260  0.92197143  0.59781162  1
  O2-  O251  1  0.95506090  0.92335413  0.93833790  1
  O2-  O252  1  0.33268195  0.28806571  0.26373762  1
  O2-  O253  1  0.33074853  0.28384195  0.60080176  1
  O2-  O254  1  0.32842132  0.29275933  0.93160211  1
  O2-  O255  1  0.33052473  0.78844015  0.26738636  1
  O2-  O256  1  0.32927647  0.79406987  0.59816462  1
  O2-  O257  1  0.32776712  0.79424164  0.93752396  1
  O2-  O258  1  0.83797210  0.29712463  0.27167517  1
  O2-  O259  1  0.83707829  0.28659747  0.60109203  1
  O2-  O260  1  0.83671013  0.28824956  0.93123037  1
  O2-  O261  1  0.83608126  0.79558630  0.27667637  1
  O2-  O262  1  0.83058232  0.79818127  0.59981741  1
  O2-  O263  1  0.83071411  0.79852908  0.93360627  1
  O2-  O264  1  0.41925695  0.05212565  0.06006862  1
  O2-  O265  1  0.41550838  0.05357177  0.39437835  1
  O2-  O266  1  0.41655922  0.05263200  0.72567658  1
  O2-  O267  1  0.42070107  0.54183066  0.06953578  1
  O2-  O268  1  0.42320454  0.55380028  0.38995256  1
  O2-  O269  1  0.42027664  0.53970350  0.73092535  1
  O2-  O270  1  0.91336686  0.04982872  0.06536166  1
  O2-  O271  1  0.91560721  0.04877965  0.39585689  1
  O2-  O272  1  0.91795510  0.04270165  0.73628648  1
  O2-  O273  1  0.91617418  0.53745814  0.06536603  1
  O2-  O274  1  0.91395783  0.53449882  0.40545750  1
  O2-  O275  1  0.90963383  0.54068635  0.72914240  1
  O2-  O276  1  0.29323180  0.16475135  0.06440138  1
  O2-  O277  1  0.28703366  0.16257006  0.39605597  1
  O2-  O278  1  0.28551634  0.15835327  0.73230603  1
  O2-  O279  1  0.28775417  0.66352173  0.07136296  1
  O2-  O280  1  0.29245012  0.66132314  0.39711395  1
  O2-  O281  1  0.29106344  0.66902703  0.73189737  1
  O2-  O282  1  0.79204165  0.16517673  0.06469263  1
  O2-  O283  1  0.79945632  0.16931483  0.39523307  1
  O2-  O284  1  0.78878129  0.16673193  0.73650235  1
  O2-  O285  1  0.79051727  0.66983652  0.06587309  1
  O2-  O286  1  0.79367433  0.66651084  0.40508171  1
  O2-  O287  1  0.79430523  0.66600710  0.72691361  1
