# generated using pymatgen
data_Ca2Al2SiO7
_symmetry_space_group_name_H-M   'P 1'
_cell_length_a   15.46576321
_cell_length_b   15.46556549
_cell_length_c   15.28936357
_cell_angle_alpha   89.99933931
_cell_angle_beta   90.00464779
_cell_angle_gamma   90.00079270
_symmetry_Int_Tables_number   1
_chemical_formula_structural   Ca2Al2SiO7
_chemical_formula_sum   'Ca48 Al48 Si24 O168'
_cell_volume   3657.01353368
_cell_formula_units_Z   24
loop_
 _symmetry_equiv_pos_site_id
 _symmetry_equiv_pos_as_xyz
  1  'x, y, z'
loop_
 _atom_type_symbol
 _atom_type_oxidation_number
  Ca2+  2.0
  Al0+  0.0
  Si0+  0.0
  O2-  -2.0
loop_
 _atom_site_type_symbol
 _atom_site_label
 _atom_site_symmetry_multiplicity
 _atom_site_fract_x
 _atom_site_fract_y
 _atom_site_fract_z
 _atom_site_occupancy
  Ca2+  Ca0  1  0.17010083  0.07599626  0.17841537  1
  Ca2+  Ca1  1  0.17094416  0.07492606  0.51207504  1
  Ca2+  Ca2  1  0.16449014  0.08222039  0.82785732  1
  Ca2+  Ca3  1  0.17077542  0.57692642  0.17732283  1
  Ca2+  Ca4  1  0.17301013  0.58112814  0.50688771  1
  Ca2+  Ca5  1  0.17020442  0.59071357  0.82773643  1
  Ca2+  Ca6  1  0.66065317  0.07385429  0.17276952  1
  Ca2+  Ca7  1  0.66314097  0.08131885  0.50640973  1
  Ca2+  Ca8  1  0.67246250  0.08241546  0.83160916  1
  Ca2+  Ca9  1  0.67842375  0.58457264  0.17274187  1
  Ca2+  Ca10  1  0.67203001  0.58198238  0.50822551  1
  Ca2+  Ca11  1  0.67405392  0.57572032  0.83409125  1
  Ca2+  Ca12  1  0.07682936  0.34070113  0.16893677  1
  Ca2+  Ca13  1  0.07249449  0.33635596  0.49582496  1
  Ca2+  Ca14  1  0.07167448  0.32625298  0.82045396  1
  Ca2+  Ca15  1  0.08290389  0.83274537  0.16565335  1
  Ca2+  Ca16  1  0.08209234  0.83450895  0.50198468  1
  Ca2+  Ca17  1  0.07468063  0.82782544  0.81782391  1
  Ca2+  Ca18  1  0.58376227  0.33164853  0.16649725  1
  Ca2+  Ca19  1  0.58367285  0.32299789  0.49497582  1
  Ca2+  Ca20  1  0.58977476  0.33240754  0.82270301  1
  Ca2+  Ca21  1  0.58827838  0.83219133  0.16916012  1
  Ca2+  Ca22  1  0.58227268  0.82225769  0.49024337  1
  Ca2+  Ca23  1  0.58779732  0.82624968  0.82610048  1
  Ca2+  Ca24  1  0.32644117  0.41227285  0.17731936  1
  Ca2+  Ca25  1  0.33009462  0.41469212  0.50502696  1
  Ca2+  Ca26  1  0.33520447  0.42468800  0.83124626  1
  Ca2+  Ca27  1  0.32927590  0.91517370  0.17912600  1
  Ca2+  Ca28  1  0.32527514  0.91433973  0.50706036  1
  Ca2+  Ca29  1  0.32944848  0.92158736  0.82785072  1
  Ca2+  Ca30  1  0.83115451  0.42578913  0.17283387  1
  Ca2+  Ca31  1  0.83222953  0.42368188  0.50791631  1
  Ca2+  Ca32  1  0.82543405  0.42103117  0.83210002  1
  Ca2+  Ca33  1  0.81934467  0.91647293  0.17271782  1
  Ca2+  Ca34  1  0.82883476  0.92220153  0.50646124  1
  Ca2+  Ca35  1  0.83299272  0.91971569  0.83098007  1
  Ca2+  Ca36  1  0.42083008  0.16977487  0.17204804  1
  Ca2+  Ca37  1  0.42500876  0.16540059  0.49599358  1
  Ca2+  Ca38  1  0.42424166  0.16762491  0.82341387  1
  Ca2+  Ca39  1  0.42294473  0.67211451  0.16952816  1
  Ca2+  Ca40  1  0.42837099  0.66508159  0.49547959  1
  Ca2+  Ca41  1  0.42366015  0.66733699  0.82081994  1
  Ca2+  Ca42  1  0.91430376  0.17471819  0.16795774  1
  Ca2+  Ca43  1  0.91279821  0.17868468  0.50085497  1
  Ca2+  Ca44  1  0.91787233  0.17092282  0.81608396  1
  Ca2+  Ca45  1  0.91324018  0.66171791  0.16490398  1
  Ca2+  Ca46  1  0.91490974  0.66640158  0.49995367  1
  Ca2+  Ca47  1  0.91461661  0.66994951  0.82123001  1
  Al0+  Al48  1  0.00146834  -0.00051788  0.00083527  1
  Al0+  Al49  1  -0.00013824  -0.00076706  0.33527653  1
  Al0+  Al50  1  -0.00154334  -0.00082186  0.66722891  1
  Al0+  Al51  1  0.00258010  0.49943214  -0.00026664  1
  Al0+  Al52  1  0.00134212  0.50024856  0.33614199  1
  Al0+  Al53  1  0.00022749  0.50159754  0.66409430  1
  Al0+  Al54  1  0.49796455  0.00171248  0.00257722  1
  Al0+  Al55  1  0.49907248  -0.00102562  0.32995402  1
  Al0+  Al56  1  0.49721203  -0.00022677  0.66854774  1
  Al0+  Al57  1  0.49932535  0.50110730  0.00331752  1
  Al0+  Al58  1  0.50197049  0.50030910  0.32244424  1
  Al0+  Al59  1  0.49865658  0.49984197  0.67035275  1
  Al0+  Al60  1  0.25156007  0.24990675  -0.00080522  1
  Al0+  Al61  1  0.24895251  0.24838000  0.33516841  1
  Al0+  Al62  1  0.24988648  0.24905890  0.67045727  1
  Al0+  Al63  1  0.25088438  0.75130537  -0.00053483  1
  Al0+  Al64  1  0.24974105  0.74853179  0.33342523  1
  Al0+  Al65  1  0.24847492  0.74982745  0.67261208  1
  Al0+  Al66  1  0.75010054  0.25041354  0.00266782  1
  Al0+  Al67  1  0.75189984  0.25080331  0.32129990  1
  Al0+  Al68  1  0.74872165  0.24816838  0.66535348  1
  Al0+  Al69  1  0.75053913  0.75127832  0.00521113  1
  Al0+  Al70  1  0.75193969  0.75193926  0.33677291  1
  Al0+  Al71  1  0.74956132  0.74936328  0.66143365  1
  Al0+  Al72  1  0.82200449  0.57273957  0.68060179  1
  Al0+  Al73  1  0.42815213  0.81894523  0.32001033  1
  Al0+  Al74  1  0.67914854  0.93117345  0.01258716  1
  Al0+  Al75  1  0.18057242  0.42783166  0.34764237  1
  Al0+  Al76  1  0.67792030  0.93145947  0.34855482  1
  Al0+  Al77  1  0.42745665  0.32099639  0.31954135  1
  Al0+  Al78  1  0.56991121  0.17814600  0.65523852  1
  Al0+  Al79  1  0.67735205  0.42711649  0.01730315  1
  Al0+  Al80  1  0.17819098  0.92678866  0.34800138  1
  Al0+  Al81  1  0.07250980  0.67896497  0.65017289  1
  Al0+  Al82  1  0.81881610  0.07015476  0.67694958  1
  Al0+  Al83  1  0.57042235  0.67746648  0.65501722  1
  Al0+  Al84  1  0.82218752  0.56991798  0.01460593  1
  Al0+  Al85  1  0.07280298  0.17785888  0.65153762  1
  Al0+  Al86  1  0.67867199  0.42801739  0.67741182  1
  Al0+  Al87  1  0.82057879  0.57036576  0.34914774  1
  Al0+  Al88  1  0.92776918  0.32114668  0.65196962  1
  Al0+  Al89  1  0.17754011  0.92909228  0.68353506  1
  Al0+  Al90  1  0.92691277  0.82150523  0.65004679  1
  Al0+  Al91  1  0.32067893  0.57011542  0.67877881  1
  Al0+  Al92  1  0.57214770  0.17797016  0.31658845  1
  Al0+  Al93  1  0.32218749  0.07273995  0.68253425  1
  Al0+  Al94  1  0.57563240  0.67903715  0.31589929  1
  Al0+  Al95  1  0.93067612  0.32335745  0.31740814  1
  Si0+  Si96  1  0.42710572  0.82236918  0.98317904  1
  Si0+  Si97  1  0.18250665  0.42874298  0.01413887  1
  Si0+  Si98  1  0.93022640  0.82305889  0.31631553  1
  Si0+  Si99  1  0.07033384  0.67969037  0.31774336  1
  Si0+  Si100  1  0.56991462  0.17938083  0.98394066  1
  Si0+  Si101  1  0.17683357  0.42747969  0.68437444  1
  Si0+  Si102  1  0.17945409  0.92933594  0.01622803  1
  Si0+  Si103  1  0.42741168  0.32291394  0.65318110  1
  Si0+  Si104  1  0.32109460  0.07105802  0.35033912  1
  Si0+  Si105  1  0.32379800  0.57104050  0.34794254  1
  Si0+  Si106  1  0.42803463  0.82132804  0.65264356  1
  Si0+  Si107  1  0.32095836  0.57376631  0.01655693  1
  Si0+  Si108  1  0.92941347  0.82041978  0.98657129  1
  Si0+  Si109  1  0.93012664  0.32076875  0.98434321  1
  Si0+  Si110  1  0.67734568  0.42662090  0.34822071  1
  Si0+  Si111  1  0.42797643  0.32179862  0.98377536  1
  Si0+  Si112  1  0.07187659  0.17839682  0.98614999  1
  Si0+  Si113  1  0.82183142  0.07380865  0.34849784  1
  Si0+  Si114  1  0.82494870  0.07237822  0.01687756  1
  Si0+  Si115  1  0.07297109  0.67898464  0.98587488  1
  Si0+  Si116  1  0.67620486  0.92698544  0.68115286  1
  Si0+  Si117  1  0.57111808  0.68120691  0.98473234  1
  Si0+  Si118  1  0.07050540  0.17686655  0.31700561  1
  Si0+  Si119  1  0.31969754  0.07184934  0.01778978  1
  O2-  O120  1  0.24919456  0.00028407  0.06007827  1
  O2-  O121  1  0.25406250  0.00027157  0.39253623  1
  O2-  O122  1  0.24765455  0.00346040  0.73374559  1
  O2-  O123  1  0.25158983  0.50093037  0.05799697  1
  O2-  O124  1  0.26148766  0.49658460  0.39140757  1
  O2-  O125  1  0.24532749  0.49683661  0.72858747  1
  O2-  O126  1  0.75405068  0.00584777  0.06016690  1
  O2-  O127  1  0.74849122  0.01061758  0.39258852  1
  O2-  O128  1  0.74542033  -0.00501635  0.72564555  1
  O2-  O129  1  0.75000952  0.49906032  0.06617141  1
  O2-  O130  1  0.74343550  0.49695056  0.39273892  1
  O2-  O131  1  0.75030516  0.49988141  0.72889050  1
  O2-  O132  1  0.00466664  0.24698687  0.26994407  1
  O2-  O133  1  0.00308781  0.25183741  0.60213218  1
  O2-  O134  1  -0.00304442  0.24486704  0.94381438  1
  O2-  O135  1  0.00029722  0.75082676  0.27346996  1
  O2-  O136  1  -0.00118125  0.74892624  0.60027725  1
  O2-  O137  1  -0.00064855  0.74783076  0.94545830  1
  O2-  O138  1  0.50169576  0.25253120  0.26668440  1
  O2-  O139  1  0.49420988  0.25240671  0.61033302  1
  O2-  O140  1  0.50447657  0.25632675  0.94240571  1
  O2-  O141  1  0.50260751  0.75144116  0.26630284  1
  O2-  O142  1  0.49720442  0.75380042  0.60912849  1
  O2-  O143  1  0.49942390  0.75222387  0.94187574  1
  O2-  O144  1  0.07329487  0.17851921  0.09124909  1
  O2-  O145  1  0.06876548  0.17608573  0.42151112  1
  O2-  O146  1  0.06949820  0.18112619  0.76661399  1
  O2-  O147  1  0.07631956  0.68051644  0.09117866  1
  O2-  O148  1  0.07178619  0.67986487  0.42192387  1
  O2-  O149  1  0.07237718  0.68179044  0.76495234  1
  O2-  O150  1  0.56616791  0.17691860  0.08860929  1
  O2-  O151  1  0.57107236  0.17805342  0.42991611  1
  O2-  O152  1  0.56965182  0.17855715  0.76919838  1
  O2-  O153  1  0.57003433  0.68342723  0.08944156  1
  O2-  O154  1  0.57335783  0.67836028  0.42920429  1
  O2-  O155  1  0.56900495  0.67940932  0.76920897  1
  O2-  O156  1  0.17998050  0.43201117  0.23325580  1
  O2-  O157  1  0.17919557  0.42652218  0.57908699  1
  O2-  O158  1  0.18364875  0.42767924  0.90959164  1
  O2-  O159  1  0.17845715  0.92932506  0.23340780  1
  O2-  O160  1  0.18176932  0.92779847  0.57023478  1
  O2-  O161  1  0.17862456  0.92937137  0.91207456  1
  O2-  O162  1  0.68084272  0.42772099  0.24226669  1
  O2-  O163  1  0.67716089  0.42790252  0.56416568  1
  O2-  O164  1  0.67799565  0.42694950  0.90403097  1
  O2-  O165  1  0.68175846  0.93161229  0.23469034  1
  O2-  O166  1  0.67484243  0.92891027  0.57595000  1
  O2-  O167  1  0.68015904  0.93065013  0.89966298  1
  O2-  O168  1  0.42214519  0.31777011  0.08828283  1
  O2-  O169  1  0.42619556  0.31886257  0.43274695  1
  O2-  O170  1  0.42899327  0.32332479  0.75956697  1
  O2-  O171  1  0.42217785  0.82023291  0.08778644  1
  O2-  O172  1  0.42620383  0.81505151  0.43308695  1
  O2-  O173  1  0.43038722  0.82057504  0.75928543  1
  O2-  O174  1  0.93431930  0.32217382  0.08948283  1
  O2-  O175  1  0.93053857  0.32349715  0.42946022  1
  O2-  O176  1  0.92843762  0.31860209  0.76664119  1
  O2-  O177  1  0.93227053  0.82255945  0.09181145  1
  O2-  O178  1  0.93110108  0.82531430  0.42054602  1
  O2-  O179  1  0.92713183  0.82056331  0.76501053  1
  O2-  O180  1  0.31743839  0.07136960  0.24356835  1
  O2-  O181  1  0.32477478  0.06921139  0.56953729  1
  O2-  O182  1  0.31976259  0.07248892  0.91336666  1
  O2-  O183  1  0.31741224  0.57363973  0.24155781  1
  O2-  O184  1  0.32201726  0.56707977  0.56608362  1
  O2-  O185  1  0.32025652  0.57457089  0.91168004  1
  O2-  O186  1  0.82475557  0.06914290  0.24217570  1
  O2-  O187  1  0.81540697  0.07160775  0.56430974  1
  O2-  O188  1  0.82696327  0.07180010  0.91154587  1
  O2-  O189  1  0.82224297  0.56868144  0.23542002  1
  O2-  O190  1  0.81939623  0.57185948  0.56735394  1
  O2-  O191  1  0.82264751  0.57075340  0.90181567  1
  O2-  O192  1  0.04235414  0.08397885  0.26829016  1
  O2-  O193  1  0.04550833  0.07927934  0.60183055  1
  O2-  O194  1  0.04882183  0.08443668  0.94029397  1
  O2-  O195  1  0.04175065  0.58861503  0.26881091  1
  O2-  O196  1  0.05024460  0.57943860  0.59848302  1
  O2-  O197  1  0.05045802  0.58549718  0.93964255  1
  O2-  O198  1  0.53890176  0.08143548  0.26154665  1
  O2-  O199  1  0.53833343  0.08153228  0.60206013  1
  O2-  O200  1  0.53574287  0.08932232  0.93670262  1
  O2-  O201  1  0.54889260  0.58190076  0.25910343  1
  O2-  O202  1  0.53589679  0.58230744  0.60160297  1
  O2-  O203  1  0.54233291  0.58830395  0.93998524  1
  O2-  O204  1  0.16491685  0.19988621  0.27094675  1
  O2-  O205  1  0.17370549  0.20151138  0.60267327  1
  O2-  O206  1  0.16269510  0.20972935  0.93881359  1
  O2-  O207  1  0.16162575  0.70699733  0.26792894  1
  O2-  O208  1  0.17167040  0.70862260  0.59976057  1
  O2-  O209  1  0.16389905  0.70982902  0.93781603  1
  O2-  O210  1  0.67014380  0.20197440  0.25983141  1
  O2-  O211  1  0.66452306  0.20777578  0.59923841  1
  O2-  O212  1  0.66539489  0.20083049  0.94052422  1
  O2-  O213  1  0.67319136  0.71318142  0.26341469  1
  O2-  O214  1  0.66514958  0.70653587  0.59918609  1
  O2-  O215  1  0.66324748  0.71088596  0.93920278  1
  O2-  O216  1  0.09045574  0.45591463  0.06155979  1
  O2-  O217  1  0.08721249  0.46434029  0.40153810  1
  O2-  O218  1  0.08394770  0.45397956  0.73101848  1
  O2-  O219  1  0.08717510  0.95582834  0.06450589  1
  O2-  O220  1  0.08162371  0.95756399  0.40015292  1
  O2-  O221  1  0.07911919  0.95615755  0.73718196  1
  O2-  O222  1  0.57703575  0.45305445  0.06795165  1
  O2-  O223  1  0.58082184  0.44816259  0.38877565  1
  O2-  O224  1  0.58126072  0.45565359  0.73385709  1
  O2-  O225  1  0.58189389  0.96167684  0.06636155  1
  O2-  O226  1  0.57888639  0.95633556  0.39918731  1
  O2-  O227  1  0.58340499  0.95196205  0.72913011  1
  O2-  O228  1  0.21189218  0.33748220  0.06251874  1
  O2-  O229  1  0.20449271  0.32953998  0.40032067  1
  O2-  O230  1  0.20257859  0.33491520  0.73297459  1
  O2-  O231  1  0.20823030  0.83708381  0.06308083  1
  O2-  O232  1  0.20754701  0.82955492  0.39974811  1
  O2-  O233  1  0.20876539  0.83286761  0.74006670  1
  O2-  O234  1  0.70480571  0.32791273  0.06973193  1
  O2-  O235  1  0.70477469  0.33146006  0.38908096  1
  O2-  O236  1  0.70841410  0.33085417  0.73272549  1
  O2-  O237  1  0.71131028  0.83640707  0.06933689  1
  O2-  O238  1  0.71257486  0.83668359  0.40172254  1
  O2-  O239  1  0.70329831  0.83390458  0.72699537  1
  O2-  O240  1  0.44936252  0.41950324  0.26267660  1
  O2-  O241  1  0.45205136  0.41565650  0.60669148  1
  O2-  O242  1  0.44875327  0.41734478  0.94015706  1
  O2-  O243  1  0.45112770  0.91812007  0.26575361  1
  O2-  O244  1  0.45030119  0.91514062  0.60726415  1
  O2-  O245  1  0.45288594  0.91602957  0.93874649  1
  O2-  O246  1  0.96773791  0.41823082  0.26231246  1
  O2-  O247  1  0.95475625  0.41974209  0.60059553  1
  O2-  O248  1  0.96363082  0.41068817  0.93681048  1
  O2-  O249  1  0.95979759  0.91367834  0.26629034  1
  O2-  O250  1  0.95509891  0.91963152  0.59813253  1
  O2-  O251  1  0.95879139  0.91243323  0.93948389  1
  O2-  O252  1  0.32928645  0.28820353  0.26477550  1
  O2-  O253  1  0.33256661  0.30020857  0.60979710  1
  O2-  O254  1  0.33828626  0.28906540  0.93424421  1
  O2-  O255  1  0.33072342  0.78691025  0.26337181  1
  O2-  O256  1  0.33403378  0.79505084  0.61030086  1
  O2-  O257  1  0.33599731  0.79263454  0.93449873  1
  O2-  O258  1  0.83673412  0.29330974  0.25753175  1
  O2-  O259  1  0.83190582  0.28789027  0.59843108  1
  O2-  O260  1  0.83595765  0.29693657  0.94041703  1
  O2-  O261  1  0.83876335  0.79455209  0.26897667  1
  O2-  O262  1  0.82909129  0.79576047  0.59569137  1
  O2-  O263  1  0.83688022  0.79494463  0.94024198  1
  O2-  O264  1  0.41078308  0.04394855  0.06606734  1
  O2-  O265  1  0.41580001  0.04805874  0.39274148  1
  O2-  O266  1  0.41792262  0.03898665  0.74049208  1
  O2-  O267  1  0.41302772  0.54898084  0.06377611  1
  O2-  O268  1  0.42108506  0.55223451  0.38718476  1
  O2-  O269  1  0.41408893  0.53771329  0.73903927  1
  O2-  O270  1  0.91815073  0.04529772  0.06415680  1
  O2-  O271  1  0.91327081  0.04328816  0.39483349  1
  O2-  O272  1  0.91439863  0.04109310  0.73413941  1
  O2-  O273  1  0.92255177  0.54187977  0.06629666  1
  O2-  O274  1  0.91729686  0.53913598  0.40072008  1
  O2-  O275  1  0.92182574  0.54740160  0.73239768  1
  O2-  O276  1  0.29005609  0.16347941  0.06513300  1
  O2-  O277  1  0.29424881  0.16318143  0.39683791  1
  O2-  O278  1  0.29756658  0.17145821  0.73849153  1
  O2-  O279  1  0.29037289  0.66493471  0.06421732  1
  O2-  O280  1  0.29101383  0.66105346  0.39535612  1
  O2-  O281  1  0.29068745  0.66499768  0.73753395  1
  O2-  O282  1  0.80141813  0.16656676  0.06219034  1
  O2-  O283  1  0.80189666  0.17090269  0.38789988  1
  O2-  O284  1  0.78607072  0.16400943  0.73546300  1
  O2-  O285  1  0.79472867  0.66872035  0.06819953  1
  O2-  O286  1  0.79466639  0.66871072  0.40009881  1
  O2-  O287  1  0.79168125  0.67135425  0.73276952  1
