# generated using pymatgen
data_Ca2Al2SiO7
_symmetry_space_group_name_H-M   'P 1'
_cell_length_a   15.45292441
_cell_length_b   15.45307137
_cell_length_c   15.27988111
_cell_angle_alpha   90.01294239
_cell_angle_beta   89.99902278
_cell_angle_gamma   90.00686588
_symmetry_Int_Tables_number   1
_chemical_formula_structural   Ca2Al2SiO7
_chemical_formula_sum   'Ca48 Al48 Si24 O168'
_cell_volume   3648.76128702
_cell_formula_units_Z   24
loop_
 _symmetry_equiv_pos_site_id
 _symmetry_equiv_pos_as_xyz
  1  'x, y, z'
loop_
 _atom_type_symbol
 _atom_type_oxidation_number
  Ca2+  2.0
  Al0+  0.0
  Si0+  0.0
  O2-  -2.0
loop_
 _atom_site_type_symbol
 _atom_site_label
 _atom_site_symmetry_multiplicity
 _atom_site_fract_x
 _atom_site_fract_y
 _atom_site_fract_z
 _atom_site_occupancy
  Ca2+  Ca0  1  0.18053042  0.08618411  0.17150906  1
  Ca2+  Ca1  1  0.17256946  0.09038963  0.49825285  1
  Ca2+  Ca2  1  0.17441900  0.07427135  0.84589339  1
  Ca2+  Ca3  1  0.16362533  0.57413944  0.16642731  1
  Ca2+  Ca4  1  0.17088505  0.57960797  0.50337480  1
  Ca2+  Ca5  1  0.16943915  0.58099889  0.83880428  1
  Ca2+  Ca6  1  0.66951365  0.08475024  0.16669397  1
  Ca2+  Ca7  1  0.66113922  0.07320666  0.50534701  1
  Ca2+  Ca8  1  0.66706186  0.08521525  0.83626365  1
  Ca2+  Ca9  1  0.66116406  0.57045672  0.17026244  1
  Ca2+  Ca10  1  0.67071336  0.56891221  0.51022628  1
  Ca2+  Ca11  1  0.67110410  0.57356040  0.83537185  1
  Ca2+  Ca12  1  0.08236223  0.33421323  0.16473906  1
  Ca2+  Ca13  1  0.07280031  0.33477087  0.49017457  1
  Ca2+  Ca14  1  0.07860198  0.33419128  0.82884314  1
  Ca2+  Ca15  1  0.08877756  0.82611574  0.15661509  1
  Ca2+  Ca16  1  0.07428266  0.83267414  0.49894829  1
  Ca2+  Ca17  1  0.08073166  0.83080726  0.83052316  1
  Ca2+  Ca18  1  0.57773819  0.33151599  0.15396393  1
  Ca2+  Ca19  1  0.59136270  0.32880158  0.49769350  1
  Ca2+  Ca20  1  0.59123415  0.32406579  0.83185805  1
  Ca2+  Ca21  1  0.57451789  0.83980102  0.16474944  1
  Ca2+  Ca22  1  0.57678828  0.83802395  0.49450317  1
  Ca2+  Ca23  1  0.57194313  0.83897731  0.82612126  1
  Ca2+  Ca24  1  0.32051930  0.40468726  0.16868876  1
  Ca2+  Ca25  1  0.32582015  0.42241318  0.50511392  1
  Ca2+  Ca26  1  0.33235421  0.42220312  0.84162030  1
  Ca2+  Ca27  1  0.33874825  0.92526996  0.16791224  1
  Ca2+  Ca28  1  0.33951338  0.91953414  0.50149407  1
  Ca2+  Ca29  1  0.33283273  0.91786377  0.84212801  1
  Ca2+  Ca30  1  0.82147151  0.41225048  0.17207684  1
  Ca2+  Ca31  1  0.82917088  0.41429447  0.50686078  1
  Ca2+  Ca32  1  0.82520731  0.41250348  0.83306110  1
  Ca2+  Ca33  1  0.82849771  0.92580279  0.17122988  1
  Ca2+  Ca34  1  0.82094463  0.91378139  0.50916696  1
  Ca2+  Ca35  1  0.82902152  0.92030017  0.83746244  1
  Ca2+  Ca36  1  0.42067598  0.16691609  0.15660431  1
  Ca2+  Ca37  1  0.42233098  0.16423224  0.49739544  1
  Ca2+  Ca38  1  0.42508108  0.16881948  0.83389200  1
  Ca2+  Ca39  1  0.41296913  0.68038177  0.16094603  1
  Ca2+  Ca40  1  0.41229768  0.67648627  0.49801637  1
  Ca2+  Ca41  1  0.41182974  0.67691203  0.82737863  1
  Ca2+  Ca42  1  0.91871561  0.16941496  0.16502654  1
  Ca2+  Ca43  1  0.92192068  0.17973333  0.49282959  1
  Ca2+  Ca44  1  0.91496176  0.16977436  0.82764884  1
  Ca2+  Ca45  1  0.92344477  0.66811185  0.16032131  1
  Ca2+  Ca46  1  0.90654050  0.66977365  0.50164769  1
  Ca2+  Ca47  1  0.92207151  0.66644071  0.82684286  1
  Al0+  Al48  1  -0.00115140  -0.00032539  0.00803699  1
  Al0+  Al49  1  0.00197414  0.00098226  0.32970824  1
  Al0+  Al50  1  0.00113922  -0.00177788  0.66063181  1
  Al0+  Al51  1  0.00053041  0.50140960  -0.00177693  1
  Al0+  Al52  1  -0.00114457  0.50112994  0.33286764  1
  Al0+  Al53  1  0.00039134  0.49930815  0.66485795  1
  Al0+  Al54  1  0.50082126  0.00020612  -0.00517828  1
  Al0+  Al55  1  0.49944049  0.00094416  0.33608752  1
  Al0+  Al56  1  0.49971122  0.00112889  0.66331989  1
  Al0+  Al57  1  0.49947016  0.50234998  0.00105475  1
  Al0+  Al58  1  0.50017217  0.50052965  0.33863624  1
  Al0+  Al59  1  0.49787123  0.49947664  0.67536503  1
  Al0+  Al60  1  0.24949880  0.25020814  0.00116499  1
  Al0+  Al61  1  0.25045625  0.24982411  0.34169093  1
  Al0+  Al62  1  0.25232988  0.24909543  0.66791364  1
  Al0+  Al63  1  0.24865732  0.74824000  -0.00580984  1
  Al0+  Al64  1  0.24952647  0.75284688  0.32914999  1
  Al0+  Al65  1  0.24954126  0.75017339  0.66425172  1
  Al0+  Al66  1  0.75036914  0.24982762  0.00529052  1
  Al0+  Al67  1  0.75171407  0.24917179  0.33316309  1
  Al0+  Al68  1  0.75111469  0.24732084  0.65953114  1
  Al0+  Al69  1  0.75020032  0.74997054  0.00127055  1
  Al0+  Al70  1  0.74823646  0.74953947  0.33322537  1
  Al0+  Al71  1  0.74859242  0.74838591  0.67263484  1
  Al0+  Al72  1  0.43043808  0.82144982  0.31820058  1
  Al0+  Al73  1  0.67725638  0.92923324  0.68117468  1
  Al0+  Al74  1  0.42943795  0.81991470  0.65117509  1
  Al0+  Al75  1  0.32056422  0.07006497  0.34925277  1
  Al0+  Al76  1  0.82242602  0.57080824  0.68281038  1
  Al0+  Al77  1  0.67827716  0.42766406  0.34749574  1
  Al0+  Al78  1  0.43133726  0.81955429  0.98511283  1
  Al0+  Al79  1  0.67941691  0.42449926  0.68297514  1
  Al0+  Al80  1  0.93121792  0.31980256  0.65370124  1
  Al0+  Al81  1  0.57271982  0.18070094  0.98526702  1
  Al0+  Al82  1  0.92867933  0.32243899  0.31459594  1
  Al0+  Al83  1  0.32221587  0.06991670  0.01376803  1
  Al0+  Al84  1  0.31947495  0.57231532  0.68053604  1
  Al0+  Al85  1  0.68063356  0.93096032  0.34634677  1
  Al0+  Al86  1  0.82107689  0.07174205  0.01347521  1
  Al0+  Al87  1  0.42582314  0.32277473  0.98582435  1
  Al0+  Al88  1  0.92697163  0.82053004  0.65412466  1
  Al0+  Al89  1  0.06905765  0.67879676  0.98497828  1
  Al0+  Al90  1  0.07381769  0.17988834  0.31624405  1
  Al0+  Al91  1  0.67954984  0.43053216  0.01412567  1
  Al0+  Al92  1  0.17860547  0.43028350  0.34786831  1
  Al0+  Al93  1  0.17865153  0.42962278  0.01242693  1
  Al0+  Al94  1  0.17916835  0.92645472  0.01446797  1
  Al0+  Al95  1  0.56962434  0.18120977  0.65073132  1
  Si0+  Si96  1  0.82354329  0.06925134  0.67993646  1
  Si0+  Si97  1  0.92964993  0.32012566  0.98533812  1
  Si0+  Si98  1  0.82514006  0.07146157  0.35228678  1
  Si0+  Si99  1  0.82259354  0.57295112  0.01736263  1
  Si0+  Si100  1  0.67773964  0.92695318  0.01588724  1
  Si0+  Si101  1  0.17705867  0.92579288  0.35151364  1
  Si0+  Si102  1  0.57159806  0.67536081  0.65137276  1
  Si0+  Si103  1  0.42600293  0.32407745  0.64916137  1
  Si0+  Si104  1  0.57477281  0.67675414  0.98229770  1
  Si0+  Si105  1  0.32104015  0.57540998  0.34857367  1
  Si0+  Si106  1  0.07123038  0.67846805  0.64807111  1
  Si0+  Si107  1  0.82175002  0.57232351  0.34880283  1
  Si0+  Si108  1  0.92600405  0.82128007  0.31811079  1
  Si0+  Si109  1  0.17869184  0.42735800  0.68294238  1
  Si0+  Si110  1  0.56998100  0.17939008  0.31893332  1
  Si0+  Si111  1  0.32136050  0.07058716  0.68270333  1
  Si0+  Si112  1  0.07075828  0.68089157  0.31828467  1
  Si0+  Si113  1  0.07093032  0.17753444  0.98591372  1
  Si0+  Si114  1  0.92652194  0.82410530  0.98467452  1
  Si0+  Si115  1  0.32194407  0.57291412  0.01730544  1
  Si0+  Si116  1  0.07541343  0.17634071  0.65120935  1
  Si0+  Si117  1  0.17779763  0.92956625  0.67991661  1
  Si0+  Si118  1  0.42993094  0.32311038  0.32193980  1
  Si0+  Si119  1  0.57216405  0.67642160  0.31725014  1
  O2-  O120  1  0.25043409  -0.00168767  0.06539841  1
  O2-  O121  1  0.24410927  -0.00393780  0.39585311  1
  O2-  O122  1  0.24776424  0.00122625  0.72230009  1
  O2-  O123  1  0.25796424  0.49926782  0.06078901  1
  O2-  O124  1  0.25355722  0.50555502  0.39300962  1
  O2-  O125  1  0.24797277  0.49468786  0.72736400  1
  O2-  O126  1  0.74728861  -0.00472697  0.05910664  1
  O2-  O127  1  0.75783017  0.00143443  0.39605466  1
  O2-  O128  1  0.75611739  0.00050589  0.72600341  1
  O2-  O129  1  0.75186887  0.50715728  0.06234094  1
  O2-  O130  1  0.75454865  0.50186399  0.39192540  1
  O2-  O131  1  0.75099119  0.49790834  0.73210476  1
  O2-  O132  1  0.00154193  0.25089853  0.26462706  1
  O2-  O133  1  0.00881501  0.24735040  0.60816657  1
  O2-  O134  1  0.00035070  0.24857596  0.94268375  1
  O2-  O135  1  -0.00032236  0.75264533  0.27657998  1
  O2-  O136  1  -0.00155529  0.74348504  0.60437446  1
  O2-  O137  1  -0.00506728  0.75525863  0.94045823  1
  O2-  O138  1  0.50386295  0.25563648  0.27883230  1
  O2-  O139  1  0.49774797  0.25913981  0.60381572  1
  O2-  O140  1  0.50076168  0.25362116  0.93584984  1
  O2-  O141  1  0.50380741  0.74510317  0.27209773  1
  O2-  O142  1  0.50452493  0.74493362  0.60492720  1
  O2-  O143  1  0.50735472  0.74639588  0.93793531  1
  O2-  O144  1  0.07112815  0.17911559  0.09051363  1
  O2-  O145  1  0.07154578  0.18214508  0.43044292  1
  O2-  O146  1  0.07509767  0.17454860  0.75707107  1
  O2-  O147  1  0.06656541  0.67793822  0.09877980  1
  O2-  O148  1  0.07207568  0.68203607  0.42338353  1
  O2-  O149  1  0.07252795  0.68069602  0.75345239  1
  O2-  O150  1  0.57270720  0.18171525  0.09954626  1
  O2-  O151  1  0.56763580  0.17813971  0.42420526  1
  O2-  O152  1  0.56890190  0.17994127  0.76339572  1
  O2-  O153  1  0.57422258  0.67700158  0.08826737  1
  O2-  O154  1  0.57261849  0.67627137  0.42262804  1
  O2-  O155  1  0.56924454  0.67704238  0.75691329  1
  O2-  O156  1  0.17952289  0.43152691  0.23473436  1
  O2-  O157  1  0.17951390  0.42859589  0.57713660  1
  O2-  O158  1  0.17593575  0.43220118  0.89936591  1
  O2-  O159  1  0.17840180  0.92225446  0.24649832  1
  O2-  O160  1  0.17653289  0.92983113  0.57474945  1
  O2-  O161  1  0.17824802  0.92933322  0.90006119  1
  O2-  O162  1  0.67614417  0.42945202  0.23428710  1
  O2-  O163  1  0.68189000  0.42566461  0.56908834  1
  O2-  O164  1  0.68403485  0.42848075  0.90158168  1
  O2-  O165  1  0.68186131  0.93328493  0.23311267  1
  O2-  O166  1  0.67712199  0.93124286  0.56768694  1
  O2-  O167  1  0.67891390  0.92574837  0.91038606  1
  O2-  O168  1  0.42642441  0.32008348  0.10034743  1
  O2-  O169  1  0.43061431  0.32316675  0.42717517  1
  O2-  O170  1  0.42022200  0.32006814  0.75404062  1
  O2-  O171  1  0.43305394  0.82011002  0.09850511  1
  O2-  O172  1  0.43091555  0.81964847  0.43135889  1
  O2-  O173  1  0.42796942  0.82023272  0.76410332  1
  O2-  O174  1  0.93028484  0.32029292  0.09016705  1
  O2-  O175  1  0.92947025  0.32185772  0.42834529  1
  O2-  O176  1  0.93209749  0.31686397  0.76747387  1
  O2-  O177  1  0.92513279  0.82146060  0.09068315  1
  O2-  O178  1  0.92494088  0.81881388  0.42330703  1
  O2-  O179  1  0.93303382  0.82473614  0.76673479  1
  O2-  O180  1  0.32344921  0.06940508  0.23666141  1
  O2-  O181  1  0.32050732  0.07106348  0.57738612  1
  O2-  O182  1  0.31987228  0.06843968  0.89972327  1
  O2-  O183  1  0.31994511  0.57740660  0.24329334  1
  O2-  O184  1  0.31531343  0.57289253  0.56686923  1
  O2-  O185  1  0.31839764  0.57423842  0.91163843  1
  O2-  O186  1  0.82356553  0.07060053  0.24642115  1
  O2-  O187  1  0.82370219  0.06702748  0.57445511  1
  O2-  O188  1  0.82262895  0.07106068  0.90006801  1
  O2-  O189  1  0.82138900  0.57432169  0.24307599  1
  O2-  O190  1  0.82013099  0.57003650  0.56878923  1
  O2-  O191  1  0.82313882  0.57218767  0.91217145  1
  O2-  O192  1  0.04897084  0.07958666  0.26437747  1
  O2-  O193  1  0.04985793  0.08410111  0.60225815  1
  O2-  O194  1  0.04179545  0.08499264  0.94016435  1
  O2-  O195  1  0.04203083  0.58971399  0.27043397  1
  O2-  O196  1  0.05046737  0.58348374  0.60287052  1
  O2-  O197  1  0.03648319  0.58382877  0.92831174  1
  O2-  O198  1  0.53715311  0.08990806  0.27090515  1
  O2-  O199  1  0.53330173  0.08674637  0.59534611  1
  O2-  O200  1  0.54612683  0.08250172  0.93148772  1
  O2-  O201  1  0.54485114  0.58274309  0.27118307  1
  O2-  O202  1  0.54457648  0.58101528  0.60670226  1
  O2-  O203  1  0.54925401  0.58359961  0.93600217  1
  O2-  O204  1  0.17380987  0.20982071  0.26753655  1
  O2-  O205  1  0.16983542  0.20076946  0.60573034  1
  O2-  O206  1  0.16201521  0.20484356  0.93706043  1
  O2-  O207  1  0.16157973  0.70854971  0.26882288  1
  O2-  O208  1  0.16197230  0.70991455  0.59941978  1
  O2-  O209  1  0.16457741  0.70744055  0.92853065  1
  O2-  O210  1  0.66446949  0.20065121  0.27450265  1
  O2-  O211  1  0.66660871  0.20626489  0.59437729  1
  O2-  O212  1  0.67164579  0.21057986  0.93310743  1
  O2-  O213  1  0.66560902  0.70106496  0.26962887  1
  O2-  O214  1  0.66637114  0.69835017  0.60710523  1
  O2-  O215  1  0.66979507  0.70008408  0.93768837  1
  O2-  O216  1  0.08348942  0.46507367  0.06715505  1
  O2-  O217  1  0.08213062  0.46339914  0.40102836  1
  O2-  O218  1  0.08539909  0.45348967  0.72827014  1
  O2-  O219  1  0.08017908  0.95015653  0.06790342  1
  O2-  O220  1  0.08169018  0.94961671  0.39579873  1
  O2-  O221  1  0.08581318  0.95646070  0.72777698  1
  O2-  O222  1  0.58187459  0.46037504  0.06780430  1
  O2-  O223  1  0.58242885  0.45826659  0.40388458  1
  O2-  O224  1  0.57989487  0.44929761  0.73462568  1
  O2-  O225  1  0.58487073  0.95487854  0.06121767  1
  O2-  O226  1  0.58578896  0.96492243  0.40119986  1
  O2-  O227  1  0.58193320  0.96537860  0.73394126  1
  O2-  O228  1  0.20537956  0.33246245  0.06730307  1
  O2-  O229  1  0.20992048  0.33602264  0.40503384  1
  O2-  O230  1  0.20214165  0.33244709  0.72779160  1
  O2-  O231  1  0.20686387  0.82675658  0.06451996  1
  O2-  O232  1  0.20429478  0.83298251  0.39904377  1
  O2-  O233  1  0.20586407  0.83770796  0.72619391  1
  O2-  O234  1  0.71222288  0.33571283  0.06976331  1
  O2-  O235  1  0.70906709  0.33031518  0.39973338  1
  O2-  O236  1  0.71305576  0.32593631  0.73277902  1
  O2-  O237  1  0.70193283  0.83327160  0.06355145  1
  O2-  O238  1  0.70731004  0.83211398  0.39857872  1
  O2-  O239  1  0.70292124  0.83210023  0.73526279  1
  O2-  O240  1  0.45270600  0.41652877  0.27517236  1
  O2-  O241  1  0.44628520  0.42041711  0.60679853  1
  O2-  O242  1  0.44949494  0.42415063  0.93714110  1
  O2-  O243  1  0.46523752  0.91754010  0.26587974  1
  O2-  O244  1  0.46059287  0.91636778  0.59756488  1
  O2-  O245  1  0.46068431  0.91564043  0.92960661  1
  O2-  O246  1  0.95494080  0.42255321  0.26386308  1
  O2-  O247  1  0.96001911  0.41665267  0.59858797  1
  O2-  O248  1  0.95783877  0.41166372  0.93813813  1
  O2-  O249  1  0.95070822  0.91436014  0.27228043  1
  O2-  O250  1  0.96056212  0.91464307  0.59525355  1
  O2-  O251  1  0.95201095  0.91821001  0.93992828  1
  O2-  O252  1  0.33830286  0.29177002  0.27719876  1
  O2-  O253  1  0.33365123  0.29401317  0.60069178  1
  O2-  O254  1  0.32783679  0.29393758  0.93141778  1
  O2-  O255  1  0.33300630  0.79289636  0.26431361  1
  O2-  O256  1  0.33254106  0.78897907  0.59670365  1
  O2-  O257  1  0.33519858  0.78725233  0.93116425  1
  O2-  O258  1  0.83033167  0.29021619  0.26246502  1
  O2-  O259  1  0.83752259  0.28636829  0.59627463  1
  O2-  O260  1  0.83838473  0.28995403  0.93923813  1
  O2-  O261  1  0.83555539  0.79163541  0.26868542  1
  O2-  O262  1  0.82910960  0.79063929  0.60134213  1
  O2-  O263  1  0.83235245  0.79948754  0.93899833  1
  O2-  O264  1  0.42146686  0.04138026  0.06522794  1
  O2-  O265  1  0.41533094  0.03615095  0.40511301  1
  O2-  O266  1  0.41184135  0.03977921  0.72906107  1
  O2-  O267  1  0.41763331  0.55668225  0.06224686  1
  O2-  O268  1  0.41435464  0.55130150  0.39589916  1
  O2-  O269  1  0.41537031  0.54673880  0.73754626  1
  O2-  O270  1  0.91547273  0.04185615  0.07248496  1
  O2-  O271  1  0.92018569  0.04802833  0.39590214  1
  O2-  O272  1  0.91833392  0.04507815  0.72528310  1
  O2-  O273  1  0.91533989  0.54486795  0.06348354  1
  O2-  O274  1  0.91595665  0.55095962  0.39517427  1
  O2-  O275  1  0.92270689  0.54416415  0.73332452  1
  O2-  O276  1  0.29279374  0.16800600  0.06650106  1
  O2-  O277  1  0.29103232  0.16524296  0.40741329  1
  O2-  O278  1  0.29637243  0.16319739  0.73006159  1
  O2-  O279  1  0.28893845  0.66393588  0.06382734  1
  O2-  O280  1  0.29171305  0.66824850  0.39505591  1
  O2-  O281  1  0.28462593  0.66803353  0.73436998  1
  O2-  O282  1  0.78928359  0.16568298  0.07182874  1
  O2-  O283  1  0.79804591  0.16493871  0.39701213  1
  O2-  O284  1  0.79651970  0.16250031  0.72488441  1
  O2-  O285  1  0.80077187  0.66796904  0.06354048  1
  O2-  O286  1  0.79458795  0.66546517  0.39551527  1
  O2-  O287  1  0.79619215  0.66858903  0.73806068  1
