# generated using pymatgen
data_Ca2Al2SiO7
_symmetry_space_group_name_H-M   'P 1'
_cell_length_a   15.46217746
_cell_length_b   15.46164919
_cell_length_c   15.28665423
_cell_angle_alpha   90.00222245
_cell_angle_beta   89.98914653
_cell_angle_gamma   90.00688972
_symmetry_Int_Tables_number   1
_chemical_formula_structural   Ca2Al2SiO7
_chemical_formula_sum   'Ca48 Al48 Si24 O168'
_cell_volume   3654.59200277
_cell_formula_units_Z   24
loop_
 _symmetry_equiv_pos_site_id
 _symmetry_equiv_pos_as_xyz
  1  'x, y, z'
loop_
 _atom_type_symbol
 _atom_type_oxidation_number
  Ca2+  2.0
  Al0+  0.0
  Si0+  0.0
  O2-  -2.0
loop_
 _atom_site_type_symbol
 _atom_site_label
 _atom_site_symmetry_multiplicity
 _atom_site_fract_x
 _atom_site_fract_y
 _atom_site_fract_z
 _atom_site_occupancy
  Ca2+  Ca0  1  0.16963565  0.07952697  0.16761183  1
  Ca2+  Ca1  1  0.16969165  0.08463225  0.50203163  1
  Ca2+  Ca2  1  0.18121263  0.08001076  0.83825140  1
  Ca2+  Ca3  1  0.17731736  0.57359068  0.17186401  1
  Ca2+  Ca4  1  0.17894491  0.57443679  0.50484092  1
  Ca2+  Ca5  1  0.17559676  0.57485063  0.83887346  1
  Ca2+  Ca6  1  0.67023981  0.08439234  0.17150594  1
  Ca2+  Ca7  1  0.67336955  0.08329853  0.50130798  1
  Ca2+  Ca8  1  0.66699021  0.08524148  0.84147713  1
  Ca2+  Ca9  1  0.66330026  0.58554362  0.17022517  1
  Ca2+  Ca10  1  0.66772864  0.58263755  0.50032050  1
  Ca2+  Ca11  1  0.66305563  0.57090342  0.83778123  1
  Ca2+  Ca12  1  0.08977830  0.33377269  0.16618357  1
  Ca2+  Ca13  1  0.08988634  0.33064614  0.49376373  1
  Ca2+  Ca14  1  0.08149877  0.34089519  0.82606682  1
  Ca2+  Ca15  1  0.07899142  0.83690658  0.16274583  1
  Ca2+  Ca16  1  0.07387519  0.83175649  0.49447990  1
  Ca2+  Ca17  1  0.08335184  0.83528238  0.83045984  1
  Ca2+  Ca18  1  0.57749193  0.33308391  0.16103025  1
  Ca2+  Ca19  1  0.57082433  0.34097146  0.49946554  1
  Ca2+  Ca20  1  0.58042728  0.33298595  0.82849652  1
  Ca2+  Ca21  1  0.57196595  0.82011472  0.16328800  1
  Ca2+  Ca22  1  0.57444353  0.82383824  0.48844436  1
  Ca2+  Ca23  1  0.57599211  0.82569677  0.83552141  1
  Ca2+  Ca24  1  0.33141420  0.42451696  0.17475897  1
  Ca2+  Ca25  1  0.33076982  0.42046081  0.50572104  1
  Ca2+  Ca26  1  0.32832296  0.42256800  0.83642817  1
  Ca2+  Ca27  1  0.34025262  0.91800014  0.16708376  1
  Ca2+  Ca28  1  0.33792458  0.92378415  0.50584278  1
  Ca2+  Ca29  1  0.33426282  0.92579238  0.84493115  1
  Ca2+  Ca30  1  0.82263314  0.42336816  0.17202248  1
  Ca2+  Ca31  1  0.82839788  0.42083093  0.50584671  1
  Ca2+  Ca32  1  0.82287823  0.40862207  0.83616164  1
  Ca2+  Ca33  1  0.83128626  0.92114643  0.17814875  1
  Ca2+  Ca34  1  0.83983076  0.91858799  0.50003768  1
  Ca2+  Ca35  1  0.83353117  0.91608164  0.83516710  1
  Ca2+  Ca36  1  0.41807275  0.17379358  0.16000781  1
  Ca2+  Ca37  1  0.40744317  0.18094933  0.49781434  1
  Ca2+  Ca38  1  0.41666957  0.16825919  0.82942260  1
  Ca2+  Ca39  1  0.41730127  0.66728175  0.16055814  1
  Ca2+  Ca40  1  0.41897572  0.66383178  0.48959827  1
  Ca2+  Ca41  1  0.41299272  0.66081050  0.83472775  1
  Ca2+  Ca42  1  0.92322971  0.16353141  0.16764919  1
  Ca2+  Ca43  1  0.92300292  0.17422336  0.49248891  1
  Ca2+  Ca44  1  0.92308719  0.17554706  0.82596049  1
  Ca2+  Ca45  1  0.91380920  0.66755394  0.16650676  1
  Ca2+  Ca46  1  0.91258644  0.67497818  0.49138292  1
  Ca2+  Ca47  1  0.92193142  0.67283920  0.82544166  1
  Al0+  Al48  1  0.00082026  0.00293210  -0.00016741  1
  Al0+  Al49  1  0.00006419  0.00195151  0.33073333  1
  Al0+  Al50  1  -0.00023093  0.00049727  0.66390501  1
  Al0+  Al51  1  -0.00160875  0.50170185  0.00159244  1
  Al0+  Al52  1  -0.00251953  0.49983739  0.34083303  1
  Al0+  Al53  1  -0.00028930  0.50235179  0.66364920  1
  Al0+  Al54  1  0.50251445  -0.00006211  -0.00231491  1
  Al0+  Al55  1  0.50092056  -0.00055683  0.33302373  1
  Al0+  Al56  1  0.50366242  -0.00142949  0.67004751  1
  Al0+  Al57  1  0.50096627  0.49861719  0.00295938  1
  Al0+  Al58  1  0.49983079  0.49858678  0.32822485  1
  Al0+  Al59  1  0.50233535  0.49878109  0.66994439  1
  Al0+  Al60  1  0.24899361  0.24733095  0.00432184  1
  Al0+  Al61  1  0.24941763  0.24762215  0.32593651  1
  Al0+  Al62  1  0.25115681  0.24848839  0.67152939  1
  Al0+  Al63  1  0.24623709  0.75072581  0.00208267  1
  Al0+  Al64  1  0.24708825  0.75064542  0.33448176  1
  Al0+  Al65  1  0.24987530  0.75061637  0.66811842  1
  Al0+  Al66  1  0.75041669  0.25114930  0.00177236  1
  Al0+  Al67  1  0.75168342  0.24921386  0.33911089  1
  Al0+  Al68  1  0.75253177  0.24855075  0.66522897  1
  Al0+  Al69  1  0.74859382  0.75133279  -0.00578792  1
  Al0+  Al70  1  0.74791231  0.75054305  0.32928623  1
  Al0+  Al71  1  0.74947985  0.75142506  0.66333081  1
  Al0+  Al72  1  0.32312061  0.57236772  0.68209733  1
  Al0+  Al73  1  0.18018753  0.42589438  0.34907895  1
  Al0+  Al74  1  0.81884199  0.57259478  0.34653993  1
  Al0+  Al75  1  0.57230728  0.18056817  0.98760316  1
  Al0+  Al76  1  0.17742798  0.92986185  0.01524227  1
  Al0+  Al77  1  0.07003401  0.18079790  0.31814686  1
  Al0+  Al78  1  0.92919200  0.82052509  0.65204468  1
  Al0+  Al79  1  0.17528594  0.42809863  0.01558676  1
  Al0+  Al80  1  0.17792820  0.42834400  0.68098560  1
  Al0+  Al81  1  0.32225247  0.57160910  0.34842748  1
  Al0+  Al82  1  0.56891476  0.67796926  0.31858513  1
  Al0+  Al83  1  0.92819908  0.32285756  0.65247214  1
  Al0+  Al84  1  0.32466958  0.06947516  0.01754822  1
  Al0+  Al85  1  0.42644995  0.81919673  0.98386300  1
  Al0+  Al86  1  0.68212730  0.42874727  0.67963365  1
  Al0+  Al87  1  0.42952125  0.31910940  0.31934952  1
  Al0+  Al88  1  0.32289337  0.06986010  0.67930769  1
  Al0+  Al89  1  0.43042418  0.31922424  0.65541308  1
  Al0+  Al90  1  0.57126628  0.67640592  0.98141896  1
  Al0+  Al91  1  0.42456034  0.82319599  0.31990600  1
  Al0+  Al92  1  0.93021963  0.82016832  0.31813197  1
  Al0+  Al93  1  0.68006388  0.42839778  0.01411023  1
  Al0+  Al94  1  0.32092120  0.57003210  0.01598836  1
  Al0+  Al95  1  0.82262506  0.07067852  0.34836728  1
  Si0+  Si96  1  0.92584556  0.32383176  0.31622350  1
  Si0+  Si97  1  0.82060147  0.07110404  0.01409168  1
  Si0+  Si98  1  0.92893851  0.82402274  0.98471368  1
  Si0+  Si99  1  0.42647027  0.32054737  0.98284303  1
  Si0+  Si100  1  0.07181786  0.17982342  0.65090877  1
  Si0+  Si101  1  0.82082881  0.57466144  0.01407572  1
  Si0+  Si102  1  0.07392716  0.67855612  0.64816848  1
  Si0+  Si103  1  0.93030716  0.32115070  0.98697598  1
  Si0+  Si104  1  0.82192714  0.06970683  0.68286336  1
  Si0+  Si105  1  0.68037575  0.92784819  0.68336458  1
  Si0+  Si106  1  0.32209583  0.06914734  0.34788442  1
  Si0+  Si107  1  0.57399197  0.17492103  0.64931123  1
  Si0+  Si108  1  0.67759635  0.42639962  0.35084455  1
  Si0+  Si109  1  0.07103959  0.17808428  0.98292761  1
  Si0+  Si110  1  0.07048961  0.67616228  0.31618065  1
  Si0+  Si111  1  0.57454153  0.17775150  0.31943532  1
  Si0+  Si112  1  0.68046795  0.92772702  0.01522492  1
  Si0+  Si113  1  0.17688039  0.92941385  0.34888148  1
  Si0+  Si114  1  0.82132597  0.57532773  0.68253703  1
  Si0+  Si115  1  0.67851479  0.92922760  0.35055629  1
  Si0+  Si116  1  0.17714567  0.92905927  0.68117513  1
  Si0+  Si117  1  0.56948923  0.67896434  0.65177038  1
  Si0+  Si118  1  0.42911112  0.82273142  0.65323329  1
  Si0+  Si119  1  0.06851554  0.67860299  0.98502881  1
  O2-  O120  1  0.25385691  -0.00431211  0.06723040  1
  O2-  O121  1  0.25426921  -0.00556215  0.39003482  1
  O2-  O122  1  0.25018132  -0.00736462  0.72481986  1
  O2-  O123  1  0.25187398  0.49465585  0.06501239  1
  O2-  O124  1  0.25196864  0.49799216  0.39855121  1
  O2-  O125  1  0.24946045  0.50087837  0.73012758  1
  O2-  O126  1  0.75137795  -0.00078867  0.05700867  1
  O2-  O127  1  0.74736931  -0.00278172  0.39646996  1
  O2-  O128  1  0.75039767  0.00012255  0.72634431  1
  O2-  O129  1  0.74968064  0.50894897  0.05816642  1
  O2-  O130  1  0.74567300  0.49672297  0.39343826  1
  O2-  O131  1  0.75905148  0.50155688  0.72748560  1
  O2-  O132  1  -0.00284927  0.25815379  0.27157579  1
  O2-  O133  1  0.00749000  0.25264933  0.60667876  1
  O2-  O134  1  0.00565575  0.25536156  0.94285261  1
  O2-  O135  1  0.00219585  0.74466983  0.26938031  1
  O2-  O136  1  0.00291045  0.74595649  0.60476806  1
  O2-  O137  1  -0.00079764  0.75266171  0.94289179  1
  O2-  O138  1  0.50692687  0.24585883  0.27453008  1
  O2-  O139  1  0.50416224  0.24268296  0.60674918  1
  O2-  O140  1  0.49542944  0.25127453  0.93901477  1
  O2-  O141  1  0.49105889  0.74546723  0.27154024  1
  O2-  O142  1  0.49423445  0.74658148  0.61098934  1
  O2-  O143  1  0.49457016  0.74411724  0.93153395  1
  O2-  O144  1  0.06605203  0.17274217  0.08752862  1
  O2-  O145  1  0.06942005  0.17936948  0.43162334  1
  O2-  O146  1  0.06781697  0.17600987  0.75650236  1
  O2-  O147  1  0.06379543  0.67645075  0.08976611  1
  O2-  O148  1  0.06914172  0.68018901  0.42179691  1
  O2-  O149  1  0.07262720  0.68065397  0.75412770  1
  O2-  O150  1  0.57609384  0.18344578  0.10060364  1
  O2-  O151  1  0.57418936  0.17657383  0.42502855  1
  O2-  O152  1  0.57565473  0.17434687  0.75493838  1
  O2-  O153  1  0.57701114  0.68211847  0.09405334  1
  O2-  O154  1  0.57088187  0.68099684  0.43309845  1
  O2-  O155  1  0.57288369  0.68124872  0.75642878  1
  O2-  O156  1  0.18173499  0.42762213  0.23570113  1
  O2-  O157  1  0.18077834  0.42728025  0.56784980  1
  O2-  O158  1  0.17124231  0.43232427  0.90218680  1
  O2-  O159  1  0.17240756  0.93316595  0.24437983  1
  O2-  O160  1  0.17518858  0.93091074  0.57546618  1
  O2-  O161  1  0.17248099  0.93588953  0.90134470  1
  O2-  O162  1  0.68067321  0.42283148  0.24530540  1
  O2-  O163  1  0.68088538  0.43208767  0.56675836  1
  O2-  O164  1  0.68480776  0.42480705  0.90093059  1
  O2-  O165  1  0.67990312  0.93189331  0.24499022  1
  O2-  O166  1  0.67965164  0.92843973  0.57856739  1
  O2-  O167  1  0.68416332  0.92773149  0.90960010  1
  O2-  O168  1  0.42847947  0.31851889  0.08858106  1
  O2-  O169  1  0.42930734  0.31804711  0.43295013  1
  O2-  O170  1  0.43237757  0.31758962  0.76822754  1
  O2-  O171  1  0.43110066  0.81997711  0.09697018  1
  O2-  O172  1  0.43017469  0.82758376  0.43425951  1
  O2-  O173  1  0.43226755  0.82641285  0.75774712  1
  O2-  O174  1  0.92836282  0.31864722  0.09178303  1
  O2-  O175  1  0.92375915  0.32041868  0.42171907  1
  O2-  O176  1  0.92578535  0.31666055  0.76621467  1
  O2-  O177  1  0.92774507  0.82529563  0.08946792  1
  O2-  O178  1  0.93266548  0.82055007  0.43132975  1
  O2-  O179  1  0.93009698  0.82081608  0.76574999  1
  O2-  O180  1  0.32286753  0.06896291  0.24324889  1
  O2-  O181  1  0.32085721  0.06908719  0.56567661  1
  O2-  O182  1  0.32214762  0.07002582  0.90351802  1
  O2-  O183  1  0.32059919  0.57111341  0.23530976  1
  O2-  O184  1  0.32342519  0.57337095  0.56879174  1
  O2-  O185  1  0.31765774  0.56803504  0.90220252  1
  O2-  O186  1  0.82056393  0.06927254  0.23477831  1
  O2-  O187  1  0.82228368  0.06833477  0.57811902  1
  O2-  O188  1  0.82096274  0.06999805  0.90857161  1
  O2-  O189  1  0.81792377  0.57122837  0.23313558  1
  O2-  O190  1  0.81610510  0.57865680  0.57723470  1
  O2-  O191  1  0.82382520  0.57388346  0.90846094  1
  O2-  O192  1  0.03392118  0.08676154  0.26258126  1
  O2-  O193  1  0.04129644  0.08802441  0.60309017  1
  O2-  O194  1  0.03521628  0.09023506  0.93185586  1
  O2-  O195  1  0.04249321  0.58226979  0.27239738  1
  O2-  O196  1  0.05047196  0.58517559  0.60174077  1
  O2-  O197  1  0.03624618  0.58911665  0.93451262  1
  O2-  O198  1  0.55031918  0.08386518  0.27348535  1
  O2-  O199  1  0.55128073  0.07990386  0.60423234  1
  O2-  O200  1  0.54826423  0.08247022  0.93290244  1
  O2-  O201  1  0.54908900  0.57850165  0.26558260  1
  O2-  O202  1  0.54629648  0.58619805  0.60516977  1
  O2-  O203  1  0.54766729  0.57520173  0.93186823  1
  O2-  O204  1  0.16550440  0.20644660  0.26042122  1
  O2-  O205  1  0.16681672  0.20060274  0.60645402  1
  O2-  O206  1  0.16531724  0.19874562  0.93784298  1
  O2-  O207  1  0.16354607  0.70250001  0.27038587  1
  O2-  O208  1  0.16648118  0.70723488  0.60112358  1
  O2-  O209  1  0.15943574  0.70506801  0.93622684  1
  O2-  O210  1  0.66945256  0.20176143  0.27469511  1
  O2-  O211  1  0.66784649  0.20040065  0.60384129  1
  O2-  O212  1  0.66913648  0.21244033  0.93218803  1
  O2-  O213  1  0.66447945  0.71244641  0.26344496  1
  O2-  O214  1  0.65949475  0.71223158  0.60341001  1
  O2-  O215  1  0.66830125  0.71099574  0.92608721  1
  O2-  O216  1  0.07771587  0.46023833  0.06916105  1
  O2-  O217  1  0.07974420  0.45053224  0.39974674  1
  O2-  O218  1  0.07740336  0.45659584  0.73139130  1
  O2-  O219  1  0.08036188  0.96508492  0.06910920  1
  O2-  O220  1  0.08849454  0.96516105  0.39839589  1
  O2-  O221  1  0.08469919  0.95872096  0.72834123  1
  O2-  O222  1  0.58291924  0.45277906  0.06800165  1
  O2-  O223  1  0.58386899  0.45269181  0.39495633  1
  O2-  O224  1  0.58766259  0.46069286  0.73588196  1
  O2-  O225  1  0.58977931  0.95589523  0.06223150  1
  O2-  O226  1  0.58573569  0.95593087  0.39874003  1
  O2-  O227  1  0.58974828  0.95441901  0.73338207  1
  O2-  O228  1  0.19527525  0.32612484  0.06317746  1
  O2-  O229  1  0.20895947  0.32546646  0.39801889  1
  O2-  O230  1  0.20394852  0.32974135  0.73452341  1
  O2-  O231  1  0.19313131  0.82867068  0.06557875  1
  O2-  O232  1  0.19531838  0.83573626  0.39626645  1
  O2-  O233  1  0.19692774  0.83423045  0.72639067  1
  O2-  O234  1  0.71784366  0.33517173  0.07051050  1
  O2-  O235  1  0.70389065  0.33403898  0.39919388  1
  O2-  O236  1  0.71233154  0.33067653  0.73225777  1
  O2-  O237  1  0.71074054  0.83678006  0.06224766  1
  O2-  O238  1  0.70494341  0.83610344  0.39615026  1
  O2-  O239  1  0.71164475  0.83735803  0.73151109  1
  O2-  O240  1  0.45983349  0.41406246  0.26333134  1
  O2-  O241  1  0.46465621  0.41514595  0.60130907  1
  O2-  O242  1  0.45359821  0.41393795  0.93867737  1
  O2-  O243  1  0.45996278  0.91960049  0.26601953  1
  O2-  O244  1  0.46356255  0.91232343  0.60439444  1
  O2-  O245  1  0.46218145  0.91651322  0.93132373  1
  O2-  O246  1  0.94647315  0.41952331  0.27292760  1
  O2-  O247  1  0.94820087  0.42293670  0.60126447  1
  O2-  O248  1  0.95183740  0.41478536  0.93980772  1
  O2-  O249  1  0.96201957  0.91650324  0.26485886  1
  O2-  O250  1  0.95976667  0.91767352  0.59840391  1
  O2-  O251  1  0.95750693  0.91581411  0.93653654  1
  O2-  O252  1  0.33625746  0.28453901  0.26276290  1
  O2-  O253  1  0.33384717  0.28625298  0.60189786  1
  O2-  O254  1  0.33194846  0.29430063  0.93872970  1
  O2-  O255  1  0.32265634  0.80527830  0.27105112  1
  O2-  O256  1  0.33406059  0.80372093  0.60867268  1
  O2-  O257  1  0.32448773  0.79897660  0.93388224  1
  O2-  O258  1  0.83323557  0.29309729  0.27017372  1
  O2-  O259  1  0.83467921  0.28555150  0.59644836  1
  O2-  O260  1  0.84123955  0.28647061  0.93796792  1
  O2-  O261  1  0.83266679  0.79294338  0.26495142  1
  O2-  O262  1  0.83206638  0.79197439  0.59754101  1
  O2-  O263  1  0.83767764  0.79750048  0.93531551  1
  O2-  O264  1  0.42487585  0.04422533  0.06819071  1
  O2-  O265  1  0.41488546  0.04554647  0.39612261  1
  O2-  O266  1  0.42057576  0.04126282  0.73250979  1
  O2-  O267  1  0.42093485  0.54615367  0.06652954  1
  O2-  O268  1  0.42228228  0.54325922  0.39820138  1
  O2-  O269  1  0.42091053  0.54306693  0.73476051  1
  O2-  O270  1  0.91218815  0.04362022  0.06110278  1
  O2-  O271  1  0.91810597  0.03748803  0.40263658  1
  O2-  O272  1  0.91340984  0.04039734  0.73092128  1
  O2-  O273  1  0.91213641  0.54652052  0.06275045  1
  O2-  O274  1  0.91449014  0.54548425  0.40407657  1
  O2-  O275  1  0.91796215  0.55746970  0.72462729  1
  O2-  O276  1  0.29335562  0.16677012  0.07016922  1
  O2-  O277  1  0.28796771  0.15922823  0.39401851  1
  O2-  O278  1  0.29005748  0.16331098  0.73683527  1
  O2-  O279  1  0.28950598  0.66830607  0.06622178  1
  O2-  O280  1  0.29320430  0.67109959  0.40065197  1
  O2-  O281  1  0.29533815  0.67214017  0.73396188  1
  O2-  O282  1  0.79214567  0.16158172  0.06252721  1
  O2-  O283  1  0.79337912  0.16663862  0.40492194  1
  O2-  O284  1  0.79514689  0.16131130  0.73074750  1
  O2-  O285  1  0.79821398  0.67011736  0.05802545  1
  O2-  O286  1  0.78684473  0.66948313  0.40006057  1
  O2-  O287  1  0.79147598  0.66755422  0.72999939  1
