# generated using pymatgen
data_Ca2Al2SiO7
_symmetry_space_group_name_H-M   'P 1'
_cell_length_a   15.46203637
_cell_length_b   15.46331646
_cell_length_c   15.28652940
_cell_angle_alpha   89.97982391
_cell_angle_beta   90.00115247
_cell_angle_gamma   90.00218175
_symmetry_Int_Tables_number   1
_chemical_formula_structural   Ca2Al2SiO7
_chemical_formula_sum   'Ca48 Al48 Si24 O168'
_cell_volume   3654.92275948
_cell_formula_units_Z   24
loop_
 _symmetry_equiv_pos_site_id
 _symmetry_equiv_pos_as_xyz
  1  'x, y, z'
loop_
 _atom_type_symbol
 _atom_type_oxidation_number
  Ca2+  2.0
  Al0+  0.0
  Si0+  0.0
  O2-  -2.0
loop_
 _atom_site_type_symbol
 _atom_site_label
 _atom_site_symmetry_multiplicity
 _atom_site_fract_x
 _atom_site_fract_y
 _atom_site_fract_z
 _atom_site_occupancy
  Ca2+  Ca0  1  0.15903253  0.07493515  0.17177013  1
  Ca2+  Ca1  1  0.17367796  0.07283508  0.50719417  1
  Ca2+  Ca2  1  0.17195103  0.09030267  0.83757972  1
  Ca2+  Ca3  1  0.16853084  0.59444919  0.16740460  1
  Ca2+  Ca4  1  0.16982215  0.58394446  0.51190549  1
  Ca2+  Ca5  1  0.17026294  0.58663394  0.83499767  1
  Ca2+  Ca6  1  0.66923936  0.08114834  0.16112286  1
  Ca2+  Ca7  1  0.66735754  0.07471193  0.51411148  1
  Ca2+  Ca8  1  0.67101668  0.07776079  0.83794082  1
  Ca2+  Ca9  1  0.68182690  0.59029462  0.17137808  1
  Ca2+  Ca10  1  0.67529849  0.59194980  0.50639338  1
  Ca2+  Ca11  1  0.67998031  0.58916446  0.83720509  1
  Ca2+  Ca12  1  0.07669057  0.32462553  0.15565531  1
  Ca2+  Ca13  1  0.07977376  0.33827167  0.50378605  1
  Ca2+  Ca14  1  0.07346134  0.33341193  0.82933160  1
  Ca2+  Ca15  1  0.07774931  0.82677513  0.16019409  1
  Ca2+  Ca16  1  0.08672082  0.82156134  0.49445860  1
  Ca2+  Ca17  1  0.07383471  0.82395870  0.83295681  1
  Ca2+  Ca18  1  0.58286391  0.32742603  0.15855819  1
  Ca2+  Ca19  1  0.58561890  0.32579194  0.50150174  1
  Ca2+  Ca20  1  0.58922837  0.32008363  0.82845204  1
  Ca2+  Ca21  1  0.58042252  0.83346917  0.16608969  1
  Ca2+  Ca22  1  0.58125116  0.82481428  0.49895591  1
  Ca2+  Ca23  1  0.58687356  0.83291914  0.82683859  1
  Ca2+  Ca24  1  0.33225984  0.42426691  0.16671031  1
  Ca2+  Ca25  1  0.32361165  0.42450409  0.51314068  1
  Ca2+  Ca26  1  0.32880799  0.42833646  0.83563071  1
  Ca2+  Ca27  1  0.32592015  0.91417190  0.17390544  1
  Ca2+  Ca28  1  0.33037788  0.91200483  0.50220248  1
  Ca2+  Ca29  1  0.33256406  0.92089446  0.83312024  1
  Ca2+  Ca30  1  0.84187945  0.42684586  0.16487227  1
  Ca2+  Ca31  1  0.83550095  0.42720765  0.50583036  1
  Ca2+  Ca32  1  0.84342101  0.42387918  0.83455203  1
  Ca2+  Ca33  1  0.83432912  0.91658111  0.16353219  1
  Ca2+  Ca34  1  0.82533611  0.92356814  0.51166036  1
  Ca2+  Ca35  1  0.82185213  0.91987291  0.84232928  1
  Ca2+  Ca36  1  0.42331780  0.16878731  0.15761356  1
  Ca2+  Ca37  1  0.41871147  0.16068064  0.50323573  1
  Ca2+  Ca38  1  0.42737963  0.16114495  0.82588516  1
  Ca2+  Ca39  1  0.41841973  0.67228289  0.16345369  1
  Ca2+  Ca40  1  0.42862882  0.66516319  0.49473532  1
  Ca2+  Ca41  1  0.42119184  0.66342207  0.82581038  1
  Ca2+  Ca42  1  0.91955891  0.17231695  0.15007412  1
  Ca2+  Ca43  1  0.90747434  0.17423004  0.50178961  1
  Ca2+  Ca44  1  0.90670576  0.17588647  0.82915727  1
  Ca2+  Ca45  1  0.92522206  0.66611600  0.15737463  1
  Ca2+  Ca46  1  0.92578691  0.65755832  0.49770370  1
  Ca2+  Ca47  1  0.92206933  0.66208714  0.82735240  1
  Al0+  Al48  1  0.00100404  -0.00142137  -0.00493144  1
  Al0+  Al49  1  0.00135843  -0.00052021  0.34194911  1
  Al0+  Al50  1  -0.00038575  0.00150094  0.66936373  1
  Al0+  Al51  1  0.00319302  0.49740960  -0.00199993  1
  Al0+  Al52  1  0.00070826  0.49895425  0.33161985  1
  Al0+  Al53  1  -0.00029828  0.49824798  0.66458369  1
  Al0+  Al54  1  0.49904394  -0.00031124  0.00141528  1
  Al0+  Al55  1  0.50074600  0.00110592  0.32891595  1
  Al0+  Al56  1  0.49798579  -0.00154252  0.66818295  1
  Al0+  Al57  1  0.49855448  0.50177931  0.00600900  1
  Al0+  Al58  1  0.50228120  0.49710717  0.32933089  1
  Al0+  Al59  1  0.50016455  0.49840707  0.66476864  1
  Al0+  Al60  1  0.25146492  0.25316137  -0.00150501  1
  Al0+  Al61  1  0.25060984  0.25029840  0.33288821  1
  Al0+  Al62  1  0.24851337  0.24953738  0.67349127  1
  Al0+  Al63  1  0.25132138  0.75157304  -0.00026305  1
  Al0+  Al64  1  0.25104832  0.75004771  0.33181461  1
  Al0+  Al65  1  0.24918395  0.75057207  0.66792979  1
  Al0+  Al66  1  0.74837882  0.24956099  -0.00389397  1
  Al0+  Al67  1  0.74993653  0.25243721  0.33121530  1
  Al0+  Al68  1  0.74934054  0.25073352  0.65746132  1
  Al0+  Al69  1  0.74824016  0.75058661  0.00796503  1
  Al0+  Al70  1  0.75175090  0.75221509  0.33591901  1
  Al0+  Al71  1  0.74982207  0.75082573  0.66971443  1
  Al0+  Al72  1  0.32304588  0.57273311  0.68018549  1
  Al0+  Al73  1  0.81927637  0.56960975  0.67926382  1
  Al0+  Al74  1  0.57221478  0.67732231  0.65568620  1
  Al0+  Al75  1  0.17732009  0.42956492  0.68309093  1
  Al0+  Al76  1  0.67890677  0.92865071  0.68128693  1
  Al0+  Al77  1  0.17978125  0.92760559  0.34747616  1
  Al0+  Al78  1  0.06969491  0.67829652  0.32003586  1
  Al0+  Al79  1  0.92536108  0.82026332  0.98524172  1
  Al0+  Al80  1  0.82144324  0.07129021  0.01436937  1
  Al0+  Al81  1  0.43020921  0.82045138  0.31799591  1
  Al0+  Al82  1  0.82091780  0.07440910  0.68101903  1
  Al0+  Al83  1  0.31888695  0.06888070  0.68027270  1
  Al0+  Al84  1  0.56820640  0.17929059  0.98523080  1
  Al0+  Al85  1  0.57444605  0.67740128  0.31664457  1
  Al0+  Al86  1  0.07323234  0.17650729  0.98532321  1
  Al0+  Al87  1  0.06904196  0.68067221  0.65261302  1
  Al0+  Al88  1  0.67650985  0.92830700  0.01896756  1
  Al0+  Al89  1  0.56871919  0.17825858  0.65189127  1
  Al0+  Al90  1  0.82297859  0.56947946  0.01336579  1
  Al0+  Al91  1  0.07173358  0.67936881  0.98399376  1
  Al0+  Al92  1  0.93000400  0.31939799  0.64944737  1
  Al0+  Al93  1  0.82126959  0.57072800  0.34744778  1
  Al0+  Al94  1  0.32080203  0.57303186  0.01647548  1
  Al0+  Al95  1  0.92855950  0.31988386  0.98385444  1
  Si0+  Si96  1  0.17601271  0.92590227  0.68578469  1
  Si0+  Si97  1  0.42758160  0.82114413  0.65116999  1
  Si0+  Si98  1  0.42589068  0.32106335  0.65019825  1
  Si0+  Si99  1  0.92909498  0.82581722  0.31920021  1
  Si0+  Si100  1  0.67678844  0.42687728  0.68129971  1
  Si0+  Si101  1  0.82099918  0.07328652  0.34786258  1
  Si0+  Si102  1  0.67679830  0.42833541  0.01566059  1
  Si0+  Si103  1  0.32220603  0.56986913  0.34769403  1
  Si0+  Si104  1  0.18048196  0.42705524  0.34761298  1
  Si0+  Si105  1  0.32053232  0.07252520  0.01524068  1
  Si0+  Si106  1  0.07127589  0.17843619  0.32169957  1
  Si0+  Si107  1  0.57145072  0.17978315  0.31705223  1
  Si0+  Si108  1  0.42911317  0.82107665  0.98401718  1
  Si0+  Si109  1  0.92970047  0.31968619  0.31693604  1
  Si0+  Si110  1  0.42850679  0.32545649  0.98212666  1
  Si0+  Si111  1  0.07517725  0.17649106  0.64778759  1
  Si0+  Si112  1  0.67765172  0.93167275  0.34953589  1
  Si0+  Si113  1  0.67743720  0.42591273  0.35084820  1
  Si0+  Si114  1  0.18002865  0.92989662  0.01408657  1
  Si0+  Si115  1  0.57017384  0.67892157  0.98676063  1
  Si0+  Si116  1  0.17996593  0.42817567  0.01944713  1
  Si0+  Si117  1  0.42704332  0.32030829  0.31782100  1
  Si0+  Si118  1  0.32274548  0.07318974  0.34827600  1
  Si0+  Si119  1  0.92701044  0.82364375  0.64996277  1
  O2-  O120  1  0.24496699  0.00708436  0.05737181  1
  O2-  O121  1  0.25654326  0.00206130  0.39170769  1
  O2-  O122  1  0.24151609  -0.00163585  0.72905697  1
  O2-  O123  1  0.24487270  0.50015771  0.06491494  1
  O2-  O124  1  0.24995236  0.49986605  0.38921865  1
  O2-  O125  1  0.24960664  0.50261745  0.73059723  1
  O2-  O126  1  0.75195041  -0.00163825  0.06784068  1
  O2-  O127  1  0.74978997  0.00255618  0.39008916  1
  O2-  O128  1  0.75203288  -0.00023589  0.73006393  1
  O2-  O129  1  0.74767873  0.49456083  0.06037819  1
  O2-  O130  1  0.74152817  0.49965415  0.39299943  1
  O2-  O131  1  0.74159801  0.49815325  0.72613603  1
  O2-  O132  1  -0.00151456  0.24571276  0.27691872  1
  O2-  O133  1  0.00340732  0.24201729  0.60275196  1
  O2-  O134  1  -0.00272926  0.24372545  0.93530962  1
  O2-  O135  1  -0.00579860  0.75324611  0.27570535  1
  O2-  O136  1  -0.00342341  0.75672827  0.60380668  1
  O2-  O137  1  -0.00746661  0.74377158  0.93486430  1
  O2-  O138  1  0.49923689  0.25023616  0.27582691  1
  O2-  O139  1  0.49361865  0.25230554  0.60360027  1
  O2-  O140  1  0.49553629  0.25579136  0.93816748  1
  O2-  O141  1  0.50110152  0.74818482  0.26614430  1
  O2-  O142  1  0.49376153  0.74886259  0.60924041  1
  O2-  O143  1  0.50122517  0.75113809  0.94331942  1
  O2-  O144  1  0.07365879  0.17920907  0.10044411  1
  O2-  O145  1  0.07299953  0.18078211  0.42628042  1
  O2-  O146  1  0.07839437  0.17887051  0.75266660  1
  O2-  O147  1  0.07290433  0.68407216  0.09815425  1
  O2-  O148  1  0.07018558  0.67705410  0.43313301  1
  O2-  O149  1  0.06938798  0.68166129  0.76511558  1
  O2-  O150  1  0.56532324  0.18152709  0.09941170  1
  O2-  O151  1  0.57120587  0.17913541  0.42190405  1
  O2-  O152  1  0.56749802  0.17924936  0.76440324  1
  O2-  O153  1  0.56760451  0.67889709  0.09186018  1
  O2-  O154  1  0.57252692  0.67866152  0.43035451  1
  O2-  O155  1  0.57177202  0.67879383  0.76894330  1
  O2-  O156  1  0.18322344  0.42221848  0.24293866  1
  O2-  O157  1  0.17984803  0.43111063  0.56803208  1
  O2-  O158  1  0.18303609  0.42595195  0.91464358  1
  O2-  O159  1  0.17810929  0.93164867  0.23422426  1
  O2-  O160  1  0.17925099  0.92508408  0.57974368  1
  O2-  O161  1  0.18549475  0.92728306  0.90945811  1
  O2-  O162  1  0.67932014  0.41848546  0.24568349  1
  O2-  O163  1  0.67827836  0.42668650  0.57524874  1
  O2-  O164  1  0.67210493  0.43116159  0.91053441  1
  O2-  O165  1  0.67591009  0.93377323  0.24481499  1
  O2-  O166  1  0.67856154  0.92986200  0.56666776  1
  O2-  O167  1  0.67247944  0.93026781  0.90612161  1
  O2-  O168  1  0.42893869  0.32299138  0.08874363  1
  O2-  O169  1  0.42428642  0.31969550  0.42237908  1
  O2-  O170  1  0.42803288  0.32097237  0.75536878  1
  O2-  O171  1  0.42742387  0.82116453  0.08913524  1
  O2-  O172  1  0.43129557  0.82055656  0.43142762  1
  O2-  O173  1  0.42793395  0.82315325  0.75694334  1
  O2-  O174  1  0.93179058  0.31991560  0.09865423  1
  O2-  O175  1  0.92913538  0.31987522  0.42178360  1
  O2-  O176  1  0.92993344  0.31975348  0.76167004  1
  O2-  O177  1  0.93007275  0.82031019  0.09970303  1
  O2-  O178  1  0.93128298  0.82958347  0.42457822  1
  O2-  O179  1  0.92752480  0.82120042  0.75511643  1
  O2-  O180  1  0.32072811  0.07647056  0.24262381  1
  O2-  O181  1  0.31873136  0.06662019  0.56655416  1
  O2-  O182  1  0.32249112  0.06958036  0.91040426  1
  O2-  O183  1  0.32124597  0.56835359  0.24248119  1
  O2-  O184  1  0.32332681  0.57046414  0.56574172  1
  O2-  O185  1  0.32346156  0.57143510  0.90408870  1
  O2-  O186  1  0.82189547  0.07480295  0.24316264  1
  O2-  O187  1  0.81654679  0.07244402  0.56595369  1
  O2-  O188  1  0.81679898  0.07247550  0.90178666  1
  O2-  O189  1  0.82335216  0.56652705  0.23440393  1
  O2-  O190  1  0.81944596  0.56799312  0.56580028  1
  O2-  O191  1  0.82097410  0.56916944  0.90055251  1
  O2-  O192  1  0.04554455  0.08481195  0.27715957  1
  O2-  O193  1  0.05391021  0.08043581  0.60370565  1
  O2-  O194  1  0.05661760  0.07598785  0.93417628  1
  O2-  O195  1  0.04118992  0.58120490  0.26514034  1
  O2-  O196  1  0.03788439  0.58434457  0.59839116  1
  O2-  O197  1  0.05268136  0.57782074  0.93601041  1
  O2-  O198  1  0.54449401  0.08904390  0.26779684  1
  O2-  O199  1  0.53450325  0.08223361  0.59774645  1
  O2-  O200  1  0.53270691  0.08372102  0.93340279  1
  O2-  O201  1  0.55019987  0.57661898  0.26594526  1
  O2-  O202  1  0.54550937  0.57996279  0.59963519  1
  O2-  O203  1  0.54038539  0.58715617  0.94113330  1
  O2-  O204  1  0.16270593  0.20687512  0.27296735  1
  O2-  O205  1  0.16806230  0.20541501  0.60076316  1
  O2-  O206  1  0.17156381  0.20902684  0.93407749  1
  O2-  O207  1  0.16661945  0.70938859  0.26758448  1
  O2-  O208  1  0.16728080  0.71066495  0.59966343  1
  O2-  O209  1  0.16863264  0.71512485  0.93251803  1
  O2-  O210  1  0.66251180  0.21034350  0.26940121  1
  O2-  O211  1  0.66244635  0.21093743  0.59319367  1
  O2-  O212  1  0.66399383  0.20877563  0.93116008  1
  O2-  O213  1  0.67313916  0.70924942  0.26624735  1
  O2-  O214  1  0.66705979  0.71255247  0.60007742  1
  O2-  O215  1  0.66302417  0.70483477  0.94217554  1
  O2-  O216  1  0.08544507  0.44894427  0.06515968  1
  O2-  O217  1  0.08763833  0.45288905  0.39296049  1
  O2-  O218  1  0.07964083  0.45796129  0.73445435  1
  O2-  O219  1  0.08696938  0.95175643  0.06156775  1
  O2-  O220  1  0.08584461  0.95975517  0.40634723  1
  O2-  O221  1  0.08115484  0.94746157  0.72946318  1
  O2-  O222  1  0.58452480  0.45443943  0.06571078  1
  O2-  O223  1  0.58104880  0.44419754  0.39469446  1
  O2-  O224  1  0.58158709  0.44506752  0.72603305  1
  O2-  O225  1  0.57899645  0.96271061  0.07274298  1
  O2-  O226  1  0.58606020  0.96217020  0.39616757  1
  O2-  O227  1  0.58036815  0.95647789  0.73253413  1
  O2-  O228  1  0.21076439  0.33596427  0.06824503  1
  O2-  O229  1  0.21021127  0.33630767  0.39715058  1
  O2-  O230  1  0.20454113  0.33177624  0.73612312  1
  O2-  O231  1  0.21537535  0.84169436  0.06402702  1
  O2-  O232  1  0.21261280  0.83180560  0.40218682  1
  O2-  O233  1  0.20625137  0.83512397  0.73383117  1
  O2-  O234  1  0.69999450  0.33366939  0.06081298  1
  O2-  O235  1  0.70854824  0.33424817  0.39971581  1
  O2-  O236  1  0.70619792  0.33398787  0.72531713  1
  O2-  O237  1  0.70113052  0.83016328  0.07457688  1
  O2-  O238  1  0.70397969  0.83963966  0.39665195  1
  O2-  O239  1  0.70683232  0.83163752  0.73598384  1
  O2-  O240  1  0.45421212  0.41110181  0.26786665  1
  O2-  O241  1  0.45191384  0.41353033  0.60132152  1
  O2-  O242  1  0.45481378  0.41952017  0.93868666  1
  O2-  O243  1  0.45667956  0.92009995  0.26443388  1
  O2-  O244  1  0.45553122  0.91277659  0.60247404  1
  O2-  O245  1  0.45550763  0.91339117  0.93746361  1
  O2-  O246  1  0.96156080  0.40945757  0.26875463  1
  O2-  O247  1  0.96450494  0.41406786  0.59311046  1
  O2-  O248  1  0.96188076  0.41618627  0.93073708  1
  O2-  O249  1  0.95914473  0.91846601  0.27235974  1
  O2-  O250  1  0.95003750  0.91920613  0.60535015  1
  O2-  O251  1  0.95739243  0.91625993  0.93072737  1
  O2-  O252  1  0.33655726  0.29096533  0.26739447  1
  O2-  O253  1  0.33202004  0.29399040  0.60486558  1
  O2-  O254  1  0.33479249  0.30186056  0.93731586  1
  O2-  O255  1  0.33210282  0.79225046  0.26407084  1
  O2-  O256  1  0.33299070  0.79931563  0.60568096  1
  O2-  O257  1  0.33878602  0.79255028  0.93515987  1
  O2-  O258  1  0.83703175  0.29462111  0.26973049  1
  O2-  O259  1  0.83425937  0.29048558  0.59112168  1
  O2-  O260  1  0.82860773  0.29774536  0.93251293  1
  O2-  O261  1  0.83382121  0.80533249  0.27548641  1
  O2-  O262  1  0.83362786  0.79750607  0.60390610  1
  O2-  O263  1  0.82336229  0.79793383  0.93806709  1
  O2-  O264  1  0.40935530  0.03973341  0.06534530  1
  O2-  O265  1  0.41795534  0.05008982  0.39213340  1
  O2-  O266  1  0.41319071  0.03476137  0.73580060  1
  O2-  O267  1  0.41562926  0.53964147  0.07402796  1
  O2-  O268  1  0.41487278  0.53974045  0.39228203  1
  O2-  O269  1  0.42095959  0.54162543  0.73298399  1
  O2-  O270  1  0.92264013  0.04539922  0.06478560  1
  O2-  O271  1  0.91220215  0.04737801  0.39736444  1
  O2-  O272  1  0.92278048  0.05605924  0.72941548  1
  O2-  O273  1  0.92015641  0.53725058  0.06663886  1
  O2-  O274  1  0.91686568  0.53322004  0.40036420  1
  O2-  O275  1  0.91450814  0.53495722  0.73133051  1
  O2-  O276  1  0.30019788  0.16747261  0.06052250  1
  O2-  O277  1  0.29479814  0.16566537  0.39596760  1
  O2-  O278  1  0.29362536  0.16574924  0.73549159  1
  O2-  O279  1  0.29052211  0.67040015  0.07010244  1
  O2-  O280  1  0.29657019  0.66212985  0.39362780  1
  O2-  O281  1  0.29701619  0.67158360  0.73254984  1
  O2-  O282  1  0.78948717  0.16990208  0.06764232  1
  O2-  O283  1  0.79208277  0.16599405  0.39350527  1
  O2-  O284  1  0.78805140  0.17276492  0.72919681  1
  O2-  O285  1  0.79113474  0.66448669  0.06983549  1
  O2-  O286  1  0.79679069  0.66970061  0.40019069  1
  O2-  O287  1  0.79135688  0.66617209  0.73323850  1
