# generated using pymatgen
data_Ca2Al2SiO7
_symmetry_space_group_name_H-M   'P 1'
_cell_length_a   15.46467605
_cell_length_b   15.46578947
_cell_length_c   15.28897581
_cell_angle_alpha   89.99735305
_cell_angle_beta   90.00114546
_cell_angle_gamma   90.01118905
_symmetry_Int_Tables_number   1
_chemical_formula_structural   Ca2Al2SiO7
_chemical_formula_sum   'Ca48 Al48 Si24 O168'
_cell_volume   3656.71661919
_cell_formula_units_Z   24
loop_
 _symmetry_equiv_pos_site_id
 _symmetry_equiv_pos_as_xyz
  1  'x, y, z'
loop_
 _atom_type_symbol
 _atom_type_oxidation_number
  Ca2+  2.0
  Al0+  0.0
  Si0+  0.0
  O2-  -2.0
loop_
 _atom_site_type_symbol
 _atom_site_label
 _atom_site_symmetry_multiplicity
 _atom_site_fract_x
 _atom_site_fract_y
 _atom_site_fract_z
 _atom_site_occupancy
  Ca2+  Ca0  1  0.16893037  0.07795582  0.16667982  1
  Ca2+  Ca1  1  0.17875352  0.08793749  0.50740418  1
  Ca2+  Ca2  1  0.16442953  0.08250841  0.83588238  1
  Ca2+  Ca3  1  0.16666915  0.58141306  0.17539260  1
  Ca2+  Ca4  1  0.16715015  0.58461647  0.51247110  1
  Ca2+  Ca5  1  0.16865571  0.58444291  0.83033109  1
  Ca2+  Ca6  1  0.67629022  0.07796814  0.17468910  1
  Ca2+  Ca7  1  0.67574210  0.07162202  0.50560782  1
  Ca2+  Ca8  1  0.67901175  0.06924173  0.83595231  1
  Ca2+  Ca9  1  0.66917875  0.57994443  0.17322327  1
  Ca2+  Ca10  1  0.66362958  0.57852219  0.50317981  1
  Ca2+  Ca11  1  0.66253330  0.58959257  0.83634305  1
  Ca2+  Ca12  1  0.07861711  0.32217284  0.15902169  1
  Ca2+  Ca13  1  0.08084728  0.33152587  0.50535163  1
  Ca2+  Ca14  1  0.07883921  0.32171294  0.82234080  1
  Ca2+  Ca15  1  0.08474375  0.83009160  0.16341906  1
  Ca2+  Ca16  1  0.07924460  0.82459807  0.49856688  1
  Ca2+  Ca17  1  0.07770118  0.83460584  0.82350452  1
  Ca2+  Ca18  1  0.57924641  0.33425009  0.16056396  1
  Ca2+  Ca19  1  0.58462632  0.33162876  0.49534183  1
  Ca2+  Ca20  1  0.57584045  0.33156238  0.83016524  1
  Ca2+  Ca21  1  0.58428773  0.83723511  0.16412249  1
  Ca2+  Ca22  1  0.57548450  0.84362051  0.49885970  1
  Ca2+  Ca23  1  0.58634986  0.82821417  0.82405778  1
  Ca2+  Ca24  1  0.33469260  0.41656694  0.16903619  1
  Ca2+  Ca25  1  0.32327695  0.42794634  0.51370912  1
  Ca2+  Ca26  1  0.32998569  0.42050007  0.83228118  1
  Ca2+  Ca27  1  0.32919967  0.91722816  0.17338394  1
  Ca2+  Ca28  1  0.33981602  0.92274812  0.50675909  1
  Ca2+  Ca29  1  0.32847202  0.91750823  0.83222609  1
  Ca2+  Ca30  1  0.82466106  0.42270989  0.17799343  1
  Ca2+  Ca31  1  0.83398514  0.42067090  0.50207845  1
  Ca2+  Ca32  1  0.83793896  0.41698881  0.83127201  1
  Ca2+  Ca33  1  0.82180644  0.92509553  0.17112006  1
  Ca2+  Ca34  1  0.82623951  0.91917644  0.50949155  1
  Ca2+  Ca35  1  0.82945597  0.91750701  0.83834345  1
  Ca2+  Ca36  1  0.41525188  0.17158802  0.16327040  1
  Ca2+  Ca37  1  0.41526001  0.16131368  0.49429774  1
  Ca2+  Ca38  1  0.41150674  0.17122299  0.82742775  1
  Ca2+  Ca39  1  0.42574016  0.67555500  0.16228298  1
  Ca2+  Ca40  1  0.41708719  0.67873534  0.50124803  1
  Ca2+  Ca41  1  0.42668074  0.67409061  0.82303256  1
  Ca2+  Ca42  1  0.91788628  0.15812100  0.15996285  1
  Ca2+  Ca43  1  0.91359060  0.16455196  0.50083222  1
  Ca2+  Ca44  1  0.92303541  0.16275104  0.82342701  1
  Ca2+  Ca45  1  0.91802402  0.66355217  0.16823263  1
  Ca2+  Ca46  1  0.92382886  0.66721900  0.49828790  1
  Ca2+  Ca47  1  0.92264355  0.67768540  0.81994480  1
  Al0+  Al48  1  0.00260379  -0.00202630  0.00480419  1
  Al0+  Al49  1  0.00144742  -0.00144053  0.33416689  1
  Al0+  Al50  1  0.00246019  0.00161849  0.65739970  1
  Al0+  Al51  1  0.00190282  0.49809114  0.00124218  1
  Al0+  Al52  1  -0.00072100  0.49718693  0.33043527  1
  Al0+  Al53  1  -0.00111725  0.49666897  0.66592707  1
  Al0+  Al54  1  0.49893074  0.00152905  0.00139781  1
  Al0+  Al55  1  0.49908159  0.00228000  0.33182074  1
  Al0+  Al56  1  0.50144301  0.00151051  0.67474232  1
  Al0+  Al57  1  0.49922819  0.50156684  -0.00716936  1
  Al0+  Al58  1  0.49769489  0.50132097  0.33657535  1
  Al0+  Al59  1  0.49867414  0.50037574  0.66719554  1
  Al0+  Al60  1  0.24803693  0.25187612  -0.00721987  1
  Al0+  Al61  1  0.24870875  0.25002229  0.33426819  1
  Al0+  Al62  1  0.24873689  0.25211408  0.67035667  1
  Al0+  Al63  1  0.25243165  0.74859451  0.00483613  1
  Al0+  Al64  1  0.25027399  0.74945781  0.32364866  1
  Al0+  Al65  1  0.25343149  0.75095337  0.66521916  1
  Al0+  Al66  1  0.74929735  0.25260133  0.00243004  1
  Al0+  Al67  1  0.74878988  0.25027177  0.33788886  1
  Al0+  Al68  1  0.74899415  0.25033881  0.66776413  1
  Al0+  Al69  1  0.75175335  0.74957278  0.00203097  1
  Al0+  Al70  1  0.75067789  0.74878156  0.34005762  1
  Al0+  Al71  1  0.74976398  0.74636912  0.66148575  1
  Al0+  Al72  1  0.67789593  0.92652766  0.01547475  1
  Al0+  Al73  1  0.17651667  0.43042912  0.68406483  1
  Al0+  Al74  1  0.82377366  0.07109346  0.34976252  1
  Al0+  Al75  1  0.06907047  0.67815409  0.31818932  1
  Al0+  Al76  1  0.82141001  0.07155340  0.01397475  1
  Al0+  Al77  1  0.18133840  0.92735992  0.01332275  1
  Al0+  Al78  1  0.32175573  0.57383523  0.68340253  1
  Al0+  Al79  1  0.32174651  0.07183551  0.68127734  1
  Al0+  Al80  1  0.92606829  0.31947885  0.65015578  1
  Al0+  Al81  1  0.67604718  0.43006798  0.34829318  1
  Al0+  Al82  1  0.07170057  0.67929552  0.65484611  1
  Al0+  Al83  1  0.07279363  0.17839767  0.64898657  1
  Al0+  Al84  1  0.57168642  0.68284031  0.98822604  1
  Al0+  Al85  1  0.68079140  0.92607392  0.68270814  1
  Al0+  Al86  1  0.43176599  0.82403152  0.65329003  1
  Al0+  Al87  1  0.43126385  0.82311065  0.31744643  1
  Al0+  Al88  1  0.67774278  0.92883747  0.34904942  1
  Al0+  Al89  1  0.42965970  0.32049058  0.98524073  1
  Al0+  Al90  1  0.31767971  0.07062199  0.34462024  1
  Al0+  Al91  1  0.82317834  0.07127000  0.68143706  1
  Al0+  Al92  1  0.57191374  0.67658377  0.64920051  1
  Al0+  Al93  1  0.06753321  0.17751825  0.98687129  1
  Al0+  Al94  1  0.92776184  0.82316715  0.65133007  1
  Al0+  Al95  1  0.82303948  0.57010016  0.34980094  1
  Si0+  Si96  1  0.92666584  0.82257606  0.31436918  1
  Si0+  Si97  1  0.07313206  0.17895005  0.31685246  1
  Si0+  Si98  1  0.92814063  0.31856268  0.31674051  1
  Si0+  Si99  1  0.82349386  0.57012953  0.01325443  1
  Si0+  Si100  1  0.32196906  0.56905151  0.01727648  1
  Si0+  Si101  1  0.31911475  0.57221024  0.34691402  1
  Si0+  Si102  1  0.17951021  0.42900897  0.01717459  1
  Si0+  Si103  1  0.67709348  0.42852843  0.68391051  1
  Si0+  Si104  1  0.17918555  0.92478923  0.35039862  1
  Si0+  Si105  1  0.56946145  0.18082953  0.65252789  1
  Si0+  Si106  1  0.67707725  0.43141632  0.01267810  1
  Si0+  Si107  1  0.42829574  0.32079914  0.65028506  1
  Si0+  Si108  1  0.93258142  0.81729959  0.98832482  1
  Si0+  Si109  1  0.32058485  0.07563541  0.01567029  1
  Si0+  Si110  1  0.57038090  0.18135710  0.31845375  1
  Si0+  Si111  1  0.07396526  0.67551052  0.98581894  1
  Si0+  Si112  1  0.57407276  0.17762969  0.98272317  1
  Si0+  Si113  1  0.92654510  0.32364536  0.98505607  1
  Si0+  Si114  1  0.82067591  0.56895204  0.68223153  1
  Si0+  Si115  1  0.17883310  0.92813327  0.67960989  1
  Si0+  Si116  1  0.42726896  0.32235771  0.32040331  1
  Si0+  Si117  1  0.57164959  0.67615362  0.31712806  1
  Si0+  Si118  1  0.17945830  0.42831460  0.34669350  1
  Si0+  Si119  1  0.42616223  0.82406679  0.98387265  1
  O2-  O120  1  0.25784867  0.00146203  0.05968136  1
  O2-  O121  1  0.24607303  -0.00501623  0.39380199  1
  O2-  O122  1  0.24504754  -0.00149257  0.72556079  1
  O2-  O123  1  0.24900817  0.50046119  0.06155779  1
  O2-  O124  1  0.24621120  0.50304028  0.38819853  1
  O2-  O125  1  0.24728981  0.50412677  0.73387286  1
  O2-  O126  1  0.74456451  0.00454514  0.06385090  1
  O2-  O127  1  0.75561190  -0.00500620  0.39780402  1
  O2-  O128  1  0.75850755  -0.00708110  0.73151808  1
  O2-  O129  1  0.75136450  0.49917398  0.05415051  1
  O2-  O130  1  0.74727193  0.50165024  0.39929488  1
  O2-  O131  1  0.74710822  0.50065188  0.72570781  1
  O2-  O132  1  -0.00449531  0.24360860  0.27462857  1
  O2-  O133  1  -0.00340150  0.24649312  0.59937334  1
  O2-  O134  1  -0.01146009  0.24887720  0.94274004  1
  O2-  O135  1  -0.00520111  0.75246661  0.26934348  1
  O2-  O136  1  0.00061814  0.75047758  0.60321660  1
  O2-  O137  1  0.00386660  0.74676441  0.94482362  1
  O2-  O138  1  0.50042536  0.25464946  0.27670349  1
  O2-  O139  1  0.49693604  0.24908145  0.60686731  1
  O2-  O140  1  0.50157258  0.24305546  0.93854726  1
  O2-  O141  1  0.50884776  0.74990195  0.27201665  1
  O2-  O142  1  0.50409828  0.75322301  0.60122335  1
  O2-  O143  1  0.50193196  0.76232357  0.94234936  1
  O2-  O144  1  0.06934376  0.18129345  0.10083858  1
  O2-  O145  1  0.07980462  0.18442476  0.42061424  1
  O2-  O146  1  0.07317012  0.17995089  0.76288612  1
  O2-  O147  1  0.07170056  0.67310272  0.09103573  1
  O2-  O148  1  0.07095630  0.67810478  0.43047400  1
  O2-  O149  1  0.06870613  0.68148481  0.76930591  1
  O2-  O150  1  0.57462509  0.18183554  0.08869633  1
  O2-  O151  1  0.56821368  0.18181744  0.42342473  1
  O2-  O152  1  0.56820535  0.18565208  0.75772325  1
  O2-  O153  1  0.56920139  0.67804017  0.10141737  1
  O2-  O154  1  0.56480951  0.66954300  0.42140520  1
  O2-  O155  1  0.56967255  0.67615186  0.76338578  1
  O2-  O156  1  0.18266554  0.42680012  0.24086112  1
  O2-  O157  1  0.18018146  0.43082202  0.56963343  1
  O2-  O158  1  0.17788857  0.43102944  0.91320374  1
  O2-  O159  1  0.18065592  0.92632411  0.24414625  1
  O2-  O160  1  0.18163946  0.92682469  0.57417864  1
  O2-  O161  1  0.18034831  0.92572049  0.90060797  1
  O2-  O162  1  0.67548023  0.43077319  0.23369993  1
  O2-  O163  1  0.67541252  0.42809885  0.57908171  1
  O2-  O164  1  0.67605077  0.43134091  0.90782919  1
  O2-  O165  1  0.67761546  0.93338416  0.23508053  1
  O2-  O166  1  0.67740543  0.93188972  0.56959603  1
  O2-  O167  1  0.68344207  0.92291225  0.90264131  1
  O2-  O168  1  0.43121947  0.32151989  0.09932938  1
  O2-  O169  1  0.42536204  0.32120624  0.42494786  1
  O2-  O170  1  0.43085398  0.32092866  0.75566354  1
  O2-  O171  1  0.42276395  0.81969295  0.08967948  1
  O2-  O172  1  0.42884001  0.82262653  0.42975348  1
  O2-  O173  1  0.43132436  0.82306589  0.76717800  1
  O2-  O174  1  0.92974596  0.32900830  0.09081475  1
  O2-  O175  1  0.93039564  0.32136457  0.42097814  1
  O2-  O176  1  0.92653167  0.31946539  0.76437556  1
  O2-  O177  1  0.93294426  0.81394879  0.09334304  1
  O2-  O178  1  0.93033048  0.82324671  0.41925276  1
  O2-  O179  1  0.92931820  0.82070993  0.76619530  1
  O2-  O180  1  0.31456441  0.07473499  0.23136296  1
  O2-  O181  1  0.32226150  0.07189906  0.56793061  1
  O2-  O182  1  0.31775333  0.07726817  0.91051247  1
  O2-  O183  1  0.32053537  0.56840809  0.24115166  1
  O2-  O184  1  0.32131951  0.57066639  0.56917910  1
  O2-  O185  1  0.32069933  0.56885324  0.91303515  1
  O2-  O186  1  0.82085471  0.07231579  0.23569589  1
  O2-  O187  1  0.81650292  0.07282966  0.56832332  1
  O2-  O188  1  0.82323279  0.06888963  0.90108450  1
  O2-  O189  1  0.82293015  0.56532525  0.23491942  1
  O2-  O190  1  0.82259536  0.56570110  0.57775354  1
  O2-  O191  1  0.82608641  0.56962401  0.90847240  1
  O2-  O192  1  0.05221249  0.08399851  0.27196850  1
  O2-  O193  1  0.05390490  0.08004722  0.59323584  1
  O2-  O194  1  0.04281433  0.07872125  0.93506194  1
  O2-  O195  1  0.03925434  0.58036191  0.26284330  1
  O2-  O196  1  0.04295933  0.58059866  0.60395269  1
  O2-  O197  1  0.04640415  0.58334128  0.93937473  1
  O2-  O198  1  0.53944156  0.09246215  0.26792427  1
  O2-  O199  1  0.54235068  0.08863609  0.60742261  1
  O2-  O200  1  0.55220687  0.08247116  0.93875080  1
  O2-  O201  1  0.53923935  0.58438535  0.26805168  1
  O2-  O202  1  0.53888019  0.57868863  0.59722981  1
  O2-  O203  1  0.53739456  0.58839719  0.93214587  1
  O2-  O204  1  0.16160251  0.21483513  0.26610367  1
  O2-  O205  1  0.17002763  0.21512883  0.59712218  1
  O2-  O206  1  0.16165552  0.21296050  0.93207454  1
  O2-  O207  1  0.16500437  0.70763348  0.26029854  1
  O2-  O208  1  0.17058570  0.70506540  0.60254216  1
  O2-  O209  1  0.16762585  0.70145161  0.94249956  1
  O2-  O210  1  0.66213735  0.20953468  0.27050307  1
  O2-  O211  1  0.65924682  0.21211700  0.60422812  1
  O2-  O212  1  0.66583513  0.20900833  0.93630161  1
  O2-  O213  1  0.66916458  0.69399613  0.27613709  1
  O2-  O214  1  0.67234484  0.69391326  0.59814107  1
  O2-  O215  1  0.67095214  0.70613582  0.93536744  1
  O2-  O216  1  0.08748142  0.45563412  0.06657937  1
  O2-  O217  1  0.08602784  0.45118462  0.39062711  1
  O2-  O218  1  0.07733012  0.45468794  0.73720401  1
  O2-  O219  1  0.08703553  0.95848842  0.07176577  1
  O2-  O220  1  0.08450698  0.94698363  0.39366763  1
  O2-  O221  1  0.08436017  0.95227977  0.72414616  1
  O2-  O222  1  0.58610965  0.46234140  0.06030431  1
  O2-  O223  1  0.57693839  0.45580523  0.40194753  1
  O2-  O224  1  0.58512907  0.45542553  0.73153544  1
  O2-  O225  1  0.57574506  0.94882902  0.06403353  1
  O2-  O226  1  0.58128467  0.96529887  0.39987054  1
  O2-  O227  1  0.58594483  0.96129400  0.73878187  1
  O2-  O228  1  0.20946924  0.33729762  0.06404561  1
  O2-  O229  1  0.21141297  0.33928996  0.39561334  1
  O2-  O230  1  0.21016011  0.33454170  0.73822879  1
  O2-  O231  1  0.21071363  0.83073927  0.07047689  1
  O2-  O232  1  0.20641353  0.83052023  0.39258030  1
  O2-  O233  1  0.20567075  0.83605360  0.72820734  1
  O2-  O234  1  0.70053960  0.33940093  0.06223705  1
  O2-  O235  1  0.70334524  0.33207023  0.40094814  1
  O2-  O236  1  0.70554829  0.33790030  0.73299254  1
  O2-  O237  1  0.71219070  0.83020013  0.07070297  1
  O2-  O238  1  0.69583703  0.82744516  0.39838208  1
  O2-  O239  1  0.70421860  0.82411108  0.73058586  1
  O2-  O240  1  0.45257521  0.41502824  0.27232550  1
  O2-  O241  1  0.45779195  0.41191798  0.60336083  1
  O2-  O242  1  0.46322522  0.41481834  0.92914563  1
  O2-  O243  1  0.45868978  0.92054034  0.26221081  1
  O2-  O244  1  0.46025511  0.92379041  0.60236288  1
  O2-  O245  1  0.44046989  0.92175824  0.94270641  1
  O2-  O246  1  0.95970376  0.40792108  0.26578654  1
  O2-  O247  1  0.95729102  0.41669501  0.59660280  1
  O2-  O248  1  0.95917201  0.41467499  0.93679177  1
  O2-  O249  1  0.95469276  0.91582878  0.26723828  1
  O2-  O250  1  0.95500298  0.91956874  0.59561360  1
  O2-  O251  1  0.96169581  0.90864033  0.94233537  1
  O2-  O252  1  0.33685086  0.29147353  0.27042137  1
  O2-  O253  1  0.33566329  0.29585605  0.60475372  1
  O2-  O254  1  0.33297119  0.29352954  0.93047657  1
  O2-  O255  1  0.33653754  0.78845811  0.26057765  1
  O2-  O256  1  0.33403384  0.79576036  0.59904912  1
  O2-  O257  1  0.33537175  0.78948364  0.93734555  1
  O2-  O258  1  0.83379423  0.29564048  0.27109829  1
  O2-  O259  1  0.82604380  0.29554361  0.59808785  1
  O2-  O260  1  0.82968905  0.30818443  0.94224494  1
  O2-  O261  1  0.83201362  0.79649684  0.27000251  1
  O2-  O262  1  0.83150685  0.79155479  0.59792622  1
  O2-  O263  1  0.84173218  0.78830765  0.94025129  1
  O2-  O264  1  0.41709418  0.05856770  0.05946925  1
  O2-  O265  1  0.41551472  0.04455240  0.39656618  1
  O2-  O266  1  0.41661799  0.04336245  0.73929065  1
  O2-  O267  1  0.41293323  0.53646194  0.06389115  1
  O2-  O268  1  0.40904949  0.54331882  0.39560030  1
  O2-  O269  1  0.41811561  0.53858314  0.73698262  1
  O2-  O270  1  0.91785513  0.03860665  0.06849052  1
  O2-  O271  1  0.92559832  0.05011368  0.39792978  1
  O2-  O272  1  0.92659793  0.05083248  0.72611273  1
  O2-  O273  1  0.91475718  0.54115199  0.06253311  1
  O2-  O274  1  0.91998765  0.53465805  0.40104079  1
  O2-  O275  1  0.91058219  0.53818418  0.73195375  1
  O2-  O276  1  0.28951083  0.16820848  0.06175557  1
  O2-  O277  1  0.28672514  0.16707685  0.39970130  1
  O2-  O278  1  0.29194453  0.16876324  0.73446255  1
  O2-  O279  1  0.29654426  0.66067430  0.06645380  1
  O2-  O280  1  0.29135988  0.66472444  0.39082847  1
  O2-  O281  1  0.29648105  0.67265976  0.73679421  1
  O2-  O282  1  0.79774270  0.17314250  0.06538805  1
  O2-  O283  1  0.79237346  0.16874188  0.40086865  1
  O2-  O284  1  0.78843606  0.16820517  0.73455345  1
  O2-  O285  1  0.79634349  0.66054590  0.06287408  1
  O2-  O286  1  0.80392595  0.67005110  0.40075281  1
  O2-  O287  1  0.79582571  0.66133768  0.72965674  1
