# generated using pymatgen
data_Ca2Al2SiO7
_symmetry_space_group_name_H-M   'P 1'
_cell_length_a   15.45570151
_cell_length_b   15.45583724
_cell_length_c   15.28148252
_cell_angle_alpha   90.00397059
_cell_angle_beta   90.00417948
_cell_angle_gamma   90.00681508
_symmetry_Int_Tables_number   1
_chemical_formula_structural   Ca2Al2SiO7
_chemical_formula_sum   'Ca48 Al48 Si24 O168'
_cell_volume   3650.45282995
_cell_formula_units_Z   24
loop_
 _symmetry_equiv_pos_site_id
 _symmetry_equiv_pos_as_xyz
  1  'x, y, z'
loop_
 _atom_type_symbol
 _atom_type_oxidation_number
  Ca2+  2.0
  Al0+  0.0
  Si0+  0.0
  O2-  -2.0
loop_
 _atom_site_type_symbol
 _atom_site_label
 _atom_site_symmetry_multiplicity
 _atom_site_fract_x
 _atom_site_fract_y
 _atom_site_fract_z
 _atom_site_occupancy
  Ca2+  Ca0  1  0.17412384  0.08561486  0.17224496  1
  Ca2+  Ca1  1  0.17668307  0.07336432  0.50598157  1
  Ca2+  Ca2  1  0.17239115  0.08551248  0.83914329  1
  Ca2+  Ca3  1  0.17110462  0.58430756  0.17242852  1
  Ca2+  Ca4  1  0.17254711  0.58335004  0.50560925  1
  Ca2+  Ca5  1  0.15744548  0.57994475  0.83358720  1
  Ca2+  Ca6  1  0.67314812  0.08118311  0.16958110  1
  Ca2+  Ca7  1  0.66121381  0.06811099  0.50285154  1
  Ca2+  Ca8  1  0.67290941  0.07851659  0.83651916  1
  Ca2+  Ca9  1  0.67098917  0.57255624  0.17784439  1
  Ca2+  Ca10  1  0.66625528  0.57811244  0.50340014  1
  Ca2+  Ca11  1  0.66548609  0.57445965  0.83582695  1
  Ca2+  Ca12  1  0.06982057  0.32888071  0.15788670  1
  Ca2+  Ca13  1  0.07243971  0.34055848  0.49718493  1
  Ca2+  Ca14  1  0.07281011  0.32950626  0.82611420  1
  Ca2+  Ca15  1  0.08843881  0.82839360  0.16313653  1
  Ca2+  Ca16  1  0.09210467  0.83254581  0.49776016  1
  Ca2+  Ca17  1  0.08799984  0.82403114  0.82703984  1
  Ca2+  Ca18  1  0.58010126  0.33862237  0.16100642  1
  Ca2+  Ca19  1  0.58780314  0.33346440  0.49558576  1
  Ca2+  Ca20  1  0.57917172  0.33878592  0.83061620  1
  Ca2+  Ca21  1  0.58230631  0.83235674  0.17048375  1
  Ca2+  Ca22  1  0.58353943  0.82560865  0.48918311  1
  Ca2+  Ca23  1  0.58445159  0.82811978  0.82260178  1
  Ca2+  Ca24  1  0.33360027  0.42121504  0.17188012  1
  Ca2+  Ca25  1  0.32788797  0.42440946  0.50466745  1
  Ca2+  Ca26  1  0.32648833  0.41405392  0.83691317  1
  Ca2+  Ca27  1  0.32889041  0.92608871  0.17788086  1
  Ca2+  Ca28  1  0.33079241  0.92133879  0.50230380  1
  Ca2+  Ca29  1  0.32992153  0.92825172  0.83468584  1
  Ca2+  Ca30  1  0.82734581  0.41540517  0.17342943  1
  Ca2+  Ca31  1  0.82805788  0.41724364  0.50191569  1
  Ca2+  Ca32  1  0.82419729  0.40525982  0.83648678  1
  Ca2+  Ca33  1  0.83242274  0.92456648  0.17183706  1
  Ca2+  Ca34  1  0.82064481  0.91098415  0.50302108  1
  Ca2+  Ca35  1  0.82760133  0.91841926  0.83714320  1
  Ca2+  Ca36  1  0.41483349  0.16906309  0.15993487  1
  Ca2+  Ca37  1  0.41261392  0.16311765  0.49699463  1
  Ca2+  Ca38  1  0.41009085  0.16864742  0.83343497  1
  Ca2+  Ca39  1  0.41779300  0.67052221  0.16941183  1
  Ca2+  Ca40  1  0.42763626  0.66953275  0.48945144  1
  Ca2+  Ca41  1  0.42515653  0.66989335  0.82494062  1
  Ca2+  Ca42  1  0.91854209  0.17455997  0.15665508  1
  Ca2+  Ca43  1  0.91398347  0.18022606  0.49421652  1
  Ca2+  Ca44  1  0.91487059  0.17230311  0.83270247  1
  Ca2+  Ca45  1  0.91987545  0.66549511  0.16425479  1
  Ca2+  Ca46  1  0.92184918  0.66234356  0.49695973  1
  Ca2+  Ca47  1  0.92784911  0.66454579  0.82856406  1
  Al0+  Al48  1  -0.00101480  -0.00156314  0.00026325  1
  Al0+  Al49  1  0.00200813  0.00042286  0.33724200  1
  Al0+  Al50  1  0.00043148  0.00016134  0.66841259  1
  Al0+  Al51  1  -0.00175808  0.50031746  -0.00706961  1
  Al0+  Al52  1  -0.00228970  0.49970401  0.32953976  1
  Al0+  Al53  1  0.00058350  0.50125368  0.66128217  1
  Al0+  Al54  1  0.49788731  -0.00062123  0.00291074  1
  Al0+  Al55  1  0.50084377  0.00072035  0.33434731  1
  Al0+  Al56  1  0.50063739  0.00125869  0.67635086  1
  Al0+  Al57  1  0.49933300  0.50003690  -0.00069526  1
  Al0+  Al58  1  0.50015458  0.49926098  0.33679428  1
  Al0+  Al59  1  0.50075487  0.49989571  0.66568586  1
  Al0+  Al60  1  0.24942387  0.25117079  -0.00183748  1
  Al0+  Al61  1  0.24919046  0.24993895  0.33717074  1
  Al0+  Al62  1  0.24917816  0.25231657  0.67166282  1
  Al0+  Al63  1  0.25172769  0.74994792  -0.00590206  1
  Al0+  Al64  1  0.25235053  0.74985071  0.33588374  1
  Al0+  Al65  1  0.25242588  0.75204690  0.66611605  1
  Al0+  Al66  1  0.74710494  0.24701746  0.00491641  1
  Al0+  Al67  1  0.74924004  0.25088895  0.33096539  1
  Al0+  Al68  1  0.74814775  0.25070597  0.66463756  1
  Al0+  Al69  1  0.74939167  0.74763500  -0.00011941  1
  Al0+  Al70  1  0.75307115  0.74841667  0.33377529  1
  Al0+  Al71  1  0.75153198  0.74793399  0.66831688  1
  Al0+  Al72  1  0.67886162  0.42815698  0.34956343  1
  Al0+  Al73  1  0.82324977  0.57114490  0.34864112  1
  Al0+  Al74  1  0.92562150  0.31978384  0.98363912  1
  Al0+  Al75  1  0.92862594  0.32083542  0.31709560  1
  Al0+  Al76  1  0.92814035  0.31890080  0.65073345  1
  Al0+  Al77  1  0.17839904  0.92801600  0.34768386  1
  Al0+  Al78  1  0.07164079  0.68049541  0.98682821  1
  Al0+  Al79  1  0.68139079  0.92992287  0.34466858  1
  Al0+  Al80  1  0.32066700  0.07202927  0.68496002  1
  Al0+  Al81  1  0.82085840  0.06878704  0.01343460  1
  Al0+  Al82  1  0.07201947  0.68122702  0.65022233  1
  Al0+  Al83  1  0.67843290  0.42992701  0.01379960  1
  Al0+  Al84  1  0.07120121  0.17761654  0.98494807  1
  Al0+  Al85  1  0.42947082  0.82182680  0.31776991  1
  Al0+  Al86  1  0.67940567  0.42905503  0.68178061  1
  Al0+  Al87  1  0.57191599  0.67829323  0.65240454  1
  Al0+  Al88  1  0.17768508  0.92747042  0.68444832  1
  Al0+  Al89  1  0.32207477  0.07333396  0.34830735  1
  Al0+  Al90  1  0.32116463  0.57065223  0.34601347  1
  Al0+  Al91  1  0.17768660  0.43238957  0.68043758  1
  Al0+  Al92  1  0.31866340  0.07232146  0.01634722  1
  Al0+  Al93  1  0.68059054  0.92685977  0.68039749  1
  Al0+  Al94  1  0.43003378  0.32201637  0.98681393  1
  Al0+  Al95  1  0.57353828  0.67706414  0.31645016  1
  Si0+  Si96  1  0.17930153  0.92560796  0.01599501  1
  Si0+  Si97  1  0.82309464  0.57235236  0.01590013  1
  Si0+  Si98  1  0.07170905  0.67985563  0.31902062  1
  Si0+  Si99  1  0.56980801  0.17924197  0.65256703  1
  Si0+  Si100  1  0.57028813  0.17549180  0.98327051  1
  Si0+  Si101  1  0.67707029  0.92464068  0.01743426  1
  Si0+  Si102  1  0.17703194  0.43064432  0.01403819  1
  Si0+  Si103  1  0.92802311  0.82357175  0.64984272  1
  Si0+  Si104  1  0.57062618  0.67902239  0.98503409  1
  Si0+  Si105  1  0.92912791  0.82317109  0.31894053  1
  Si0+  Si106  1  0.42722466  0.32071205  0.32076630  1
  Si0+  Si107  1  0.82091158  0.07331400  0.68067981  1
  Si0+  Si108  1  0.07413342  0.17754752  0.64858665  1
  Si0+  Si109  1  0.42993345  0.82194157  0.98332680  1
  Si0+  Si110  1  0.32293200  0.57155322  0.68377838  1
  Si0+  Si111  1  0.32077899  0.57179666  0.01353650  1
  Si0+  Si112  1  0.43144019  0.82420788  0.65050466  1
  Si0+  Si113  1  0.07208101  0.17770386  0.31828360  1
  Si0+  Si114  1  0.17714300  0.42890078  0.34738987  1
  Si0+  Si115  1  0.82316478  0.57097703  0.68493260  1
  Si0+  Si116  1  0.92553343  0.82185724  0.98391656  1
  Si0+  Si117  1  0.82303371  0.07298724  0.35007234  1
  Si0+  Si118  1  0.57040475  0.17855715  0.31826322  1
  Si0+  Si119  1  0.42752839  0.32105229  0.65099794  1
  O2-  O120  1  0.24223082  -0.00131604  0.06134039  1
  O2-  O121  1  0.25118198  -0.00025172  0.39617360  1
  O2-  O122  1  0.24561380  0.00288833  0.73471133  1
  O2-  O123  1  0.24784566  0.50245271  0.05593102  1
  O2-  O124  1  0.24599095  0.49668357  0.39234728  1
  O2-  O125  1  0.25132700  0.50722861  0.72992328  1
  O2-  O126  1  0.74722283  -0.00757787  0.06000547  1
  O2-  O127  1  0.75627320  0.00289152  0.39451850  1
  O2-  O128  1  0.75765119  -0.00041306  0.72563615  1
  O2-  O129  1  0.75600465  0.50204502  0.05920495  1
  O2-  O130  1  0.74940066  0.50159364  0.39903556  1
  O2-  O131  1  0.75450290  0.50253617  0.72958814  1
  O2-  O132  1  0.00243080  0.24436129  0.27252558  1
  O2-  O133  1  0.00363956  0.24431878  0.60374852  1
  O2-  O134  1  -0.00153223  0.24844364  0.93376929  1
  O2-  O135  1  0.00195077  0.75285901  0.27752120  1
  O2-  O136  1  0.00034291  0.75930996  0.60426664  1
  O2-  O137  1  -0.00394850  0.75475740  0.94053669  1
  O2-  O138  1  0.49807468  0.24963257  0.27823317  1
  O2-  O139  1  0.49717568  0.24842668  0.60961909  1
  O2-  O140  1  0.50272831  0.24549255  0.93909789  1
  O2-  O141  1  0.50173680  0.74993366  0.26620589  1
  O2-  O142  1  0.49989185  0.75551139  0.60638741  1
  O2-  O143  1  0.50415742  0.75380036  0.94173953  1
  O2-  O144  1  0.07099192  0.18110995  0.09894433  1
  O2-  O145  1  0.07124613  0.17907432  0.42370469  1
  O2-  O146  1  0.07351648  0.17979717  0.75418327  1
  O2-  O147  1  0.07369751  0.68184330  0.10034418  1
  O2-  O148  1  0.07121724  0.67895151  0.42382652  1
  O2-  O149  1  0.06852301  0.68058881  0.76355493  1
  O2-  O150  1  0.56894884  0.17417436  0.08903348  1
  O2-  O151  1  0.57183451  0.17768188  0.42364488  1
  O2-  O152  1  0.57181386  0.18026947  0.75765956  1
  O2-  O153  1  0.56962503  0.67862624  0.08959309  1
  O2-  O154  1  0.57186590  0.67838941  0.43004272  1
  O2-  O155  1  0.56887688  0.67880497  0.76658363  1
  O2-  O156  1  0.17871026  0.42949072  0.24132790  1
  O2-  O157  1  0.18035616  0.43374324  0.56702923  1
  O2-  O158  1  0.17783372  0.43227583  0.90893356  1
  O2-  O159  1  0.17760680  0.92854221  0.23366508  1
  O2-  O160  1  0.18121522  0.92778207  0.57123083  1
  O2-  O161  1  0.18375612  0.92273404  0.91080822  1
  O2-  O162  1  0.67910556  0.42768010  0.23572245  1
  O2-  O163  1  0.67950164  0.42813323  0.56939957  1
  O2-  O164  1  0.67660286  0.43301383  0.90052412  1
  O2-  O165  1  0.68359725  0.93326623  0.23142306  1
  O2-  O166  1  0.67909654  0.92801895  0.56739635  1
  O2-  O167  1  0.67780838  0.92346147  0.91162662  1
  O2-  O168  1  0.43133016  0.32393624  0.10024773  1
  O2-  O169  1  0.42612987  0.31979677  0.42598216  1
  O2-  O170  1  0.42888937  0.32250745  0.75627082  1
  O2-  O171  1  0.42777574  0.82092571  0.08803991  1
  O2-  O172  1  0.43143497  0.82113579  0.43125035  1
  O2-  O173  1  0.43365542  0.82186082  0.75697964  1
  O2-  O174  1  0.92826405  0.32021730  0.09730163  1
  O2-  O175  1  0.92991098  0.32061934  0.43040544  1
  O2-  O176  1  0.92630267  0.31543426  0.76359303  1
  O2-  O177  1  0.92367686  0.82056404  0.08965893  1
  O2-  O178  1  0.92779939  0.82368298  0.42372513  1
  O2-  O179  1  0.92580437  0.82079438  0.75562548  1
  O2-  O180  1  0.31946620  0.07587769  0.23456178  1
  O2-  O181  1  0.32251271  0.07044390  0.57161791  1
  O2-  O182  1  0.31992857  0.06954953  0.90373777  1
  O2-  O183  1  0.31823944  0.56911838  0.23206895  1
  O2-  O184  1  0.32318884  0.56786645  0.57826045  1
  O2-  O185  1  0.32233965  0.57156940  0.90851569  1
  O2-  O186  1  0.82220178  0.07128647  0.24424474  1
  O2-  O187  1  0.81670667  0.07418791  0.57514992  1
  O2-  O188  1  0.81723949  0.06713773  0.90007532  1
  O2-  O189  1  0.82551844  0.56894134  0.23461361  1
  O2-  O190  1  0.82266828  0.57131433  0.57956831  1
  O2-  O191  1  0.82100531  0.57684101  0.91056898  1
  O2-  O192  1  0.04941814  0.08287769  0.27274043  1
  O2-  O193  1  0.05132817  0.08211884  0.60485384  1
  O2-  O194  1  0.04544890  0.07730566  0.93406724  1
  O2-  O195  1  0.04266445  0.58920313  0.26952418  1
  O2-  O196  1  0.03953675  0.58611929  0.59469930  1
  O2-  O197  1  0.04042679  0.58520857  0.93041315  1
  O2-  O198  1  0.54420166  0.08774011  0.26848958  1
  O2-  O199  1  0.54208917  0.08608411  0.60719882  1
  O2-  O200  1  0.54404107  0.08174768  0.93682233  1
  O2-  O201  1  0.54132126  0.57829981  0.26548331  1
  O2-  O202  1  0.53839246  0.58259547  0.59844912  1
  O2-  O203  1  0.53750333  0.58972338  0.93610553  1
  O2-  O204  1  0.16564862  0.20557131  0.27237096  1
  O2-  O205  1  0.16754967  0.20626103  0.60396178  1
  O2-  O206  1  0.16848963  0.20837875  0.93173744  1
  O2-  O207  1  0.16379485  0.70618522  0.27141235  1
  O2-  O208  1  0.17131365  0.70815385  0.59897840  1
  O2-  O209  1  0.16782750  0.70955168  0.93020223  1
  O2-  O210  1  0.66135787  0.20693265  0.26896625  1
  O2-  O211  1  0.65953942  0.20791739  0.60206441  1
  O2-  O212  1  0.66420266  0.19961991  0.93812873  1
  O2-  O213  1  0.67293381  0.70527308  0.26468077  1
  O2-  O214  1  0.67055197  0.70545190  0.60178735  1
  O2-  O215  1  0.66398418  0.70237012  0.93760365  1
  O2-  O216  1  0.08477938  0.45931084  0.06023758  1
  O2-  O217  1  0.08420263  0.45658348  0.39215439  1
  O2-  O218  1  0.08114862  0.46386861  0.73383852  1
  O2-  O219  1  0.08222701  0.94224894  0.05773018  1
  O2-  O220  1  0.08027911  0.95460323  0.40317018  1
  O2-  O221  1  0.07602418  0.94871608  0.73460779  1
  O2-  O222  1  0.58249726  0.46458162  0.06749581  1
  O2-  O223  1  0.57974204  0.45246571  0.40196364  1
  O2-  O224  1  0.58213896  0.46065360  0.73476357  1
  O2-  O225  1  0.58388611  0.95188598  0.06263792  1
  O2-  O226  1  0.58619263  0.96205247  0.39958150  1
  O2-  O227  1  0.58700353  0.96012841  0.73820045  1
  O2-  O228  1  0.20596665  0.33990583  0.06183005  1
  O2-  O229  1  0.20155949  0.33624824  0.39524064  1
  O2-  O230  1  0.20868399  0.33696753  0.73574890  1
  O2-  O231  1  0.21155484  0.83340251  0.06229049  1
  O2-  O232  1  0.20653379  0.83007597  0.40038986  1
  O2-  O233  1  0.21030217  0.82957691  0.73719041  1
  O2-  O234  1  0.70188429  0.33125182  0.06637591  1
  O2-  O235  1  0.70806601  0.32907502  0.40104344  1
  O2-  O236  1  0.70870375  0.33132644  0.73479312  1
  O2-  O237  1  0.70151633  0.83033505  0.06270032  1
  O2-  O238  1  0.71219104  0.83356603  0.39793409  1
  O2-  O239  1  0.71116873  0.83073733  0.73606662  1
  O2-  O240  1  0.45468276  0.41222199  0.27276047  1
  O2-  O241  1  0.45708680  0.41204287  0.60329430  1
  O2-  O242  1  0.46141197  0.41775173  0.93040674  1
  O2-  O243  1  0.45899964  0.92058214  0.26472061  1
  O2-  O244  1  0.45776795  0.91891825  0.60827334  1
  O2-  O245  1  0.45638338  0.91430941  0.93622083  1
  O2-  O246  1  0.96089326  0.41648191  0.26155291  1
  O2-  O247  1  0.96014216  0.41550659  0.59786963  1
  O2-  O248  1  0.95166701  0.41868820  0.93085427  1
  O2-  O249  1  0.95615052  0.91586718  0.27145655  1
  O2-  O250  1  0.94598725  0.91964313  0.60539149  1
  O2-  O251  1  0.94759228  0.91560905  0.93744137  1
  O2-  O252  1  0.33463066  0.29478154  0.27270616  1
  O2-  O253  1  0.33486030  0.29546780  0.60422996  1
  O2-  O254  1  0.33309540  0.29368955  0.93267298  1
  O2-  O255  1  0.33138150  0.79058288  0.26418306  1
  O2-  O256  1  0.33755037  0.79991646  0.60564804  1
  O2-  O257  1  0.34081787  0.79051664  0.93288318  1
  O2-  O258  1  0.83172806  0.28982678  0.26381028  1
  O2-  O259  1  0.83163735  0.28677801  0.59638175  1
  O2-  O260  1  0.82650632  0.28738105  0.93405514  1
  O2-  O261  1  0.83949938  0.79457574  0.26797032  1
  O2-  O262  1  0.83608840  0.79238108  0.60307206  1
  O2-  O263  1  0.83223374  0.79462169  0.93637448  1
  O2-  O264  1  0.41614496  0.04076123  0.06876389  1
  O2-  O265  1  0.42112170  0.04726263  0.39991146  1
  O2-  O266  1  0.41792963  0.04288459  0.74087385  1
  O2-  O267  1  0.41103304  0.54172689  0.06210450  1
  O2-  O268  1  0.41560226  0.53883899  0.40207140  1
  O2-  O269  1  0.41466868  0.54132017  0.73116326  1
  O2-  O270  1  0.91739165  0.03924546  0.06935232  1
  O2-  O271  1  0.91704413  0.05085848  0.39578516  1
  O2-  O272  1  0.91651818  0.05476997  0.72508573  1
  O2-  O273  1  0.91816219  0.54916360  0.06023150  1
  O2-  O274  1  0.92125383  0.54054949  0.40175623  1
  O2-  O275  1  0.91716141  0.54513836  0.72903033  1
  O2-  O276  1  0.29077418  0.17088830  0.06839569  1
  O2-  O277  1  0.29300061  0.17088746  0.40362957  1
  O2-  O278  1  0.29499205  0.17192257  0.73607463  1
  O2-  O279  1  0.29353825  0.66434817  0.06001891  1
  O2-  O280  1  0.29141256  0.66561588  0.40188481  1
  O2-  O281  1  0.30319330  0.66739827  0.72689461  1
  O2-  O282  1  0.78702958  0.16262267  0.07103026  1
  O2-  O283  1  0.79379628  0.16559646  0.39461608  1
  O2-  O284  1  0.78729097  0.16321307  0.72904332  1
  O2-  O285  1  0.79678823  0.66572874  0.06337509  1
  O2-  O286  1  0.80157031  0.67100610  0.40074402  1
  O2-  O287  1  0.79849140  0.66423684  0.73245470  1
