# generated using pymatgen
data_Ca2Al2SiO7
_symmetry_space_group_name_H-M   'P 1'
_cell_length_a   15.45991323
_cell_length_b   15.45965742
_cell_length_c   15.28596764
_cell_angle_alpha   90.00032337
_cell_angle_beta   89.99828143
_cell_angle_gamma   89.99486576
_symmetry_Int_Tables_number   1
_chemical_formula_structural   Ca2Al2SiO7
_chemical_formula_sum   'Ca48 Al48 Si24 O168'
_cell_volume   3653.42209968
_cell_formula_units_Z   24
loop_
 _symmetry_equiv_pos_site_id
 _symmetry_equiv_pos_as_xyz
  1  'x, y, z'
loop_
 _atom_type_symbol
 _atom_type_oxidation_number
  Ca2+  2.0
  Al0+  0.0
  Si0+  0.0
  O2-  -2.0
loop_
 _atom_site_type_symbol
 _atom_site_label
 _atom_site_symmetry_multiplicity
 _atom_site_fract_x
 _atom_site_fract_y
 _atom_site_fract_z
 _atom_site_occupancy
  Ca2+  Ca0  1  0.16973575  0.07334830  0.16153127  1
  Ca2+  Ca1  1  0.17232967  0.08468647  0.51250764  1
  Ca2+  Ca2  1  0.17394186  0.08435182  0.84008137  1
  Ca2+  Ca3  1  0.16126825  0.58378108  0.16571376  1
  Ca2+  Ca4  1  0.16172156  0.58142130  0.50639766  1
  Ca2+  Ca5  1  0.15994149  0.57563895  0.84124776  1
  Ca2+  Ca6  1  0.66892997  0.07266474  0.16729542  1
  Ca2+  Ca7  1  0.66850920  0.08062640  0.50304854  1
  Ca2+  Ca8  1  0.68089606  0.07761918  0.84096717  1
  Ca2+  Ca9  1  0.67514787  0.59512921  0.16272497  1
  Ca2+  Ca10  1  0.66957225  0.58071074  0.50553816  1
  Ca2+  Ca11  1  0.67289404  0.58281575  0.84444379  1
  Ca2+  Ca12  1  0.07972765  0.33158698  0.15663122  1
  Ca2+  Ca13  1  0.08397653  0.32895912  0.50712903  1
  Ca2+  Ca14  1  0.07786941  0.33352777  0.82721893  1
  Ca2+  Ca15  1  0.08136363  0.82362967  0.15362552  1
  Ca2+  Ca16  1  0.07955641  0.82533457  0.49715584  1
  Ca2+  Ca17  1  0.07930965  0.82910985  0.83099955  1
  Ca2+  Ca18  1  0.58606087  0.32298862  0.16175459  1
  Ca2+  Ca19  1  0.57581862  0.32518585  0.49640215  1
  Ca2+  Ca20  1  0.57308848  0.33224016  0.82791261  1
  Ca2+  Ca21  1  0.57632703  0.83852065  0.15709479  1
  Ca2+  Ca22  1  0.57682736  0.83884504  0.49337876  1
  Ca2+  Ca23  1  0.58362730  0.83358168  0.84000592  1
  Ca2+  Ca24  1  0.32885205  0.42555459  0.16242625  1
  Ca2+  Ca25  1  0.32660764  0.41762617  0.51258039  1
  Ca2+  Ca26  1  0.32019394  0.41846592  0.84084734  1
  Ca2+  Ca27  1  0.33398850  0.91066970  0.16390684  1
  Ca2+  Ca28  1  0.33401722  0.92188354  0.50464666  1
  Ca2+  Ca29  1  0.32690598  0.92523060  0.84364271  1
  Ca2+  Ca30  1  0.83949185  0.42297709  0.16211425  1
  Ca2+  Ca31  1  0.83401077  0.41516776  0.50604229  1
  Ca2+  Ca32  1  0.84109069  0.42058552  0.84166693  1
  Ca2+  Ca33  1  0.82175513  0.90733566  0.16525580  1
  Ca2+  Ca34  1  0.82688826  0.91822368  0.50920164  1
  Ca2+  Ca35  1  0.83863237  0.92260395  0.84326421  1
  Ca2+  Ca36  1  0.42292397  0.15985181  0.16176334  1
  Ca2+  Ca37  1  0.41613232  0.17015437  0.49825924  1
  Ca2+  Ca38  1  0.41100250  0.16723415  0.82728020  1
  Ca2+  Ca39  1  0.42196643  0.67720466  0.15381568  1
  Ca2+  Ca40  1  0.41745832  0.67542472  0.49282580  1
  Ca2+  Ca41  1  0.41526139  0.66747829  0.83805768  1
  Ca2+  Ca42  1  0.91212195  0.17385157  0.15651237  1
  Ca2+  Ca43  1  0.91682816  0.16616723  0.50503910  1
  Ca2+  Ca44  1  0.91789177  0.17246840  0.82564894  1
  Ca2+  Ca45  1  0.92526860  0.66989289  0.15388646  1
  Ca2+  Ca46  1  0.92821230  0.66903466  0.50137125  1
  Ca2+  Ca47  1  0.92331893  0.67624213  0.83293606  1
  Al0+  Al48  1  0.00335242  0.00273974  0.00666029  1
  Al0+  Al49  1  0.00007297  0.00087082  0.33368407  1
  Al0+  Al50  1  -0.00135283  -0.00047985  0.66140007  1
  Al0+  Al51  1  -0.00176263  0.49812261  0.00207991  1
  Al0+  Al52  1  0.00050277  0.49908510  0.33269817  1
  Al0+  Al53  1  -0.00108213  0.50008860  0.66229004  1
  Al0+  Al54  1  0.50243048  0.00049746  -0.00057949  1
  Al0+  Al55  1  0.50071722  0.00184505  0.33096085  1
  Al0+  Al56  1  0.50061139  -0.00114308  0.67155493  1
  Al0+  Al57  1  0.49895724  0.49754936  0.00135084  1
  Al0+  Al58  1  0.49959387  0.50042002  0.33472801  1
  Al0+  Al59  1  0.49993554  0.49983517  0.66146416  1
  Al0+  Al60  1  0.25097178  0.25056213  0.01131544  1
  Al0+  Al61  1  0.24826988  0.25189789  0.33255996  1
  Al0+  Al62  1  0.24966821  0.25245900  0.66626204  1
  Al0+  Al63  1  0.25214944  0.74935772  -0.00328294  1
  Al0+  Al64  1  0.24995789  0.74955333  0.32787486  1
  Al0+  Al65  1  0.25252462  0.75001284  0.66235432  1
  Al0+  Al66  1  0.74949831  0.24997997  -0.00197724  1
  Al0+  Al67  1  0.74912508  0.25100055  0.33050561  1
  Al0+  Al68  1  0.74780521  0.24865017  0.66657510  1
  Al0+  Al69  1  0.75018137  0.74952522  0.00046668  1
  Al0+  Al70  1  0.75043508  0.75008492  0.34346485  1
  Al0+  Al71  1  0.74846310  0.74812324  0.66260186  1
  Al0+  Al72  1  0.07166285  0.17884683  0.65398265  1
  Al0+  Al73  1  0.92942572  0.82378598  0.98788624  1
  Al0+  Al74  1  0.32275866  0.07132290  0.01628534  1
  Al0+  Al75  1  0.32272613  0.57139012  0.01460761  1
  Al0+  Al76  1  0.07227420  0.67771814  0.98460563  1
  Al0+  Al77  1  0.67900551  0.93054435  0.34907312  1
  Al0+  Al78  1  0.17913466  0.92700889  0.01341785  1
  Al0+  Al79  1  0.07219809  0.67946613  0.65187668  1
  Al0+  Al80  1  0.81971705  0.57020679  0.01177963  1
  Al0+  Al81  1  0.42827047  0.32082253  0.65429306  1
  Al0+  Al82  1  0.42912891  0.82302414  0.98164077  1
  Al0+  Al83  1  0.92906265  0.31878315  0.98680841  1
  Al0+  Al84  1  0.56972291  0.18132834  0.31893039  1
  Al0+  Al85  1  0.82096819  0.07005510  0.67994680  1
  Al0+  Al86  1  0.57137672  0.67720675  0.98552838  1
  Al0+  Al87  1  0.92677668  0.82243857  0.65085943  1
  Al0+  Al88  1  0.68234073  0.92894337  0.01412340  1
  Al0+  Al89  1  0.32011211  0.07076285  0.67851744  1
  Al0+  Al90  1  0.92646535  0.32124533  0.65106705  1
  Al0+  Al91  1  0.82401571  0.07371555  0.01502601  1
  Al0+  Al92  1  0.17891344  0.43230566  0.67961122  1
  Al0+  Al93  1  0.43122718  0.82082851  0.31984702  1
  Al0+  Al94  1  0.17711155  0.43055207  0.01664585  1
  Al0+  Al95  1  0.06852271  0.67947243  0.31778092  1
  Si0+  Si96  1  0.17856833  0.42943061  0.35162473  1
  Si0+  Si97  1  0.67667189  0.42858916  0.68045340  1
  Si0+  Si98  1  0.42570368  0.32381905  0.31496942  1
  Si0+  Si99  1  0.57102366  0.67777186  0.64982709  1
  Si0+  Si100  1  0.67780696  0.92543544  0.68497898  1
  Si0+  Si101  1  0.07510863  0.17930984  0.98609629  1
  Si0+  Si102  1  0.67846234  0.42742999  0.34922478  1
  Si0+  Si103  1  0.81902197  0.56931193  0.68090792  1
  Si0+  Si104  1  0.42836799  0.31938867  0.98627867  1
  Si0+  Si105  1  0.92654017  0.82291475  0.31768485  1
  Si0+  Si106  1  0.57110038  0.17875212  0.98243151  1
  Si0+  Si107  1  0.31930948  0.07139948  0.34881575  1
  Si0+  Si108  1  0.17793569  0.92583250  0.67994646  1
  Si0+  Si109  1  0.07325945  0.17768255  0.31722257  1
  Si0+  Si110  1  0.57051629  0.17680510  0.65106234  1
  Si0+  Si111  1  0.67604695  0.42698983  0.01628511  1
  Si0+  Si112  1  0.32074136  0.57169247  0.34905790  1
  Si0+  Si113  1  0.17884908  0.92747984  0.34905338  1
  Si0+  Si114  1  0.82229245  0.07506979  0.35120094  1
  Si0+  Si115  1  0.57391602  0.67611597  0.31866312  1
  Si0+  Si116  1  0.92977313  0.31908216  0.31816622  1
  Si0+  Si117  1  0.43095199  0.82196826  0.65133496  1
  Si0+  Si118  1  0.32480929  0.57412994  0.68185952  1
  Si0+  Si119  1  0.82187466  0.56933093  0.35072380  1
  O2-  O120  1  0.25446373  -0.00446407  0.06557578  1
  O2-  O121  1  0.24735452  0.00145652  0.39187811  1
  O2-  O122  1  0.24280062  -0.00141612  0.72304758  1
  O2-  O123  1  0.24567164  0.50606924  0.06713301  1
  O2-  O124  1  0.25154546  0.49938500  0.39260806  1
  O2-  O125  1  0.25245574  0.50906463  0.72411266  1
  O2-  O126  1  0.75682196  -0.00220516  0.06574166  1
  O2-  O127  1  0.75681326  0.00286233  0.39497138  1
  O2-  O128  1  0.75084477  -0.00930741  0.72578548  1
  O2-  O129  1  0.74243772  0.49795766  0.06036392  1
  O2-  O130  1  0.74712991  0.50072313  0.39202444  1
  O2-  O131  1  0.75016579  0.49586816  0.72284287  1
  O2-  O132  1  -0.00188945  0.24537738  0.27696317  1
  O2-  O133  1  -0.00277896  0.24780253  0.60110131  1
  O2-  O134  1  0.00275458  0.24337608  0.94165939  1
  O2-  O135  1  -0.00465842  0.75561792  0.27282785  1
  O2-  O136  1  0.00223893  0.75343297  0.60112356  1
  O2-  O137  1  0.00362130  0.75434434  0.93737171  1
  O2-  O138  1  0.49458089  0.25561955  0.27091422  1
  O2-  O139  1  0.50046827  0.24415883  0.60637695  1
  O2-  O140  1  0.49704295  0.24735872  0.94200729  1
  O2-  O141  1  0.50745890  0.74643241  0.27581875  1
  O2-  O142  1  0.50089228  0.74990310  0.60832200  1
  O2-  O143  1  0.49947040  0.74779618  0.93313627  1
  O2-  O144  1  0.07541710  0.18297093  0.09250742  1
  O2-  O145  1  0.07691131  0.17864923  0.42202957  1
  O2-  O146  1  0.07339786  0.18116344  0.76688244  1
  O2-  O147  1  0.06748538  0.67744948  0.09869224  1
  O2-  O148  1  0.06761210  0.67865772  0.43095687  1
  O2-  O149  1  0.07041445  0.67859292  0.76438298  1
  O2-  O150  1  0.57211339  0.18123013  0.08789907  1
  O2-  O151  1  0.56820924  0.18343382  0.43235771  1
  O2-  O152  1  0.57083365  0.17909175  0.75630217  1
  O2-  O153  1  0.57088040  0.67833720  0.09950819  1
  O2-  O154  1  0.57097803  0.67352231  0.42485763  1
  O2-  O155  1  0.57304562  0.67428384  0.75387647  1
  O2-  O156  1  0.17718893  0.42855333  0.24711983  1
  O2-  O157  1  0.18168678  0.43286190  0.56549409  1
  O2-  O158  1  0.17854532  0.42758991  0.90322099  1
  O2-  O159  1  0.17924285  0.92771855  0.24467906  1
  O2-  O160  1  0.18331805  0.92457228  0.57345990  1
  O2-  O161  1  0.17831979  0.93139462  0.89963349  1
  O2-  O162  1  0.67903418  0.42491648  0.24475673  1
  O2-  O163  1  0.67526339  0.43169901  0.57474106  1
  O2-  O164  1  0.67530657  0.42618907  0.91048712  1
  O2-  O165  1  0.67894203  0.92972999  0.23693802  1
  O2-  O166  1  0.67411879  0.92792800  0.57885275  1
  O2-  O167  1  0.68166211  0.93225584  0.90052916  1
  O2-  O168  1  0.43191979  0.31922405  0.09165671  1
  O2-  O169  1  0.42592348  0.32304122  0.42085062  1
  O2-  O170  1  0.43104424  0.32215510  0.76707662  1
  O2-  O171  1  0.43338577  0.82330671  0.09552823  1
  O2-  O172  1  0.43160281  0.81987482  0.43399959  1
  O2-  O173  1  0.43092126  0.82296039  0.75520524  1
  O2-  O174  1  0.92925542  0.31867993  0.10092553  1
  O2-  O175  1  0.92910446  0.32007392  0.42304465  1
  O2-  O176  1  0.92661670  0.32215291  0.76378847  1
  O2-  O177  1  0.92797452  0.81815399  0.10198998  1
  O2-  O178  1  0.92798002  0.82151230  0.42336140  1
  O2-  O179  1  0.92462592  0.82020150  0.76366833  1
  O2-  O180  1  0.31821681  0.07206732  0.24441998  1
  O2-  O181  1  0.32233069  0.06790878  0.56442052  1
  O2-  O182  1  0.31935830  0.07479919  0.90260645  1
  O2-  O183  1  0.32209627  0.57013139  0.24484518  1
  O2-  O184  1  0.32739377  0.57288262  0.57546813  1
  O2-  O185  1  0.32691960  0.56339897  0.90122520  1
  O2-  O186  1  0.82087718  0.07877227  0.24634964  1
  O2-  O187  1  0.81475385  0.07131278  0.56627099  1
  O2-  O188  1  0.82007527  0.07671744  0.90148354  1
  O2-  O189  1  0.82214721  0.56899890  0.24598684  1
  O2-  O190  1  0.81542356  0.56822333  0.57495934  1
  O2-  O191  1  0.81898992  0.56758152  0.89860102  1
  O2-  O192  1  0.04981356  0.08411031  0.27134793  1
  O2-  O193  1  0.04797288  0.08043918  0.59776321  1
  O2-  O194  1  0.05667317  0.08386777  0.94306494  1
  O2-  O195  1  0.03648786  0.58196532  0.26621838  1
  O2-  O196  1  0.03831206  0.58366397  0.59579823  1
  O2-  O197  1  0.03738106  0.58047514  0.93448715  1
  O2-  O198  1  0.53834917  0.08621531  0.26405741  1
  O2-  O199  1  0.54532324  0.08245658  0.60579664  1
  O2-  O200  1  0.54622727  0.08752751  0.93438852  1
  O2-  O201  1  0.54951904  0.58207469  0.27320018  1
  O2-  O202  1  0.54285377  0.58721634  0.59876335  1
  O2-  O203  1  0.54501796  0.57667527  0.93441419  1
  O2-  O204  1  0.16286596  0.21039780  0.26855414  1
  O2-  O205  1  0.16756713  0.21247704  0.59700719  1
  O2-  O206  1  0.16844036  0.20941740  0.94238719  1
  O2-  O207  1  0.16596467  0.70740403  0.26571132  1
  O2-  O208  1  0.17221685  0.70428660  0.59766467  1
  O2-  O209  1  0.17261118  0.69755792  0.93382923  1
  O2-  O210  1  0.66524804  0.21473525  0.26411911  1
  O2-  O211  1  0.66179463  0.20538929  0.60210677  1
  O2-  O212  1  0.66059075  0.21144529  0.93393070  1
  O2-  O213  1  0.67027647  0.69977744  0.27864139  1
  O2-  O214  1  0.66171744  0.70421311  0.59899141  1
  O2-  O215  1  0.66925541  0.70556363  0.93196973  1
  O2-  O216  1  0.07884435  0.45570453  0.07135057  1
  O2-  O217  1  0.08672199  0.45863425  0.39854702  1
  O2-  O218  1  0.08045252  0.46019025  0.73068495  1
  O2-  O219  1  0.08460606  0.95856987  0.07359121  1
  O2-  O220  1  0.08547933  0.95307430  0.39562223  1
  O2-  O221  1  0.08182002  0.94532064  0.72083064  1
  O2-  O222  1  0.58253754  0.44732253  0.06417301  1
  O2-  O223  1  0.58540527  0.45328542  0.39715192  1
  O2-  O224  1  0.58586736  0.46021150  0.72774337  1
  O2-  O225  1  0.58561548  0.96284787  0.06682519  1
  O2-  O226  1  0.58285285  0.96578442  0.40311165  1
  O2-  O227  1  0.58619570  0.95435949  0.73254562  1
  O2-  O228  1  0.21093159  0.33565267  0.07456109  1
  O2-  O229  1  0.20638230  0.33677947  0.39847828  1
  O2-  O230  1  0.21175969  0.33684728  0.73286870  1
  O2-  O231  1  0.20512130  0.82783017  0.06552561  1
  O2-  O232  1  0.20988626  0.83620188  0.39617912  1
  O2-  O233  1  0.20899569  0.83408506  0.72612968  1
  O2-  O234  1  0.70616966  0.33518498  0.06357715  1
  O2-  O235  1  0.70936441  0.33721275  0.39869600  1
  O2-  O236  1  0.69779629  0.33504170  0.72618224  1
  O2-  O237  1  0.70584822  0.83006795  0.06853332  1
  O2-  O238  1  0.70515034  0.83299502  0.40634012  1
  O2-  O239  1  0.69856048  0.82898379  0.72625595  1
  O2-  O240  1  0.45220956  0.41817124  0.27129254  1
  O2-  O241  1  0.46189731  0.41551440  0.59602081  1
  O2-  O242  1  0.45757339  0.40948160  0.93728706  1
  O2-  O243  1  0.45986293  0.91765672  0.26720403  1
  O2-  O244  1  0.46155191  0.91325696  0.60294307  1
  O2-  O245  1  0.46156258  0.92086296  0.92905477  1
  O2-  O246  1  0.96069630  0.41006628  0.27129147  1
  O2-  O247  1  0.95561130  0.41824086  0.59529570  1
  O2-  O248  1  0.95984460  0.41486286  0.93379987  1
  O2-  O249  1  0.94806056  0.91852604  0.27450264  1
  O2-  O250  1  0.95004534  0.92064216  0.59507773  1
  O2-  O251  1  0.95606341  0.92460632  0.93930744  1
  O2-  O252  1  0.33175334  0.29862404  0.27017753  1
  O2-  O253  1  0.33343466  0.29165668  0.59682935  1
  O2-  O254  1  0.33521690  0.29205333  0.94231760  1
  O2-  O255  1  0.33559283  0.78926663  0.26612052  1
  O2-  O256  1  0.33998759  0.79580545  0.60065357  1
  O2-  O257  1  0.33077360  0.79747740  0.92829556  1
  O2-  O258  1  0.83704277  0.29547670  0.27082975  1
  O2-  O259  1  0.82658365  0.29386057  0.59818963  1
  O2-  O260  1  0.83125228  0.29263573  0.93282491  1
  O2-  O261  1  0.83161456  0.79450736  0.27641281  1
  O2-  O262  1  0.82937747  0.78893105  0.59599928  1
  O2-  O263  1  0.83196722  0.79380970  0.93499704  1
  O2-  O264  1  0.42269880  0.04585167  0.06652439  1
  O2-  O265  1  0.41135928  0.04374995  0.39546827  1
  O2-  O266  1  0.41620286  0.04005734  0.73322138  1
  O2-  O267  1  0.41816229  0.53525363  0.07132293  1
  O2-  O268  1  0.41402252  0.54646072  0.39725756  1
  O2-  O269  1  0.41801089  0.54520760  0.72637978  1
  O2-  O270  1  0.92426613  0.05685857  0.06755215  1
  O2-  O271  1  0.91842467  0.05356791  0.39510457  1
  O2-  O272  1  0.92054389  0.04595642  0.73029110  1
  O2-  O273  1  0.91232254  0.53453431  0.07018214  1
  O2-  O274  1  0.91171158  0.53513871  0.39857656  1
  O2-  O275  1  0.91133703  0.54329495  0.72572507  1
  O2-  O276  1  0.29386009  0.16712438  0.07463356  1
  O2-  O277  1  0.29168880  0.16494722  0.39475823  1
  O2-  O278  1  0.29263990  0.16845270  0.73043412  1
  O2-  O279  1  0.30454842  0.67278676  0.06348160  1
  O2-  O280  1  0.29155851  0.66352561  0.39647145  1
  O2-  O281  1  0.30469498  0.66978228  0.72507117  1
  O2-  O282  1  0.78685522  0.17006018  0.06864153  1
  O2-  O283  1  0.79218463  0.16793043  0.39753573  1
  O2-  O284  1  0.78628338  0.16608731  0.73343611  1
  O2-  O285  1  0.78967395  0.66509011  0.06932903  1
  O2-  O286  1  0.79697336  0.66049711  0.40141040  1
  O2-  O287  1  0.78712640  0.66033649  0.72632347  1
