# generated using pymatgen
data_Ca2Al2SiO7
_symmetry_space_group_name_H-M   'P 1'
_cell_length_a   15.46400297
_cell_length_b   15.46604321
_cell_length_c   15.28949549
_cell_angle_alpha   90.01139130
_cell_angle_beta   89.98944451
_cell_angle_gamma   90.00973011
_symmetry_Int_Tables_number   1
_chemical_formula_structural   Ca2Al2SiO7
_chemical_formula_sum   'Ca48 Al48 Si24 O168'
_cell_volume   3656.74163585
_cell_formula_units_Z   24
loop_
 _symmetry_equiv_pos_site_id
 _symmetry_equiv_pos_as_xyz
  1  'x, y, z'
loop_
 _atom_type_symbol
 _atom_type_oxidation_number
  Ca2+  2.0
  Al0+  0.0
  Si0+  0.0
  O2-  -2.0
loop_
 _atom_site_type_symbol
 _atom_site_label
 _atom_site_symmetry_multiplicity
 _atom_site_fract_x
 _atom_site_fract_y
 _atom_site_fract_z
 _atom_site_occupancy
  Ca2+  Ca0  1  0.16908619  0.08942197  0.16983115  1
  Ca2+  Ca1  1  0.16235060  0.07581481  0.50504673  1
  Ca2+  Ca2  1  0.17611733  0.08838773  0.83855635  1
  Ca2+  Ca3  1  0.16430069  0.58424018  0.16851648  1
  Ca2+  Ca4  1  0.17378317  0.57421454  0.51025703  1
  Ca2+  Ca5  1  0.16711612  0.57831511  0.83313278  1
  Ca2+  Ca6  1  0.67796952  0.07854154  0.17173659  1
  Ca2+  Ca7  1  0.66941384  0.09063266  0.49364918  1
  Ca2+  Ca8  1  0.67507078  0.08025876  0.84535988  1
  Ca2+  Ca9  1  0.67342600  0.57094811  0.17190287  1
  Ca2+  Ca10  1  0.67325694  0.57667009  0.49683359  1
  Ca2+  Ca11  1  0.66844025  0.57358106  0.84117890  1
  Ca2+  Ca12  1  0.06866983  0.32284349  0.16130885  1
  Ca2+  Ca13  1  0.07713249  0.33101035  0.49358463  1
  Ca2+  Ca14  1  0.07478814  0.32874974  0.82968133  1
  Ca2+  Ca15  1  0.07909335  0.82864581  0.15773982  1
  Ca2+  Ca16  1  0.08969634  0.83511943  0.49457745  1
  Ca2+  Ca17  1  0.08318111  0.83296995  0.83397658  1
  Ca2+  Ca18  1  0.58530695  0.33128906  0.16223190  1
  Ca2+  Ca19  1  0.57502677  0.33002502  0.49262351  1
  Ca2+  Ca20  1  0.57237566  0.33752705  0.83131968  1
  Ca2+  Ca21  1  0.58312785  0.83968760  0.15834089  1
  Ca2+  Ca22  1  0.58195708  0.83425696  0.49206311  1
  Ca2+  Ca23  1  0.57646887  0.84234092  0.83452388  1
  Ca2+  Ca24  1  0.33387271  0.41515425  0.16605604  1
  Ca2+  Ca25  1  0.32664255  0.41791624  0.51337166  1
  Ca2+  Ca26  1  0.33069165  0.41232827  0.83761485  1
  Ca2+  Ca27  1  0.32857520  0.92096341  0.16777320  1
  Ca2+  Ca28  1  0.32046009  0.92546795  0.50710530  1
  Ca2+  Ca29  1  0.33125012  0.92814762  0.83910845  1
  Ca2+  Ca30  1  0.82902829  0.41389016  0.17369654  1
  Ca2+  Ca31  1  0.83497591  0.41182861  0.49876730  1
  Ca2+  Ca32  1  0.83000384  0.40879557  0.84246437  1
  Ca2+  Ca33  1  0.83220663  0.92440861  0.17112124  1
  Ca2+  Ca34  1  0.83077978  0.92638301  0.49825042  1
  Ca2+  Ca35  1  0.82845729  0.92194463  0.84669096  1
  Ca2+  Ca36  1  0.42495913  0.16646274  0.15959197  1
  Ca2+  Ca37  1  0.41814343  0.16696799  0.49788388  1
  Ca2+  Ca38  1  0.41254464  0.17180707  0.83094251  1
  Ca2+  Ca39  1  0.42085859  0.67739519  0.15736055  1
  Ca2+  Ca40  1  0.41451979  0.66581529  0.49784015  1
  Ca2+  Ca41  1  0.41512198  0.67122073  0.83027333  1
  Ca2+  Ca42  1  0.92241694  0.16322638  0.16106359  1
  Ca2+  Ca43  1  0.92122903  0.17618747  0.48935196  1
  Ca2+  Ca44  1  0.91542831  0.17297179  0.83293662  1
  Ca2+  Ca45  1  0.91774241  0.67178368  0.15835840  1
  Ca2+  Ca46  1  0.91649467  0.66719681  0.49343815  1
  Ca2+  Ca47  1  0.92067198  0.67177164  0.83590080  1
  Al0+  Al48  1  0.00248694  -0.00198774  -0.00582572  1
  Al0+  Al49  1  0.00007022  -0.00111463  0.33768999  1
  Al0+  Al50  1  -0.00369428  -0.00087998  0.67008133  1
  Al0+  Al51  1  0.00118267  0.49943715  -0.00671651  1
  Al0+  Al52  1  0.00223377  0.50101346  0.33370683  1
  Al0+  Al53  1  -0.00031363  0.50298364  0.66646792  1
  Al0+  Al54  1  0.49853282  0.00085191  0.00214870  1
  Al0+  Al55  1  0.49784631  0.00125703  0.33271316  1
  Al0+  Al56  1  0.49959212  -0.00144850  0.66588133  1
  Al0+  Al57  1  0.49970498  0.50043236  0.00182758  1
  Al0+  Al58  1  0.50147487  0.50380957  0.33527801  1
  Al0+  Al59  1  0.50221897  0.50072582  0.66418249  1
  Al0+  Al60  1  0.25017534  0.25122041  0.00045478  1
  Al0+  Al61  1  0.24999602  0.25211797  0.33090372  1
  Al0+  Al62  1  0.24855901  0.24931306  0.66852035  1
  Al0+  Al63  1  0.25336091  0.74933869  -0.00839405  1
  Al0+  Al64  1  0.25076908  0.75175659  0.33612914  1
  Al0+  Al65  1  0.24991300  0.74954119  0.67193684  1
  Al0+  Al66  1  0.74952472  0.24765036  0.00553280  1
  Al0+  Al67  1  0.74589544  0.25062795  0.33525560  1
  Al0+  Al68  1  0.74990964  0.25036447  0.66277688  1
  Al0+  Al69  1  0.74953906  0.74655698  -0.00200476  1
  Al0+  Al70  1  0.74951658  0.74820382  0.33926689  1
  Al0+  Al71  1  0.75004437  0.74923020  0.66614881  1
  Al0+  Al72  1  0.32414627  0.56953659  0.68308913  1
  Al0+  Al73  1  0.92666714  0.31855373  0.98606644  1
  Al0+  Al74  1  0.07106721  0.17635895  0.31922844  1
  Al0+  Al75  1  0.82170748  0.07170663  0.34959907  1
  Al0+  Al76  1  0.67809650  0.42862779  0.01289042  1
  Al0+  Al77  1  0.67658127  0.92892223  0.34870547  1
  Al0+  Al78  1  0.92865697  0.32274518  0.31855252  1
  Al0+  Al79  1  0.43117834  0.82293539  0.98525328  1
  Al0+  Al80  1  0.17595992  0.92880347  0.68454698  1
  Al0+  Al81  1  0.67860477  0.92701219  0.01321916  1
  Al0+  Al82  1  0.07279931  0.17738869  0.98386141  1
  Al0+  Al83  1  0.42782905  0.32076984  0.65349415  1
  Al0+  Al84  1  0.17703057  0.42838166  0.68275563  1
  Al0+  Al85  1  0.92874471  0.32217251  0.65148362  1
  Al0+  Al86  1  0.82469410  0.06963375  0.01474921  1
  Al0+  Al87  1  0.43081495  0.32209628  0.98786190  1
  Al0+  Al88  1  0.56836574  0.17883671  0.31833966  1
  Al0+  Al89  1  0.31912102  0.07349847  0.01594602  1
  Al0+  Al90  1  0.82358023  0.56933756  0.34769674  1
  Al0+  Al91  1  0.32203714  0.07085309  0.68190789  1
  Al0+  Al92  1  0.07353909  0.67758705  0.98343025  1
  Al0+  Al93  1  0.67737367  0.42780750  0.35045461  1
  Al0+  Al94  1  0.92770306  0.82058188  0.98580738  1
  Al0+  Al95  1  0.17960249  0.92935016  0.34445397  1
  Si0+  Si96  1  0.92702111  0.82065882  0.64939935  1
  Si0+  Si97  1  0.17815089  0.42971666  0.01662190  1
  Si0+  Si98  1  0.57152738  0.17701772  0.65036800  1
  Si0+  Si99  1  0.07019132  0.17666960  0.65054299  1
  Si0+  Si100  1  0.82405004  0.57001428  0.01484626  1
  Si0+  Si101  1  0.32099424  0.57139390  0.01599886  1
  Si0+  Si102  1  0.67984807  0.92654761  0.68092356  1
  Si0+  Si103  1  0.92779395  0.81936298  0.32087046  1
  Si0+  Si104  1  0.81757155  0.07214602  0.68147533  1
  Si0+  Si105  1  0.42899295  0.81978535  0.31922362  1
  Si0+  Si106  1  0.82077569  0.57333943  0.68350165  1
  Si0+  Si107  1  0.57111595  0.67711651  0.98338849  1
  Si0+  Si108  1  0.32041049  0.57287690  0.34644508  1
  Si0+  Si109  1  0.57115587  0.17818462  0.98415439  1
  Si0+  Si110  1  0.42801839  0.32626010  0.31687291  1
  Si0+  Si111  1  0.42895083  0.82027175  0.64956400  1
  Si0+  Si112  1  0.07330616  0.68063704  0.32078865  1
  Si0+  Si113  1  0.57238469  0.67984639  0.31714400  1
  Si0+  Si114  1  0.18088642  0.42982779  0.34679965  1
  Si0+  Si115  1  0.18073404  0.92574694  0.01571381  1
  Si0+  Si116  1  0.57258303  0.67910612  0.64949359  1
  Si0+  Si117  1  0.68159553  0.42891051  0.68147710  1
  Si0+  Si118  1  0.07124155  0.68151439  0.64925053  1
  Si0+  Si119  1  0.32081349  0.07427655  0.34913886  1
  O2-  O120  1  0.24319540  -0.00093003  0.06170140  1
  O2-  O121  1  0.24778708  0.00957737  0.39194244  1
  O2-  O122  1  0.24745586  0.00181647  0.73270093  1
  O2-  O123  1  0.24808602  0.50299528  0.05923179  1
  O2-  O124  1  0.25536202  0.49742254  0.38898680  1
  O2-  O125  1  0.25477987  0.49510208  0.73305765  1
  O2-  O126  1  0.75494581  -0.00619484  0.06259728  1
  O2-  O127  1  0.74732231  0.00106424  0.40032347  1
  O2-  O128  1  0.74676525  0.00054409  0.72279766  1
  O2-  O129  1  0.75775119  0.49904990  0.05798049  1
  O2-  O130  1  0.75518826  0.49471630  0.39985229  1
  O2-  O131  1  0.75486423  0.49732190  0.72474116  1
  O2-  O132  1  -0.00488830  0.24483968  0.27017342  1
  O2-  O133  1  0.00604443  0.24956873  0.60616789  1
  O2-  O134  1  -0.00281178  0.24612120  0.93435497  1
  O2-  O135  1  -0.00046115  0.74845501  0.27921164  1
  O2-  O136  1  0.00223514  0.75426256  0.60608951  1
  O2-  O137  1  0.00143734  0.75035299  0.93453926  1
  O2-  O138  1  0.49602724  0.25709536  0.27345625  1
  O2-  O139  1  0.49962923  0.24330487  0.60718294  1
  O2-  O140  1  0.50468882  0.24824394  0.93899655  1
  O2-  O141  1  0.50451614  0.75411425  0.27582166  1
  O2-  O142  1  0.49956233  0.74856849  0.60681532  1
  O2-  O143  1  0.50889033  0.75100613  0.93813399  1
  O2-  O144  1  0.07386249  0.18142297  0.09744919  1
  O2-  O145  1  0.07329853  0.17914980  0.43320700  1
  O2-  O146  1  0.06683853  0.17561189  0.75575469  1
  O2-  O147  1  0.07391608  0.67885777  0.09800496  1
  O2-  O148  1  0.07580929  0.68250503  0.42592849  1
  O2-  O149  1  0.06897174  0.68035718  0.75380285  1
  O2-  O150  1  0.56887412  0.17829964  0.08955323  1
  O2-  O151  1  0.56259166  0.17845411  0.43203684  1
  O2-  O152  1  0.57502193  0.17789743  0.75570647  1
  O2-  O153  1  0.56672887  0.67509918  0.08896315  1
  O2-  O154  1  0.56932693  0.67856910  0.42258331  1
  O2-  O155  1  0.57487503  0.68032390  0.75430224  1
  O2-  O156  1  0.18119196  0.43274677  0.24174461  1
  O2-  O157  1  0.17749201  0.43277601  0.56820266  1
  O2-  O158  1  0.17986507  0.43018316  0.91185797  1
  O2-  O159  1  0.18472103  0.91977130  0.23242884  1
  O2-  O160  1  0.17834363  0.92902063  0.57026070  1
  O2-  O161  1  0.18537798  0.92434647  0.91041722  1
  O2-  O162  1  0.67221251  0.43417713  0.23734295  1
  O2-  O163  1  0.68098083  0.43079897  0.57688227  1
  O2-  O164  1  0.67624069  0.43251614  0.89902372  1
  O2-  O165  1  0.67866957  0.92691303  0.23593518  1
  O2-  O166  1  0.68152197  0.92311815  0.57620775  1
  O2-  O167  1  0.67792921  0.93125751  0.89870054  1
  O2-  O168  1  0.43264332  0.32338735  0.10094805  1
  O2-  O169  1  0.42668083  0.32727733  0.42259984  1
  O2-  O170  1  0.43279824  0.32323968  0.76621615  1
  O2-  O171  1  0.42853002  0.81873097  0.09884824  1
  O2-  O172  1  0.42764578  0.81521102  0.42450975  1
  O2-  O173  1  0.43234502  0.82144623  0.75429667  1
  O2-  O174  1  0.92826405  0.32154494  0.09911486  1
  O2-  O175  1  0.93602147  0.32392377  0.43247770  1
  O2-  O176  1  0.92463278  0.31833720  0.76408470  1
  O2-  O177  1  0.92803635  0.81739353  0.09996226  1
  O2-  O178  1  0.92847291  0.81743424  0.42643647  1
  O2-  O179  1  0.92311490  0.81694133  0.75385719  1
  O2-  O180  1  0.32185439  0.07210933  0.24372014  1
  O2-  O181  1  0.32473382  0.06682215  0.56793079  1
  O2-  O182  1  0.32051958  0.07235488  0.90311607  1
  O2-  O183  1  0.31809631  0.57642023  0.24141132  1
  O2-  O184  1  0.32122276  0.57041230  0.56842592  1
  O2-  O185  1  0.32376994  0.56958306  0.91150084  1
  O2-  O186  1  0.82454214  0.06646941  0.23684817  1
  O2-  O187  1  0.81737293  0.07170247  0.57668016  1
  O2-  O188  1  0.81899711  0.07104467  0.90023033  1
  O2-  O189  1  0.82161814  0.57266886  0.23442574  1
  O2-  O190  1  0.81814015  0.57739095  0.57876993  1
  O2-  O191  1  0.82137634  0.57142457  0.90877067  1
  O2-  O192  1  0.04766172  0.07548480  0.26881318  1
  O2-  O193  1  0.03877707  0.08376723  0.60477376  1
  O2-  O194  1  0.05383281  0.07716162  0.93174150  1
  O2-  O195  1  0.04981305  0.58822967  0.27340026  1
  O2-  O196  1  0.04125371  0.59079161  0.60057634  1
  O2-  O197  1  0.04468923  0.58087128  0.92778450  1
  O2-  O198  1  0.53496238  0.08311201  0.26359357  1
  O2-  O199  1  0.54856723  0.08234319  0.60423393  1
  O2-  O200  1  0.54326933  0.08592806  0.93700188  1
  O2-  O201  1  0.54033603  0.59003952  0.26827835  1
  O2-  O202  1  0.54704132  0.58766176  0.60009183  1
  O2-  O203  1  0.53748783  0.58704761  0.93492621  1
  O2-  O204  1  0.16927625  0.20828671  0.26690079  1
  O2-  O205  1  0.16597903  0.19578177  0.60665976  1
  O2-  O206  1  0.16914790  0.21266779  0.93127328  1
  O2-  O207  1  0.16403934  0.71101346  0.27211647  1
  O2-  O208  1  0.16479242  0.70695570  0.60306735  1
  O2-  O209  1  0.17134941  0.70400034  0.92909528  1
  O2-  O210  1  0.66636761  0.20492157  0.26612295  1
  O2-  O211  1  0.66282253  0.20702329  0.60187962  1
  O2-  O212  1  0.66533421  0.20174704  0.93931483  1
  O2-  O213  1  0.66562738  0.70358103  0.27167497  1
  O2-  O214  1  0.66324615  0.71032434  0.60098106  1
  O2-  O215  1  0.66650920  0.69319389  0.93767272  1
  O2-  O216  1  0.08621080  0.45893355  0.06291721  1
  O2-  O217  1  0.09170754  0.46155737  0.39625918  1
  O2-  O218  1  0.08066553  0.46454038  0.73544004  1
  O2-  O219  1  0.08393449  0.94293913  0.05687799  1
  O2-  O220  1  0.08267274  0.95207642  0.40114275  1
  O2-  O221  1  0.07497903  0.95165885  0.73424518  1
  O2-  O222  1  0.58412106  0.46538995  0.06854874  1
  O2-  O223  1  0.58131532  0.46601228  0.40529877  1
  O2-  O224  1  0.59080088  0.46091324  0.72814718  1
  O2-  O225  1  0.58130885  0.95753601  0.06600838  1
  O2-  O226  1  0.57677246  0.95625907  0.40087130  1
  O2-  O227  1  0.58598661  0.95065914  0.72517986  1
  O2-  O228  1  0.20950975  0.34042416  0.06567916  1
  O2-  O229  1  0.20595595  0.33777827  0.39504698  1
  O2-  O230  1  0.19843081  0.32819959  0.73305771  1
  O2-  O231  1  0.21305427  0.83305746  0.06071665  1
  O2-  O232  1  0.21665426  0.83558777  0.40309749  1
  O2-  O233  1  0.20485946  0.83037062  0.73529544  1
  O2-  O234  1  0.70306301  0.33149327  0.06675982  1
  O2-  O235  1  0.69548605  0.32810285  0.40349571  1
  O2-  O236  1  0.70666741  0.33598834  0.72770658  1
  O2-  O237  1  0.69841199  0.82434494  0.06113517  1
  O2-  O238  1  0.70404565  0.83027626  0.40247042  1
  O2-  O239  1  0.71002223  0.83598487  0.72935981  1
  O2-  O240  1  0.45314106  0.42108822  0.27233711  1
  O2-  O241  1  0.46170190  0.41698709  0.59868140  1
  O2-  O242  1  0.46156535  0.41867174  0.93335431  1
  O2-  O243  1  0.45025302  0.91313746  0.27330049  1
  O2-  O244  1  0.45793340  0.91109269  0.60035809  1
  O2-  O245  1  0.46108200  0.91925323  0.93019288  1
  O2-  O246  1  0.96319695  0.42002381  0.26598082  1
  O2-  O247  1  0.95531399  0.42181791  0.60104491  1
  O2-  O248  1  0.95500406  0.41682935  0.93228035  1
  O2-  O249  1  0.95578179  0.91079436  0.27480448  1
  O2-  O250  1  0.94957761  0.91483922  0.60413181  1
  O2-  O251  1  0.95371650  0.91756950  0.92966465  1
  O2-  O252  1  0.33389588  0.30289444  0.27116521  1
  O2-  O253  1  0.32939084  0.29444351  0.60011341  1
  O2-  O254  1  0.33396066  0.29295769  0.93538365  1
  O2-  O255  1  0.33985165  0.78474414  0.27084493  1
  O2-  O256  1  0.33640226  0.79129407  0.60396315  1
  O2-  O257  1  0.33858904  0.78806374  0.92761126  1
  O2-  O258  1  0.82500902  0.30529403  0.27512668  1
  O2-  O259  1  0.83271396  0.28918354  0.59675106  1
  O2-  O260  1  0.82702913  0.29094782  0.93409577  1
  O2-  O261  1  0.83609484  0.79019571  0.27470455  1
  O2-  O262  1  0.83708129  0.78728900  0.60075085  1
  O2-  O263  1  0.83013192  0.78916954  0.93053676  1
  O2-  O264  1  0.41490422  0.03993768  0.06941994  1
  O2-  O265  1  0.41145901  0.04292030  0.39705971  1
  O2-  O266  1  0.42057436  0.03933016  0.73424131  1
  O2-  O267  1  0.41106516  0.54185645  0.06616004  1
  O2-  O268  1  0.41400881  0.55201362  0.39290868  1
  O2-  O269  1  0.42562912  0.54799419  0.73239463  1
  O2-  O270  1  0.92504240  0.04304866  0.06407271  1
  O2-  O271  1  0.91797473  0.03976433  0.40563316  1
  O2-  O272  1  0.90854844  0.04413034  0.72908769  1
  O2-  O273  1  0.91951513  0.54900001  0.05842725  1
  O2-  O274  1  0.92368733  0.54667084  0.40147431  1
  O2-  O275  1  0.91461257  0.55245216  0.72830973  1
  O2-  O276  1  0.29046159  0.17021154  0.07097158  1
  O2-  O277  1  0.30104266  0.17023484  0.39320340  1
  O2-  O278  1  0.29796781  0.17047213  0.73318351  1
  O2-  O279  1  0.29465733  0.66447606  0.06210643  1
  O2-  O280  1  0.28821447  0.66155068  0.39767146  1
  O2-  O281  1  0.29392658  0.66720893  0.73518490  1
  O2-  O282  1  0.79304629  0.16550001  0.06982822  1
  O2-  O283  1  0.79210227  0.16976177  0.40237152  1
  O2-  O284  1  0.78796214  0.16353105  0.72871780  1
  O2-  O285  1  0.79583453  0.66236235  0.06187562  1
  O2-  O286  1  0.79073095  0.66522760  0.40464985  1
  O2-  O287  1  0.78654632  0.66262715  0.73250654  1
