# generated using pymatgen
data_Ca2Al2SiO7
_symmetry_space_group_name_H-M   'P 1'
_cell_length_a   15.46566951
_cell_length_b   15.46257277
_cell_length_c   15.28874891
_cell_angle_alpha   90.01196302
_cell_angle_beta   90.01635144
_cell_angle_gamma   89.99985880
_symmetry_Int_Tables_number   1
_chemical_formula_structural   Ca2Al2SiO7
_chemical_formula_sum   'Ca48 Al48 Si24 O168'
_cell_volume   3656.13651193
_cell_formula_units_Z   24
loop_
 _symmetry_equiv_pos_site_id
 _symmetry_equiv_pos_as_xyz
  1  'x, y, z'
loop_
 _atom_type_symbol
 _atom_type_oxidation_number
  Ca2+  2.0
  Al0+  0.0
  Si0+  0.0
  O2-  -2.0
loop_
 _atom_site_type_symbol
 _atom_site_label
 _atom_site_symmetry_multiplicity
 _atom_site_fract_x
 _atom_site_fract_y
 _atom_site_fract_z
 _atom_site_occupancy
  Ca2+  Ca0  1  0.14914768  0.07325908  0.17050015  1
  Ca2+  Ca1  1  0.16387832  0.07379908  0.50506788  1
  Ca2+  Ca2  1  0.17021197  0.07261011  0.83670310  1
  Ca2+  Ca3  1  0.16884871  0.58137311  0.17664434  1
  Ca2+  Ca4  1  0.16764276  0.57723667  0.50456220  1
  Ca2+  Ca5  1  0.16585934  0.58599220  0.83175088  1
  Ca2+  Ca6  1  0.67073313  0.08319988  0.17014337  1
  Ca2+  Ca7  1  0.67808783  0.08752135  0.50132768  1
  Ca2+  Ca8  1  0.66668009  0.07826041  0.84233847  1
  Ca2+  Ca9  1  0.67309319  0.57711057  0.17743366  1
  Ca2+  Ca10  1  0.66953812  0.57200238  0.50400380  1
  Ca2+  Ca11  1  0.66547626  0.57704391  0.83358714  1
  Ca2+  Ca12  1  0.08737997  0.32240637  0.16541529  1
  Ca2+  Ca13  1  0.08613829  0.32889107  0.48804514  1
  Ca2+  Ca14  1  0.08934910  0.32714677  0.82761525  1
  Ca2+  Ca15  1  0.08696849  0.82689241  0.16605392  1
  Ca2+  Ca16  1  0.08609093  0.82735320  0.49315639  1
  Ca2+  Ca17  1  0.08838528  0.82611849  0.82477696  1
  Ca2+  Ca18  1  0.57859764  0.33168072  0.16661749  1
  Ca2+  Ca19  1  0.57219507  0.34400167  0.49576696  1
  Ca2+  Ca20  1  0.57781165  0.32740057  0.82507121  1
  Ca2+  Ca21  1  0.58189778  0.83568502  0.16133972  1
  Ca2+  Ca22  1  0.57269073  0.83242235  0.49839709  1
  Ca2+  Ca23  1  0.57697663  0.83560123  0.82482750  1
  Ca2+  Ca24  1  0.32801850  0.42285312  0.17955143  1
  Ca2+  Ca25  1  0.32607801  0.42221430  0.50521414  1
  Ca2+  Ca26  1  0.33095985  0.41852900  0.82588242  1
  Ca2+  Ca27  1  0.31994884  0.92146375  0.17176218  1
  Ca2+  Ca28  1  0.32158214  0.92084863  0.50811378  1
  Ca2+  Ca29  1  0.32342204  0.91206435  0.83265357  1
  Ca2+  Ca30  1  0.82700945  0.40955122  0.17703765  1
  Ca2+  Ca31  1  0.82208554  0.40473282  0.50295272  1
  Ca2+  Ca32  1  0.82811078  0.41634060  0.83406569  1
  Ca2+  Ca33  1  0.83237630  0.92096397  0.17536532  1
  Ca2+  Ca34  1  0.84459527  0.91869303  0.50050414  1
  Ca2+  Ca35  1  0.82860873  0.91163684  0.83751238  1
  Ca2+  Ca36  1  0.41912663  0.17507241  0.16277178  1
  Ca2+  Ca37  1  0.40832432  0.17971049  0.49830223  1
  Ca2+  Ca38  1  0.42058185  0.16618387  0.82363316  1
  Ca2+  Ca39  1  0.41318809  0.66566027  0.16779948  1
  Ca2+  Ca40  1  0.40534981  0.66640105  0.49913281  1
  Ca2+  Ca41  1  0.41543693  0.67212063  0.82315732  1
  Ca2+  Ca42  1  0.92323252  0.16697963  0.17384160  1
  Ca2+  Ca43  1  0.92376115  0.16984139  0.48837746  1
  Ca2+  Ca44  1  0.92421197  0.16437879  0.83397312  1
  Ca2+  Ca45  1  0.93261285  0.66580271  0.16515190  1
  Ca2+  Ca46  1  0.93010059  0.67713430  0.49519328  1
  Ca2+  Ca47  1  0.92931744  0.67453769  0.82398242  1
  Al0+  Al48  1  -0.00230623  0.00166738  -0.00050111  1
  Al0+  Al49  1  -0.00297828  -0.00023510  0.33513705  1
  Al0+  Al50  1  -0.00049252  0.00150017  0.67083201  1
  Al0+  Al51  1  -0.00014576  0.50148566  -0.00475023  1
  Al0+  Al52  1  -0.00201689  0.50162860  0.32944301  1
  Al0+  Al53  1  -0.00249567  0.49925997  0.66725395  1
  Al0+  Al54  1  0.49941865  0.00117973  0.00125235  1
  Al0+  Al55  1  0.49987812  -0.00070152  0.33288070  1
  Al0+  Al56  1  0.50352108  -0.00021430  0.66185230  1
  Al0+  Al57  1  0.49978098  0.50104659  0.00005805  1
  Al0+  Al58  1  0.50086855  0.50088213  0.33480826  1
  Al0+  Al59  1  0.50111137  0.49772537  0.67326475  1
  Al0+  Al60  1  0.24977842  0.25203663  -0.00557695  1
  Al0+  Al61  1  0.25218818  0.24951747  0.32367728  1
  Al0+  Al62  1  0.25264913  0.24963194  0.67003941  1
  Al0+  Al63  1  0.25040029  0.75074218  0.00112875  1
  Al0+  Al64  1  0.25106815  0.75235232  0.33466805  1
  Al0+  Al65  1  0.25174613  0.74909567  0.66492390  1
  Al0+  Al66  1  0.74775171  0.24994868  -0.00373053  1
  Al0+  Al67  1  0.74991824  0.24714998  0.33845777  1
  Al0+  Al68  1  0.75054454  0.24788461  0.67475774  1
  Al0+  Al69  1  0.74932795  0.74805209  0.00514391  1
  Al0+  Al70  1  0.74746007  0.75000636  0.33180954  1
  Al0+  Al71  1  0.75162337  0.74967697  0.66247767  1
  Al0+  Al72  1  0.32083707  0.57113892  0.34760353  1
  Al0+  Al73  1  0.32017400  0.57066489  0.68277665  1
  Al0+  Al74  1  0.17677454  0.42689372  0.34417308  1
  Al0+  Al75  1  0.17558038  0.42796296  0.68157356  1
  Al0+  Al76  1  0.43009740  0.32241145  0.31918289  1
  Al0+  Al77  1  0.07270906  0.17929482  0.32034116  1
  Al0+  Al78  1  0.07231692  0.68011971  0.98419133  1
  Al0+  Al79  1  0.07285144  0.67776844  0.65009107  1
  Al0+  Al80  1  0.92797931  0.82178753  0.31653490  1
  Al0+  Al81  1  0.81838460  0.06767234  0.34744304  1
  Al0+  Al82  1  0.92669594  0.32213044  0.32155217  1
  Al0+  Al83  1  0.67966230  0.42836805  0.68333352  1
  Al0+  Al84  1  0.17905792  0.93241948  0.34618689  1
  Al0+  Al85  1  0.17859559  0.92930720  0.68180250  1
  Al0+  Al86  1  0.42994955  0.82127931  0.65233083  1
  Al0+  Al87  1  0.56904791  0.17984085  0.98635895  1
  Al0+  Al88  1  0.32341750  0.07132896  0.68004596  1
  Al0+  Al89  1  0.17895150  0.93001205  0.01496486  1
  Al0+  Al90  1  0.67788034  0.92854634  0.01319626  1
  Al0+  Al91  1  0.92883604  0.82329077  0.65209880  1
  Al0+  Al92  1  0.68164357  0.42907231  0.34651338  1
  Al0+  Al93  1  0.43075068  0.31973525  0.65233388  1
  Al0+  Al94  1  0.07043897  0.17847312  0.98350909  1
  Al0+  Al95  1  0.07343112  0.67980434  0.31742695  1
  Si0+  Si96  1  0.43082808  0.81983429  0.98651027  1
  Si0+  Si97  1  0.92676130  0.31947586  0.65434071  1
  Si0+  Si98  1  0.56988020  0.67924298  0.31803230  1
  Si0+  Si99  1  0.82153968  0.56971892  0.01573293  1
  Si0+  Si100  1  0.67488891  0.92529707  0.35238893  1
  Si0+  Si101  1  0.42848543  0.32503627  0.98072135  1
  Si0+  Si102  1  0.57249474  0.67782687  0.98566476  1
  Si0+  Si103  1  0.92624860  0.82083558  0.98526547  1
  Si0+  Si104  1  0.57510906  0.17726007  0.64830351  1
  Si0+  Si105  1  0.82052642  0.07359793  0.01819012  1
  Si0+  Si106  1  0.32640237  0.07259286  0.34777743  1
  Si0+  Si107  1  0.92721816  0.32261454  0.98218100  1
  Si0+  Si108  1  0.32140664  0.07453936  0.01654839  1
  Si0+  Si109  1  0.57278167  0.67683805  0.65042126  1
  Si0+  Si110  1  0.32099406  0.57075234  0.01479792  1
  Si0+  Si111  1  0.82119447  0.07095306  0.68527426  1
  Si0+  Si112  1  0.07112411  0.18113265  0.65362256  1
  Si0+  Si113  1  0.17787620  0.42881064  0.01430968  1
  Si0+  Si114  1  0.68035327  0.92784426  0.67952460  1
  Si0+  Si115  1  0.57217429  0.17672212  0.31802214  1
  Si0+  Si116  1  0.67925858  0.42927904  0.01612470  1
  Si0+  Si117  1  0.82068725  0.57357816  0.68438094  1
  Si0+  Si118  1  0.82246157  0.57513563  0.35052063  1
  Si0+  Si119  1  0.42934924  0.82257192  0.31621877  1
  O2-  O120  1  0.24879764  0.01042979  0.06139662  1
  O2-  O121  1  0.25248430  0.00945503  0.39039772  1
  O2-  O122  1  0.25347617  -0.00125790  0.73222313  1
  O2-  O123  1  0.25010687  0.49927295  0.05547005  1
  O2-  O124  1  0.24695089  0.50006331  0.39508867  1
  O2-  O125  1  0.24452012  0.50267319  0.73346874  1
  O2-  O126  1  0.75292522  0.00228559  0.06009561  1
  O2-  O127  1  0.74539528  -0.00826625  0.39601919  1
  O2-  O128  1  0.75173916  -0.00306821  0.72424485  1
  O2-  O129  1  0.75213646  0.49727261  0.05915233  1
  O2-  O130  1  0.76026632  0.49958527  0.39386381  1
  O2-  O131  1  0.75328394  0.50393007  0.73056158  1
  O2-  O132  1  0.00506723  0.25723264  0.27135095  1
  O2-  O133  1  0.00344373  0.25560477  0.61229491  1
  O2-  O134  1  -0.00276345  0.25559504  0.93737536  1
  O2-  O135  1  0.00008715  0.75057395  0.26606546  1
  O2-  O136  1  0.00463655  0.75524687  0.60321650  1
  O2-  O137  1  -0.00105155  0.75763828  0.93997069  1
  O2-  O138  1  0.50319770  0.24497741  0.27359948  1
  O2-  O139  1  0.50502345  0.24423935  0.60492816  1
  O2-  O140  1  0.49408687  0.25268044  0.93787153  1
  O2-  O141  1  0.50031640  0.75105334  0.27430642  1
  O2-  O142  1  0.50153829  0.74252590  0.60602903  1
  O2-  O143  1  0.50445447  0.75122079  0.94388367  1
  O2-  O144  1  0.06790257  0.17918178  0.09603170  1
  O2-  O145  1  0.07069096  0.17775717  0.43421910  1
  O2-  O146  1  0.06746349  0.18037650  0.75911910  1
  O2-  O147  1  0.07270360  0.67742236  0.09672124  1
  O2-  O148  1  0.07434123  0.68071249  0.43027589  1
  O2-  O149  1  0.06926556  0.67944187  0.76447306  1
  O2-  O150  1  0.56983092  0.18320479  0.09945981  1
  O2-  O151  1  0.57213962  0.17523343  0.42321656  1
  O2-  O152  1  0.57605148  0.17771217  0.75436046  1
  O2-  O153  1  0.57109382  0.67485768  0.09065982  1
  O2-  O154  1  0.57123467  0.68015466  0.42270506  1
  O2-  O155  1  0.57472387  0.68082836  0.75677112  1
  O2-  O156  1  0.18118112  0.42726658  0.22966232  1
  O2-  O157  1  0.17607876  0.42464966  0.56857891  1
  O2-  O158  1  0.17828161  0.42848593  0.90946620  1
  O2-  O159  1  0.18140192  0.93218731  0.23245887  1
  O2-  O160  1  0.17716427  0.93259999  0.56851166  1
  O2-  O161  1  0.18306430  0.92708869  0.90235494  1
  O2-  O162  1  0.68082464  0.43116201  0.23256382  1
  O2-  O163  1  0.68134743  0.42817663  0.57050800  1
  O2-  O164  1  0.67930334  0.43111499  0.91117253  1
  O2-  O165  1  0.67261442  0.92709451  0.24651480  1
  O2-  O166  1  0.67933447  0.92916530  0.57490711  1
  O2-  O167  1  0.67886817  0.92831882  0.89968198  1
  O2-  O168  1  0.43130451  0.32772151  0.08633381  1
  O2-  O169  1  0.43129245  0.32349438  0.43190480  1
  O2-  O170  1  0.43428320  0.31826805  0.76581726  1
  O2-  O171  1  0.43147946  0.81734501  0.09181455  1
  O2-  O172  1  0.43143743  0.82461004  0.42086892  1
  O2-  O173  1  0.43444851  0.82141428  0.76628545  1
  O2-  O174  1  0.92498791  0.32319226  0.08723908  1
  O2-  O175  1  0.92304478  0.31532319  0.43509554  1
  O2-  O176  1  0.92383581  0.31523845  0.75978876  1
  O2-  O177  1  0.92404658  0.81704434  0.09033849  1
  O2-  O178  1  0.92981444  0.81992414  0.42970108  1
  O2-  O179  1  0.92342461  0.81983614  0.76612405  1
  O2-  O180  1  0.33460914  0.06723957  0.24228978  1
  O2-  O181  1  0.31931532  0.07217382  0.56649263  1
  O2-  O182  1  0.32357720  0.07113332  0.91130353  1
  O2-  O183  1  0.32254819  0.56971106  0.23287943  1
  O2-  O184  1  0.32243569  0.56663988  0.57005389  1
  O2-  O185  1  0.32429762  0.57161221  0.91035915  1
  O2-  O186  1  0.81464805  0.06864160  0.23423159  1
  O2-  O187  1  0.82021490  0.07540020  0.58070756  1
  O2-  O188  1  0.81936805  0.07397450  0.91222072  1
  O2-  O189  1  0.81624132  0.57738170  0.24442339  1
  O2-  O190  1  0.81773019  0.57400118  0.57934902  1
  O2-  O191  1  0.81792115  0.56942262  0.91075891  1
  O2-  O192  1  0.03256714  0.08478207  0.26705414  1
  O2-  O193  1  0.03857462  0.09049268  0.60775037  1
  O2-  O194  1  0.03638881  0.08279824  0.92862413  1
  O2-  O195  1  0.04474393  0.58158150  0.26271420  1
  O2-  O196  1  0.03890791  0.57954995  0.59965513  1
  O2-  O197  1  0.03908521  0.58435916  0.92944087  1
  O2-  O198  1  0.54772493  0.08265555  0.27087197  1
  O2-  O199  1  0.55595499  0.08305414  0.60180254  1
  O2-  O200  1  0.54070624  0.08197557  0.93257026  1
  O2-  O201  1  0.54153331  0.58880603  0.26793492  1
  O2-  O202  1  0.55057825  0.58119749  0.60894879  1
  O2-  O203  1  0.54232284  0.58715835  0.93653067  1
  O2-  O204  1  0.17113879  0.19827955  0.26260108  1
  O2-  O205  1  0.16415227  0.20446842  0.60862890  1
  O2-  O206  1  0.16780349  0.20799046  0.92983633  1
  O2-  O207  1  0.17162321  0.71150918  0.26412908  1
  O2-  O208  1  0.17273070  0.70028972  0.60016132  1
  O2-  O209  1  0.16997436  0.71056986  0.93217921  1
  O2-  O210  1  0.66479487  0.20419884  0.27172048  1
  O2-  O211  1  0.66919045  0.20653779  0.60540139  1
  O2-  O212  1  0.66516898  0.21005895  0.93010606  1
  O2-  O213  1  0.66090535  0.70594630  0.26774563  1
  O2-  O214  1  0.66446724  0.70467535  0.60237309  1
  O2-  O215  1  0.66543531  0.70207370  0.93897412  1
  O2-  O216  1  0.08490247  0.45636730  0.05882470  1
  O2-  O217  1  0.07559519  0.44959935  0.39363712  1
  O2-  O218  1  0.07489698  0.45019812  0.73446801  1
  O2-  O219  1  0.07967380  0.95815771  0.06509112  1
  O2-  O220  1  0.08253384  0.96061529  0.39956236  1
  O2-  O221  1  0.08139401  0.96028672  0.73684217  1
  O2-  O222  1  0.58761463  0.45994727  0.06238172  1
  O2-  O223  1  0.58774057  0.46642396  0.40043507  1
  O2-  O224  1  0.58569737  0.45958409  0.74136344  1
  O2-  O225  1  0.58162847  0.95961352  0.06840005  1
  O2-  O226  1  0.58182644  0.95328270  0.39839480  1
  O2-  O227  1  0.58948768  0.95670054  0.72821194  1
  O2-  O228  1  0.20536698  0.33611459  0.06029071  1
  O2-  O229  1  0.20677165  0.32692249  0.39305622  1
  O2-  O230  1  0.21039870  0.33192743  0.73666781  1
  O2-  O231  1  0.21611920  0.83515094  0.06920977  1
  O2-  O232  1  0.21469195  0.83796495  0.39963635  1
  O2-  O233  1  0.20846970  0.83063823  0.73255053  1
  O2-  O234  1  0.70504126  0.33608218  0.06130993  1
  O2-  O235  1  0.70712280  0.33210672  0.40140942  1
  O2-  O236  1  0.71305146  0.33298526  0.73952348  1
  O2-  O237  1  0.70424869  0.83061639  0.06787182  1
  O2-  O238  1  0.69597732  0.83025363  0.39657909  1
  O2-  O239  1  0.70577583  0.83506070  0.72704852  1
  O2-  O240  1  0.46603554  0.41748418  0.26412252  1
  O2-  O241  1  0.46561578  0.41642301  0.60180754  1
  O2-  O242  1  0.45946324  0.41728777  0.93448395  1
  O2-  O243  1  0.45937015  0.91320194  0.26673129  1
  O2-  O244  1  0.46612349  0.91508549  0.59583191  1
  O2-  O245  1  0.45647942  0.91229142  0.94028919  1
  O2-  O246  1  0.94040007  0.42363110  0.26987399  1
  O2-  O247  1  0.94242528  0.41444493  0.61016189  1
  O2-  O248  1  0.95036800  0.41647229  0.93531040  1
  O2-  O249  1  0.95408856  0.92066710  0.26453351  1
  O2-  O250  1  0.95161191  0.92504137  0.60408375  1
  O2-  O251  1  0.94352407  0.91736263  0.94253122  1
  O2-  O252  1  0.33638161  0.29301119  0.25885577  1
  O2-  O253  1  0.33372546  0.28900110  0.59937575  1
  O2-  O254  1  0.33369888  0.30416887  0.93614399  1
  O2-  O255  1  0.33892210  0.79420328  0.26717153  1
  O2-  O256  1  0.33378670  0.79373618  0.59777415  1
  O2-  O257  1  0.34092923  0.78823387  0.93856590  1
  O2-  O258  1  0.83062099  0.28446094  0.26694968  1
  O2-  O259  1  0.83678684  0.28405333  0.60794451  1
  O2-  O260  1  0.83399054  0.29494770  0.93512640  1
  O2-  O261  1  0.82643996  0.79645415  0.26689674  1
  O2-  O262  1  0.83128666  0.79355139  0.59727870  1
  O2-  O263  1  0.83333596  0.78963606  0.93909019  1
  O2-  O264  1  0.41336882  0.04509162  0.06417970  1
  O2-  O265  1  0.41725765  0.04296932  0.39748377  1
  O2-  O266  1  0.42507949  0.04537619  0.72879748  1
  O2-  O267  1  0.41363526  0.54350822  0.06275372  1
  O2-  O268  1  0.41952013  0.54415139  0.39953166  1
  O2-  O269  1  0.41801508  0.54033609  0.73799540  1
  O2-  O270  1  0.91417011  0.04992301  0.06370092  1
  O2-  O271  1  0.91367190  0.03880005  0.40420075  1
  O2-  O272  1  0.91225318  0.04534952  0.73500062  1
  O2-  O273  1  0.91439194  0.54340484  0.06147644  1
  O2-  O274  1  0.91847527  0.55853494  0.39255227  1
  O2-  O275  1  0.91320894  0.54723074  0.73185031  1
  O2-  O276  1  0.30141899  0.17153006  0.05824199  1
  O2-  O277  1  0.30543820  0.16913304  0.38738887  1
  O2-  O278  1  0.29609229  0.16806306  0.73622899  1
  O2-  O279  1  0.29413863  0.66235526  0.06284539  1
  O2-  O280  1  0.29725531  0.67122597  0.39771090  1
  O2-  O281  1  0.29779723  0.67089039  0.73497675  1
  O2-  O282  1  0.79050128  0.16672797  0.06276450  1
  O2-  O283  1  0.78599844  0.16195053  0.40547238  1
  O2-  O284  1  0.79013994  0.15950964  0.73762556  1
  O2-  O285  1  0.79126718  0.65939523  0.06548987  1
  O2-  O286  1  0.78716882  0.66503332  0.39804778  1
  O2-  O287  1  0.79206718  0.66629131  0.73175362  1
