# generated using pymatgen
data_Ca2Al2SiO7
_symmetry_space_group_name_H-M   'P 1'
_cell_length_a   15.46438722
_cell_length_b   15.46332711
_cell_length_c   15.28764038
_cell_angle_alpha   89.99839361
_cell_angle_beta   90.01808396
_cell_angle_gamma   90.01239125
_symmetry_Int_Tables_number   1
_chemical_formula_structural   Ca2Al2SiO7
_chemical_formula_sum   'Ca48 Al48 Si24 O168'
_cell_volume   3655.74659807
_cell_formula_units_Z   24
loop_
 _symmetry_equiv_pos_site_id
 _symmetry_equiv_pos_as_xyz
  1  'x, y, z'
loop_
 _atom_type_symbol
 _atom_type_oxidation_number
  Ca2+  2.0
  Al0+  0.0
  Si0+  0.0
  O2-  -2.0
loop_
 _atom_site_type_symbol
 _atom_site_label
 _atom_site_symmetry_multiplicity
 _atom_site_fract_x
 _atom_site_fract_y
 _atom_site_fract_z
 _atom_site_occupancy
  Ca2+  Ca0  1  0.16385385  0.07736536  0.17118261  1
  Ca2+  Ca1  1  0.17006999  0.08018516  0.51490599  1
  Ca2+  Ca2  1  0.16788803  0.07389487  0.83243543  1
  Ca2+  Ca3  1  0.17111716  0.57697320  0.17956301  1
  Ca2+  Ca4  1  0.17223854  0.58206176  0.50751635  1
  Ca2+  Ca5  1  0.17123945  0.58696083  0.82940818  1
  Ca2+  Ca6  1  0.65971910  0.07397114  0.16776089  1
  Ca2+  Ca7  1  0.67040651  0.07463462  0.51155087  1
  Ca2+  Ca8  1  0.65875011  0.07556006  0.83346901  1
  Ca2+  Ca9  1  0.67672701  0.58735247  0.16849461  1
  Ca2+  Ca10  1  0.66381475  0.57849007  0.51136257  1
  Ca2+  Ca11  1  0.66765757  0.58146604  0.83444285  1
  Ca2+  Ca12  1  0.08352323  0.32930807  0.16420101  1
  Ca2+  Ca13  1  0.09771665  0.32306933  0.49883260  1
  Ca2+  Ca14  1  0.07733348  0.33139730  0.82374949  1
  Ca2+  Ca15  1  0.08840305  0.82480334  0.16254475  1
  Ca2+  Ca16  1  0.09433673  0.82146156  0.50005575  1
  Ca2+  Ca17  1  0.08689221  0.83222844  0.82333545  1
  Ca2+  Ca18  1  0.58154699  0.32500439  0.15810878  1
  Ca2+  Ca19  1  0.58645223  0.32923245  0.50258083  1
  Ca2+  Ca20  1  0.58869838  0.32235219  0.82427967  1
  Ca2+  Ca21  1  0.57314400  0.84089486  0.16117423  1
  Ca2+  Ca22  1  0.57321870  0.83948617  0.49955709  1
  Ca2+  Ca23  1  0.57617718  0.83448066  0.82366782  1
  Ca2+  Ca24  1  0.32876278  0.42647613  0.18005456  1
  Ca2+  Ca25  1  0.32437283  0.42938229  0.50789477  1
  Ca2+  Ca26  1  0.32981713  0.42126251  0.82955520  1
  Ca2+  Ca27  1  0.33369319  0.91215844  0.16598524  1
  Ca2+  Ca28  1  0.33217804  0.91811679  0.50923366  1
  Ca2+  Ca29  1  0.32910222  0.91240345  0.83170071  1
  Ca2+  Ca30  1  0.83882539  0.41812687  0.16217316  1
  Ca2+  Ca31  1  0.82739829  0.41818810  0.50672516  1
  Ca2+  Ca32  1  0.83150027  0.41961590  0.83614300  1
  Ca2+  Ca33  1  0.81654142  0.91382965  0.17213592  1
  Ca2+  Ca34  1  0.82169612  0.91976197  0.50929541  1
  Ca2+  Ca35  1  0.82202146  0.92225494  0.83469334  1
  Ca2+  Ca36  1  0.42288004  0.16814896  0.16074593  1
  Ca2+  Ca37  1  0.41937533  0.16104325  0.50297528  1
  Ca2+  Ca38  1  0.42575939  0.16172387  0.82583304  1
  Ca2+  Ca39  1  0.41177602  0.67728514  0.16491657  1
  Ca2+  Ca40  1  0.41101597  0.67613579  0.49926938  1
  Ca2+  Ca41  1  0.41937649  0.67720081  0.82181912  1
  Ca2+  Ca42  1  0.92248726  0.17309373  0.16208715  1
  Ca2+  Ca43  1  0.92819290  0.16009677  0.50048242  1
  Ca2+  Ca44  1  0.91758299  0.16985355  0.82435410  1
  Ca2+  Ca45  1  0.92193755  0.66298236  0.16300528  1
  Ca2+  Ca46  1  0.92919669  0.66659422  0.49875077  1
  Ca2+  Ca47  1  0.92116609  0.66706866  0.82731332  1
  Al0+  Al48  1  -0.00004476  -0.00212513  0.00657956  1
  Al0+  Al49  1  -0.00195599  -0.00021246  0.32665623  1
  Al0+  Al50  1  -0.00221968  0.00136646  0.66983750  1
  Al0+  Al51  1  0.00039300  0.49883916  -0.00029701  1
  Al0+  Al52  1  -0.00095065  0.49747931  0.33342998  1
  Al0+  Al53  1  -0.00064327  0.50042499  0.66438733  1
  Al0+  Al54  1  0.49785287  0.00042360  -0.00351035  1
  Al0+  Al55  1  0.49914904  -0.00139360  0.33246069  1
  Al0+  Al56  1  0.49977041  0.00111545  0.66422494  1
  Al0+  Al57  1  0.49973749  0.50008772  0.00244509  1
  Al0+  Al58  1  0.50123796  0.50146104  0.33524299  1
  Al0+  Al59  1  0.50004002  0.49945898  0.67332508  1
  Al0+  Al60  1  0.25061147  0.24921135  0.00011785  1
  Al0+  Al61  1  0.25173381  0.24943199  0.32913918  1
  Al0+  Al62  1  0.25010212  0.25112446  0.67245807  1
  Al0+  Al63  1  0.25063188  0.74972237  0.00033700  1
  Al0+  Al64  1  0.25074119  0.75118823  0.32665433  1
  Al0+  Al65  1  0.25040456  0.74958099  0.66591986  1
  Al0+  Al66  1  0.75176712  0.24997607  -0.00667030  1
  Al0+  Al67  1  0.75192197  0.24913918  0.33094122  1
  Al0+  Al68  1  0.75040428  0.25191698  0.66714730  1
  Al0+  Al69  1  0.75137196  0.74939529  0.00932631  1
  Al0+  Al70  1  0.74871705  0.74915083  0.33948651  1
  Al0+  Al71  1  0.74999012  0.74983934  0.66637464  1
  Al0+  Al72  1  0.57280140  0.67697246  0.65318471  1
  Al0+  Al73  1  0.93268370  0.32053263  0.98450667  1
  Al0+  Al74  1  0.17876567  0.92812082  0.01604373  1
  Al0+  Al75  1  0.32081713  0.57397335  0.34911143  1
  Al0+  Al76  1  0.82150057  0.56955989  0.01370662  1
  Al0+  Al77  1  0.43094143  0.82065118  0.31720125  1
  Al0+  Al78  1  0.67824524  0.92848774  0.68198511  1
  Al0+  Al79  1  0.06915331  0.67961837  0.31884785  1
  Al0+  Al80  1  0.17712172  0.42911228  0.68311509  1
  Al0+  Al81  1  0.67747481  0.93004666  0.34887608  1
  Al0+  Al82  1  0.67855669  0.42960379  0.68004038  1
  Al0+  Al83  1  0.32195359  0.07242940  0.68151930  1
  Al0+  Al84  1  0.17804421  0.42685718  0.34825091  1
  Al0+  Al85  1  0.42957621  0.81850461  0.98402679  1
  Al0+  Al86  1  0.07070597  0.17969903  0.65571102  1
  Al0+  Al87  1  0.56907782  0.18069372  0.98588833  1
  Al0+  Al88  1  0.57122239  0.18039062  0.65094825  1
  Al0+  Al89  1  0.07008148  0.67988789  0.65404415  1
  Al0+  Al90  1  0.82140187  0.07226113  0.68117755  1
  Al0+  Al91  1  0.32108964  0.57240444  0.68316618  1
  Al0+  Al92  1  0.07287925  0.17816950  0.31914021  1
  Al0+  Al93  1  0.67808957  0.93114254  0.01414385  1
  Al0+  Al94  1  0.43009192  0.82084480  0.65037534  1
  Al0+  Al95  1  0.17887712  0.92827103  0.67856856  1
  Si0+  Si96  1  0.17963532  0.42888261  0.01499884  1
  Si0+  Si97  1  0.32094060  0.07206188  0.01821024  1
  Si0+  Si98  1  0.92692209  0.82364098  0.65108836  1
  Si0+  Si99  1  0.32125110  0.57075839  0.01614108  1
  Si0+  Si100  1  0.07309597  0.17499718  0.98270305  1
  Si0+  Si101  1  0.57498961  0.67719207  0.98572873  1
  Si0+  Si102  1  0.42713870  0.32282205  0.64992925  1
  Si0+  Si103  1  0.42635876  0.32516113  0.98348656  1
  Si0+  Si104  1  0.82146225  0.57023707  0.34967519  1
  Si0+  Si105  1  0.92458928  0.82061231  0.31573143  1
  Si0+  Si106  1  0.67832628  0.42636216  0.01691696  1
  Si0+  Si107  1  0.57133198  0.17985782  0.31887064  1
  Si0+  Si108  1  0.82218948  0.07280942  0.34882318  1
  Si0+  Si109  1  0.57403889  0.67538472  0.31554765  1
  Si0+  Si110  1  0.17729417  0.93033047  0.34577023  1
  Si0+  Si111  1  0.82287636  0.07372980  0.01858790  1
  Si0+  Si112  1  0.92823995  0.32295312  0.64791785  1
  Si0+  Si113  1  0.67937503  0.42721962  0.34614295  1
  Si0+  Si114  1  0.82252328  0.57233786  0.68189086  1
  Si0+  Si115  1  0.43099395  0.32277608  0.31943415  1
  Si0+  Si116  1  0.32052964  0.07101231  0.34596620  1
  Si0+  Si117  1  0.06979142  0.67992896  0.98542092  1
  Si0+  Si118  1  0.92542474  0.32095760  0.31532719  1
  Si0+  Si119  1  0.92691530  0.82080257  0.98713218  1
  O2-  O120  1  0.25038824  0.00580883  0.06362995  1
  O2-  O121  1  0.24400988  0.00548870  0.38666743  1
  O2-  O122  1  0.25020432  -0.00025273  0.73030187  1
  O2-  O123  1  0.25440873  0.49543740  0.05798020  1
  O2-  O124  1  0.24644616  0.50291729  0.39653705  1
  O2-  O125  1  0.24786606  0.50162810  0.73399759  1
  O2-  O126  1  0.75280352  0.00607306  0.06273281  1
  O2-  O127  1  0.75498906  0.00299050  0.39239508  1
  O2-  O128  1  0.74807266  0.00254402  0.73215325  1
  O2-  O129  1  0.74469176  0.49682554  0.06233639  1
  O2-  O130  1  0.74871014  0.49960531  0.38858883  1
  O2-  O131  1  0.75058369  0.50714764  0.72568119  1
  O2-  O132  1  -0.00171862  0.25449179  0.27410520  1
  O2-  O133  1  -0.00167319  0.25517368  0.60511895  1
  O2-  O134  1  0.00466219  0.24351644  0.93874136  1
  O2-  O135  1  -0.00534573  0.75379842  0.26980639  1
  O2-  O136  1  -0.00203214  0.75711823  0.60688567  1
  O2-  O137  1  0.00049861  0.75294740  0.94406452  1
  O2-  O138  1  0.50260851  0.25273993  0.27589760  1
  O2-  O139  1  0.49528432  0.25404642  0.60380744  1
  O2-  O140  1  0.49668885  0.25836102  0.94025145  1
  O2-  O141  1  0.50579773  0.74458647  0.27155466  1
  O2-  O142  1  0.50252350  0.74871524  0.60044568  1
  O2-  O143  1  0.50665841  0.74485021  0.94103133  1
  O2-  O144  1  0.07285722  0.17782770  0.08892425  1
  O2-  O145  1  0.07320149  0.17645717  0.43171697  1
  O2-  O146  1  0.06791172  0.18041590  0.76868824  1
  O2-  O147  1  0.06887583  0.67918499  0.09088621  1
  O2-  O148  1  0.06869638  0.68128585  0.43141432  1
  O2-  O149  1  0.06678963  0.67975668  0.76769648  1
  O2-  O150  1  0.56668204  0.18202818  0.10030423  1
  O2-  O151  1  0.57183158  0.18104340  0.42335890  1
  O2-  O152  1  0.57045816  0.18196358  0.76390636  1
  O2-  O153  1  0.57389134  0.67649719  0.09171939  1
  O2-  O154  1  0.57521473  0.67229146  0.42027312  1
  O2-  O155  1  0.57284703  0.67854506  0.76724665  1
  O2-  O156  1  0.18145771  0.42764940  0.23345108  1
  O2-  O157  1  0.17984811  0.42909699  0.56972528  1
  O2-  O158  1  0.17883573  0.43058712  0.91059785  1
  O2-  O159  1  0.17942629  0.93048466  0.24030504  1
  O2-  O160  1  0.17949990  0.92948268  0.56431870  1
  O2-  O161  1  0.17771368  0.92696095  0.90386142  1
  O2-  O162  1  0.68007457  0.42564191  0.24088894  1
  O2-  O163  1  0.68233368  0.42866573  0.56603600  1
  O2-  O164  1  0.67901391  0.42706096  0.91203812  1
  O2-  O165  1  0.67655103  0.93315497  0.23514592  1
  O2-  O166  1  0.68021429  0.93041808  0.56816491  1
  O2-  O167  1  0.67977948  0.93026260  0.90209471  1
  O2-  O168  1  0.42725106  0.32490766  0.08988672  1
  O2-  O169  1  0.43200940  0.32258101  0.42376327  1
  O2-  O170  1  0.42908851  0.32213993  0.75577323  1
  O2-  O171  1  0.42978376  0.81714620  0.09768130  1
  O2-  O172  1  0.43032347  0.82454153  0.42914256  1
  O2-  O173  1  0.43000241  0.81917188  0.76402177  1
  O2-  O174  1  0.93591405  0.32073045  0.09819294  1
  O2-  O175  1  0.91582389  0.31954873  0.41962507  1
  O2-  O176  1  0.92910976  0.32396151  0.75370843  1
  O2-  O177  1  0.92667255  0.81737130  0.09239793  1
  O2-  O178  1  0.92390910  0.81927030  0.42084883  1
  O2-  O179  1  0.92576963  0.82078718  0.75707860  1
  O2-  O180  1  0.32255079  0.07072453  0.24057129  1
  O2-  O181  1  0.31946159  0.07234966  0.56691752  1
  O2-  O182  1  0.32068452  0.07350102  0.91356500  1
  O2-  O183  1  0.31997823  0.57061284  0.23434970  1
  O2-  O184  1  0.31909731  0.57244668  0.56971553  1
  O2-  O185  1  0.32035641  0.57172903  0.91176363  1
  O2-  O186  1  0.81992191  0.07486922  0.24299100  1
  O2-  O187  1  0.82151916  0.06933589  0.56697703  1
  O2-  O188  1  0.82521228  0.07188715  0.91373965  1
  O2-  O189  1  0.82175772  0.57014191  0.24424394  1
  O2-  O190  1  0.82432393  0.56950001  0.57600469  1
  O2-  O191  1  0.82218606  0.56906567  0.90126589  1
  O2-  O192  1  0.04041353  0.08282361  0.26150625  1
  O2-  O193  1  0.03866952  0.08335869  0.60078915  1
  O2-  O194  1  0.04766035  0.07962338  0.94153610  1
  O2-  O195  1  0.03811194  0.58157659  0.26620652  1
  O2-  O196  1  0.03656378  0.58491119  0.59816244  1
  O2-  O197  1  0.03984275  0.58896841  0.93895987  1
  O2-  O198  1  0.53856393  0.08992301  0.27088214  1
  O2-  O199  1  0.54049163  0.08491140  0.59549017  1
  O2-  O200  1  0.53509264  0.08606261  0.93188545  1
  O2-  O201  1  0.55049845  0.58131314  0.26770325  1
  O2-  O202  1  0.54647232  0.57623710  0.60358985  1
  O2-  O203  1  0.55105409  0.58170482  0.94228432  1
  O2-  O204  1  0.16923643  0.20758226  0.26206642  1
  O2-  O205  1  0.16850185  0.20983456  0.60292477  1
  O2-  O206  1  0.16793810  0.19943219  0.93960162  1
  O2-  O207  1  0.16437621  0.71124945  0.26216270  1
  O2-  O208  1  0.16585767  0.70963244  0.59896510  1
  O2-  O209  1  0.16197293  0.70685066  0.93971012  1
  O2-  O210  1  0.66334160  0.20617583  0.27038529  1
  O2-  O211  1  0.66720390  0.21450098  0.59694334  1
  O2-  O212  1  0.66640506  0.20781747  0.93288940  1
  O2-  O213  1  0.66879337  0.70166296  0.27114001  1
  O2-  O214  1  0.67306551  0.70012904  0.60054065  1
  O2-  O215  1  0.67024146  0.70123170  0.94335696  1
  O2-  O216  1  0.08978504  0.46071420  0.06357643  1
  O2-  O217  1  0.07641527  0.44642437  0.39682086  1
  O2-  O218  1  0.07768316  0.45755645  0.73373037  1
  O2-  O219  1  0.08130584  0.95410780  0.07269786  1
  O2-  O220  1  0.08245113  0.95204795  0.38884676  1
  O2-  O221  1  0.08036263  0.95490380  0.73188059  1
  O2-  O222  1  0.58319997  0.44841071  0.06313525  1
  O2-  O223  1  0.58772989  0.45254793  0.39412073  1
  O2-  O224  1  0.58273664  0.45361419  0.73768974  1
  O2-  O225  1  0.58134147  0.96505623  0.06723380  1
  O2-  O226  1  0.58206206  0.96497502  0.40124570  1
  O2-  O227  1  0.58023506  0.95832401  0.73266217  1
  O2-  O228  1  0.20273826  0.33461106  0.06096259  1
  O2-  O229  1  0.21232702  0.32902278  0.39813384  1
  O2-  O230  1  0.20630920  0.33265979  0.73883657  1
  O2-  O231  1  0.21313680  0.83181728  0.07015211  1
  O2-  O232  1  0.20906136  0.83926742  0.39062125  1
  O2-  O233  1  0.20651555  0.83072947  0.73266317  1
  O2-  O234  1  0.70760665  0.33341470  0.06307636  1
  O2-  O235  1  0.70878985  0.33552171  0.39318096  1
  O2-  O236  1  0.71332076  0.33554402  0.73548153  1
  O2-  O237  1  0.70955900  0.83549120  0.07089062  1
  O2-  O238  1  0.70548772  0.83243496  0.40136674  1
  O2-  O239  1  0.70806163  0.83013819  0.73409364  1
  O2-  O240  1  0.45910636  0.41425637  0.27016061  1
  O2-  O241  1  0.45469418  0.41605051  0.60503722  1
  O2-  O242  1  0.44912587  0.41998352  0.93889621  1
  O2-  O243  1  0.46326550  0.91714809  0.26153813  1
  O2-  O244  1  0.45753640  0.91921264  0.59696584  1
  O2-  O245  1  0.45629890  0.91649494  0.93312102  1
  O2-  O246  1  0.94892392  0.41516472  0.26931194  1
  O2-  O247  1  0.95120165  0.41675375  0.60126825  1
  O2-  O248  1  0.96493537  0.41651992  0.93038422  1
  O2-  O249  1  0.94594842  0.91499288  0.26893018  1
  O2-  O250  1  0.94887143  0.91778132  0.60562227  1
  O2-  O251  1  0.95136510  0.91463289  0.94298150  1
  O2-  O252  1  0.34111054  0.29370015  0.26829760  1
  O2-  O253  1  0.33348478  0.29728142  0.60478193  1
  O2-  O254  1  0.33267354  0.29902791  0.93842796  1
  O2-  O255  1  0.33505915  0.79045030  0.26038673  1
  O2-  O256  1  0.33165345  0.79159062  0.59789422  1
  O2-  O257  1  0.33309829  0.78506677  0.93202015  1
  O2-  O258  1  0.83448040  0.29146174  0.26324900  1
  O2-  O259  1  0.83514124  0.29704489  0.60148841  1
  O2-  O260  1  0.83488163  0.29506300  0.93114138  1
  O2-  O261  1  0.83127842  0.79104127  0.26994189  1
  O2-  O262  1  0.83546105  0.79462553  0.60245421  1
  O2-  O263  1  0.83615338  0.78954148  0.94018090  1
  O2-  O264  1  0.41342142  0.04355180  0.06536798  1
  O2-  O265  1  0.41045122  0.03926576  0.39391093  1
  O2-  O266  1  0.42018632  0.04422847  0.73308369  1
  O2-  O267  1  0.41457435  0.54726717  0.06425165  1
  O2-  O268  1  0.42006991  0.54480550  0.39906344  1
  O2-  O269  1  0.41757985  0.54254670  0.73858641  1
  O2-  O270  1  0.91566075  0.04786810  0.06701363  1
  O2-  O271  1  0.91714126  0.04771422  0.39229144  1
  O2-  O272  1  0.91752515  0.04354736  0.73793562  1
  O2-  O273  1  0.91699237  0.53465732  0.06949288  1
  O2-  O274  1  0.91202381  0.54049117  0.39758039  1
  O2-  O275  1  0.91390583  0.54290165  0.72972823  1
  O2-  O276  1  0.29893051  0.16745285  0.06505951  1
  O2-  O277  1  0.29948393  0.16481588  0.39122617  1
  O2-  O278  1  0.29630752  0.16996412  0.73652148  1
  O2-  O279  1  0.28852834  0.66039606  0.06450442  1
  O2-  O280  1  0.29187953  0.67347759  0.39765804  1
  O2-  O281  1  0.28972073  0.66908396  0.73703036  1
  O2-  O282  1  0.79756490  0.16871515  0.06256790  1
  O2-  O283  1  0.79601053  0.16611057  0.39478646  1
  O2-  O284  1  0.79693371  0.17196190  0.73164842  1
  O2-  O285  1  0.79333889  0.66442145  0.07359392  1
  O2-  O286  1  0.79619511  0.66165458  0.39793392  1
  O2-  O287  1  0.80166270  0.66661750  0.72784199  1
