# generated using pymatgen
data_Ca2Al2SiO7
_symmetry_space_group_name_H-M   'P 1'
_cell_length_a   15.45582999
_cell_length_b   15.45676536
_cell_length_c   15.28225813
_cell_angle_alpha   90.01314766
_cell_angle_beta   90.00976310
_cell_angle_gamma   89.99307719
_symmetry_Int_Tables_number   1
_chemical_formula_structural   Ca2Al2SiO7
_chemical_formula_sum   'Ca48 Al48 Si24 O168'
_cell_volume   3650.88754629
_cell_formula_units_Z   24
loop_
 _symmetry_equiv_pos_site_id
 _symmetry_equiv_pos_as_xyz
  1  'x, y, z'
loop_
 _atom_type_symbol
 _atom_type_oxidation_number
  Ca2+  2.0
  Al0+  0.0
  Si0+  0.0
  O2-  -2.0
loop_
 _atom_site_type_symbol
 _atom_site_label
 _atom_site_symmetry_multiplicity
 _atom_site_fract_x
 _atom_site_fract_y
 _atom_site_fract_z
 _atom_site_occupancy
  Ca2+  Ca0  1  0.16317194  0.08062776  0.16491719  1
  Ca2+  Ca1  1  0.16654687  0.08018958  0.50843640  1
  Ca2+  Ca2  1  0.15822063  0.07465413  0.83844264  1
  Ca2+  Ca3  1  0.16653011  0.57349081  0.16974963  1
  Ca2+  Ca4  1  0.16643331  0.57002250  0.50387191  1
  Ca2+  Ca5  1  0.16096972  0.57188285  0.83940698  1
  Ca2+  Ca6  1  0.66585716  0.07807660  0.17377797  1
  Ca2+  Ca7  1  0.67510183  0.09519509  0.49928567  1
  Ca2+  Ca8  1  0.67060025  0.07513282  0.84107525  1
  Ca2+  Ca9  1  0.66884026  0.58404135  0.17621619  1
  Ca2+  Ca10  1  0.67171333  0.57476155  0.50289378  1
  Ca2+  Ca11  1  0.67186684  0.58548907  0.83341505  1
  Ca2+  Ca12  1  0.07859801  0.33505666  0.16004972  1
  Ca2+  Ca13  1  0.07496086  0.34076875  0.49745295  1
  Ca2+  Ca14  1  0.08599042  0.32429988  0.82557694  1
  Ca2+  Ca15  1  0.08281793  0.82480715  0.15630458  1
  Ca2+  Ca16  1  0.07817798  0.83555358  0.50177773  1
  Ca2+  Ca17  1  0.08603867  0.82926093  0.82593807  1
  Ca2+  Ca18  1  0.57438809  0.33773365  0.16513842  1
  Ca2+  Ca19  1  0.58159402  0.33635757  0.48798610  1
  Ca2+  Ca20  1  0.57772492  0.33923953  0.82983565  1
  Ca2+  Ca21  1  0.58359110  0.82269294  0.15686023  1
  Ca2+  Ca22  1  0.57838428  0.82653161  0.49424520  1
  Ca2+  Ca23  1  0.57666836  0.83319367  0.83152084  1
  Ca2+  Ca24  1  0.32350369  0.40352723  0.16902776  1
  Ca2+  Ca25  1  0.32425650  0.40966349  0.50250637  1
  Ca2+  Ca26  1  0.32308121  0.41328793  0.84039648  1
  Ca2+  Ca27  1  0.32892488  0.90955875  0.16483457  1
  Ca2+  Ca28  1  0.32921194  0.91797333  0.50995344  1
  Ca2+  Ca29  1  0.32770402  0.91265673  0.83926643  1
  Ca2+  Ca30  1  0.82752253  0.42352640  0.18146245  1
  Ca2+  Ca31  1  0.82974442  0.42191939  0.50657966  1
  Ca2+  Ca32  1  0.83268867  0.41709016  0.83036518  1
  Ca2+  Ca33  1  0.82772833  0.92357654  0.17099548  1
  Ca2+  Ca34  1  0.83574702  0.92318353  0.50388952  1
  Ca2+  Ca35  1  0.83109476  0.91354506  0.83867430  1
  Ca2+  Ca36  1  0.41929063  0.17677730  0.16748598  1
  Ca2+  Ca37  1  0.42624510  0.17339488  0.49115130  1
  Ca2+  Ca38  1  0.41603561  0.17093675  0.83455339  1
  Ca2+  Ca39  1  0.43081557  0.66721391  0.15811465  1
  Ca2+  Ca40  1  0.42037325  0.67064800  0.49584432  1
  Ca2+  Ca41  1  0.41896210  0.67672589  0.83203513  1
  Ca2+  Ca42  1  0.91676993  0.17295127  0.16639844  1
  Ca2+  Ca43  1  0.91956016  0.17905334  0.49591099  1
  Ca2+  Ca44  1  0.92962596  0.17081155  0.82543997  1
  Ca2+  Ca45  1  0.92148774  0.66226063  0.16225668  1
  Ca2+  Ca46  1  0.90626286  0.66805285  0.49984418  1
  Ca2+  Ca47  1  0.92051492  0.67061342  0.82799590  1
  Al0+  Al48  1  -0.00010716  0.00180329  0.00343425  1
  Al0+  Al49  1  -0.00221959  -0.00067343  0.33618062  1
  Al0+  Al50  1  0.00142375  -0.00123855  0.66305784  1
  Al0+  Al51  1  -0.00134952  0.50082301  -0.00036316  1
  Al0+  Al52  1  0.00037964  0.50111250  0.33692831  1
  Al0+  Al53  1  0.00026429  0.49991900  0.67245453  1
  Al0+  Al54  1  0.50009669  0.00060916  0.00310982  1
  Al0+  Al55  1  0.49675807  -0.00014452  0.33006639  1
  Al0+  Al56  1  0.50004283  0.00052585  0.66203331  1
  Al0+  Al57  1  0.50041481  0.50060164  -0.01028413  1
  Al0+  Al58  1  0.49699258  0.50305592  0.32783103  1
  Al0+  Al59  1  0.50041196  0.50074542  0.66946332  1
  Al0+  Al60  1  0.24926433  0.24808274  -0.00321755  1
  Al0+  Al61  1  0.24943586  0.24556546  0.33580015  1
  Al0+  Al62  1  0.25331950  0.24758356  0.66698409  1
  Al0+  Al63  1  0.25039636  0.74763817  -0.00224497  1
  Al0+  Al64  1  0.24724746  0.74868375  0.33487295  1
  Al0+  Al65  1  0.25082138  0.75030589  0.66397539  1
  Al0+  Al66  1  0.74944844  0.25159706  0.00056061  1
  Al0+  Al67  1  0.75133616  0.24826046  0.33132272  1
  Al0+  Al68  1  0.75163489  0.25000424  0.67132609  1
  Al0+  Al69  1  0.75040745  0.75009954  0.00163494  1
  Al0+  Al70  1  0.74926321  0.75245007  0.33282080  1
  Al0+  Al71  1  0.75054243  0.74956529  0.66561150  1
  Al0+  Al72  1  0.57472898  0.67853672  0.98150082  1
  Al0+  Al73  1  0.93107835  0.32270553  0.31988668  1
  Al0+  Al74  1  0.82079654  0.57254820  0.68447468  1
  Al0+  Al75  1  0.06909489  0.17968351  0.98736925  1
  Al0+  Al76  1  0.92855878  0.81985877  0.65317294  1
  Al0+  Al77  1  0.17900944  0.92707175  0.01380836  1
  Al0+  Al78  1  0.17950843  0.42798552  0.01380696  1
  Al0+  Al79  1  0.92972501  0.32164546  0.65164923  1
  Al0+  Al80  1  0.67914339  0.92927442  0.01358170  1
  Al0+  Al81  1  0.57028342  0.68132318  0.32038603  1
  Al0+  Al82  1  0.42689825  0.32204114  0.31915461  1
  Al0+  Al83  1  0.82172593  0.57308141  0.34848681  1
  Al0+  Al84  1  0.42943413  0.31946903  0.98460604  1
  Al0+  Al85  1  0.67650262  0.42957190  0.34466105  1
  Al0+  Al86  1  0.57321029  0.17867015  0.31803651  1
  Al0+  Al87  1  0.42902135  0.82138979  0.65144620  1
  Al0+  Al88  1  0.67799332  0.42708384  0.68335149  1
  Al0+  Al89  1  0.17978901  0.93019359  0.68013306  1
  Al0+  Al90  1  0.07094592  0.67788952  0.98688908  1
  Al0+  Al91  1  0.18100738  0.42821978  0.68169064  1
  Al0+  Al92  1  0.07347650  0.17838816  0.65012177  1
  Al0+  Al93  1  0.82047631  0.07080386  0.34817847  1
  Al0+  Al94  1  0.18036684  0.42710390  0.34645100  1
  Al0+  Al95  1  0.42938409  0.82213093  0.98548110  1
  Si0+  Si96  1  0.07109032  0.17552603  0.31645929  1
  Si0+  Si97  1  0.67608035  0.92921854  0.35080158  1
  Si0+  Si98  1  0.32530427  0.07053060  0.68439845  1
  Si0+  Si99  1  0.17848509  0.92707576  0.34873622  1
  Si0+  Si100  1  0.32207768  0.07199741  0.01873603  1
  Si0+  Si101  1  0.32331067  0.57053179  0.01579258  1
  Si0+  Si102  1  0.57378440  0.17819230  0.98319517  1
  Si0+  Si103  1  0.07262927  0.67700722  0.64899519  1
  Si0+  Si104  1  0.92608514  0.32358429  0.98340217  1
  Si0+  Si105  1  0.57169895  0.17882002  0.65381420  1
  Si0+  Si106  1  0.43070165  0.32210585  0.65213167  1
  Si0+  Si107  1  0.92942827  0.82280168  0.31731210  1
  Si0+  Si108  1  0.82191286  0.07019006  0.68251387  1
  Si0+  Si109  1  0.82213458  0.07390744  0.01712350  1
  Si0+  Si110  1  0.42451294  0.82200504  0.31622792  1
  Si0+  Si111  1  0.07073936  0.67972729  0.31901157  1
  Si0+  Si112  1  0.92991915  0.82219837  0.98644294  1
  Si0+  Si113  1  0.67712748  0.42903747  0.01525797  1
  Si0+  Si114  1  0.32055627  0.57434655  0.34931019  1
  Si0+  Si115  1  0.32058518  0.06911409  0.34942938  1
  Si0+  Si116  1  0.32281434  0.57285626  0.68390783  1
  Si0+  Si117  1  0.67839289  0.92973710  0.67925625  1
  Si0+  Si118  1  0.81986532  0.57040786  0.01576225  1
  Si0+  Si119  1  0.57199634  0.67813893  0.64812071  1
  O2-  O120  1  0.25515675  0.00009218  0.06195500  1
  O2-  O121  1  0.25049751  -0.00324913  0.39067994  1
  O2-  O122  1  0.25432484  0.00422378  0.72796168  1
  O2-  O123  1  0.25572081  0.50116851  0.06132520  1
  O2-  O124  1  0.25773037  0.49988268  0.39284763  1
  O2-  O125  1  0.25497095  0.50378682  0.72857190  1
  O2-  O126  1  0.75165898  0.00627267  0.06018746  1
  O2-  O127  1  0.74121960  0.00059149  0.39608186  1
  O2-  O128  1  0.75101331  -0.00179227  0.72350233  1
  O2-  O129  1  0.74828595  0.49968027  0.05720143  1
  O2-  O130  1  0.75036643  0.49902626  0.39604947  1
  O2-  O131  1  0.74975730  0.49921502  0.73418698  1
  O2-  O132  1  0.00698783  0.24861628  0.27283415  1
  O2-  O133  1  0.00492936  0.25339258  0.60027786  1
  O2-  O134  1  -0.00482663  0.25482742  0.94066004  1
  O2-  O135  1  -0.00194001  0.74927901  0.27636154  1
  O2-  O136  1  0.00191721  0.74418978  0.60474582  1
  O2-  O137  1  0.00148702  0.75783626  0.94107272  1
  O2-  O138  1  0.50439509  0.25481672  0.26957894  1
  O2-  O139  1  0.50572111  0.25457308  0.61172363  1
  O2-  O140  1  0.50678221  0.24724107  0.93723858  1
  O2-  O141  1  0.49562214  0.75629127  0.27322211  1
  O2-  O142  1  0.50227846  0.74622904  0.60414005  1
  O2-  O143  1  0.50278798  0.75228240  0.93424415  1
  O2-  O144  1  0.06730821  0.17959072  0.10070811  1
  O2-  O145  1  0.06970914  0.17241565  0.42167277  1
  O2-  O146  1  0.07032619  0.17693020  0.76387719  1
  O2-  O147  1  0.06735531  0.67680702  0.10064628  1
  O2-  O148  1  0.07498013  0.68308247  0.42373631  1
  O2-  O149  1  0.07330124  0.67971955  0.75472730  1
  O2-  O150  1  0.57465322  0.17936111  0.08827493  1
  O2-  O151  1  0.56903105  0.17714388  0.43224559  1
  O2-  O152  1  0.56842312  0.17457797  0.75893662  1
  O2-  O153  1  0.57514184  0.67874237  0.09535659  1
  O2-  O154  1  0.56811500  0.68406994  0.43356677  1
  O2-  O155  1  0.57205576  0.68074054  0.75350162  1
  O2-  O156  1  0.17952739  0.42911363  0.23319530  1
  O2-  O157  1  0.18308831  0.42933353  0.56829187  1
  O2-  O158  1  0.18033117  0.42843681  0.90085273  1
  O2-  O159  1  0.17883273  0.92557652  0.24362766  1
  O2-  O160  1  0.18171243  0.93145550  0.56628181  1
  O2-  O161  1  0.17765157  0.92904871  0.90110287  1
  O2-  O162  1  0.67775973  0.43337646  0.23049984  1
  O2-  O163  1  0.67476732  0.42716385  0.57006117  1
  O2-  O164  1  0.67972641  0.42694438  0.91040247  1
  O2-  O165  1  0.67948900  0.92841020  0.24514989  1
  O2-  O166  1  0.67783357  0.93196861  0.57427565  1
  O2-  O167  1  0.68176769  0.93105473  0.89971162  1
  O2-  O168  1  0.42935678  0.31768250  0.09741512  1
  O2-  O169  1  0.42534277  0.31765824  0.43311599  1
  O2-  O170  1  0.42942041  0.31969741  0.75730446  1
  O2-  O171  1  0.43036681  0.81841980  0.09941382  1
  O2-  O172  1  0.42354673  0.82160683  0.42202900  1
  O2-  O173  1  0.43100604  0.82276175  0.76399768  1
  O2-  O174  1  0.92552327  0.32355146  0.08917508  1
  O2-  O175  1  0.93207910  0.32322267  0.43252177  1
  O2-  O176  1  0.92903243  0.31666171  0.76554562  1
  O2-  O177  1  0.93019560  0.82006968  0.09245895  1
  O2-  O178  1  0.93138316  0.82518685  0.42234179  1
  O2-  O179  1  0.92905040  0.82059999  0.76640858  1
  O2-  O180  1  0.32011085  0.07007130  0.24456757  1
  O2-  O181  1  0.32774590  0.06851864  0.57857902  1
  O2-  O182  1  0.32255274  0.07280066  0.91311407  1
  O2-  O183  1  0.31563326  0.58222619  0.24444414  1
  O2-  O184  1  0.32327524  0.57128101  0.57793557  1
  O2-  O185  1  0.32149681  0.56939547  0.91009859  1
  O2-  O186  1  0.82422308  0.06508005  0.23519206  1
  O2-  O187  1  0.81963406  0.07106844  0.57747377  1
  O2-  O188  1  0.82189235  0.07290647  0.91121108  1
  O2-  O189  1  0.82230298  0.57289023  0.23427693  1
  O2-  O190  1  0.81620428  0.57407183  0.57116122  1
  O2-  O191  1  0.82068585  0.57132253  0.91107928  1
  O2-  O192  1  0.04035861  0.08294588  0.26987801  1
  O2-  O193  1  0.04225419  0.08115801  0.59698954  1
  O2-  O194  1  0.03695123  0.08286395  0.93349373  1
  O2-  O195  1  0.04412410  0.58813827  0.27152634  1
  O2-  O196  1  0.04858562  0.58250347  0.60540892  1
  O2-  O197  1  0.03504411  0.58393687  0.93113891  1
  O2-  O198  1  0.53885682  0.08111040  0.26469319  1
  O2-  O199  1  0.54073981  0.09011163  0.60209107  1
  O2-  O200  1  0.54684208  0.08473519  0.93759137  1
  O2-  O201  1  0.53966642  0.58669704  0.26281470  1
  O2-  O202  1  0.54517980  0.58401756  0.60368758  1
  O2-  O203  1  0.54653343  0.58179975  0.92617586  1
  O2-  O204  1  0.16684383  0.19498269  0.27309367  1
  O2-  O205  1  0.17527957  0.20013770  0.60082799  1
  O2-  O206  1  0.16554416  0.20656704  0.93223070  1
  O2-  O207  1  0.16120920  0.71015357  0.26941202  1
  O2-  O208  1  0.16514914  0.70424279  0.60145343  1
  O2-  O209  1  0.16816957  0.70272846  0.93291785  1
  O2-  O210  1  0.67336162  0.19654031  0.26562921  1
  O2-  O211  1  0.66574427  0.20203088  0.60986271  1
  O2-  O212  1  0.66815223  0.20177836  0.93669825  1
  O2-  O213  1  0.66660163  0.71378779  0.26566501  1
  O2-  O214  1  0.66451094  0.70598687  0.60221933  1
  O2-  O215  1  0.67301226  0.70951952  0.92995405  1
  O2-  O216  1  0.08209248  0.46071932  0.06587118  1
  O2-  O217  1  0.08665359  0.46381938  0.40165236  1
  O2-  O218  1  0.08472591  0.45713689  0.73633731  1
  O2-  O219  1  0.08283699  0.95929621  0.06956762  1
  O2-  O220  1  0.08699198  0.95603196  0.39554563  1
  O2-  O221  1  0.08229809  0.95923654  0.73329612  1
  O2-  O222  1  0.58372286  0.45679026  0.05853809  1
  O2-  O223  1  0.57680714  0.45868692  0.39557139  1
  O2-  O224  1  0.57921605  0.45646835  0.73646845  1
  O2-  O225  1  0.58270861  0.95810961  0.06901814  1
  O2-  O226  1  0.57930590  0.94949701  0.39276301  1
  O2-  O227  1  0.58760658  0.96144163  0.72688845  1
  O2-  O228  1  0.21033115  0.33057676  0.06624861  1
  O2-  O229  1  0.20791441  0.32931954  0.40012795  1
  O2-  O230  1  0.21435785  0.33092874  0.73346146  1
  O2-  O231  1  0.20863592  0.82945174  0.06789134  1
  O2-  O232  1  0.20461622  0.83536290  0.39750520  1
  O2-  O233  1  0.20976543  0.83204105  0.73113557  1
  O2-  O234  1  0.70248850  0.33609675  0.06238396  1
  O2-  O235  1  0.70020582  0.32865676  0.39334536  1
  O2-  O236  1  0.70551756  0.32861219  0.73869363  1
  O2-  O237  1  0.71299184  0.83409598  0.06905342  1
  O2-  O238  1  0.70618886  0.83786268  0.39830013  1
  O2-  O239  1  0.70388386  0.83751996  0.72600803  1
  O2-  O240  1  0.44510271  0.42241523  0.26644832  1
  O2-  O241  1  0.45337294  0.41574299  0.60624730  1
  O2-  O242  1  0.45760007  0.41515458  0.92818553  1
  O2-  O243  1  0.44486741  0.91667934  0.27086547  1
  O2-  O244  1  0.46103551  0.91735213  0.59576196  1
  O2-  O245  1  0.45487147  0.92253430  0.93500463  1
  O2-  O246  1  0.96155642  0.41993351  0.26598465  1
  O2-  O247  1  0.95519998  0.42241519  0.60261592  1
  O2-  O248  1  0.95070641  0.41698205  0.93789028  1
  O2-  O249  1  0.96096936  0.91272034  0.26820659  1
  O2-  O250  1  0.96143238  0.91461386  0.59654435  1
  O2-  O251  1  0.94951605  0.91786217  0.94296392  1
  O2-  O252  1  0.33090335  0.28304931  0.26633878  1
  O2-  O253  1  0.34103816  0.28991149  0.60356841  1
  O2-  O254  1  0.33472169  0.28462411  0.92974455  1
  O2-  O255  1  0.33061305  0.79400950  0.27161213  1
  O2-  O256  1  0.33275564  0.79117497  0.59585505  1
  O2-  O257  1  0.33182037  0.79182633  0.93220292  1
  O2-  O258  1  0.83552328  0.29034825  0.26497441  1
  O2-  O259  1  0.83092081  0.28936064  0.60105413  1
  O2-  O260  1  0.83214892  0.29787269  0.93747986  1
  O2-  O261  1  0.83631655  0.79930706  0.27098543  1
  O2-  O262  1  0.83143301  0.79242458  0.59740703  1
  O2-  O263  1  0.83782896  0.79319224  0.93994277  1
  O2-  O264  1  0.41629826  0.05028701  0.06551243  1
  O2-  O265  1  0.41260452  0.04205818  0.39797298  1
  O2-  O266  1  0.41816118  0.04237718  0.73133157  1
  O2-  O267  1  0.41880058  0.54559883  0.05848435  1
  O2-  O268  1  0.41587683  0.55488667  0.39338793  1
  O2-  O269  1  0.41658444  0.54966798  0.73030207  1
  O2-  O270  1  0.91390465  0.04702826  0.06576531  1
  O2-  O271  1  0.91465251  0.03417787  0.40433629  1
  O2-  O272  1  0.91329050  0.03997697  0.72844697  1
  O2-  O273  1  0.91120276  0.54194941  0.06409125  1
  O2-  O274  1  0.92051162  0.54856702  0.40158976  1
  O2-  O275  1  0.91992002  0.54752037  0.73737911  1
  O2-  O276  1  0.29066557  0.16335515  0.06571677  1
  O2-  O277  1  0.29236740  0.15879602  0.40067909  1
  O2-  O278  1  0.30348354  0.16494587  0.72998928  1
  O2-  O279  1  0.29770302  0.66356136  0.06261133  1
  O2-  O280  1  0.28889355  0.66493131  0.40058644  1
  O2-  O281  1  0.29681121  0.66683105  0.72839844  1
  O2-  O282  1  0.79725536  0.16828029  0.06251644  1
  O2-  O283  1  0.79328088  0.16765187  0.40316525  1
  O2-  O284  1  0.79371082  0.16003068  0.73308619  1
  O2-  O285  1  0.79443123  0.66265573  0.06380495  1
  O2-  O286  1  0.79272340  0.67263422  0.39926441  1
  O2-  O287  1  0.79068388  0.67148956  0.73737648  1
