# generated using pymatgen
data_Ca2Al2SiO7
_symmetry_space_group_name_H-M   'P 1'
_cell_length_a   15.47075607
_cell_length_b   15.46624841
_cell_length_c   15.29089172
_cell_angle_alpha   89.99763919
_cell_angle_beta   89.99695942
_cell_angle_gamma   90.00468790
_symmetry_Int_Tables_number   1
_chemical_formula_structural   Ca2Al2SiO7
_chemical_formula_sum   'Ca48 Al48 Si24 O168'
_cell_volume   3658.72131483
_cell_formula_units_Z   24
loop_
 _symmetry_equiv_pos_site_id
 _symmetry_equiv_pos_as_xyz
  1  'x, y, z'
loop_
 _atom_type_symbol
 _atom_type_oxidation_number
  Ca2+  2.0
  Al0+  0.0
  Si0+  0.0
  O2-  -2.0
loop_
 _atom_site_type_symbol
 _atom_site_label
 _atom_site_symmetry_multiplicity
 _atom_site_fract_x
 _atom_site_fract_y
 _atom_site_fract_z
 _atom_site_occupancy
  Ca2+  Ca0  1  0.16314768  0.08366627  0.16683289  1
  Ca2+  Ca1  1  0.15876606  0.07984579  0.50506658  1
  Ca2+  Ca2  1  0.15919633  0.07789080  0.84068299  1
  Ca2+  Ca3  1  0.16007290  0.57423597  0.16712663  1
  Ca2+  Ca4  1  0.17482129  0.58533791  0.50649336  1
  Ca2+  Ca5  1  0.17016385  0.57792996  0.83736861  1
  Ca2+  Ca6  1  0.67524656  0.08099796  0.17339705  1
  Ca2+  Ca7  1  0.66903795  0.07746181  0.50254481  1
  Ca2+  Ca8  1  0.68386402  0.08399876  0.83794853  1
  Ca2+  Ca9  1  0.67413064  0.57411337  0.17245660  1
  Ca2+  Ca10  1  0.67582779  0.58693510  0.49845705  1
  Ca2+  Ca11  1  0.68088595  0.57672490  0.83958515  1
  Ca2+  Ca12  1  0.07837671  0.32508037  0.15587668  1
  Ca2+  Ca13  1  0.07693707  0.32286082  0.49682515  1
  Ca2+  Ca14  1  0.07578486  0.32585835  0.83021579  1
  Ca2+  Ca15  1  0.07234929  0.83109681  0.15982527  1
  Ca2+  Ca16  1  0.07153335  0.83707628  0.49905999  1
  Ca2+  Ca17  1  0.07562411  0.84176594  0.83106257  1
  Ca2+  Ca18  1  0.59091620  0.33381676  0.16434992  1
  Ca2+  Ca19  1  0.58560628  0.32881555  0.49205375  1
  Ca2+  Ca20  1  0.58609549  0.33648997  0.83345278  1
  Ca2+  Ca21  1  0.58648096  0.83149431  0.16895893  1
  Ca2+  Ca22  1  0.57865971  0.82789892  0.48343482  1
  Ca2+  Ca23  1  0.58081083  0.83138693  0.83017125  1
  Ca2+  Ca24  1  0.32446130  0.41179767  0.16598190  1
  Ca2+  Ca25  1  0.33271660  0.42352840  0.50547644  1
  Ca2+  Ca26  1  0.32554144  0.41989023  0.83869670  1
  Ca2+  Ca27  1  0.32835833  0.91817436  0.16759085  1
  Ca2+  Ca28  1  0.32633298  0.91447060  0.50569278  1
  Ca2+  Ca29  1  0.31631276  0.92340062  0.84156342  1
  Ca2+  Ca30  1  0.83340154  0.42574569  0.17230780  1
  Ca2+  Ca31  1  0.83226732  0.42498004  0.50515941  1
  Ca2+  Ca32  1  0.84026857  0.42307873  0.84261806  1
  Ca2+  Ca33  1  0.83790721  0.92034318  0.17089852  1
  Ca2+  Ca34  1  0.83298895  0.91711715  0.50396342  1
  Ca2+  Ca35  1  0.84712784  0.92761813  0.83621556  1
  Ca2+  Ca36  1  0.42505649  0.16054391  0.16377880  1
  Ca2+  Ca37  1  0.42492980  0.16804604  0.49110143  1
  Ca2+  Ca38  1  0.41633529  0.16341688  0.83468907  1
  Ca2+  Ca39  1  0.42390762  0.67039036  0.16620518  1
  Ca2+  Ca40  1  0.42161300  0.67187672  0.48924790  1
  Ca2+  Ca41  1  0.41750111  0.66341509  0.82716763  1
  Ca2+  Ca42  1  0.92544259  0.16915909  0.15541262  1
  Ca2+  Ca43  1  0.92306569  0.16499648  0.50133829  1
  Ca2+  Ca44  1  0.92034888  0.17293254  0.82831118  1
  Ca2+  Ca45  1  0.89848677  0.67757941  0.16449130  1
  Ca2+  Ca46  1  0.90530700  0.67566354  0.49651497  1
  Ca2+  Ca47  1  0.91017869  0.67537291  0.82949365  1
  Al0+  Al48  1  0.00050483  -0.00205294  0.00301648  1
  Al0+  Al49  1  0.00167464  -0.00070378  0.32668022  1
  Al0+  Al50  1  -0.00136757  -0.00118530  0.66560850  1
  Al0+  Al51  1  0.00189227  0.50316858  0.00614430  1
  Al0+  Al52  1  0.00136042  0.50010461  0.34182708  1
  Al0+  Al53  1  0.00091649  0.50030075  0.66620454  1
  Al0+  Al54  1  0.49849051  -0.00063482  -0.00061115  1
  Al0+  Al55  1  0.49899739  0.00226169  0.32963804  1
  Al0+  Al56  1  0.49835661  -0.00120675  0.66672645  1
  Al0+  Al57  1  0.50159345  0.49988938  0.00138713  1
  Al0+  Al58  1  0.49823730  0.49976594  0.33170534  1
  Al0+  Al59  1  0.50042277  0.50012652  0.66921777  1
  Al0+  Al60  1  0.25347205  0.25040565  0.00310778  1
  Al0+  Al61  1  0.25019480  0.24844574  0.33222943  1
  Al0+  Al62  1  0.25242907  0.24970507  0.66138460  1
  Al0+  Al63  1  0.25124436  0.75165170  0.00304151  1
  Al0+  Al64  1  0.24777124  0.75098640  0.32900614  1
  Al0+  Al65  1  0.24979916  0.75086173  0.67595782  1
  Al0+  Al66  1  0.74997732  0.24827809  0.00238404  1
  Al0+  Al67  1  0.75157752  0.25107596  0.33422039  1
  Al0+  Al68  1  0.74900453  0.24892513  0.66520786  1
  Al0+  Al69  1  0.74733794  0.74925418  -0.00531865  1
  Al0+  Al70  1  0.74725700  0.75126412  0.33199849  1
  Al0+  Al71  1  0.74732046  0.74770122  0.66717792  1
  Al0+  Al72  1  0.57291060  0.18066241  0.31986865  1
  Al0+  Al73  1  0.92873274  0.81869201  0.65285354  1
  Al0+  Al74  1  0.67929188  0.42820036  0.01429721  1
  Al0+  Al75  1  0.42573915  0.82278696  0.31702429  1
  Al0+  Al76  1  0.17957506  0.43027330  0.01262044  1
  Al0+  Al77  1  0.82191615  0.57122867  0.68170783  1
  Al0+  Al78  1  0.67870472  0.93200768  0.34536533  1
  Al0+  Al79  1  0.07033341  0.17995507  0.31783500  1
  Al0+  Al80  1  0.07264853  0.17942836  0.98482132  1
  Al0+  Al81  1  0.67743365  0.42715126  0.35023929  1
  Al0+  Al82  1  0.92892462  0.81841207  0.32029272  1
  Al0+  Al83  1  0.17788019  0.92928463  0.01895729  1
  Al0+  Al84  1  0.92671280  0.32387132  0.65057782  1
  Al0+  Al85  1  0.32160110  0.57034063  0.67898579  1
  Al0+  Al86  1  0.92777315  0.32288327  0.98739811  1
  Al0+  Al87  1  0.32214776  0.07181534  0.01657783  1
  Al0+  Al88  1  0.82243999  0.57275764  0.01496446  1
  Al0+  Al89  1  0.17888084  0.93166991  0.67921419  1
  Al0+  Al90  1  0.57048846  0.67800896  0.31620668  1
  Al0+  Al91  1  0.81891502  0.06949773  0.67867747  1
  Al0+  Al92  1  0.82051651  0.57181747  0.35073287  1
  Al0+  Al93  1  0.82150007  0.06916205  0.01376081  1
  Al0+  Al94  1  0.92859570  0.81822427  0.98513529  1
  Al0+  Al95  1  0.07116809  0.17843940  0.65200662  1
  Si0+  Si96  1  0.32022843  0.07127464  0.34990315  1
  Si0+  Si97  1  0.57035391  0.17749316  0.65261518  1
  Si0+  Si98  1  0.17887346  0.92883526  0.34942078  1
  Si0+  Si99  1  0.57139336  0.17686035  0.98390870  1
  Si0+  Si100  1  0.56821712  0.67806435  0.98142635  1
  Si0+  Si101  1  0.92950755  0.32455811  0.31778230  1
  Si0+  Si102  1  0.42771490  0.81992524  0.65336991  1
  Si0+  Si103  1  0.18021248  0.42634072  0.35053165  1
  Si0+  Si104  1  0.31857758  0.57196242  0.34629739  1
  Si0+  Si105  1  0.82531830  0.07131607  0.35001347  1
  Si0+  Si106  1  0.32482179  0.07345879  0.68179533  1
  Si0+  Si107  1  0.32380219  0.57234163  0.01807218  1
  Si0+  Si108  1  0.43090708  0.32221060  0.98436652  1
  Si0+  Si109  1  0.43059580  0.32216074  0.65199861  1
  Si0+  Si110  1  0.67621647  0.92803694  0.01444020  1
  Si0+  Si111  1  0.07295980  0.67619081  0.31812875  1
  Si0+  Si112  1  0.42738092  0.32194718  0.31611985  1
  Si0+  Si113  1  0.07476695  0.67787833  0.65185039  1
  Si0+  Si114  1  0.67855617  0.42740292  0.68265182  1
  Si0+  Si115  1  0.42823458  0.82146034  0.98187093  1
  Si0+  Si116  1  0.17953905  0.42567573  0.68185069  1
  Si0+  Si117  1  0.67483215  0.92664037  0.68257170  1
  Si0+  Si118  1  0.56856960  0.67869299  0.65100678  1
  Si0+  Si119  1  0.07654912  0.67823413  0.98293563  1
  O2-  O120  1  0.24798032  0.00374568  0.06842389  1
  O2-  O121  1  0.25024935  -0.00040108  0.39232315  1
  O2-  O122  1  0.25096809  0.01026293  0.72404232  1
  O2-  O123  1  0.25242149  0.50676060  0.06180048  1
  O2-  O124  1  0.24935459  0.50041501  0.39095235  1
  O2-  O125  1  0.24656732  0.49662763  0.72556452  1
  O2-  O126  1  0.74713478  -0.00663249  0.05882752  1
  O2-  O127  1  0.75383628  0.00501756  0.39419421  1
  O2-  O128  1  0.74486388  -0.00644343  0.72607089  1
  O2-  O129  1  0.75593593  0.49493379  0.06333140  1
  O2-  O130  1  0.74929680  0.49853015  0.40092838  1
  O2-  O131  1  0.75264866  0.49013581  0.72610728  1
  O2-  O132  1  -0.00455534  0.25407668  0.27290354  1
  O2-  O133  1  -0.00028077  0.25136731  0.60204757  1
  O2-  O134  1  -0.00071036  0.25074453  0.93618364  1
  O2-  O135  1  -0.00128211  0.73848559  0.27469816  1
  O2-  O136  1  0.00212565  0.74170049  0.60671969  1
  O2-  O137  1  0.00496908  0.74399314  0.93929278  1
  O2-  O138  1  0.50132641  0.25872832  0.27292124  1
  O2-  O139  1  0.49946090  0.24905517  0.61058723  1
  O2-  O140  1  0.50210117  0.25085925  0.94240999  1
  O2-  O141  1  0.49955984  0.75240455  0.26717983  1
  O2-  O142  1  0.49922438  0.75141354  0.60888190  1
  O2-  O143  1  0.49710306  0.74904394  0.93823024  1
  O2-  O144  1  0.07132288  0.18250867  0.09857139  1
  O2-  O145  1  0.07100265  0.18005676  0.43105847  1
  O2-  O146  1  0.07256342  0.17983856  0.76493692  1
  O2-  O147  1  0.08162097  0.68038139  0.08832201  1
  O2-  O148  1  0.08027884  0.68001062  0.42367600  1
  O2-  O149  1  0.07756803  0.67889871  0.75712159  1
  O2-  O150  1  0.56927596  0.17476986  0.08864182  1
  O2-  O151  1  0.56720533  0.17936930  0.43368892  1
  O2-  O152  1  0.56875831  0.17678978  0.75771637  1
  O2-  O153  1  0.56647813  0.67819270  0.08584262  1
  O2-  O154  1  0.56665494  0.67970608  0.43063751  1
  O2-  O155  1  0.56635232  0.67902613  0.75638653  1
  O2-  O156  1  0.18147422  0.42590413  0.24562670  1
  O2-  O157  1  0.18425860  0.42553274  0.57593002  1
  O2-  O158  1  0.18433370  0.43129376  0.89940271  1
  O2-  O159  1  0.17964648  0.92868137  0.24514042  1
  O2-  O160  1  0.18215391  0.92982872  0.56559133  1
  O2-  O161  1  0.18020005  0.92875138  0.90504559  1
  O2-  O162  1  0.67898187  0.42816622  0.23719600  1
  O2-  O163  1  0.67343762  0.42975717  0.57762149  1
  O2-  O164  1  0.67390235  0.43330480  0.90048297  1
  O2-  O165  1  0.67981987  0.93390166  0.23240677  1
  O2-  O166  1  0.67029832  0.92861377  0.57717861  1
  O2-  O167  1  0.67276526  0.93112749  0.90837802  1
  O2-  O168  1  0.43119718  0.32468472  0.08917471  1
  O2-  O169  1  0.42418817  0.31964354  0.42226585  1
  O2-  O170  1  0.43026958  0.32359063  0.75697702  1
  O2-  O171  1  0.42946663  0.82099822  0.08645240  1
  O2-  O172  1  0.42352724  0.81906947  0.43161311  1
  O2-  O173  1  0.43055026  0.81924569  0.75837893  1
  O2-  O174  1  0.92978871  0.32120184  0.10113808  1
  O2-  O175  1  0.93260664  0.32517735  0.42336593  1
  O2-  O176  1  0.92807110  0.32408280  0.76394765  1
  O2-  O177  1  0.92732524  0.81683003  0.09826680  1
  O2-  O178  1  0.93157273  0.82075900  0.43367605  1
  O2-  O179  1  0.93052894  0.81954738  0.76558170  1
  O2-  O180  1  0.31950404  0.07336303  0.24546399  1
  O2-  O181  1  0.33156463  0.07032192  0.57635004  1
  O2-  O182  1  0.32615671  0.06772175  0.90264863  1
  O2-  O183  1  0.31656172  0.57121735  0.24150323  1
  O2-  O184  1  0.32190882  0.56931990  0.56550121  1
  O2-  O185  1  0.32514214  0.56980773  0.91206297  1
  O2-  O186  1  0.82508350  0.06925196  0.24448323  1
  O2-  O187  1  0.81583380  0.06808439  0.56545663  1
  O2-  O188  1  0.81990278  0.06967444  0.90029089  1
  O2-  O189  1  0.82026213  0.57045783  0.23763623  1
  O2-  O190  1  0.81571531  0.57546140  0.56923829  1
  O2-  O191  1  0.81902819  0.57418131  0.90103066  1
  O2-  O192  1  0.04234898  0.08344508  0.26369795  1
  O2-  O193  1  0.03946414  0.08130862  0.59798448  1
  O2-  O194  1  0.04441324  0.07944874  0.93672740  1
  O2-  O195  1  0.05424085  0.57897801  0.27729450  1
  O2-  O196  1  0.05737922  0.58236046  0.60661137  1
  O2-  O197  1  0.05483396  0.58297344  0.93935396  1
  O2-  O198  1  0.53758567  0.08711012  0.26386025  1
  O2-  O199  1  0.54098920  0.08571116  0.60476876  1
  O2-  O200  1  0.53941498  0.08698462  0.93436777  1
  O2-  O201  1  0.53810467  0.58065759  0.26335473  1
  O2-  O202  1  0.53844615  0.58731888  0.60444103  1
  O2-  O203  1  0.53793765  0.58698785  0.93333195  1
  O2-  O204  1  0.16779414  0.21106149  0.26617883  1
  O2-  O205  1  0.17155554  0.20369674  0.59844345  1
  O2-  O206  1  0.17328445  0.20712428  0.93553562  1
  O2-  O207  1  0.16278668  0.70591075  0.26717518  1
  O2-  O208  1  0.16786913  0.70861890  0.60578393  1
  O2-  O209  1  0.17045209  0.70444902  0.93606673  1
  O2-  O210  1  0.67124511  0.20601679  0.26685161  1
  O2-  O211  1  0.66085695  0.20368842  0.60333465  1
  O2-  O212  1  0.66287812  0.20304693  0.93556161  1
  O2-  O213  1  0.66726167  0.70785850  0.26278841  1
  O2-  O214  1  0.65985572  0.70573874  0.60354163  1
  O2-  O215  1  0.65813132  0.70730759  0.93106905  1
  O2-  O216  1  0.08574943  0.46017252  0.07198847  1
  O2-  O217  1  0.08955981  0.45188597  0.40057104  1
  O2-  O218  1  0.08589070  0.44959672  0.72666049  1
  O2-  O219  1  0.07986195  0.95413527  0.07233405  1
  O2-  O220  1  0.08733364  0.95945781  0.39603209  1
  O2-  O221  1  0.08243455  0.96005370  0.73300685  1
  O2-  O222  1  0.58216706  0.46099018  0.06824359  1
  O2-  O223  1  0.57544601  0.45224333  0.39947687  1
  O2-  O224  1  0.58699878  0.45848098  0.73087827  1
  O2-  O225  1  0.58379265  0.95510176  0.06100995  1
  O2-  O226  1  0.58111408  0.96307800  0.39927082  1
  O2-  O227  1  0.58156695  0.95355125  0.73024092  1
  O2-  O228  1  0.21575807  0.33657011  0.06853141  1
  O2-  O229  1  0.21332739  0.33639312  0.39860408  1
  O2-  O230  1  0.21042929  0.33354995  0.72768352  1
  O2-  O231  1  0.21094533  0.83147453  0.07108896  1
  O2-  O232  1  0.20653395  0.83642318  0.39622115  1
  O2-  O233  1  0.21254074  0.83807085  0.73702142  1
  O2-  O234  1  0.69701781  0.32674113  0.06340699  1
  O2-  O235  1  0.70439000  0.32774397  0.40327067  1
  O2-  O236  1  0.69562317  0.33110686  0.72606818  1
  O2-  O237  1  0.69778663  0.83246558  0.05639374  1
  O2-  O238  1  0.70536679  0.83466185  0.39944371  1
  O2-  O239  1  0.69675771  0.83215766  0.72745427  1
  O2-  O240  1  0.44405044  0.41736603  0.27127776  1
  O2-  O241  1  0.46031274  0.41333161  0.60351569  1
  O2-  O242  1  0.45917161  0.41373438  0.93530555  1
  O2-  O243  1  0.45188217  0.92155278  0.26560543  1
  O2-  O244  1  0.45201333  0.91303257  0.60610881  1
  O2-  O245  1  0.45850801  0.91211939  0.93316893  1
  O2-  O246  1  0.95885507  0.41818231  0.27390458  1
  O2-  O247  1  0.95581485  0.42250619  0.59738325  1
  O2-  O248  1  0.95791613  0.42314382  0.93846397  1
  O2-  O249  1  0.96411597  0.91248666  0.26495911  1
  O2-  O250  1  0.96112587  0.91390087  0.59765395  1
  O2-  O251  1  0.96203543  0.91492365  0.93320830  1
  O2-  O252  1  0.33651011  0.28974432  0.26867498  1
  O2-  O253  1  0.33961144  0.29767213  0.60113206  1
  O2-  O254  1  0.34028203  0.29402407  0.93516125  1
  O2-  O255  1  0.32909760  0.79090989  0.26256338  1
  O2-  O256  1  0.33584461  0.79053174  0.60760996  1
  O2-  O257  1  0.33596187  0.79421743  0.93496956  1
  O2-  O258  1  0.83446090  0.30313734  0.27455479  1
  O2-  O259  1  0.82780737  0.29447877  0.59846038  1
  O2-  O260  1  0.82838777  0.29535128  0.93524799  1
  O2-  O261  1  0.83137580  0.79306822  0.26677551  1
  O2-  O262  1  0.82966905  0.79005401  0.60141497  1
  O2-  O263  1  0.83123364  0.79030987  0.92995448  1
  O2-  O264  1  0.41954473  0.03797686  0.06944983  1
  O2-  O265  1  0.41226259  0.04466720  0.39725739  1
  O2-  O266  1  0.41578510  0.04324359  0.73156886  1
  O2-  O267  1  0.41528974  0.54212843  0.06453990  1
  O2-  O268  1  0.41031389  0.54536998  0.39420629  1
  O2-  O269  1  0.41664560  0.53761154  0.73551555  1
  O2-  O270  1  0.91626662  0.03817299  0.06924399  1
  O2-  O271  1  0.91800283  0.04059691  0.39522871  1
  O2-  O272  1  0.91470272  0.03824542  0.73229861  1
  O2-  O273  1  0.92286482  0.55630077  0.06755991  1
  O2-  O274  1  0.92069626  0.54787355  0.40414264  1
  O2-  O275  1  0.92210105  0.54887886  0.73207984  1
  O2-  O276  1  0.30392064  0.17239333  0.06823283  1
  O2-  O277  1  0.29233746  0.16303210  0.39859117  1
  O2-  O278  1  0.30646444  0.17011072  0.72404826  1
  O2-  O279  1  0.30313884  0.66735073  0.06171016  1
  O2-  O280  1  0.28911190  0.66355871  0.39411082  1
  O2-  O281  1  0.29341743  0.66537501  0.73683542  1
  O2-  O282  1  0.78907814  0.16420752  0.06877659  1
  O2-  O283  1  0.80317711  0.16633408  0.39375924  1
  O2-  O284  1  0.78584936  0.16549779  0.73310039  1
  O2-  O285  1  0.78275128  0.66889253  0.06536617  1
  O2-  O286  1  0.78731261  0.66991079  0.40186119  1
  O2-  O287  1  0.78337196  0.66541323  0.73653296  1
