# generated using pymatgen
data_Ca2Al2SiO7
_symmetry_space_group_name_H-M   'P 1'
_cell_length_a   15.45534554
_cell_length_b   15.45504778
_cell_length_c   15.28158644
_cell_angle_alpha   90.00601756
_cell_angle_beta   89.99629548
_cell_angle_gamma   89.99946441
_symmetry_Int_Tables_number   1
_chemical_formula_structural   Ca2Al2SiO7
_chemical_formula_sum   'Ca48 Al48 Si24 O168'
_cell_volume   3650.20714007
_cell_formula_units_Z   24
loop_
 _symmetry_equiv_pos_site_id
 _symmetry_equiv_pos_as_xyz
  1  'x, y, z'
loop_
 _atom_type_symbol
 _atom_type_oxidation_number
  Ca2+  2.0
  Al0+  0.0
  Si0+  0.0
  O2-  -2.0
loop_
 _atom_site_type_symbol
 _atom_site_label
 _atom_site_symmetry_multiplicity
 _atom_site_fract_x
 _atom_site_fract_y
 _atom_site_fract_z
 _atom_site_occupancy
  Ca2+  Ca0  1  0.16447579  0.07564725  0.16995759  1
  Ca2+  Ca1  1  0.17143352  0.07666866  0.49646676  1
  Ca2+  Ca2  1  0.16564278  0.07833335  0.84353740  1
  Ca2+  Ca3  1  0.17228471  0.57618924  0.17153044  1
  Ca2+  Ca4  1  0.17110849  0.59061095  0.50354605  1
  Ca2+  Ca5  1  0.16547194  0.57977265  0.83898431  1
  Ca2+  Ca6  1  0.67932964  0.07682192  0.17520849  1
  Ca2+  Ca7  1  0.67633225  0.08234377  0.50662616  1
  Ca2+  Ca8  1  0.67610028  0.08762147  0.83512149  1
  Ca2+  Ca9  1  0.66827822  0.58103529  0.17763179  1
  Ca2+  Ca10  1  0.66467293  0.57719094  0.49789311  1
  Ca2+  Ca11  1  0.66156414  0.57906526  0.83566630  1
  Ca2+  Ca12  1  0.07683206  0.32653744  0.15360254  1
  Ca2+  Ca13  1  0.08006246  0.32948235  0.49527924  1
  Ca2+  Ca14  1  0.08035400  0.33074787  0.83556952  1
  Ca2+  Ca15  1  0.07498023  0.84269848  0.16375567  1
  Ca2+  Ca16  1  0.07332909  0.83348130  0.49680713  1
  Ca2+  Ca17  1  0.07578078  0.83482579  0.82894113  1
  Ca2+  Ca18  1  0.57823658  0.33536667  0.16191424  1
  Ca2+  Ca19  1  0.58874856  0.33270481  0.50090839  1
  Ca2+  Ca20  1  0.57456347  0.33045713  0.82435420  1
  Ca2+  Ca21  1  0.59483888  0.82078059  0.16644663  1
  Ca2+  Ca22  1  0.58066876  0.83294310  0.49035437  1
  Ca2+  Ca23  1  0.57812650  0.82743858  0.82899675  1
  Ca2+  Ca24  1  0.32939983  0.41635060  0.16868751  1
  Ca2+  Ca25  1  0.33789408  0.42379095  0.50252911  1
  Ca2+  Ca26  1  0.33135753  0.41244746  0.83973429  1
  Ca2+  Ca27  1  0.31863793  0.92122341  0.17639834  1
  Ca2+  Ca28  1  0.33173934  0.91503907  0.50370284  1
  Ca2+  Ca29  1  0.32716066  0.91367951  0.83931376  1
  Ca2+  Ca30  1  0.82898546  0.42306337  0.17547798  1
  Ca2+  Ca31  1  0.82155418  0.42176685  0.50342400  1
  Ca2+  Ca32  1  0.82811613  0.41499062  0.83787456  1
  Ca2+  Ca33  1  0.83697662  0.92441385  0.17412051  1
  Ca2+  Ca34  1  0.83390891  0.92028215  0.50053187  1
  Ca2+  Ca35  1  0.84367600  0.92497754  0.83736249  1
  Ca2+  Ca36  1  0.41538819  0.16953563  0.16187610  1
  Ca2+  Ca37  1  0.42090725  0.17026570  0.49629769  1
  Ca2+  Ca38  1  0.42124954  0.17815545  0.82418362  1
  Ca2+  Ca39  1  0.42851017  0.65865778  0.16612562  1
  Ca2+  Ca40  1  0.41992283  0.67122467  0.49368719  1
  Ca2+  Ca41  1  0.42109273  0.67137386  0.83000583  1
  Ca2+  Ca42  1  0.91736187  0.16751582  0.15775658  1
  Ca2+  Ca43  1  0.91089460  0.16212188  0.49698357  1
  Ca2+  Ca44  1  0.91735992  0.16360882  0.83545532  1
  Ca2+  Ca45  1  0.90722985  0.68052868  0.16427342  1
  Ca2+  Ca46  1  0.91529259  0.67555579  0.49257169  1
  Ca2+  Ca47  1  0.92354101  0.68092503  0.82570680  1
  Al0+  Al48  1  0.00050916  0.00127833  0.00020350  1
  Al0+  Al49  1  0.00219101  0.00050982  0.33765342  1
  Al0+  Al50  1  0.00079510  -0.00009967  0.66636019  1
  Al0+  Al51  1  -0.00063374  0.50010301  0.00189212  1
  Al0+  Al52  1  -0.00038329  0.49992737  0.33608759  1
  Al0+  Al53  1  0.00135225  0.49917551  0.66360295  1
  Al0+  Al54  1  0.50167643  -0.00220222  0.00075195  1
  Al0+  Al55  1  0.49913104  0.00190078  0.33512914  1
  Al0+  Al56  1  0.50111030  0.00104680  0.66138026  1
  Al0+  Al57  1  0.50065913  0.49974310  -0.00876210  1
  Al0+  Al58  1  0.49736971  0.49934992  0.33672945  1
  Al0+  Al59  1  0.49851830  0.50032031  0.66920978  1
  Al0+  Al60  1  0.24966117  0.25057675  -0.00374659  1
  Al0+  Al61  1  0.24924499  0.24882804  0.33585542  1
  Al0+  Al62  1  0.25009742  0.25080233  0.66166882  1
  Al0+  Al63  1  0.25116542  0.74946513  0.00801688  1
  Al0+  Al64  1  0.24801963  0.74860764  0.33926340  1
  Al0+  Al65  1  0.25095282  0.74945639  0.66245150  1
  Al0+  Al66  1  0.74969030  0.25057480  0.00244112  1
  Al0+  Al67  1  0.74886893  0.25014347  0.33759818  1
  Al0+  Al68  1  0.75028011  0.25046254  0.67328246  1
  Al0+  Al69  1  0.75005159  0.74907296  -0.01308781  1
  Al0+  Al70  1  0.75036079  0.75035568  0.33246000  1
  Al0+  Al71  1  0.75047193  0.75038757  0.66437010  1
  Al0+  Al72  1  0.92637566  0.32385449  0.98570449  1
  Al0+  Al73  1  0.82100590  0.06852638  0.68372027  1
  Al0+  Al74  1  0.92892313  0.82282433  0.64922947  1
  Al0+  Al75  1  0.31963665  0.56894999  0.34688967  1
  Al0+  Al76  1  0.56820175  0.67999836  0.32097006  1
  Al0+  Al77  1  0.81892314  0.06990036  0.01434117  1
  Al0+  Al78  1  0.57075503  0.67916112  0.98492691  1
  Al0+  Al79  1  0.57325274  0.18085706  0.65085150  1
  Al0+  Al80  1  0.93122158  0.82023619  0.31814251  1
  Al0+  Al81  1  0.32173193  0.07261578  0.34851356  1
  Al0+  Al82  1  0.07084746  0.67743429  0.65184127  1
  Al0+  Al83  1  0.67978782  0.43192396  0.68373985  1
  Al0+  Al84  1  0.06953325  0.17935821  0.98523563  1
  Al0+  Al85  1  0.17839537  0.42843474  0.01258511  1
  Al0+  Al86  1  0.93131583  0.82132405  0.98619420  1
  Al0+  Al87  1  0.42987874  0.31888438  0.98720002  1
  Al0+  Al88  1  0.43017905  0.82089482  0.65353949  1
  Al0+  Al89  1  0.82213439  0.57261397  0.34743005  1
  Al0+  Al90  1  0.67907130  0.92756720  0.34665918  1
  Al0+  Al91  1  0.17869662  0.92831271  0.35146982  1
  Al0+  Al92  1  0.42785718  0.32203452  0.64804377  1
  Al0+  Al93  1  0.67713432  0.42897978  0.34732199  1
  Al0+  Al94  1  0.17970893  0.92905262  0.01282774  1
  Al0+  Al95  1  0.82144527  0.07090473  0.34846124  1
  Si0+  Si96  1  0.32389830  0.57080254  0.01626793  1
  Si0+  Si97  1  0.67540684  0.92604011  0.68444473  1
  Si0+  Si98  1  0.57268956  0.17846095  0.31693381  1
  Si0+  Si99  1  0.42846671  0.31972699  0.31753755  1
  Si0+  Si100  1  0.42577336  0.82226453  0.98695444  1
  Si0+  Si101  1  0.32434386  0.07257596  0.01316981  1
  Si0+  Si102  1  0.82444383  0.57305073  0.68473513  1
  Si0+  Si103  1  0.67807156  0.43082509  0.01411087  1
  Si0+  Si104  1  0.17730351  0.42702882  0.35065314  1
  Si0+  Si105  1  0.07500010  0.67713996  0.98735504  1
  Si0+  Si106  1  0.42524418  0.82407985  0.31570897  1
  Si0+  Si107  1  0.18234341  0.92999090  0.68241227  1
  Si0+  Si108  1  0.17781564  0.42681625  0.68196810  1
  Si0+  Si109  1  0.07368894  0.67534735  0.31420475  1
  Si0+  Si110  1  0.57296893  0.17547679  0.98553797  1
  Si0+  Si111  1  0.07093450  0.18126524  0.31854417  1
  Si0+  Si112  1  0.31903147  0.57128153  0.68361145  1
  Si0+  Si113  1  0.57175946  0.67757218  0.64897747  1
  Si0+  Si114  1  0.92731420  0.32159337  0.31995086  1
  Si0+  Si115  1  0.67681766  0.92440669  0.01467586  1
  Si0+  Si116  1  0.92915519  0.32056952  0.65155940  1
  Si0+  Si117  1  0.32230520  0.07281095  0.68181006  1
  Si0+  Si118  1  0.82025892  0.57261921  0.01222924  1
  Si0+  Si119  1  0.07164071  0.17869157  0.65016571  1
  O2-  O120  1  0.25728674  0.00237578  0.05712061  1
  O2-  O121  1  0.25674915  -0.00496407  0.40025435  1
  O2-  O122  1  0.25320171  0.00085893  0.72582065  1
  O2-  O123  1  0.25334008  0.50308452  0.05905840  1
  O2-  O124  1  0.24219762  0.49823808  0.39599091  1
  O2-  O125  1  0.24837703  0.49877643  0.72403689  1
  O2-  O126  1  0.74382775  -0.00536490  0.05866787  1
  O2-  O127  1  0.74880246  0.00022964  0.39873942  1
  O2-  O128  1  0.74656879  -0.00780862  0.72934245  1
  O2-  O129  1  0.75098328  0.49990314  0.05533081  1
  O2-  O130  1  0.75029238  0.50020405  0.39668255  1
  O2-  O131  1  0.75349657  0.50772949  0.73124878  1
  O2-  O132  1  -0.00131024  0.25137209  0.27737303  1
  O2-  O133  1  -0.00060853  0.24891108  0.60855348  1
  O2-  O134  1  -0.00200315  0.25183996  0.93441979  1
  O2-  O135  1  0.00490896  0.74386717  0.27010280  1
  O2-  O136  1  -0.00375046  0.74554500  0.60104399  1
  O2-  O137  1  0.00864273  0.74740222  0.94235122  1
  O2-  O138  1  0.49956175  0.24856737  0.27525849  1
  O2-  O139  1  0.50068894  0.25130151  0.59828303  1
  O2-  O140  1  0.50158428  0.24126359  0.94135198  1
  O2-  O141  1  0.49554707  0.75666071  0.27149612  1
  O2-  O142  1  0.50860252  0.75131192  0.60567129  1
  O2-  O143  1  0.49559274  0.75517598  0.94186890  1
  O2-  O144  1  0.06855209  0.18024222  0.09911315  1
  O2-  O145  1  0.07245876  0.18415848  0.42414496  1
  O2-  O146  1  0.07416254  0.17912628  0.75497201  1
  O2-  O147  1  0.07467317  0.67603913  0.09263250  1
  O2-  O148  1  0.07277855  0.67509647  0.41970762  1
  O2-  O149  1  0.07189286  0.67870990  0.76616696  1
  O2-  O150  1  0.57239083  0.17700951  0.09135824  1
  O2-  O151  1  0.57415240  0.18019597  0.42151152  1
  O2-  O152  1  0.57019023  0.18276950  0.76513593  1
  O2-  O153  1  0.57125414  0.67637420  0.09790071  1
  O2-  O154  1  0.56453092  0.67907410  0.43376337  1
  O2-  O155  1  0.56775838  0.67737147  0.75507009  1
  O2-  O156  1  0.17913623  0.42536439  0.24500829  1
  O2-  O157  1  0.17762280  0.42540521  0.57688441  1
  O2-  O158  1  0.17997220  0.43076788  0.89915957  1
  O2-  O159  1  0.17685366  0.93282582  0.23760329  1
  O2-  O160  1  0.18318656  0.93167393  0.57776764  1
  O2-  O161  1  0.18210767  0.92870449  0.89906134  1
  O2-  O162  1  0.67723862  0.42921120  0.23292817  1
  O2-  O163  1  0.68159050  0.43298105  0.57098312  1
  O2-  O164  1  0.67733611  0.43230884  0.90907577  1
  O2-  O165  1  0.68224239  0.92884454  0.23246356  1
  O2-  O166  1  0.67430638  0.92736259  0.57921650  1
  O2-  O167  1  0.67358019  0.92550846  0.90915630  1
  O2-  O168  1  0.43184653  0.32050915  0.10081482  1
  O2-  O169  1  0.42730827  0.31948692  0.42217036  1
  O2-  O170  1  0.42601923  0.31981783  0.76188040  1
  O2-  O171  1  0.42382616  0.82229543  0.09187740  1
  O2-  O172  1  0.42659669  0.82129605  0.42154530  1
  O2-  O173  1  0.42742226  0.81708521  0.76728898  1
  O2-  O174  1  0.92662170  0.32400804  0.09963976  1
  O2-  O175  1  0.92935096  0.32109548  0.42541067  1
  O2-  O176  1  0.93159950  0.32230159  0.75646556  1
  O2-  O177  1  0.92907547  0.82087530  0.09916645  1
  O2-  O178  1  0.93276645  0.82032590  0.43076220  1
  O2-  O179  1  0.93448816  0.82467314  0.76328173  1
  O2-  O180  1  0.31747588  0.07572246  0.23449304  1
  O2-  O181  1  0.31897363  0.07304148  0.57710813  1
  O2-  O182  1  0.32440506  0.07090585  0.90723232  1
  O2-  O183  1  0.32138498  0.56346097  0.23357436  1
  O2-  O184  1  0.31903130  0.57107096  0.57863004  1
  O2-  O185  1  0.32325916  0.57262833  0.91047204  1
  O2-  O186  1  0.82136944  0.07267266  0.23471608  1
  O2-  O187  1  0.82104227  0.06901035  0.57103585  1
  O2-  O188  1  0.81818680  0.06910486  0.90121195  1
  O2-  O189  1  0.82070890  0.57057072  0.23292021  1
  O2-  O190  1  0.82474933  0.57000095  0.57947764  1
  O2-  O191  1  0.81908453  0.57211932  0.90713663  1
  O2-  O192  1  0.04435657  0.08874549  0.27312426  1
  O2-  O193  1  0.04416649  0.08720918  0.60287994  1
  O2-  O194  1  0.04020741  0.08255311  0.92998463  1
  O2-  O195  1  0.05019085  0.57968048  0.27026705  1
  O2-  O196  1  0.04983396  0.57688795  0.59889334  1
  O2-  O197  1  0.04790325  0.58454888  0.94009391  1
  O2-  O198  1  0.54610997  0.08663684  0.26848515  1
  O2-  O199  1  0.54751759  0.08213983  0.59841482  1
  O2-  O200  1  0.55282738  0.08026928  0.93993656  1
  O2-  O201  1  0.53406212  0.58306607  0.26728914  1
  O2-  O202  1  0.53935548  0.58603482  0.60420699  1
  O2-  O203  1  0.53709943  0.58546703  0.92674221  1
  O2-  O204  1  0.16204724  0.21047379  0.27039528  1
  O2-  O205  1  0.16161521  0.20867385  0.60040221  1
  O2-  O206  1  0.16785118  0.20646401  0.93103904  1
  O2-  O207  1  0.16875647  0.69938294  0.27005306  1
  O2-  O208  1  0.16799926  0.70862944  0.59857121  1
  O2-  O209  1  0.17048987  0.69945370  0.94301457  1
  O2-  O210  1  0.66380475  0.20908038  0.26872132  1
  O2-  O211  1  0.67182554  0.21245316  0.60021493  1
  O2-  O212  1  0.66480806  0.20544543  0.93922748  1
  O2-  O213  1  0.66536758  0.70801745  0.26599699  1
  O2-  O214  1  0.66817914  0.69481700  0.60680874  1
  O2-  O215  1  0.66432408  0.70826161  0.92438948  1
  O2-  O216  1  0.08199017  0.45771253  0.06851071  1
  O2-  O217  1  0.08271573  0.44813260  0.39638201  1
  O2-  O218  1  0.08553479  0.45328689  0.72946072  1
  O2-  O219  1  0.08548365  0.96441321  0.06755809  1
  O2-  O220  1  0.08515545  0.96557121  0.40733875  1
  O2-  O221  1  0.09074160  0.95966979  0.72890862  1
  O2-  O222  1  0.58625031  0.46146325  0.05994487  1
  O2-  O223  1  0.58006234  0.45746952  0.40140359  1
  O2-  O224  1  0.58187885  0.46231919  0.73716273  1
  O2-  O225  1  0.58243089  0.94509688  0.06233804  1
  O2-  O226  1  0.57870877  0.95199051  0.39656423  1
  O2-  O227  1  0.58156438  0.95331621  0.73071540  1
  O2-  O228  1  0.21012880  0.33194882  0.06674718  1
  O2-  O229  1  0.20579384  0.33512094  0.39813350  1
  O2-  O230  1  0.20702276  0.33488304  0.72881998  1
  O2-  O231  1  0.20710573  0.83294061  0.06999941  1
  O2-  O232  1  0.19997864  0.82830015  0.40299702  1
  O2-  O233  1  0.21133238  0.83761286  0.72825579  1
  O2-  O234  1  0.70171914  0.33831791  0.06185367  1
  O2-  O235  1  0.70677151  0.33226278  0.40192527  1
  O2-  O236  1  0.71192084  0.33641485  0.73879054  1
  O2-  O237  1  0.70570794  0.82983930  0.05657396  1
  O2-  O238  1  0.70577721  0.82994599  0.40029777  1
  O2-  O239  1  0.69720361  0.83015091  0.72860860  1
  O2-  O240  1  0.45657647  0.41120510  0.27010289  1
  O2-  O241  1  0.45533810  0.42233961  0.59965963  1
  O2-  O242  1  0.46178953  0.41331220  0.92983217  1
  O2-  O243  1  0.44581783  0.91984373  0.27189296  1
  O2-  O244  1  0.45384443  0.91871310  0.59949630  1
  O2-  O245  1  0.44946656  0.91608927  0.93915732  1
  O2-  O246  1  0.95425612  0.41402285  0.27296421  1
  O2-  O247  1  0.95786210  0.41111245  0.60225443  1
  O2-  O248  1  0.95522025  0.42214986  0.93213169  1
  O2-  O249  1  0.96549199  0.91802253  0.26704727  1
  O2-  O250  1  0.96383374  0.91939409  0.59678849  1
  O2-  O251  1  0.96442269  0.91654409  0.93219951  1
  O2-  O252  1  0.33586928  0.29105556  0.27094244  1
  O2-  O253  1  0.32947786  0.29377859  0.59456345  1
  O2-  O254  1  0.33354281  0.29181461  0.93129435  1
  O2-  O255  1  0.33062771  0.79607855  0.27287157  1
  O2-  O256  1  0.33619054  0.78618600  0.59757469  1
  O2-  O257  1  0.33294812  0.79393670  0.93953350  1
  O2-  O258  1  0.83508407  0.29445139  0.27308122  1
  O2-  O259  1  0.83723342  0.29214147  0.60624985  1
  O2-  O260  1  0.82752637  0.29540790  0.93353452  1
  O2-  O261  1  0.83433501  0.79035001  0.26382500  1
  O2-  O262  1  0.82786310  0.79980656  0.59985664  1
  O2-  O263  1  0.83731205  0.78995392  0.92754657  1
  O2-  O264  1  0.41879479  0.05018634  0.05985512  1
  O2-  O265  1  0.42223950  0.05357221  0.39965939  1
  O2-  O266  1  0.41564321  0.04793353  0.72721119  1
  O2-  O267  1  0.41708337  0.53994629  0.06024881  1
  O2-  O268  1  0.41269978  0.53478735  0.40450623  1
  O2-  O269  1  0.41052922  0.54451135  0.73222243  1
  O2-  O270  1  0.91596271  0.03988992  0.06680010  1
  O2-  O271  1  0.91973902  0.04476349  0.40120457  1
  O2-  O272  1  0.91958580  0.03871220  0.73609685  1
  O2-  O273  1  0.91218763  0.54884401  0.06079313  1
  O2-  O274  1  0.92035257  0.54479060  0.40138346  1
  O2-  O275  1  0.91789696  0.54375923  0.72979127  1
  O2-  O276  1  0.29800196  0.16595476  0.05863785  1
  O2-  O277  1  0.28649062  0.16801895  0.40441668  1
  O2-  O278  1  0.29147353  0.16487109  0.72781365  1
  O2-  O279  1  0.30204125  0.66359937  0.06533096  1
  O2-  O280  1  0.29312108  0.66563534  0.40241807  1
  O2-  O281  1  0.28981364  0.66276252  0.73153356  1
  O2-  O282  1  0.78943192  0.16732683  0.06868889  1
  O2-  O283  1  0.79303661  0.16902280  0.40178079  1
  O2-  O284  1  0.79073587  0.16538340  0.73798566  1
  O2-  O285  1  0.78853933  0.66449899  0.05720305  1
  O2-  O286  1  0.79269882  0.66938941  0.40045417  1
  O2-  O287  1  0.80192866  0.66874589  0.72860613  1
