# generated using pymatgen
data_Ca2Al2SiO7
_symmetry_space_group_name_H-M   'P 1'
_cell_length_a   15.45937965
_cell_length_b   15.45938997
_cell_length_c   15.28520676
_cell_angle_alpha   90.00161789
_cell_angle_beta   89.99888991
_cell_angle_gamma   89.98427028
_symmetry_Int_Tables_number   1
_chemical_formula_structural   Ca2Al2SiO7
_chemical_formula_sum   'Ca48 Al48 Si24 O168'
_cell_volume   3653.05083997
_cell_formula_units_Z   24
loop_
 _symmetry_equiv_pos_site_id
 _symmetry_equiv_pos_as_xyz
  1  'x, y, z'
loop_
 _atom_type_symbol
 _atom_type_oxidation_number
  Ca2+  2.0
  Al0+  0.0
  Si0+  0.0
  O2-  -2.0
loop_
 _atom_site_type_symbol
 _atom_site_label
 _atom_site_symmetry_multiplicity
 _atom_site_fract_x
 _atom_site_fract_y
 _atom_site_fract_z
 _atom_site_occupancy
  Ca2+  Ca0  1  0.16794408  0.07906098  0.16591603  1
  Ca2+  Ca1  1  0.16721960  0.08607494  0.50833956  1
  Ca2+  Ca2  1  0.17711546  0.08136872  0.83939156  1
  Ca2+  Ca3  1  0.16208637  0.58775481  0.16830470  1
  Ca2+  Ca4  1  0.17113021  0.57895177  0.51073765  1
  Ca2+  Ca5  1  0.17064487  0.58136731  0.83799616  1
  Ca2+  Ca6  1  0.67736752  0.08224037  0.17238903  1
  Ca2+  Ca7  1  0.67313207  0.07092709  0.50280710  1
  Ca2+  Ca8  1  0.66785761  0.07943543  0.84101725  1
  Ca2+  Ca9  1  0.66307585  0.57742013  0.17128609  1
  Ca2+  Ca10  1  0.66429262  0.58157837  0.50488698  1
  Ca2+  Ca11  1  0.65830352  0.58591364  0.83557866  1
  Ca2+  Ca12  1  0.07486363  0.32485919  0.16165298  1
  Ca2+  Ca13  1  0.09151639  0.32234576  0.49929906  1
  Ca2+  Ca14  1  0.08126142  0.32920288  0.82712772  1
  Ca2+  Ca15  1  0.07622562  0.82862523  0.15894275  1
  Ca2+  Ca16  1  0.07637548  0.82820209  0.48786065  1
  Ca2+  Ca17  1  0.08267726  0.83837757  0.83704705  1
  Ca2+  Ca18  1  0.58151785  0.32868811  0.15584611  1
  Ca2+  Ca19  1  0.57690605  0.33697919  0.49823922  1
  Ca2+  Ca20  1  0.57168843  0.32285941  0.83367895  1
  Ca2+  Ca21  1  0.58108311  0.83214112  0.15824739  1
  Ca2+  Ca22  1  0.58309001  0.83777846  0.50235483  1
  Ca2+  Ca23  1  0.57532104  0.83096322  0.82514103  1
  Ca2+  Ca24  1  0.33569097  0.41825113  0.16808475  1
  Ca2+  Ca25  1  0.32775400  0.42334306  0.51512469  1
  Ca2+  Ca26  1  0.33506329  0.41648829  0.83271424  1
  Ca2+  Ca27  1  0.33253062  0.91674452  0.16270402  1
  Ca2+  Ca28  1  0.33215277  0.92363886  0.51073777  1
  Ca2+  Ca29  1  0.33438472  0.92180997  0.84181991  1
  Ca2+  Ca30  1  0.82792843  0.41504876  0.17074719  1
  Ca2+  Ca31  1  0.82591885  0.41715959  0.50143513  1
  Ca2+  Ca32  1  0.83440986  0.41769835  0.84184645  1
  Ca2+  Ca33  1  0.83525816  0.92258577  0.17225399  1
  Ca2+  Ca34  1  0.82722366  0.91375190  0.50060625  1
  Ca2+  Ca35  1  0.82857188  0.92022404  0.84093588  1
  Ca2+  Ca36  1  0.42585357  0.17146340  0.15414758  1
  Ca2+  Ca37  1  0.40978977  0.17281460  0.50121984  1
  Ca2+  Ca38  1  0.40815628  0.17033660  0.82975311  1
  Ca2+  Ca39  1  0.42491919  0.67481393  0.15485113  1
  Ca2+  Ca40  1  0.41645204  0.66941962  0.50404543  1
  Ca2+  Ca41  1  0.42286699  0.67731418  0.82782053  1
  Ca2+  Ca42  1  0.91529219  0.16374272  0.16052392  1
  Ca2+  Ca43  1  0.92858357  0.16123445  0.49428806  1
  Ca2+  Ca44  1  0.91968717  0.16788058  0.83270086  1
  Ca2+  Ca45  1  0.92265465  0.67944339  0.15965063  1
  Ca2+  Ca46  1  0.92374596  0.67302183  0.49125224  1
  Ca2+  Ca47  1  0.92152288  0.67295669  0.83532410  1
  Al0+  Al48  1  0.00054076  -0.00063519  0.00343104  1
  Al0+  Al49  1  0.00244628  0.00005706  0.32937957  1
  Al0+  Al50  1  -0.00127793  0.00103476  0.66236026  1
  Al0+  Al51  1  -0.00057077  0.49988273  -0.00441702  1
  Al0+  Al52  1  0.00083020  0.49710217  0.33249964  1
  Al0+  Al53  1  -0.00287051  0.49966139  0.66885249  1
  Al0+  Al54  1  0.50135527  0.00009923  -0.00045785  1
  Al0+  Al55  1  0.50027906  0.00244219  0.33656879  1
  Al0+  Al56  1  0.50100504  0.00023055  0.67003414  1
  Al0+  Al57  1  0.49870151  0.49818554  -0.00552694  1
  Al0+  Al58  1  0.49796093  0.50157614  0.33792034  1
  Al0+  Al59  1  0.50022454  0.49976872  0.66396484  1
  Al0+  Al60  1  0.24924768  0.25136439  0.00371023  1
  Al0+  Al61  1  0.24961021  0.25166172  0.32685627  1
  Al0+  Al62  1  0.24840518  0.24980647  0.66645688  1
  Al0+  Al63  1  0.25100223  0.74821179  -0.00165227  1
  Al0+  Al64  1  0.25231506  0.75083003  0.33083465  1
  Al0+  Al65  1  0.25019340  0.74953946  0.66660681  1
  Al0+  Al66  1  0.74939401  0.25028089  -0.00474763  1
  Al0+  Al67  1  0.74933373  0.24953100  0.34567854  1
  Al0+  Al68  1  0.75021554  0.25081659  0.66557822  1
  Al0+  Al69  1  0.75333392  0.74792444  -0.00527356  1
  Al0+  Al70  1  0.74882587  0.74887152  0.33321420  1
  Al0+  Al71  1  0.74948908  0.74955190  0.66702791  1
  Al0+  Al72  1  0.18050076  0.92722867  0.01626834  1
  Al0+  Al73  1  0.68110274  0.92923183  0.68250014  1
  Al0+  Al74  1  0.17790370  0.42909385  0.68264153  1
  Al0+  Al75  1  0.57215748  0.17816210  0.98694199  1
  Al0+  Al76  1  0.31932005  0.07005444  0.67851323  1
  Al0+  Al77  1  0.81920363  0.07160806  0.01210562  1
  Al0+  Al78  1  0.42996213  0.31806091  0.65207241  1
  Al0+  Al79  1  0.06852050  0.18100434  0.65490974  1
  Al0+  Al80  1  0.42752610  0.82345881  0.65008930  1
  Al0+  Al81  1  0.32322764  0.07309255  0.01742343  1
  Al0+  Al82  1  0.92719493  0.82015592  0.31796259  1
  Al0+  Al83  1  0.92868407  0.31990186  0.98809920  1
  Al0+  Al84  1  0.93000357  0.82411445  0.98308187  1
  Al0+  Al85  1  0.57276517  0.67775349  0.98671781  1
  Al0+  Al86  1  0.42992930  0.82218024  0.98592957  1
  Al0+  Al87  1  0.07207899  0.17933043  0.31708402  1
  Al0+  Al88  1  0.07165459  0.67855924  0.98308467  1
  Al0+  Al89  1  0.67726204  0.92728249  0.34786176  1
  Al0+  Al90  1  0.67719620  0.42949801  0.34723491  1
  Al0+  Al91  1  0.07354510  0.67684702  0.31982198  1
  Al0+  Al92  1  0.42626748  0.32003396  0.98508779  1
  Al0+  Al93  1  0.32207126  0.57231805  0.68433336  1
  Al0+  Al94  1  0.82477165  0.07050938  0.35035784  1
  Al0+  Al95  1  0.57141488  0.68017555  0.64862480  1
  Si0+  Si96  1  0.32129622  0.56826827  0.01578506  1
  Si0+  Si97  1  0.17568250  0.42950865  0.01752121  1
  Si0+  Si98  1  0.07028193  0.67737719  0.65257222  1
  Si0+  Si99  1  0.18188865  0.92873424  0.34781070  1
  Si0+  Si100  1  0.67834743  0.42795520  0.68415730  1
  Si0+  Si101  1  0.56872689  0.67737940  0.31938854  1
  Si0+  Si102  1  0.43014695  0.82399554  0.31860554  1
  Si0+  Si103  1  0.43011266  0.32256156  0.31882534  1
  Si0+  Si104  1  0.07198040  0.17779616  0.98403066  1
  Si0+  Si105  1  0.32020724  0.57193627  0.34817688  1
  Si0+  Si106  1  0.92519298  0.32035376  0.31880226  1
  Si0+  Si107  1  0.67946707  0.43131229  0.01239067  1
  Si0+  Si108  1  0.32035175  0.07306641  0.34810825  1
  Si0+  Si109  1  0.82347751  0.07227806  0.68386646  1
  Si0+  Si110  1  0.92960940  0.82047206  0.65124307  1
  Si0+  Si111  1  0.17961725  0.42805727  0.34688025  1
  Si0+  Si112  1  0.67951705  0.92504031  0.01511976  1
  Si0+  Si113  1  0.82257837  0.57064685  0.34887553  1
  Si0+  Si114  1  0.57086742  0.18023931  0.32157431  1
  Si0+  Si115  1  0.82354736  0.57116184  0.01565930  1
  Si0+  Si116  1  0.81979841  0.57062734  0.68283923  1
  Si0+  Si117  1  0.92567791  0.32476341  0.64761899  1
  Si0+  Si118  1  0.17491120  0.92678637  0.68011093  1
  Si0+  Si119  1  0.57512375  0.17712226  0.64720311  1
  O2-  O120  1  0.25246062  -0.00042771  0.06767804  1
  O2-  O121  1  0.25003289  0.00182222  0.39117402  1
  O2-  O122  1  0.24803918  -0.00888460  0.72280497  1
  O2-  O123  1  0.24873120  0.49903144  0.05987683  1
  O2-  O124  1  0.24507482  0.50427861  0.38849870  1
  O2-  O125  1  0.24857074  0.50139283  0.73409365  1
  O2-  O126  1  0.74661822  -0.00488079  0.05972408  1
  O2-  O127  1  0.75400286  -0.00466958  0.39746208  1
  O2-  O128  1  0.75276896  0.00689083  0.72855061  1
  O2-  O129  1  0.74853768  0.50335983  0.05682928  1
  O2-  O130  1  0.75297834  0.50330499  0.39446152  1
  O2-  O131  1  0.74965706  0.49881732  0.72558756  1
  O2-  O132  1  -0.00879028  0.24959011  0.27405712  1
  O2-  O133  1  -0.00556317  0.25568577  0.60521336  1
  O2-  O134  1  0.00291381  0.24614412  0.94034814  1
  O2-  O135  1  -0.00016564  0.74699071  0.27065363  1
  O2-  O136  1  0.00394914  0.75225820  0.60961421  1
  O2-  O137  1  0.00367161  0.75381803  0.93254849  1
  O2-  O138  1  0.50302484  0.25373909  0.27783056  1
  O2-  O139  1  0.50468669  0.24450615  0.60257553  1
  O2-  O140  1  0.49165027  0.24104545  0.93729271  1
  O2-  O141  1  0.50372606  0.75410893  0.27833790  1
  O2-  O142  1  0.49903098  0.75151427  0.59780201  1
  O2-  O143  1  0.50616788  0.75419241  0.93732098  1
  O2-  O144  1  0.07121098  0.18079599  0.08999279  1
  O2-  O145  1  0.07653666  0.18313467  0.43019787  1
  O2-  O146  1  0.06547142  0.18084083  0.76759433  1
  O2-  O147  1  0.06686535  0.67652733  0.09672337  1
  O2-  O148  1  0.07358729  0.67858019  0.43412894  1
  O2-  O149  1  0.06720580  0.67543066  0.75697617  1
  O2-  O150  1  0.57555111  0.18480636  0.10139760  1
  O2-  O151  1  0.56657098  0.18001909  0.42645287  1
  O2-  O152  1  0.57893534  0.18082631  0.75231659  1
  O2-  O153  1  0.56959393  0.67480019  0.10137631  1
  O2-  O154  1  0.56512344  0.67267841  0.42375610  1
  O2-  O155  1  0.57207354  0.68219388  0.76163142  1
  O2-  O156  1  0.18227878  0.42617988  0.24185109  1
  O2-  O157  1  0.17930193  0.43130610  0.56796159  1
  O2-  O158  1  0.17367437  0.42998459  0.91296978  1
  O2-  O159  1  0.18492600  0.92673886  0.24342161  1
  O2-  O160  1  0.17263162  0.92879343  0.57385293  1
  O2-  O161  1  0.18031556  0.93065804  0.90228931  1
  O2-  O162  1  0.67576823  0.43107683  0.23383119  1
  O2-  O163  1  0.68004932  0.42856437  0.57859725  1
  O2-  O164  1  0.68121366  0.43220080  0.90744027  1
  O2-  O165  1  0.67223001  0.93085749  0.23462255  1
  O2-  O166  1  0.68515738  0.92879412  0.56921424  1
  O2-  O167  1  0.68245953  0.92541921  0.90959839  1
  O2-  O168  1  0.43240562  0.32508955  0.09960932  1
  O2-  O169  1  0.42807041  0.32197016  0.42377607  1
  O2-  O170  1  0.43069526  0.31621851  0.76442051  1
  O2-  O171  1  0.43140601  0.81834214  0.10088081  1
  O2-  O172  1  0.42665186  0.82371403  0.42322447  1
  O2-  O173  1  0.42868292  0.82363329  0.76290188  1
  O2-  O174  1  0.92854197  0.32055256  0.10151459  1
  O2-  O175  1  0.92782032  0.32339011  0.42426398  1
  O2-  O176  1  0.92396558  0.32541345  0.75308876  1
  O2-  O177  1  0.92795630  0.82137511  0.09642902  1
  O2-  O178  1  0.93002124  0.81703281  0.43255740  1
  O2-  O179  1  0.93011762  0.82080654  0.75586492  1
  O2-  O180  1  0.32179446  0.07271903  0.24364485  1
  O2-  O181  1  0.31534907  0.07134289  0.56436332  1
  O2-  O182  1  0.31800139  0.07503489  0.90408260  1
  O2-  O183  1  0.32480765  0.56955251  0.24310540  1
  O2-  O184  1  0.31843793  0.57087502  0.56943698  1
  O2-  O185  1  0.32170242  0.56609346  0.91147278  1
  O2-  O186  1  0.82002593  0.07420077  0.23682595  1
  O2-  O187  1  0.82530555  0.06990611  0.57837389  1
  O2-  O188  1  0.81752677  0.07233186  0.89890393  1
  O2-  O189  1  0.82167163  0.56880373  0.24345696  1
  O2-  O190  1  0.82112308  0.56899520  0.57738218  1
  O2-  O191  1  0.82603819  0.56848622  0.91056644  1
  O2-  O192  1  0.04820555  0.08143960  0.26407481  1
  O2-  O193  1  0.03835534  0.08486198  0.59725366  1
  O2-  O194  1  0.04760160  0.08432730  0.93954312  1
  O2-  O195  1  0.04937164  0.57610911  0.26951760  1
  O2-  O196  1  0.03739273  0.58700429  0.60421305  1
  O2-  O197  1  0.03837792  0.58226859  0.92922987  1
  O2-  O198  1  0.54081053  0.08994317  0.27278638  1
  O2-  O199  1  0.55078885  0.08281551  0.60366729  1
  O2-  O200  1  0.55509768  0.07724822  0.93718588  1
  O2-  O201  1  0.53457230  0.58773850  0.27032801  1
  O2-  O202  1  0.54461041  0.58045191  0.59691818  1
  O2-  O203  1  0.53973881  0.58192977  0.93229650  1
  O2-  O204  1  0.16555735  0.21654147  0.26036337  1
  O2-  O205  1  0.16366621  0.21258185  0.59804512  1
  O2-  O206  1  0.16503888  0.20609209  0.93982119  1
  O2-  O207  1  0.17187408  0.70600876  0.26673739  1
  O2-  O208  1  0.16374053  0.69933433  0.60626413  1
  O2-  O209  1  0.17148533  0.70110770  0.93254854  1
  O2-  O210  1  0.66472144  0.20679899  0.27840415  1
  O2-  O211  1  0.66800536  0.20572827  0.59985655  1
  O2-  O212  1  0.66444290  0.21605411  0.92861612  1
  O2-  O213  1  0.66332885  0.69626327  0.27437699  1
  O2-  O214  1  0.67103975  0.70776762  0.59616133  1
  O2-  O215  1  0.67357853  0.69536765  0.93583941  1
  O2-  O216  1  0.08458974  0.46007745  0.06569639  1
  O2-  O217  1  0.08559245  0.44749060  0.39387399  1
  O2-  O218  1  0.07745446  0.45473370  0.73296748  1
  O2-  O219  1  0.08241378  0.95646951  0.07004643  1
  O2-  O220  1  0.08899306  0.95383079  0.39391007  1
  O2-  O221  1  0.08261356  0.95685517  0.72646633  1
  O2-  O222  1  0.58706110  0.45786734  0.06018438  1
  O2-  O223  1  0.58174720  0.46299729  0.40308112  1
  O2-  O224  1  0.58674974  0.45583477  0.73011532  1
  O2-  O225  1  0.58485217  0.94690122  0.06000420  1
  O2-  O226  1  0.58095778  0.96179888  0.40373322  1
  O2-  O227  1  0.58400960  0.95769598  0.73530333  1
  O2-  O228  1  0.20152397  0.33785073  0.06646752  1
  O2-  O229  1  0.21406969  0.33831674  0.39492215  1
  O2-  O230  1  0.20705942  0.33136588  0.73460254  1
  O2-  O231  1  0.20856383  0.82765502  0.06863829  1
  O2-  O232  1  0.21137161  0.83727057  0.39633780  1
  O2-  O233  1  0.19402501  0.83156676  0.72422525  1
  O2-  O234  1  0.71006196  0.34060656  0.06014193  1
  O2-  O235  1  0.70509702  0.33507969  0.40670732  1
  O2-  O236  1  0.70657650  0.33568955  0.73028993  1
  O2-  O237  1  0.70605554  0.83062246  0.06013448  1
  O2-  O238  1  0.70033640  0.82644138  0.39962628  1
  O2-  O239  1  0.71414931  0.83288871  0.73506781  1
  O2-  O240  1  0.45672645  0.41560741  0.27297191  1
  O2-  O241  1  0.46120614  0.41451505  0.59743609  1
  O2-  O242  1  0.46114317  0.41438632  0.92962888  1
  O2-  O243  1  0.45626000  0.91672278  0.27233595  1
  O2-  O244  1  0.45746907  0.92245679  0.59782254  1
  O2-  O245  1  0.45181872  0.92200963  0.93509184  1
  O2-  O246  1  0.95227553  0.41303774  0.27112644  1
  O2-  O247  1  0.94984496  0.41885913  0.60142592  1
  O2-  O248  1  0.95906875  0.41514062  0.93209642  1
  O2-  O249  1  0.95672812  0.91805801  0.26669930  1
  O2-  O250  1  0.95410045  0.91261777  0.60271603  1
  O2-  O251  1  0.95763284  0.92271137  0.93032722  1
  O2-  O252  1  0.33980914  0.29433437  0.26921974  1
  O2-  O253  1  0.33333405  0.28751006  0.59723246  1
  O2-  O254  1  0.32495347  0.29990083  0.93574721  1
  O2-  O255  1  0.34021930  0.79303555  0.26960619  1
  O2-  O256  1  0.32773395  0.79540984  0.59695534  1
  O2-  O257  1  0.33350289  0.79008744  0.93365238  1
  O2-  O258  1  0.82899529  0.29820748  0.27665998  1
  O2-  O259  1  0.83180621  0.29953412  0.60138233  1
  O2-  O260  1  0.83384524  0.29129805  0.93053435  1
  O2-  O261  1  0.82805358  0.79263727  0.26580979  1
  O2-  O262  1  0.83997835  0.78711123  0.60373741  1
  O2-  O263  1  0.83409151  0.79101891  0.92827802  1
  O2-  O264  1  0.42348663  0.04675127  0.06935986  1
  O2-  O265  1  0.41184920  0.04699227  0.39675670  1
  O2-  O266  1  0.41787233  0.04749291  0.73112728  1
  O2-  O267  1  0.41245981  0.53683090  0.06430142  1
  O2-  O268  1  0.40894342  0.54037601  0.39918171  1
  O2-  O269  1  0.42098474  0.54156019  0.73341510  1
  O2-  O270  1  0.91658728  0.04453904  0.06607975  1
  O2-  O271  1  0.92521106  0.04371153  0.40071731  1
  O2-  O272  1  0.91618369  0.04370335  0.72998065  1
  O2-  O273  1  0.91303300  0.53830289  0.06454960  1
  O2-  O274  1  0.91594487  0.54333050  0.39620047  1
  O2-  O275  1  0.91074940  0.54292227  0.73188591  1
  O2-  O276  1  0.29439848  0.17220634  0.07124404  1
  O2-  O277  1  0.29079468  0.16614894  0.39286234  1
  O2-  O278  1  0.28384524  0.16425559  0.73284367  1
  O2-  O279  1  0.29578819  0.66024385  0.06404841  1
  O2-  O280  1  0.29620362  0.66514121  0.39495604  1
  O2-  O281  1  0.29464673  0.67157352  0.73532348  1
  O2-  O282  1  0.78671069  0.16862166  0.06591976  1
  O2-  O283  1  0.79570907  0.16719861  0.40716947  1
  O2-  O284  1  0.80140322  0.16866519  0.72596528  1
  O2-  O285  1  0.79916048  0.66399987  0.06255182  1
  O2-  O286  1  0.79762314  0.66383980  0.39583425  1
  O2-  O287  1  0.79209020  0.66178424  0.73047273  1
