# generated using pymatgen
data_Ca2Al2SiO7
_symmetry_space_group_name_H-M   'P 1'
_cell_length_a   15.46366414
_cell_length_b   15.46275331
_cell_length_c   15.28770777
_cell_angle_alpha   90.01855393
_cell_angle_beta   90.01006337
_cell_angle_gamma   89.97536757
_symmetry_Int_Tables_number   1
_chemical_formula_structural   Ca2Al2SiO7
_chemical_formula_sum   'Ca48 Al48 Si24 O168'
_cell_volume   3655.45581286
_cell_formula_units_Z   24
loop_
 _symmetry_equiv_pos_site_id
 _symmetry_equiv_pos_as_xyz
  1  'x, y, z'
loop_
 _atom_type_symbol
 _atom_type_oxidation_number
  Ca2+  2.0
  Al0+  0.0
  Si0+  0.0
  O2-  -2.0
loop_
 _atom_site_type_symbol
 _atom_site_label
 _atom_site_symmetry_multiplicity
 _atom_site_fract_x
 _atom_site_fract_y
 _atom_site_fract_z
 _atom_site_occupancy
  Ca2+  Ca0  1  0.17381342  0.08307212  0.17214399  1
  Ca2+  Ca1  1  0.16732236  0.08280397  0.50263050  1
  Ca2+  Ca2  1  0.16838602  0.08186859  0.83678767  1
  Ca2+  Ca3  1  0.16307708  0.57295187  0.17498326  1
  Ca2+  Ca4  1  0.16161065  0.57188880  0.50301428  1
  Ca2+  Ca5  1  0.16575491  0.56759405  0.83775095  1
  Ca2+  Ca6  1  0.66307364  0.07868656  0.17253479  1
  Ca2+  Ca7  1  0.66818934  0.08281188  0.50546093  1
  Ca2+  Ca8  1  0.66688428  0.06903522  0.83942086  1
  Ca2+  Ca9  1  0.66648341  0.58527737  0.16782197  1
  Ca2+  Ca10  1  0.66780331  0.58538080  0.50680041  1
  Ca2+  Ca11  1  0.66212920  0.59147702  0.83663158  1
  Ca2+  Ca12  1  0.09553227  0.32319145  0.16557876  1
  Ca2+  Ca13  1  0.08716486  0.32486518  0.49294177  1
  Ca2+  Ca14  1  0.09626525  0.32204834  0.83051930  1
  Ca2+  Ca15  1  0.08566537  0.83024316  0.16335815  1
  Ca2+  Ca16  1  0.08421320  0.83586572  0.49362363  1
  Ca2+  Ca17  1  0.07180252  0.84259778  0.82497141  1
  Ca2+  Ca18  1  0.57054891  0.32354586  0.16401487  1
  Ca2+  Ca19  1  0.57027875  0.32804572  0.49078690  1
  Ca2+  Ca20  1  0.56744927  0.33372201  0.82727133  1
  Ca2+  Ca21  1  0.57718492  0.83050732  0.15445072  1
  Ca2+  Ca22  1  0.57909984  0.83598649  0.50502849  1
  Ca2+  Ca23  1  0.57695351  0.83310699  0.82863512  1
  Ca2+  Ca24  1  0.32719189  0.41179294  0.16983528  1
  Ca2+  Ca25  1  0.32566821  0.40833573  0.50338984  1
  Ca2+  Ca26  1  0.32773198  0.40996804  0.83798078  1
  Ca2+  Ca27  1  0.33364947  0.92806727  0.17421740  1
  Ca2+  Ca28  1  0.32266824  0.92178559  0.50498867  1
  Ca2+  Ca29  1  0.33556840  0.92145726  0.83983448  1
  Ca2+  Ca30  1  0.83335380  0.41435877  0.17501638  1
  Ca2+  Ca31  1  0.83595784  0.41549099  0.50235158  1
  Ca2+  Ca32  1  0.82900452  0.42110606  0.83912459  1
  Ca2+  Ca33  1  0.82886643  0.91152719  0.16397428  1
  Ca2+  Ca34  1  0.82872388  0.91681363  0.50970953  1
  Ca2+  Ca35  1  0.82520842  0.90562288  0.83734020  1
  Ca2+  Ca36  1  0.40355531  0.17289841  0.16588559  1
  Ca2+  Ca37  1  0.41619322  0.17412495  0.49291308  1
  Ca2+  Ca38  1  0.40609907  0.17460030  0.83332106  1
  Ca2+  Ca39  1  0.42091569  0.67592561  0.15646919  1
  Ca2+  Ca40  1  0.41540265  0.67285170  0.50174400  1
  Ca2+  Ca41  1  0.42552954  0.67811438  0.82778626  1
  Ca2+  Ca42  1  0.93063486  0.17004341  0.16568040  1
  Ca2+  Ca43  1  0.93070551  0.16989670  0.49331922  1
  Ca2+  Ca44  1  0.93195084  0.16258719  0.82960509  1
  Ca2+  Ca45  1  0.92594856  0.67091303  0.16479983  1
  Ca2+  Ca46  1  0.92426885  0.67473620  0.49776844  1
  Ca2+  Ca47  1  0.91724743  0.67800054  0.83127972  1
  Al0+  Al48  1  -0.00078018  0.00025403  -0.00642331  1
  Al0+  Al49  1  -0.00480585  0.00086262  0.33108206  1
  Al0+  Al50  1  0.00062002  0.00172125  0.66059686  1
  Al0+  Al51  1  -0.00195614  0.49850966  0.00474812  1
  Al0+  Al52  1  -0.00168102  0.50431515  0.33271909  1
  Al0+  Al53  1  -0.00104797  0.50014930  0.67491995  1
  Al0+  Al54  1  0.50054187  0.00107733  0.00652612  1
  Al0+  Al55  1  0.50024797  -0.00116621  0.33733397  1
  Al0+  Al56  1  0.50096842  0.00043433  0.66789109  1
  Al0+  Al57  1  0.49972463  0.49875570  -0.00600835  1
  Al0+  Al58  1  0.50087340  0.50052858  0.33027026  1
  Al0+  Al59  1  0.49977249  0.50079280  0.65876581  1
  Al0+  Al60  1  0.24928394  0.24819399  -0.00031389  1
  Al0+  Al61  1  0.25004545  0.25036872  0.33467739  1
  Al0+  Al62  1  0.24994070  0.24916691  0.66191946  1
  Al0+  Al63  1  0.24995559  0.74677877  -0.00591276  1
  Al0+  Al64  1  0.25012166  0.74920844  0.33142120  1
  Al0+  Al65  1  0.24946297  0.74859018  0.66869485  1
  Al0+  Al66  1  0.75125084  0.24963000  0.00089833  1
  Al0+  Al67  1  0.74819577  0.24933558  0.32830544  1
  Al0+  Al68  1  0.75133571  0.25166357  0.67157220  1
  Al0+  Al69  1  0.75235011  0.74869656  0.00095002  1
  Al0+  Al70  1  0.75000786  0.74914241  0.33502422  1
  Al0+  Al71  1  0.75167911  0.75031339  0.66236011  1
  Al0+  Al72  1  0.92900142  0.32297691  0.32022924  1
  Al0+  Al73  1  0.93310290  0.81887001  0.98718941  1
  Al0+  Al74  1  0.07191110  0.68133567  0.32099792  1
  Al0+  Al75  1  0.18084227  0.42876758  0.68084901  1
  Al0+  Al76  1  0.57093152  0.68104814  0.64951111  1
  Al0+  Al77  1  0.31928045  0.06857140  0.01304477  1
  Al0+  Al78  1  0.57048233  0.17609211  0.31908962  1
  Al0+  Al79  1  0.42582007  0.82452322  0.65006624  1
  Al0+  Al80  1  0.42999197  0.31752922  0.98549489  1
  Al0+  Al81  1  0.17670470  0.92783075  0.34575024  1
  Al0+  Al82  1  0.68079265  0.93015624  0.68092929  1
  Al0+  Al83  1  0.42956088  0.31964044  0.65192598  1
  Al0+  Al84  1  0.17937722  0.43155127  0.34745718  1
  Al0+  Al85  1  0.32094606  0.07139707  0.35089832  1
  Al0+  Al86  1  0.68127588  0.92916371  0.01481671  1
  Al0+  Al87  1  0.18037723  0.42979071  0.01527490  1
  Al0+  Al88  1  0.93130180  0.82022652  0.65182508  1
  Al0+  Al89  1  0.17772776  0.92784799  0.67989672  1
  Al0+  Al90  1  0.57114444  0.67958590  0.98631127  1
  Al0+  Al91  1  0.42730635  0.82487803  0.98625227  1
  Al0+  Al92  1  0.42799518  0.32131289  0.31656002  1
  Al0+  Al93  1  0.07014183  0.18113298  0.98528492  1
  Al0+  Al94  1  0.07133909  0.17837165  0.31672521  1
  Al0+  Al95  1  0.06995107  0.18089903  0.65169586  1
  Si0+  Si96  1  0.92538147  0.82214788  0.31649837  1
  Si0+  Si97  1  0.67718256  0.42919421  0.68127689  1
  Si0+  Si98  1  0.92608331  0.32471652  0.65310693  1
  Si0+  Si99  1  0.17524649  0.92556428  0.01293125  1
  Si0+  Si100  1  0.67703861  0.42757719  0.01540574  1
  Si0+  Si101  1  0.57552167  0.17882523  0.65310812  1
  Si0+  Si102  1  0.42918199  0.82007493  0.31926832  1
  Si0+  Si103  1  0.57277761  0.68003328  0.31804369  1
  Si0+  Si104  1  0.57598693  0.17706286  0.98263147  1
  Si0+  Si105  1  0.81849369  0.07253995  0.34848082  1
  Si0+  Si106  1  0.07259145  0.67342383  0.98242102  1
  Si0+  Si107  1  0.81964024  0.56981610  0.01773592  1
  Si0+  Si108  1  0.67970640  0.92671363  0.35002781  1
  Si0+  Si109  1  0.82411532  0.07276929  0.01793792  1
  Si0+  Si110  1  0.32526068  0.57313761  0.34970019  1
  Si0+  Si111  1  0.67905587  0.42909374  0.34790993  1
  Si0+  Si112  1  0.07173910  0.67463975  0.65261427  1
  Si0+  Si113  1  0.82325883  0.07409073  0.68380502  1
  Si0+  Si114  1  0.81963570  0.57080378  0.68321124  1
  Si0+  Si115  1  0.92562299  0.32361933  0.98229167  1
  Si0+  Si116  1  0.81952305  0.57223730  0.35074074  1
  Si0+  Si117  1  0.32119977  0.07060773  0.68311350  1
  Si0+  Si118  1  0.32363665  0.57183338  0.01542097  1
  Si0+  Si119  1  0.32482018  0.57234056  0.68424501  1
  O2-  O120  1  0.24931756  -0.01236379  0.05734770  1
  O2-  O121  1  0.24532588  0.00148075  0.39840260  1
  O2-  O122  1  0.25683241  -0.00246672  0.72703070  1
  O2-  O123  1  0.25201910  0.50766245  0.06167156  1
  O2-  O124  1  0.25727905  0.50371342  0.39396949  1
  O2-  O125  1  0.25550837  0.50362710  0.72798760  1
  O2-  O126  1  0.75307064  0.00652262  0.06278165  1
  O2-  O127  1  0.74890414  -0.00007127  0.39107645  1
  O2-  O128  1  0.75427631  0.00597616  0.72830499  1
  O2-  O129  1  0.74904844  0.49751436  0.05879665  1
  O2-  O130  1  0.75078962  0.49867837  0.39242812  1
  O2-  O131  1  0.74743403  0.50048461  0.72499810  1
  O2-  O132  1  0.00353228  0.25579949  0.26785146  1
  O2-  O133  1  -0.00559635  0.25692808  0.60901531  1
  O2-  O134  1  -0.00529625  0.25612549  0.93832346  1
  O2-  O135  1  0.00135303  0.76059356  0.27441615  1
  O2-  O136  1  0.01082733  0.74984988  0.60726888  1
  O2-  O137  1  0.01171863  0.74907944  0.93861431  1
  O2-  O138  1  0.49554802  0.24405884  0.26793770  1
  O2-  O139  1  0.50732830  0.24689736  0.60815014  1
  O2-  O140  1  0.50669080  0.24469894  0.93812672  1
  O2-  O141  1  0.50080738  0.74931105  0.27681873  1
  O2-  O142  1  0.49773249  0.75160211  0.59951680  1
  O2-  O143  1  0.50026654  0.75274366  0.93771133  1
  O2-  O144  1  0.06950646  0.18133886  0.09782703  1
  O2-  O145  1  0.06819590  0.17813537  0.43017935  1
  O2-  O146  1  0.07023627  0.18161863  0.76503298  1
  O2-  O147  1  0.06914933  0.67184854  0.08812548  1
  O2-  O148  1  0.06719000  0.67893355  0.43401520  1
  O2-  O149  1  0.06533403  0.67029942  0.75801461  1
  O2-  O150  1  0.57937461  0.18017281  0.08782405  1
  O2-  O151  1  0.57384877  0.18079489  0.43299221  1
  O2-  O152  1  0.57790373  0.18140492  0.75859481  1
  O2-  O153  1  0.57064361  0.67994133  0.10066169  1
  O2-  O154  1  0.57606795  0.68072117  0.42263227  1
  O2-  O155  1  0.57138868  0.68181692  0.76269134  1
  O2-  O156  1  0.18005933  0.43372567  0.23432818  1
  O2-  O157  1  0.17869167  0.43055874  0.56798411  1
  O2-  O158  1  0.18190275  0.42944546  0.90186380  1
  O2-  O159  1  0.18092541  0.92518388  0.23184153  1
  O2-  O160  1  0.17633320  0.93117301  0.56707478  1
  O2-  O161  1  0.17281744  0.93033645  0.90743095  1
  O2-  O162  1  0.67981236  0.43271748  0.24273111  1
  O2-  O163  1  0.68033492  0.42797783  0.57620825  1
  O2-  O164  1  0.67911626  0.42785452  0.91009756  1
  O2-  O165  1  0.68200905  0.92284709  0.24502008  1
  O2-  O166  1  0.68327437  0.93193755  0.56732151  1
  O2-  O167  1  0.68371380  0.92803466  0.90188361  1
  O2-  O168  1  0.43080119  0.31796844  0.09795015  1
  O2-  O169  1  0.43212907  0.32346539  0.43013268  1
  O2-  O170  1  0.42958418  0.31819766  0.76531488  1
  O2-  O171  1  0.42967587  0.82239737  0.10060249  1
  O2-  O172  1  0.42996424  0.81887890  0.42409193  1
  O2-  O173  1  0.42904508  0.82494205  0.76332556  1
  O2-  O174  1  0.92271435  0.32379553  0.08743397  1
  O2-  O175  1  0.92765091  0.32011211  0.43416809  1
  O2-  O176  1  0.92274503  0.32490557  0.75854332  1
  O2-  O177  1  0.93206116  0.81581623  0.10046823  1
  O2-  O178  1  0.92012625  0.81822324  0.42185823  1
  O2-  O179  1  0.92896896  0.81620560  0.76487925  1
  O2-  O180  1  0.32129050  0.06804307  0.23716571  1
  O2-  O181  1  0.32005501  0.07208064  0.57781413  1
  O2-  O182  1  0.31662458  0.07116536  0.89973156  1
  O2-  O183  1  0.32628996  0.57436636  0.24407580  1
  O2-  O184  1  0.32427453  0.57196600  0.57848050  1
  O2-  O185  1  0.32386296  0.56970632  0.91004123  1
  O2-  O186  1  0.81808236  0.07161564  0.24350214  1
  O2-  O187  1  0.82025418  0.07553147  0.57799013  1
  O2-  O188  1  0.82326402  0.07303059  0.91237938  1
  O2-  O189  1  0.81616424  0.57603542  0.24571033  1
  O2-  O190  1  0.82119150  0.56876909  0.57803944  1
  O2-  O191  1  0.82044866  0.56922890  0.91248199  1
  O2-  O192  1  0.03652461  0.08162249  0.26336878  1
  O2-  O193  1  0.03731568  0.08680089  0.59500927  1
  O2-  O194  1  0.03828585  0.08557215  0.92971138  1
  O2-  O195  1  0.03333314  0.58890102  0.26404096  1
  O2-  O196  1  0.03615729  0.58406230  0.60538114  1
  O2-  O197  1  0.03680633  0.58278297  0.93627822  1
  O2-  O198  1  0.54938361  0.07451041  0.26975497  1
  O2-  O199  1  0.55174654  0.08502101  0.60780368  1
  O2-  O200  1  0.55059564  0.08255079  0.94017532  1
  O2-  O201  1  0.54860947  0.58750404  0.27073983  1
  O2-  O202  1  0.54583332  0.58216975  0.59518272  1
  O2-  O203  1  0.54511480  0.58137602  0.93215616  1
  O2-  O204  1  0.17059115  0.20487466  0.26630442  1
  O2-  O205  1  0.16467813  0.21277523  0.59663545  1
  O2-  O206  1  0.16486664  0.21403227  0.92992763  1
  O2-  O207  1  0.16913919  0.70492805  0.26433167  1
  O2-  O208  1  0.16823974  0.68973673  0.61052244  1
  O2-  O209  1  0.16878545  0.68704714  0.93844367  1
  O2-  O210  1  0.66631240  0.20771993  0.26286107  1
  O2-  O211  1  0.66974084  0.20469064  0.60736391  1
  O2-  O212  1  0.66985598  0.20207276  0.93615300  1
  O2-  O213  1  0.66424787  0.70933775  0.27011316  1
  O2-  O214  1  0.66918489  0.70938186  0.59597611  1
  O2-  O215  1  0.67088795  0.70534808  0.93597381  1
  O2-  O216  1  0.08172040  0.45704775  0.06761438  1
  O2-  O217  1  0.08254270  0.46634331  0.39963979  1
  O2-  O218  1  0.08404664  0.45862728  0.73683827  1
  O2-  O219  1  0.08296264  0.95533088  0.05956266  1
  O2-  O220  1  0.07395163  0.94983720  0.39340713  1
  O2-  O221  1  0.08139257  0.96408768  0.73218319  1
  O2-  O222  1  0.58573022  0.45706156  0.06234026  1
  O2-  O223  1  0.58804285  0.45947360  0.39563855  1
  O2-  O224  1  0.58494217  0.45759482  0.72706441  1
  O2-  O225  1  0.58516327  0.95753142  0.07082713  1
  O2-  O226  1  0.58772347  0.95121798  0.39786619  1
  O2-  O227  1  0.58379885  0.95960515  0.73520763  1
  O2-  O228  1  0.21549650  0.33439003  0.06733625  1
  O2-  O229  1  0.20731440  0.33421123  0.40040422  1
  O2-  O230  1  0.21475038  0.33209291  0.73288583  1
  O2-  O231  1  0.19240779  0.82723912  0.05291566  1
  O2-  O232  1  0.20652899  0.82904748  0.39842491  1
  O2-  O233  1  0.19762426  0.82755637  0.73205182  1
  O2-  O234  1  0.70443155  0.33552614  0.06288251  1
  O2-  O235  1  0.70577780  0.33670850  0.39440145  1
  O2-  O236  1  0.70473160  0.33858893  0.73208702  1
  O2-  O237  1  0.71646275  0.83338840  0.06942132  1
  O2-  O238  1  0.71111147  0.83609323  0.39842547  1
  O2-  O239  1  0.71567322  0.83325817  0.73167581  1
  O2-  O240  1  0.46118783  0.41902056  0.26384358  1
  O2-  O241  1  0.45843984  0.41570778  0.59709571  1
  O2-  O242  1  0.46023321  0.41361401  0.93023911  1
  O2-  O243  1  0.45875667  0.91153027  0.27347488  1
  O2-  O244  1  0.45803601  0.92226666  0.59750541  1
  O2-  O245  1  0.45718576  0.92358459  0.93570731  1
  O2-  O246  1  0.94755249  0.42474624  0.27068997  1
  O2-  O247  1  0.95061905  0.41939544  0.60913270  1
  O2-  O248  1  0.94920524  0.41859970  0.93807385  1
  O2-  O249  1  0.93977594  0.91787051  0.27217001  1
  O2-  O250  1  0.95548441  0.91779246  0.59775079  1
  O2-  O251  1  0.95564630  0.91601090  0.93096790  1
  O2-  O252  1  0.32884112  0.29583971  0.26552372  1
  O2-  O253  1  0.33539479  0.28605789  0.59680437  1
  O2-  O254  1  0.33479056  0.28362153  0.93144948  1
  O2-  O255  1  0.33876652  0.79231624  0.27012824  1
  O2-  O256  1  0.32683746  0.79414925  0.59849731  1
  O2-  O257  1  0.32881059  0.79765716  0.93240272  1
  O2-  O258  1  0.83158785  0.29274678  0.26599712  1
  O2-  O259  1  0.83172253  0.30079471  0.60684581  1
  O2-  O260  1  0.83148853  0.29913506  0.93557329  1
  O2-  O261  1  0.83533261  0.78580826  0.26855561  1
  O2-  O262  1  0.83798742  0.78407752  0.59546388  1
  O2-  O263  1  0.83854774  0.78117947  0.93376519  1
  O2-  O264  1  0.41718692  0.04649673  0.06885740  1
  O2-  O265  1  0.41946422  0.04115604  0.40391452  1
  O2-  O266  1  0.41671244  0.05143907  0.72848269  1
  O2-  O267  1  0.41698376  0.54370838  0.06132885  1
  O2-  O268  1  0.42003156  0.54957271  0.39538348  1
  O2-  O269  1  0.41912017  0.54534331  0.72809820  1
  O2-  O270  1  0.91642112  0.04207734  0.06371800  1
  O2-  O271  1  0.90987067  0.04549328  0.39718759  1
  O2-  O272  1  0.91667147  0.04650171  0.72763068  1
  O2-  O273  1  0.91071717  0.54246151  0.06719069  1
  O2-  O274  1  0.91119366  0.54803829  0.39939258  1
  O2-  O275  1  0.90907184  0.54277443  0.73539661  1
  O2-  O276  1  0.28177497  0.16242541  0.06763289  1
  O2-  O277  1  0.29597484  0.17092605  0.40224367  1
  O2-  O278  1  0.28903441  0.16265818  0.72873829  1
  O2-  O279  1  0.30202322  0.66758136  0.06022942  1
  O2-  O280  1  0.29828770  0.66613387  0.39603528  1
  O2-  O281  1  0.30125412  0.66593955  0.73115717  1
  O2-  O282  1  0.80218460  0.16796129  0.06309310  1
  O2-  O283  1  0.78872753  0.16362272  0.39663805  1
  O2-  O284  1  0.80072994  0.16808918  0.73199175  1
  O2-  O285  1  0.79090734  0.65988556  0.06768722  1
  O2-  O286  1  0.78735325  0.66210650  0.40054740  1
  O2-  O287  1  0.79084652  0.66241645  0.72983396  1
