# generated using pymatgen
data_Ca2Al2SiO7
_symmetry_space_group_name_H-M   'P 1'
_cell_length_a   15.46624800
_cell_length_b   15.46606736
_cell_length_c   15.28895400
_cell_angle_alpha   90.00524102
_cell_angle_beta   90.00741033
_cell_angle_gamma   89.96430118
_symmetry_Int_Tables_number   1
_chemical_formula_structural   Ca2Al2SiO7
_chemical_formula_sum   'Ca48 Al48 Si24 O168'
_cell_volume   3657.14812805
_cell_formula_units_Z   24
loop_
 _symmetry_equiv_pos_site_id
 _symmetry_equiv_pos_as_xyz
  1  'x, y, z'
loop_
 _atom_type_symbol
 _atom_type_oxidation_number
  Ca2+  2.0
  Al0+  0.0
  Si0+  0.0
  O2-  -2.0
loop_
 _atom_site_type_symbol
 _atom_site_label
 _atom_site_symmetry_multiplicity
 _atom_site_fract_x
 _atom_site_fract_y
 _atom_site_fract_z
 _atom_site_occupancy
  Ca2+  Ca0  1  0.16911106  0.08899822  0.16500345  1
  Ca2+  Ca1  1  0.16501727  0.08496694  0.50601972  1
  Ca2+  Ca2  1  0.16939340  0.08515407  0.84125255  1
  Ca2+  Ca3  1  0.16888052  0.58326549  0.16307306  1
  Ca2+  Ca4  1  0.16732093  0.57660100  0.51176160  1
  Ca2+  Ca5  1  0.16789482  0.57764937  0.84456991  1
  Ca2+  Ca6  1  0.67370859  0.08608974  0.17137673  1
  Ca2+  Ca7  1  0.67670890  0.07766477  0.50784811  1
  Ca2+  Ca8  1  0.66101437  0.07496716  0.83860120  1
  Ca2+  Ca9  1  0.66318934  0.57817977  0.16755383  1
  Ca2+  Ca10  1  0.66258596  0.57669326  0.50808795  1
  Ca2+  Ca11  1  0.65880345  0.58353502  0.83597441  1
  Ca2+  Ca12  1  0.07914235  0.32456870  0.15452456  1
  Ca2+  Ca13  1  0.08838285  0.32264899  0.49856988  1
  Ca2+  Ca14  1  0.09422784  0.32677192  0.83019600  1
  Ca2+  Ca15  1  0.07491030  0.82719577  0.15563170  1
  Ca2+  Ca16  1  0.08081945  0.82780051  0.50212056  1
  Ca2+  Ca17  1  0.07701195  0.82281130  0.82922253  1
  Ca2+  Ca18  1  0.58179539  0.32724497  0.15582678  1
  Ca2+  Ca19  1  0.57897175  0.34525908  0.49956478  1
  Ca2+  Ca20  1  0.56994184  0.33498610  0.82906813  1
  Ca2+  Ca21  1  0.57351228  0.82861830  0.15619132  1
  Ca2+  Ca22  1  0.57726272  0.83666759  0.50247748  1
  Ca2+  Ca23  1  0.57492118  0.82387044  0.82719573  1
  Ca2+  Ca24  1  0.33229925  0.41939048  0.15992216  1
  Ca2+  Ca25  1  0.32898741  0.41852450  0.51167097  1
  Ca2+  Ca26  1  0.32648680  0.41755480  0.84252274  1
  Ca2+  Ca27  1  0.34034119  0.92087904  0.16657465  1
  Ca2+  Ca28  1  0.33843141  0.91701879  0.50480965  1
  Ca2+  Ca29  1  0.33940688  0.92103653  0.84243584  1
  Ca2+  Ca30  1  0.82870134  0.41298362  0.17016989  1
  Ca2+  Ca31  1  0.81889706  0.41617331  0.50707514  1
  Ca2+  Ca32  1  0.82842224  0.41342487  0.83763468  1
  Ca2+  Ca33  1  0.83514532  0.92237541  0.17129933  1
  Ca2+  Ca34  1  0.83342277  0.92121030  0.51057794  1
  Ca2+  Ca35  1  0.83093359  0.90702586  0.83595830  1
  Ca2+  Ca36  1  0.42324197  0.17204045  0.15295756  1
  Ca2+  Ca37  1  0.41875286  0.17475555  0.50107518  1
  Ca2+  Ca38  1  0.41429819  0.17493305  0.83582802  1
  Ca2+  Ca39  1  0.41908054  0.67490321  0.15625337  1
  Ca2+  Ca40  1  0.42082742  0.67675638  0.49959714  1
  Ca2+  Ca41  1  0.42095622  0.66902312  0.82926990  1
  Ca2+  Ca42  1  0.92441483  0.16814620  0.15985069  1
  Ca2+  Ca43  1  0.92775437  0.16066504  0.49592704  1
  Ca2+  Ca44  1  0.92871500  0.17384482  0.83379032  1
  Ca2+  Ca45  1  0.92092119  0.67293806  0.15364815  1
  Ca2+  Ca46  1  0.91778132  0.66791679  0.50606997  1
  Ca2+  Ca47  1  0.92628490  0.67208952  0.83049776  1
  Al0+  Al48  1  -0.00170728  0.00157443  -0.00590980  1
  Al0+  Al49  1  0.00255145  -0.00099852  0.33336772  1
  Al0+  Al50  1  0.00246461  0.00140899  0.66182473  1
  Al0+  Al51  1  -0.00415535  0.49933023  0.00047271  1
  Al0+  Al52  1  0.00012259  0.49913620  0.33529761  1
  Al0+  Al53  1  -0.00184439  0.49685814  0.66625302  1
  Al0+  Al54  1  0.50045378  -0.00069181  0.00112710  1
  Al0+  Al55  1  0.49951223  0.00231399  0.33129470  1
  Al0+  Al56  1  0.50291887  0.00246574  0.66725146  1
  Al0+  Al57  1  0.49835426  0.49906054  0.00001846  1
  Al0+  Al58  1  0.49753602  0.50254826  0.33648769  1
  Al0+  Al59  1  0.49863624  0.50094542  0.66290105  1
  Al0+  Al60  1  0.25100495  0.24851455  0.00425694  1
  Al0+  Al61  1  0.25102300  0.24929566  0.32952270  1
  Al0+  Al62  1  0.25193183  0.24993213  0.66113926  1
  Al0+  Al63  1  0.24842504  0.75036593  -0.00077476  1
  Al0+  Al64  1  0.25044842  0.75120883  0.33017003  1
  Al0+  Al65  1  0.24954413  0.75137313  0.65928408  1
  Al0+  Al66  1  0.75165387  0.24576548  -0.00683482  1
  Al0+  Al67  1  0.75032586  0.24980625  0.34524791  1
  Al0+  Al68  1  0.75116153  0.24960582  0.67331723  1
  Al0+  Al69  1  0.74732694  0.74876979  -0.00262831  1
  Al0+  Al70  1  0.74922635  0.74868774  0.33446949  1
  Al0+  Al71  1  0.75032451  0.75044213  0.66257394  1
  Al0+  Al72  1  0.68060714  0.92967317  0.68187541  1
  Al0+  Al73  1  0.42907551  0.82489545  0.65152954  1
  Al0+  Al74  1  0.07128885  0.67721400  0.98709892  1
  Al0+  Al75  1  0.17616395  0.42830103  0.01631639  1
  Al0+  Al76  1  0.32129028  0.06897457  0.01405063  1
  Al0+  Al77  1  0.92994104  0.82072684  0.65059793  1
  Al0+  Al78  1  0.57080056  0.67890459  0.64968424  1
  Al0+  Al79  1  0.07197076  0.18107077  0.98498418  1
  Al0+  Al80  1  0.92727115  0.82233367  0.98673889  1
  Al0+  Al81  1  0.67883725  0.43096292  0.34577276  1
  Al0+  Al82  1  0.42963004  0.32067743  0.98659956  1
  Al0+  Al83  1  0.57337738  0.17700020  0.98582606  1
  Al0+  Al84  1  0.92701362  0.32223177  0.98630866  1
  Al0+  Al85  1  0.07099968  0.18193807  0.65219105  1
  Al0+  Al86  1  0.42732914  0.82161897  0.98594132  1
  Al0+  Al87  1  0.43094673  0.31978003  0.65257388  1
  Al0+  Al88  1  0.32155835  0.57285603  0.01510375  1
  Al0+  Al89  1  0.82289674  0.06861489  0.34747084  1
  Al0+  Al90  1  0.17938608  0.42785783  0.67876031  1
  Al0+  Al91  1  0.43019526  0.82231165  0.31728247  1
  Al0+  Al92  1  0.07146759  0.67542752  0.65146060  1
  Al0+  Al93  1  0.56968527  0.67742793  0.98617508  1
  Al0+  Al94  1  0.67688120  0.43003253  0.68398114  1
  Al0+  Al95  1  0.07125153  0.17839022  0.31753978  1
  Si0+  Si96  1  0.82607505  0.07114977  0.68724879  1
  Si0+  Si97  1  0.31839455  0.57277827  0.34985769  1
  Si0+  Si98  1  0.82166444  0.57151022  0.68499136  1
  Si0+  Si99  1  0.31964230  0.57400392  0.68126303  1
  Si0+  Si100  1  0.57189943  0.18146148  0.32133382  1
  Si0+  Si101  1  0.17915559  0.92886457  0.68029776  1
  Si0+  Si102  1  0.17488002  0.92890934  0.01559340  1
  Si0+  Si103  1  0.42928214  0.32309005  0.31796896  1
  Si0+  Si104  1  0.92891965  0.82002681  0.31976418  1
  Si0+  Si105  1  0.18081279  0.92854673  0.34855837  1
  Si0+  Si106  1  0.92700096  0.32117851  0.31982633  1
  Si0+  Si107  1  0.17970524  0.42799680  0.34833764  1
  Si0+  Si108  1  0.57445669  0.17863308  0.64912248  1
  Si0+  Si109  1  0.32194134  0.07216108  0.34971646  1
  Si0+  Si110  1  0.67689978  0.92811513  0.34908066  1
  Si0+  Si111  1  0.81865404  0.57179060  0.01463426  1
  Si0+  Si112  1  0.82127286  0.07018876  0.01487973  1
  Si0+  Si113  1  0.32146253  0.07047322  0.67995709  1
  Si0+  Si114  1  0.67973578  0.92751907  0.01631634  1
  Si0+  Si115  1  0.57152843  0.67696655  0.31593858  1
  Si0+  Si116  1  0.67951831  0.42652585  0.01287928  1
  Si0+  Si117  1  0.07070352  0.67747572  0.31861089  1
  Si0+  Si118  1  0.82450001  0.57382896  0.35080796  1
  Si0+  Si119  1  0.92452191  0.32156736  0.64784663  1
  O2-  O120  1  0.24635389  -0.00585144  0.06180695  1
  O2-  O121  1  0.25126296  0.00060165  0.39145391  1
  O2-  O122  1  0.25476922  -0.00480181  0.72105510  1
  O2-  O123  1  0.24741098  0.50219833  0.06627920  1
  O2-  O124  1  0.24871993  0.50025042  0.39182867  1
  O2-  O125  1  0.24751125  0.50859120  0.72409595  1
  O2-  O126  1  0.75112708  -0.00149791  0.05846936  1
  O2-  O127  1  0.74960291  -0.00783653  0.39381026  1
  O2-  O128  1  0.75680390  0.00251802  0.73043739  1
  O2-  O129  1  0.74964100  0.49796000  0.05642299  1
  O2-  O130  1  0.75376099  0.50598689  0.39272839  1
  O2-  O131  1  0.75124570  0.50495820  0.73019599  1
  O2-  O132  1  -0.00406351  0.25388410  0.27428847  1
  O2-  O133  1  -0.00514054  0.25438756  0.60380129  1
  O2-  O134  1  0.00681702  0.25953639  0.93593608  1
  O2-  O135  1  -0.00480334  0.74467071  0.27774415  1
  O2-  O136  1  0.00077170  0.74802526  0.59942497  1
  O2-  O137  1  0.00126792  0.75180241  0.93920811  1
  O2-  O138  1  0.50355374  0.25440533  0.27826649  1
  O2-  O139  1  0.51038879  0.25086277  0.60324886  1
  O2-  O140  1  0.50238865  0.24972282  0.93676193  1
  O2-  O141  1  0.50753819  0.74982814  0.27247166  1
  O2-  O142  1  0.50058428  0.75309635  0.60018922  1
  O2-  O143  1  0.49455233  0.74571913  0.93693952  1
  O2-  O144  1  0.06735302  0.17862269  0.09893951  1
  O2-  O145  1  0.07272143  0.17961461  0.43074965  1
  O2-  O146  1  0.07303709  0.18202330  0.76438205  1
  O2-  O147  1  0.06694327  0.67960133  0.10194429  1
  O2-  O148  1  0.07169094  0.67808574  0.42339088  1
  O2-  O149  1  0.07117122  0.67729757  0.76422091  1
  O2-  O150  1  0.57563558  0.18031065  0.10073136  1
  O2-  O151  1  0.56919334  0.17940583  0.42619867  1
  O2-  O152  1  0.57060887  0.17649361  0.75406054  1
  O2-  O153  1  0.57286687  0.68042920  0.10049346  1
  O2-  O154  1  0.56969742  0.67468701  0.42099037  1
  O2-  O155  1  0.56729089  0.67823643  0.76275644  1
  O2-  O156  1  0.17917692  0.42861901  0.24388202  1
  O2-  O157  1  0.18395343  0.42717786  0.56447192  1
  O2-  O158  1  0.17988141  0.42845590  0.90281509  1
  O2-  O159  1  0.17964429  0.92739344  0.24383995  1
  O2-  O160  1  0.17804046  0.93137132  0.57451547  1
  O2-  O161  1  0.17341093  0.93187888  0.91012735  1
  O2-  O162  1  0.68025537  0.42967447  0.23232787  1
  O2-  O163  1  0.67894385  0.43180031  0.57022418  1
  O2-  O164  1  0.68019458  0.42754396  0.90823476  1
  O2-  O165  1  0.67747699  0.92973666  0.24340281  1
  O2-  O166  1  0.68072592  0.93489150  0.56798515  1
  O2-  O167  1  0.68024040  0.92734896  0.91158584  1
  O2-  O168  1  0.43419266  0.31997200  0.10120002  1
  O2-  O169  1  0.42793671  0.32175321  0.42319820  1
  O2-  O170  1  0.42833026  0.31675005  0.76460695  1
  O2-  O171  1  0.43278450  0.82246624  0.10010991  1
  O2-  O172  1  0.43055188  0.82220179  0.43003275  1
  O2-  O173  1  0.42922477  0.82549158  0.76411261  1
  O2-  O174  1  0.92250259  0.31637410  0.10062870  1
  O2-  O175  1  0.92875951  0.32133865  0.42518484  1
  O2-  O176  1  0.92263642  0.32009081  0.75289932  1
  O2-  O177  1  0.92737945  0.82114431  0.10166958  1
  O2-  O178  1  0.93095859  0.82115138  0.42431589  1
  O2-  O179  1  0.93260969  0.82001820  0.76359041  1
  O2-  O180  1  0.32328249  0.07266841  0.24515886  1
  O2-  O181  1  0.32000558  0.07137197  0.57398027  1
  O2-  O182  1  0.32070286  0.06866480  0.90078807  1
  O2-  O183  1  0.31845887  0.57305566  0.24523085  1
  O2-  O184  1  0.31894333  0.57160365  0.57459854  1
  O2-  O185  1  0.32248106  0.57146637  0.90183935  1
  O2-  O186  1  0.82081453  0.06839012  0.23417987  1
  O2-  O187  1  0.82507102  0.06979830  0.58079966  1
  O2-  O188  1  0.82140974  0.07016393  0.91042358  1
  O2-  O189  1  0.82661853  0.57514868  0.24536491  1
  O2-  O190  1  0.82153355  0.56818284  0.57869893  1
  O2-  O191  1  0.81751408  0.57467252  0.91017393  1
  O2-  O192  1  0.04171000  0.08072158  0.26549970  1
  O2-  O193  1  0.04150456  0.08570425  0.59604388  1
  O2-  O194  1  0.03870917  0.08544268  0.93073752  1
  O2-  O195  1  0.04699503  0.58375046  0.27304944  1
  O2-  O196  1  0.04097472  0.57726580  0.59753271  1
  O2-  O197  1  0.04038208  0.58026757  0.93554888  1
  O2-  O198  1  0.54332595  0.09084994  0.27216831  1
  O2-  O199  1  0.54431326  0.08783380  0.59989634  1
  O2-  O200  1  0.54290104  0.07974347  0.93445166  1
  O2-  O201  1  0.54041396  0.58504841  0.26910739  1
  O2-  O202  1  0.53908007  0.58232585  0.59447996  1
  O2-  O203  1  0.54636132  0.57801013  0.93561878  1
  O2-  O204  1  0.16855568  0.20864883  0.26485794  1
  O2-  O205  1  0.16611598  0.21340936  0.59489524  1
  O2-  O206  1  0.17245869  0.20283222  0.93570969  1
  O2-  O207  1  0.16057651  0.70975497  0.27089210  1
  O2-  O208  1  0.16823072  0.70505636  0.59496545  1
  O2-  O209  1  0.16946003  0.70200215  0.93456481  1
  O2-  O210  1  0.66559033  0.20769627  0.27704188  1
  O2-  O211  1  0.67087175  0.19942279  0.60709354  1
  O2-  O212  1  0.67083096  0.19932898  0.93090485  1
  O2-  O213  1  0.66831392  0.69606614  0.27283157  1
  O2-  O214  1  0.66977392  0.70402255  0.59685234  1
  O2-  O215  1  0.66590702  0.70805656  0.93195288  1
  O2-  O216  1  0.07569305  0.45389259  0.06868697  1
  O2-  O217  1  0.08667113  0.45277679  0.39559847  1
  O2-  O218  1  0.07874281  0.44747411  0.72828608  1
  O2-  O219  1  0.08194087  0.95856375  0.06276060  1
  O2-  O220  1  0.08952539  0.95612447  0.39722174  1
  O2-  O221  1  0.08932098  0.96163782  0.72764750  1
  O2-  O222  1  0.58807425  0.45282729  0.06178580  1
  O2-  O223  1  0.58176903  0.46232210  0.40001911  1
  O2-  O224  1  0.57871264  0.46058448  0.73413027  1
  O2-  O225  1  0.58930222  0.95705350  0.06542124  1
  O2-  O226  1  0.58496366  0.95986838  0.39534204  1
  O2-  O227  1  0.58485576  0.96389782  0.73585607  1
  O2-  O228  1  0.20744062  0.33097872  0.07083574  1
  O2-  O229  1  0.21073899  0.33607143  0.39440522  1
  O2-  O230  1  0.21753728  0.33287021  0.73052488  1
  O2-  O231  1  0.19492515  0.83395243  0.06130628  1
  O2-  O232  1  0.20942126  0.83693109  0.39667421  1
  O2-  O233  1  0.20144937  0.83466947  0.72472599  1
  O2-  O234  1  0.70962897  0.33397949  0.05863905  1
  O2-  O235  1  0.70706237  0.33600602  0.40500649  1
  O2-  O236  1  0.70612435  0.33219007  0.73619998  1
  O2-  O237  1  0.70760790  0.83600482  0.06519305  1
  O2-  O238  1  0.69673881  0.83199113  0.39262737  1
  O2-  O239  1  0.70898234  0.83125381  0.73266150  1
  O2-  O240  1  0.45334096  0.41681459  0.27345116  1
  O2-  O241  1  0.45783562  0.41649282  0.59657235  1
  O2-  O242  1  0.45631856  0.41803015  0.93330984  1
  O2-  O243  1  0.45861085  0.92081542  0.26528334  1
  O2-  O244  1  0.46045987  0.92321500  0.59799950  1
  O2-  O245  1  0.46033017  0.91809994  0.93439955  1
  O2-  O246  1  0.95012299  0.41616496  0.27446111  1
  O2-  O247  1  0.94647089  0.41554346  0.60169312  1
  O2-  O248  1  0.94073196  0.42398743  0.93734858  1
  O2-  O249  1  0.96124138  0.90977316  0.27135644  1
  O2-  O250  1  0.96133529  0.91821824  0.59692427  1
  O2-  O251  1  0.95158709  0.91998639  0.93286325  1
  O2-  O252  1  0.33943853  0.29169098  0.26996435  1
  O2-  O253  1  0.33850859  0.28307296  0.59351794  1
  O2-  O254  1  0.33191858  0.29026602  0.93631011  1
  O2-  O255  1  0.33328461  0.79061803  0.26478825  1
  O2-  O256  1  0.33080735  0.79878806  0.59629745  1
  O2-  O257  1  0.32615274  0.80338927  0.93715885  1
  O2-  O258  1  0.83218306  0.29476230  0.27695206  1
  O2-  O259  1  0.83095403  0.29341509  0.60205049  1
  O2-  O260  1  0.83432447  0.28548336  0.92840453  1
  O2-  O261  1  0.83439273  0.79798107  0.27425607  1
  O2-  O262  1  0.83219210  0.79401604  0.59559216  1
  O2-  O263  1  0.83049941  0.79093202  0.93489919  1
  O2-  O264  1  0.41800574  0.03849135  0.07086945  1
  O2-  O265  1  0.41413990  0.04515764  0.39775065  1
  O2-  O266  1  0.41460054  0.04844254  0.72631969  1
  O2-  O267  1  0.41901429  0.54075329  0.07128913  1
  O2-  O268  1  0.41017759  0.54592265  0.39801089  1
  O2-  O269  1  0.41243471  0.54518160  0.72511253  1
  O2-  O270  1  0.91294871  0.04218962  0.06348623  1
  O2-  O271  1  0.91965136  0.03693661  0.40132030  1
  O2-  O272  1  0.92052428  0.04509237  0.73028349  1
  O2-  O273  1  0.90963339  0.54715892  0.06559350  1
  O2-  O274  1  0.91748726  0.54735567  0.39867146  1
  O2-  O275  1  0.91442894  0.54340809  0.73097305  1
  O2-  O276  1  0.29221137  0.16441890  0.07178940  1
  O2-  O277  1  0.29329546  0.16439022  0.39688245  1
  O2-  O278  1  0.28823716  0.16054010  0.72602603  1
  O2-  O279  1  0.29370274  0.67198590  0.06948245  1
  O2-  O280  1  0.28879405  0.66444532  0.39674827  1
  O2-  O281  1  0.29843807  0.66986233  0.72377531  1
  O2-  O282  1  0.79164893  0.16122730  0.06402942  1
  O2-  O283  1  0.79215717  0.16314317  0.40562781  1
  O2-  O284  1  0.80194916  0.16516894  0.73189536  1
  O2-  O285  1  0.78744230  0.66198402  0.06537649  1
  O2-  O286  1  0.80019052  0.66782471  0.39771883  1
  O2-  O287  1  0.79957192  0.66700001  0.72698617  1
