# generated using pymatgen
data_Ca2Al2SiO7
_symmetry_space_group_name_H-M   'P 1'
_cell_length_a   15.45668835
_cell_length_b   15.45674579
_cell_length_c   15.28216239
_cell_angle_alpha   89.99959565
_cell_angle_beta   89.99262957
_cell_angle_gamma   89.99851995
_symmetry_Int_Tables_number   1
_chemical_formula_structural   Ca2Al2SiO7
_chemical_formula_sum   'Ca48 Al48 Si24 O168'
_cell_volume   3651.06295349
_cell_formula_units_Z   24
loop_
 _symmetry_equiv_pos_site_id
 _symmetry_equiv_pos_as_xyz
  1  'x, y, z'
loop_
 _atom_type_symbol
 _atom_type_oxidation_number
  Ca2+  2.0
  Al0+  0.0
  Si0+  0.0
  O2-  -2.0
loop_
 _atom_site_type_symbol
 _atom_site_label
 _atom_site_symmetry_multiplicity
 _atom_site_fract_x
 _atom_site_fract_y
 _atom_site_fract_z
 _atom_site_occupancy
  Ca2+  Ca0  1  0.16958357  0.07379842  0.17218844  1
  Ca2+  Ca1  1  0.17207981  0.07729709  0.50450029  1
  Ca2+  Ca2  1  0.17402483  0.08398885  0.83395857  1
  Ca2+  Ca3  1  0.16912523  0.57683609  0.17064944  1
  Ca2+  Ca4  1  0.16617496  0.58180014  0.50326005  1
  Ca2+  Ca5  1  0.17922352  0.57899265  0.83949672  1
  Ca2+  Ca6  1  0.66859967  0.07947116  0.16863034  1
  Ca2+  Ca7  1  0.66783044  0.07245652  0.51097006  1
  Ca2+  Ca8  1  0.67176451  0.08435406  0.83452507  1
  Ca2+  Ca9  1  0.67122501  0.58688094  0.16980228  1
  Ca2+  Ca10  1  0.67787040  0.58481672  0.50859812  1
  Ca2+  Ca11  1  0.66788365  0.59400474  0.83345282  1
  Ca2+  Ca12  1  0.08124113  0.34210872  0.16669744  1
  Ca2+  Ca13  1  0.07335587  0.33788464  0.49475057  1
  Ca2+  Ca14  1  0.07991385  0.33531349  0.82947733  1
  Ca2+  Ca15  1  0.08271119  0.82747098  0.16262800  1
  Ca2+  Ca16  1  0.07799093  0.82865867  0.49414005  1
  Ca2+  Ca17  1  0.06956402  0.83708854  0.82883297  1
  Ca2+  Ca18  1  0.57592626  0.32757329  0.15495212  1
  Ca2+  Ca19  1  0.58477317  0.32543003  0.50041298  1
  Ca2+  Ca20  1  0.58192834  0.32308701  0.83163278  1
  Ca2+  Ca21  1  0.58050728  0.82926903  0.15887580  1
  Ca2+  Ca22  1  0.58448298  0.83526404  0.50280595  1
  Ca2+  Ca23  1  0.57623387  0.82469967  0.82578952  1
  Ca2+  Ca24  1  0.32699897  0.41801921  0.16687214  1
  Ca2+  Ca25  1  0.32496611  0.42271120  0.50787685  1
  Ca2+  Ca26  1  0.33535159  0.42646967  0.84331973  1
  Ca2+  Ca27  1  0.33107093  0.91358409  0.17069536  1
  Ca2+  Ca28  1  0.32681531  0.91450358  0.50809993  1
  Ca2+  Ca29  1  0.34372808  0.91702520  0.83279508  1
  Ca2+  Ca30  1  0.83314221  0.42325162  0.17529054  1
  Ca2+  Ca31  1  0.84305804  0.42602199  0.50427956  1
  Ca2+  Ca32  1  0.83480880  0.42161109  0.83209325  1
  Ca2+  Ca33  1  0.82996187  0.91967863  0.16938373  1
  Ca2+  Ca34  1  0.82160367  0.91731379  0.51196608  1
  Ca2+  Ca35  1  0.83160367  0.92162235  0.83736237  1
  Ca2+  Ca36  1  0.42374089  0.17288967  0.15538194  1
  Ca2+  Ca37  1  0.42217628  0.15536126  0.50305095  1
  Ca2+  Ca38  1  0.42625448  0.16674599  0.82610267  1
  Ca2+  Ca39  1  0.42237652  0.67241103  0.15297201  1
  Ca2+  Ca40  1  0.41889316  0.66649528  0.50319125  1
  Ca2+  Ca41  1  0.42091551  0.66947505  0.82529733  1
  Ca2+  Ca42  1  0.91522889  0.17119753  0.16146999  1
  Ca2+  Ca43  1  0.90634327  0.17889211  0.50011734  1
  Ca2+  Ca44  1  0.91266380  0.16874574  0.82445845  1
  Ca2+  Ca45  1  0.92141732  0.66931111  0.16529761  1
  Ca2+  Ca46  1  0.91588946  0.66773680  0.49582987  1
  Ca2+  Ca47  1  0.91280932  0.67926127  0.82585894  1
  Al0+  Al48  1  -0.00046309  0.00259808  0.00188415  1
  Al0+  Al49  1  0.00027680  0.00223263  0.33845117  1
  Al0+  Al50  1  -0.00022525  0.00051238  0.66317736  1
  Al0+  Al51  1  0.00065320  0.50069379  0.00238049  1
  Al0+  Al52  1  0.00113150  0.50123970  0.33159314  1
  Al0+  Al53  1  -0.00141796  0.49954994  0.66956330  1
  Al0+  Al54  1  0.50236097  -0.00115179  -0.00446816  1
  Al0+  Al55  1  0.50163375  -0.00038148  0.33410370  1
  Al0+  Al56  1  0.49830932  -0.00144450  0.66658502  1
  Al0+  Al57  1  0.50216031  0.49957790  -0.00153901  1
  Al0+  Al58  1  0.50069760  0.49955481  0.33262285  1
  Al0+  Al59  1  0.49967446  0.49875511  0.66483481  1
  Al0+  Al60  1  0.24821673  0.24996631  0.00166016  1
  Al0+  Al61  1  0.24974062  0.25072063  0.33774627  1
  Al0+  Al62  1  0.24846155  0.24770377  0.66982025  1
  Al0+  Al63  1  0.24952144  0.74950051  -0.00011317  1
  Al0+  Al64  1  0.24988952  0.75022927  0.33285779  1
  Al0+  Al65  1  0.24868214  0.74778963  0.66829865  1
  Al0+  Al66  1  0.75178678  0.25102945  0.00204058  1
  Al0+  Al67  1  0.74890897  0.25116675  0.32648340  1
  Al0+  Al68  1  0.74927848  0.25054721  0.66008175  1
  Al0+  Al69  1  0.75085475  0.75228941  -0.00456943  1
  Al0+  Al70  1  0.74957804  0.75089753  0.33971764  1
  Al0+  Al71  1  0.74920598  0.74953690  0.66723764  1
  Al0+  Al72  1  0.57236068  0.67830249  0.98599641  1
  Al0+  Al73  1  0.56970565  0.17931639  0.65159441  1
  Al0+  Al74  1  0.07124131  0.68070535  0.31914050  1
  Al0+  Al75  1  0.32132067  0.56983452  0.68018357  1
  Al0+  Al76  1  0.32372367  0.57209799  0.01636291  1
  Al0+  Al77  1  0.82065106  0.57008875  0.68185441  1
  Al0+  Al78  1  0.92838583  0.82257368  0.65172232  1
  Al0+  Al79  1  0.57105588  0.67691937  0.64832387  1
  Al0+  Al80  1  0.82042307  0.07233331  0.68020345  1
  Al0+  Al81  1  0.18016206  0.43003851  0.34908392  1
  Al0+  Al82  1  0.67973104  0.93052112  0.34707123  1
  Al0+  Al83  1  0.42601288  0.82082964  0.98546917  1
  Al0+  Al84  1  0.93035952  0.32056448  0.65377712  1
  Al0+  Al85  1  0.57326852  0.17887158  0.98469597  1
  Al0+  Al86  1  0.42668688  0.32021819  0.98516964  1
  Al0+  Al87  1  0.42752941  0.81992119  0.64910586  1
  Al0+  Al88  1  0.82172722  0.07252788  0.01526129  1
  Al0+  Al89  1  0.17863266  0.92722137  0.34642640  1
  Al0+  Al90  1  0.93065906  0.32038077  0.31747258  1
  Al0+  Al91  1  0.67792520  0.92789102  0.68531825  1
  Al0+  Al92  1  0.81975771  0.56911595  0.34576863  1
  Al0+  Al93  1  0.31971473  0.06931143  0.68107714  1
  Al0+  Al94  1  0.93164635  0.82231833  0.98848747  1
  Al0+  Al95  1  0.17830140  0.42821379  0.01647334  1
  Si0+  Si96  1  0.93001159  0.32262019  0.98558440  1
  Si0+  Si97  1  0.07423982  0.17736657  0.64849164  1
  Si0+  Si98  1  0.57248799  0.67860095  0.31924649  1
  Si0+  Si99  1  0.32207458  0.07128582  0.34838393  1
  Si0+  Si100  1  0.32430010  0.57247373  0.35029142  1
  Si0+  Si101  1  0.68128695  0.42821852  0.01472592  1
  Si0+  Si102  1  0.17736494  0.42788982  0.68353390  1
  Si0+  Si103  1  0.67944216  0.92817138  0.01693275  1
  Si0+  Si104  1  0.42763579  0.32217916  0.31909969  1
  Si0+  Si105  1  0.82166076  0.07516463  0.34972672  1
  Si0+  Si106  1  0.06987716  0.67825513  0.65168007  1
  Si0+  Si107  1  0.17739077  0.93034425  0.01355968  1
  Si0+  Si108  1  0.67601174  0.42646919  0.34923030  1
  Si0+  Si109  1  0.92630661  0.82360101  0.31816001  1
  Si0+  Si110  1  0.17683933  0.92640945  0.68418336  1
  Si0+  Si111  1  0.67744415  0.42683600  0.68262385  1
  Si0+  Si112  1  0.56894383  0.17817879  0.31699763  1
  Si0+  Si113  1  0.42548081  0.32119016  0.64914348  1
  Si0+  Si114  1  0.07127006  0.67648648  0.98252797  1
  Si0+  Si115  1  0.07025958  0.17824076  0.98583544  1
  Si0+  Si116  1  0.43000604  0.82076911  0.31901893  1
  Si0+  Si117  1  0.32271539  0.06983686  0.01407961  1
  Si0+  Si118  1  0.07436896  0.17719793  0.31608261  1
  Si0+  Si119  1  0.82076263  0.57338364  0.01490282  1
  O2-  O120  1  0.25479035  -0.00463275  0.05604995  1
  O2-  O121  1  0.25268762  0.00303257  0.39172075  1
  O2-  O122  1  0.24668648  -0.00640085  0.72916480  1
  O2-  O123  1  0.25154138  0.49956256  0.06612649  1
  O2-  O124  1  0.25574367  0.50379949  0.39489970  1
  O2-  O125  1  0.24985424  0.49204696  0.72689746  1
  O2-  O126  1  0.74633190  -0.00133523  0.06196884  1
  O2-  O127  1  0.75659715  0.00333773  0.39283131  1
  O2-  O128  1  0.75172775  -0.00039375  0.73344131  1
  O2-  O129  1  0.74920587  0.50269898  0.05690454  1
  O2-  O130  1  0.74538876  0.49395402  0.39286554  1
  O2-  O131  1  0.74265183  0.49834529  0.72814995  1
  O2-  O132  1  0.00426772  0.24398487  0.27049590  1
  O2-  O133  1  0.00372996  0.24488976  0.60586674  1
  O2-  O134  1  0.00182371  0.25219053  0.94468138  1
  O2-  O135  1  -0.00197223  0.75826984  0.27313301  1
  O2-  O136  1  0.00251510  0.74709156  0.60564891  1
  O2-  O137  1  0.00449424  0.74707299  0.93935658  1
  O2-  O138  1  0.49880685  0.25102039  0.27654304  1
  O2-  O139  1  0.49278264  0.25192383  0.60308754  1
  O2-  O140  1  0.49727521  0.24702469  0.93536497  1
  O2-  O141  1  0.49979125  0.74820151  0.27735237  1
  O2-  O142  1  0.49986220  0.74938045  0.59710330  1
  O2-  O143  1  0.49453450  0.74469911  0.93776904  1
  O2-  O144  1  0.06914803  0.17441680  0.09086559  1
  O2-  O145  1  0.07648962  0.17802173  0.42122876  1
  O2-  O146  1  0.07667519  0.17870195  0.75444848  1
  O2-  O147  1  0.06951334  0.67659809  0.08850997  1
  O2-  O148  1  0.07081640  0.68124274  0.43216065  1
  O2-  O149  1  0.06831070  0.67907280  0.75729677  1
  O2-  O150  1  0.57090505  0.18079986  0.09939025  1
  O2-  O151  1  0.56839411  0.17718126  0.42182079  1
  O2-  O152  1  0.57067736  0.18265962  0.76416581  1
  O2-  O153  1  0.57541751  0.68260683  0.10081347  1
  O2-  O154  1  0.57212408  0.67693349  0.42355511  1
  O2-  O155  1  0.56846293  0.67687150  0.76154628  1
  O2-  O156  1  0.18268849  0.43041057  0.23640291  1
  O2-  O157  1  0.17654983  0.42977518  0.57763079  1
  O2-  O158  1  0.17471818  0.43027854  0.90306382  1
  O2-  O159  1  0.18144233  0.92827333  0.23260888  1
  O2-  O160  1  0.17761898  0.92762714  0.57829423  1
  O2-  O161  1  0.17242076  0.93550361  0.90908201  1
  O2-  O162  1  0.67469386  0.42723305  0.24332446  1
  O2-  O163  1  0.67921423  0.42659759  0.57664465  1
  O2-  O164  1  0.68558471  0.42297891  0.91026508  1
  O2-  O165  1  0.67779183  0.93199733  0.23361744  1
  O2-  O166  1  0.67932306  0.93100407  0.57097314  1
  O2-  O167  1  0.68115064  0.92672031  0.91235003  1
  O2-  O168  1  0.42842441  0.31703168  0.09992681  1
  O2-  O169  1  0.42884879  0.32342617  0.42392184  1
  O2-  O170  1  0.42610324  0.31982435  0.75438640  1
  O2-  O171  1  0.42862444  0.82269465  0.10033721  1
  O2-  O172  1  0.42926543  0.82223244  0.42339470  1
  O2-  O173  1  0.42736710  0.81733081  0.76222844  1
  O2-  O174  1  0.93003215  0.32282380  0.09080721  1
  O2-  O175  1  0.93107324  0.31973422  0.43030406  1
  O2-  O176  1  0.93303105  0.32131070  0.76736058  1
  O2-  O177  1  0.93311727  0.82077811  0.10211699  1
  O2-  O178  1  0.92641553  0.82050341  0.42339441  1
  O2-  O179  1  0.93164681  0.82319745  0.76520256  1
  O2-  O180  1  0.32289326  0.07070465  0.24232419  1
  O2-  O181  1  0.31603142  0.06954630  0.56753314  1
  O2-  O182  1  0.31999666  0.07164031  0.90945862  1
  O2-  O183  1  0.32644819  0.57144797  0.24502425  1
  O2-  O184  1  0.31800376  0.56813894  0.56649614  1
  O2-  O185  1  0.32077282  0.57080690  0.90292844  1
  O2-  O186  1  0.82001216  0.07533172  0.24373344  1
  O2-  O187  1  0.81707288  0.07317714  0.56628804  1
  O2-  O188  1  0.82388494  0.07320567  0.90302201  1
  O2-  O189  1  0.81665171  0.56955087  0.23187050  1
  O2-  O190  1  0.82384363  0.56694349  0.56866007  1
  O2-  O191  1  0.82238887  0.57168058  0.91015503  1
  O2-  O192  1  0.04993260  0.08222110  0.27061715  1
  O2-  O193  1  0.05182888  0.08350458  0.60216365  1
  O2-  O194  1  0.04036272  0.08888900  0.93562703  1
  O2-  O195  1  0.03786852  0.58607444  0.26329281  1
  O2-  O196  1  0.04302305  0.58472771  0.60618821  1
  O2-  O197  1  0.04341406  0.58381535  0.93638077  1
  O2-  O198  1  0.53914659  0.08734428  0.26811397  1
  O2-  O199  1  0.53675774  0.08347664  0.59754082  1
  O2-  O200  1  0.54970163  0.07975025  0.93362286  1
  O2-  O201  1  0.54771803  0.58534358  0.27165871  1
  O2-  O202  1  0.54331134  0.57738020  0.59546820  1
  O2-  O203  1  0.55485984  0.57708960  0.93583327  1
  O2-  O204  1  0.16855770  0.20305927  0.27018813  1
  O2-  O205  1  0.16695114  0.20434448  0.60070638  1
  O2-  O206  1  0.16242961  0.20388115  0.93814134  1
  O2-  O207  1  0.16822888  0.71061612  0.26391263  1
  O2-  O208  1  0.16333392  0.70223861  0.60490226  1
  O2-  O209  1  0.16544164  0.70050968  0.93825360  1
  O2-  O210  1  0.66053856  0.20478036  0.26843508  1
  O2-  O211  1  0.66355075  0.21275316  0.59367586  1
  O2-  O212  1  0.67067017  0.21302924  0.93379335  1
  O2-  O213  1  0.66389220  0.70892382  0.27212972  1
  O2-  O214  1  0.67036219  0.70474220  0.59750238  1
  O2-  O215  1  0.66865538  0.71063434  0.93165327  1
  O2-  O216  1  0.08001626  0.45950946  0.07047546  1
  O2-  O217  1  0.08400822  0.46292723  0.40149741  1
  O2-  O218  1  0.08602154  0.45721260  0.73143074  1
  O2-  O219  1  0.09003504  0.96514650  0.06546385  1
  O2-  O220  1  0.08221073  0.95660680  0.40174950  1
  O2-  O221  1  0.08416716  0.95623253  0.72954539  1
  O2-  O222  1  0.58867106  0.45191033  0.06279684  1
  O2-  O223  1  0.58250412  0.45094241  0.39614558  1
  O2-  O224  1  0.58214208  0.44673794  0.72680044  1
  O2-  O225  1  0.58496557  0.95290753  0.06314417  1
  O2-  O226  1  0.58388534  0.96354754  0.40139425  1
  O2-  O227  1  0.57898622  0.95665050  0.73474142  1
  O2-  O228  1  0.20275879  0.32815653  0.06995132  1
  O2-  O229  1  0.20844283  0.33277431  0.40381021  1
  O2-  O230  1  0.19752424  0.33236436  0.72746288  1
  O2-  O231  1  0.19889370  0.83631974  0.05958573  1
  O2-  O232  1  0.21058816  0.83200629  0.40164446  1
  O2-  O233  1  0.19839735  0.83223597  0.72975904  1
  O2-  O234  1  0.71272326  0.33950299  0.06702856  1
  O2-  O235  1  0.70069478  0.33152819  0.39273860  1
  O2-  O236  1  0.70832786  0.33512234  0.72869033  1
  O2-  O237  1  0.70908212  0.83569308  0.06462729  1
  O2-  O238  1  0.70720620  0.83440036  0.40248593  1
  O2-  O239  1  0.70529104  0.82900424  0.73567815  1
  O2-  O240  1  0.45566764  0.41365719  0.27021423  1
  O2-  O241  1  0.45169195  0.41359528  0.60127131  1
  O2-  O242  1  0.45757875  0.41770026  0.93383712  1
  O2-  O243  1  0.45889779  0.91265864  0.27107749  1
  O2-  O244  1  0.45254431  0.91952497  0.59706750  1
  O2-  O245  1  0.45607422  0.91832999  0.93284482  1
  O2-  O246  1  0.96316220  0.41617928  0.26318060  1
  O2-  O247  1  0.96441696  0.41645267  0.59950225  1
  O2-  O248  1  0.95713293  0.41482107  0.93838976  1
  O2-  O249  1  0.94843163  0.92014598  0.27607244  1
  O2-  O250  1  0.95889689  0.91852244  0.59601192  1
  O2-  O251  1  0.96457498  0.91837211  0.93493857  1
  O2-  O252  1  0.33568059  0.29339364  0.27259781  1
  O2-  O253  1  0.33063551  0.29571151  0.60485716  1
  O2-  O254  1  0.32678230  0.29482769  0.93455800  1
  O2-  O255  1  0.33796649  0.79480785  0.27114707  1
  O2-  O256  1  0.32752360  0.79006732  0.59817777  1
  O2-  O257  1  0.32504634  0.80065891  0.93435948  1
  O2-  O258  1  0.83267261  0.29295913  0.26233189  1
  O2-  O259  1  0.83455940  0.29300206  0.59657518  1
  O2-  O260  1  0.83889342  0.29425930  0.93884296  1
  O2-  O261  1  0.83350484  0.79428446  0.27183851  1
  O2-  O262  1  0.83225308  0.79083184  0.59930166  1
  O2-  O263  1  0.83625368  0.79259878  0.93352224  1
  O2-  O264  1  0.41573975  0.04498729  0.06123992  1
  O2-  O265  1  0.41502265  0.04399291  0.39423229  1
  O2-  O266  1  0.41601145  0.04121803  0.73503843  1
  O2-  O267  1  0.42353553  0.54471451  0.06816845  1
  O2-  O268  1  0.41797191  0.54559992  0.39636438  1
  O2-  O269  1  0.41859250  0.53995591  0.73245578  1
  O2-  O270  1  0.91773017  0.04087611  0.07138287  1
  O2-  O271  1  0.91739336  0.05795186  0.39404208  1
  O2-  O272  1  0.92209463  0.04898474  0.72921873  1
  O2-  O273  1  0.91202876  0.54402650  0.06288123  1
  O2-  O274  1  0.91598981  0.53773166  0.39860744  1
  O2-  O275  1  0.91530757  0.53572637  0.73812531  1
  O2-  O276  1  0.29110009  0.15978735  0.06344840  1
  O2-  O277  1  0.29814027  0.16434219  0.39588003  1
  O2-  O278  1  0.28757990  0.16524760  0.73686094  1
  O2-  O279  1  0.29413335  0.67128489  0.06907111  1
  O2-  O280  1  0.29796219  0.66600814  0.39500226  1
  O2-  O281  1  0.28786935  0.66491262  0.73499706  1
  O2-  O282  1  0.79190704  0.16940827  0.07062878  1
  O2-  O283  1  0.79138215  0.16864536  0.39326876  1
  O2-  O284  1  0.79098800  0.17183872  0.73081417  1
  O2-  O285  1  0.79320862  0.66538136  0.06220088  1
  O2-  O286  1  0.79011649  0.66491485  0.40084699  1
  O2-  O287  1  0.79215887  0.66691713  0.73527544  1
