# generated using pymatgen
data_Ca2Al2SiO7
_symmetry_space_group_name_H-M   'P 1'
_cell_length_a   15.47130097
_cell_length_b   15.47161891
_cell_length_c   15.29550775
_cell_angle_alpha   90.00973157
_cell_angle_beta   90.01542830
_cell_angle_gamma   89.97979292
_symmetry_Int_Tables_number   1
_chemical_formula_structural   Ca2Al2SiO7
_chemical_formula_sum   'Ca48 Al48 Si24 O168'
_cell_volume   3661.22520553
_cell_formula_units_Z   24
loop_
 _symmetry_equiv_pos_site_id
 _symmetry_equiv_pos_as_xyz
  1  'x, y, z'
loop_
 _atom_type_symbol
 _atom_type_oxidation_number
  Ca2+  2.0
  Al0+  0.0
  Si0+  0.0
  O2-  -2.0
loop_
 _atom_site_type_symbol
 _atom_site_label
 _atom_site_symmetry_multiplicity
 _atom_site_fract_x
 _atom_site_fract_y
 _atom_site_fract_z
 _atom_site_occupancy
  Ca2+  Ca0  1  0.16407398  0.09415556  0.17143005  1
  Ca2+  Ca1  1  0.17182088  0.09654993  0.50770769  1
  Ca2+  Ca2  1  0.16982303  0.09804811  0.83588284  1
  Ca2+  Ca3  1  0.16806611  0.57681255  0.17754891  1
  Ca2+  Ca4  1  0.16212927  0.57028357  0.50119680  1
  Ca2+  Ca5  1  0.16928274  0.57572225  0.83440156  1
  Ca2+  Ca6  1  0.65330967  0.07500253  0.17038842  1
  Ca2+  Ca7  1  0.65594552  0.07618534  0.50454456  1
  Ca2+  Ca8  1  0.65566419  0.07439489  0.83747172  1
  Ca2+  Ca9  1  0.67741551  0.56683688  0.16782983  1
  Ca2+  Ca10  1  0.66836082  0.57394389  0.49884137  1
  Ca2+  Ca11  1  0.66939161  0.57550714  0.84223805  1
  Ca2+  Ca12  1  0.07355830  0.33103756  0.16673117  1
  Ca2+  Ca13  1  0.07915593  0.33236794  0.49449881  1
  Ca2+  Ca14  1  0.07410719  0.32938082  0.82857393  1
  Ca2+  Ca15  1  0.07495907  0.82325924  0.16103155  1
  Ca2+  Ca16  1  0.08380746  0.82273486  0.49144866  1
  Ca2+  Ca17  1  0.07410650  0.83171958  0.83343772  1
  Ca2+  Ca18  1  0.58079150  0.33365843  0.15721465  1
  Ca2+  Ca19  1  0.57880465  0.32111404  0.48654923  1
  Ca2+  Ca20  1  0.58694437  0.32394598  0.82821047  1
  Ca2+  Ca21  1  0.59168325  0.83443483  0.16427839  1
  Ca2+  Ca22  1  0.59345598  0.83011643  0.49827392  1
  Ca2+  Ca23  1  0.59307006  0.82809517  0.82599525  1
  Ca2+  Ca24  1  0.32907493  0.40484757  0.17305995  1
  Ca2+  Ca25  1  0.32048189  0.40211760  0.50069857  1
  Ca2+  Ca26  1  0.32732082  0.40604772  0.83693530  1
  Ca2+  Ca27  1  0.32862275  0.92133937  0.17298387  1
  Ca2+  Ca28  1  0.32827685  0.92671549  0.50930683  1
  Ca2+  Ca29  1  0.33181931  0.92682269  0.83540873  1
  Ca2+  Ca30  1  0.83244853  0.41731099  0.17373604  1
  Ca2+  Ca31  1  0.84138945  0.41915189  0.49888789  1
  Ca2+  Ca32  1  0.83331850  0.41984160  0.84238670  1
  Ca2+  Ca33  1  0.82805688  0.91941182  0.16916370  1
  Ca2+  Ca34  1  0.82495714  0.92384191  0.50295279  1
  Ca2+  Ca35  1  0.82504985  0.91979392  0.84242670  1
  Ca2+  Ca36  1  0.42803715  0.17902036  0.16728944  1
  Ca2+  Ca37  1  0.42216380  0.16717852  0.49755207  1
  Ca2+  Ca38  1  0.42547413  0.16854855  0.83381120  1
  Ca2+  Ca39  1  0.41816587  0.67077591  0.16251387  1
  Ca2+  Ca40  1  0.42293446  0.66895081  0.49880893  1
  Ca2+  Ca41  1  0.42691286  0.67024731  0.82649699  1
  Ca2+  Ca42  1  0.92185921  0.17841774  0.16078857  1
  Ca2+  Ca43  1  0.92533056  0.18044596  0.49379012  1
  Ca2+  Ca44  1  0.92038956  0.18042338  0.82676946  1
  Ca2+  Ca45  1  0.91065333  0.66490990  0.16464548  1
  Ca2+  Ca46  1  0.91878756  0.66585642  0.49043962  1
  Ca2+  Ca47  1  0.90234703  0.67335926  0.83451695  1
  Al0+  Al48  1  0.00063832  -0.00467062  -0.00660465  1
  Al0+  Al49  1  -0.00067084  -0.00301079  0.33262736  1
  Al0+  Al50  1  -0.00113548  0.00003321  0.66396663  1
  Al0+  Al51  1  0.00450212  0.50081099  0.00043779  1
  Al0+  Al52  1  0.00264286  0.50057469  0.33327550  1
  Al0+  Al53  1  0.00061520  0.50303856  0.67119746  1
  Al0+  Al54  1  0.49540450  0.00104765  0.00356549  1
  Al0+  Al55  1  0.49642997  -0.00073356  0.33521782  1
  Al0+  Al56  1  0.49594518  -0.00055558  0.67298074  1
  Al0+  Al57  1  0.49817137  0.50309883  -0.00055314  1
  Al0+  Al58  1  0.50008519  0.50309214  0.33285352  1
  Al0+  Al59  1  0.50008057  0.50215271  0.66112237  1
  Al0+  Al60  1  0.25331246  0.24982327  -0.00299388  1
  Al0+  Al61  1  0.25315192  0.24949810  0.33189195  1
  Al0+  Al62  1  0.25034634  0.25044461  0.67630693  1
  Al0+  Al63  1  0.24966167  0.75128850  -0.00118010  1
  Al0+  Al64  1  0.25009080  0.75025146  0.33076824  1
  Al0+  Al65  1  0.25013709  0.75018428  0.66871410  1
  Al0+  Al66  1  0.75018495  0.24600773  -0.00584944  1
  Al0+  Al67  1  0.75076611  0.24488361  0.32904170  1
  Al0+  Al68  1  0.75044633  0.24971850  0.65644655  1
  Al0+  Al69  1  0.74984213  0.74979416  0.00418386  1
  Al0+  Al70  1  0.74950771  0.75030744  0.33969934  1
  Al0+  Al71  1  0.74935407  0.74963995  0.66311258  1
  Al0+  Al72  1  0.56950359  0.17724727  0.65235699  1
  Al0+  Al73  1  0.92796522  0.81695478  0.98648354  1
  Al0+  Al74  1  0.43175370  0.32273007  0.32064588  1
  Al0+  Al75  1  0.18321420  0.42966311  0.34588448  1
  Al0+  Al76  1  0.67804277  0.93137308  0.01416951  1
  Al0+  Al77  1  0.68093875  0.93078020  0.68082764  1
  Al0+  Al78  1  0.57248325  0.67921043  0.65117668  1
  Al0+  Al79  1  0.67893669  0.93278340  0.34814975  1
  Al0+  Al80  1  0.92877639  0.32184660  0.31777277  1
  Al0+  Al81  1  0.92918139  0.32561847  0.65001684  1
  Al0+  Al82  1  0.67673581  0.42382678  0.34709612  1
  Al0+  Al83  1  0.31796612  0.07072634  0.68348369  1
  Al0+  Al84  1  0.57179637  0.17721125  0.98483633  1
  Al0+  Al85  1  0.07091236  0.17869077  0.98525575  1
  Al0+  Al86  1  0.67832540  0.42515435  0.01017084  1
  Al0+  Al87  1  0.43170859  0.32393397  0.98391372  1
  Al0+  Al88  1  0.07260462  0.17777398  0.32032180  1
  Al0+  Al89  1  0.92794636  0.32368368  0.98504380  1
  Al0+  Al90  1  0.57152099  0.17586786  0.31972247  1
  Al0+  Al91  1  0.82266109  0.56962501  0.01378894  1
  Al0+  Al92  1  0.07249449  0.18053919  0.65238057  1
  Al0+  Al93  1  0.82043244  0.56786161  0.34897387  1
  Al0+  Al94  1  0.07135678  0.67874587  0.32017445  1
  Al0+  Al95  1  0.18001022  0.43090728  0.68285054  1
  Si0+  Si96  1  0.18343563  0.42896618  0.01646764  1
  Si0+  Si97  1  0.82558418  0.07005566  0.01492866  1
  Si0+  Si98  1  0.42902145  0.32304349  0.65095249  1
  Si0+  Si99  1  0.42710899  0.82121057  0.65074648  1
  Si0+  Si100  1  0.31671899  0.06812198  0.34913957  1
  Si0+  Si101  1  0.67728285  0.42773433  0.67785160  1
  Si0+  Si102  1  0.32075750  0.57501265  0.01505578  1
  Si0+  Si103  1  0.81993715  0.57024472  0.68110726  1
  Si0+  Si104  1  0.07542543  0.67809019  0.98133940  1
  Si0+  Si105  1  0.31756564  0.07080296  0.01976960  1
  Si0+  Si106  1  0.17802774  0.92677035  0.01638713  1
  Si0+  Si107  1  0.42570994  0.82220022  0.98483236  1
  Si0+  Si108  1  0.57301989  0.68027403  0.31607881  1
  Si0+  Si109  1  0.32332507  0.57752661  0.35087604  1
  Si0+  Si110  1  0.17533297  0.92459830  0.68446977  1
  Si0+  Si111  1  0.07211548  0.68174183  0.65253009  1
  Si0+  Si112  1  0.92643454  0.81989421  0.31693355  1
  Si0+  Si113  1  0.82307232  0.07367715  0.68302423  1
  Si0+  Si114  1  0.32367285  0.57439219  0.68406912  1
  Si0+  Si115  1  0.92735210  0.82074579  0.65053193  1
  Si0+  Si116  1  0.17712634  0.92603598  0.34775838  1
  Si0+  Si117  1  0.42894944  0.81997338  0.31869530  1
  Si0+  Si118  1  0.82736693  0.07160163  0.35044045  1
  Si0+  Si119  1  0.56919650  0.68305810  0.98651107  1
  O2-  O120  1  0.24276799  0.00235742  0.06066727  1
  O2-  O121  1  0.24088048  0.00202743  0.39160410  1
  O2-  O122  1  0.23859539  -0.00170079  0.72848147  1
  O2-  O123  1  0.25308473  0.50213286  0.05790489  1
  O2-  O124  1  0.25995067  0.50349642  0.39333716  1
  O2-  O125  1  0.25864059  0.50315861  0.72902528  1
  O2-  O126  1  0.75015658  0.00848839  0.06026180  1
  O2-  O127  1  0.75115932  0.00974242  0.39405056  1
  O2-  O128  1  0.75259867  0.00706999  0.72882041  1
  O2-  O129  1  0.75846194  0.48883599  0.06025242  1
  O2-  O130  1  0.75172455  0.49267926  0.39944009  1
  O2-  O131  1  0.75062107  0.49665826  0.72077312  1
  O2-  O132  1  -0.00155283  0.24616816  0.26997705  1
  O2-  O133  1  0.00126460  0.25224401  0.60242213  1
  O2-  O134  1  -0.00240981  0.24885168  0.93549620  1
  O2-  O135  1  -0.00506106  0.75093364  0.27318241  1
  O2-  O136  1  0.00390477  0.75503128  0.60992101  1
  O2-  O137  1  0.00004562  0.73983451  0.93777107  1
  O2-  O138  1  0.51295311  0.26036337  0.27136879  1
  O2-  O139  1  0.49941089  0.25671662  0.60687352  1
  O2-  O140  1  0.50859864  0.25718171  0.93449466  1
  O2-  O141  1  0.49964079  0.74998943  0.27471640  1
  O2-  O142  1  0.49721974  0.75479999  0.60563843  1
  O2-  O143  1  0.49990745  0.75529585  0.94276969  1
  O2-  O144  1  0.07040198  0.18084560  0.09875541  1
  O2-  O145  1  0.07346283  0.17996681  0.43352410  1
  O2-  O146  1  0.06935729  0.18229832  0.76563941  1
  O2-  O147  1  0.08258178  0.68324295  0.08631958  1
  O2-  O148  1  0.07264453  0.68255935  0.43375210  1
  O2-  O149  1  0.07354477  0.68280308  0.75752426  1
  O2-  O150  1  0.56411964  0.17106771  0.09759049  1
  O2-  O151  1  0.56131327  0.17008692  0.43305649  1
  O2-  O152  1  0.56735938  0.17678235  0.76512607  1
  O2-  O153  1  0.56584253  0.68469662  0.09155314  1
  O2-  O154  1  0.57205957  0.68200890  0.42123733  1
  O2-  O155  1  0.57198016  0.68061603  0.76482005  1
  O2-  O156  1  0.18542152  0.43141122  0.23270424  1
  O2-  O157  1  0.18113691  0.43264014  0.56979043  1
  O2-  O158  1  0.18509434  0.43119423  0.91124430  1
  O2-  O159  1  0.18182667  0.92160025  0.24288177  1
  O2-  O160  1  0.18002415  0.91749868  0.57906778  1
  O2-  O161  1  0.18287350  0.92126125  0.91173049  1
  O2-  O162  1  0.67502490  0.42998730  0.23380111  1
  O2-  O163  1  0.67519860  0.43106154  0.57328646  1
  O2-  O164  1  0.67481866  0.43221832  0.89606127  1
  O2-  O165  1  0.67927735  0.93129771  0.23502831  1
  O2-  O166  1  0.68286945  0.93010329  0.56780047  1
  O2-  O167  1  0.67920228  0.92852641  0.90102479  1
  O2-  O168  1  0.42916407  0.32148854  0.09717637  1
  O2-  O169  1  0.42603858  0.31545616  0.43410622  1
  O2-  O170  1  0.43162588  0.32433428  0.75645534  1
  O2-  O171  1  0.42138585  0.81911411  0.09003918  1
  O2-  O172  1  0.42653944  0.81922385  0.42354566  1
  O2-  O173  1  0.42511708  0.81823970  0.75646300  1
  O2-  O174  1  0.93154575  0.32526809  0.09817907  1
  O2-  O175  1  0.93423507  0.32388422  0.43107665  1
  O2-  O176  1  0.92921022  0.32712707  0.76352097  1
  O2-  O177  1  0.93003421  0.81701689  0.09930449  1
  O2-  O178  1  0.92874048  0.81952141  0.42287963  1
  O2-  O179  1  0.92522827  0.81718453  0.75560668  1
  O2-  O180  1  0.31702538  0.06400511  0.24406254  1
  O2-  O181  1  0.31800789  0.06768007  0.56998217  1
  O2-  O182  1  0.31843375  0.06793204  0.91478958  1
  O2-  O183  1  0.31953653  0.58516037  0.24537841  1
  O2-  O184  1  0.32103500  0.58071247  0.57916411  1
  O2-  O185  1  0.31857314  0.58053300  0.91028727  1
  O2-  O186  1  0.83573763  0.06486889  0.24554868  1
  O2-  O187  1  0.82502216  0.06918702  0.57765700  1
  O2-  O188  1  0.82886685  0.06434984  0.90951253  1
  O2-  O189  1  0.81783145  0.57112399  0.23584247  1
  O2-  O190  1  0.82163648  0.57244575  0.57641708  1
  O2-  O191  1  0.81519092  0.57431095  0.89969349  1
  O2-  O192  1  0.05140520  0.07520892  0.27150074  1
  O2-  O193  1  0.05119945  0.07828212  0.60279078  1
  O2-  O194  1  0.05215743  0.07668666  0.93548346  1
  O2-  O195  1  0.04491477  0.58305421  0.26491211  1
  O2-  O196  1  0.04109124  0.59115340  0.60637293  1
  O2-  O197  1  0.05893713  0.58225193  0.93815665  1
  O2-  O198  1  0.52731260  0.08240198  0.26575861  1
  O2-  O199  1  0.53214286  0.08072552  0.60201867  1
  O2-  O200  1  0.53039026  0.08119712  0.93249625  1
  O2-  O201  1  0.54637428  0.58913090  0.26791044  1
  O2-  O202  1  0.54021028  0.58459750  0.59418007  1
  O2-  O203  1  0.53896975  0.59312474  0.93721332  1
  O2-  O204  1  0.17024454  0.20777611  0.26747739  1
  O2-  O205  1  0.17279980  0.21000166  0.60433354  1
  O2-  O206  1  0.16907038  0.21029572  0.93437451  1
  O2-  O207  1  0.16659425  0.71305674  0.26485348  1
  O2-  O208  1  0.16456693  0.70753715  0.60512190  1
  O2-  O209  1  0.16528676  0.71272799  0.93181773  1
  O2-  O210  1  0.67521260  0.18149174  0.27285732  1
  O2-  O211  1  0.66696297  0.20060046  0.59753958  1
  O2-  O212  1  0.67297394  0.18992304  0.93219644  1
  O2-  O213  1  0.66308149  0.71398459  0.27012300  1
  O2-  O214  1  0.66684149  0.71237403  0.59478762  1
  O2-  O215  1  0.66050754  0.71094352  0.93943358  1
  O2-  O216  1  0.09152201  0.45572985  0.06313222  1
  O2-  O217  1  0.08870274  0.46403310  0.40091551  1
  O2-  O218  1  0.08612187  0.46867676  0.73850599  1
  O2-  O219  1  0.08345637  0.94616051  0.06096065  1
  O2-  O220  1  0.08277004  0.94340875  0.39376033  1
  O2-  O221  1  0.07855963  0.94333399  0.72624149  1
  O2-  O222  1  0.58250101  0.46458807  0.06351807  1
  O2-  O223  1  0.57923872  0.45882062  0.40060136  1
  O2-  O224  1  0.58584859  0.45855044  0.72494099  1
  O2-  O225  1  0.57857929  0.95651684  0.06696852  1
  O2-  O226  1  0.57978746  0.95854703  0.40090515  1
  O2-  O227  1  0.58182217  0.95456503  0.73317988  1
  O2-  O228  1  0.21531015  0.33804098  0.06234507  1
  O2-  O229  1  0.21580790  0.33330575  0.40023761  1
  O2-  O230  1  0.20974816  0.33609134  0.73987624  1
  O2-  O231  1  0.21304936  0.83760400  0.06581863  1
  O2-  O232  1  0.21242408  0.83721620  0.39747360  1
  O2-  O233  1  0.20668168  0.83378207  0.73426280  1
  O2-  O234  1  0.69349663  0.32189286  0.05698798  1
  O2-  O235  1  0.69636373  0.32099225  0.39426854  1
  O2-  O236  1  0.70212126  0.33379010  0.72180727  1
  O2-  O237  1  0.71099337  0.83560048  0.06838674  1
  O2-  O238  1  0.71144723  0.83688532  0.40277844  1
  O2-  O239  1  0.71436310  0.83297705  0.73194466  1
  O2-  O240  1  0.44394873  0.42640671  0.27210930  1
  O2-  O241  1  0.44717262  0.41801198  0.60486513  1
  O2-  O242  1  0.44710508  0.42664305  0.93385872  1
  O2-  O243  1  0.45581697  0.91114964  0.27030151  1
  O2-  O244  1  0.44999116  0.91538015  0.60649480  1
  O2-  O245  1  0.44943423  0.91516818  0.93976948  1
  O2-  O246  1  0.96206249  0.41882570  0.26574518  1
  O2-  O247  1  0.96045915  0.42509070  0.60071479  1
  O2-  O248  1  0.96000836  0.42225371  0.93290316  1
  O2-  O249  1  0.95304632  0.91225897  0.27004460  1
  O2-  O250  1  0.94912927  0.91398050  0.60385755  1
  O2-  O251  1  0.96179247  0.91002890  0.92764961  1
  O2-  O252  1  0.33826846  0.28321391  0.26481701  1
  O2-  O253  1  0.33543360  0.29195708  0.60943196  1
  O2-  O254  1  0.33673408  0.28624152  0.93003105  1
  O2-  O255  1  0.33814621  0.79224044  0.26842978  1
  O2-  O256  1  0.33396273  0.79367086  0.60368620  1
  O2-  O257  1  0.33636391  0.79097982  0.93455652  1
  O2-  O258  1  0.82948378  0.29639038  0.26555188  1
  O2-  O259  1  0.83144190  0.29883818  0.59536741  1
  O2-  O260  1  0.82912716  0.29845653  0.93125073  1
  O2-  O261  1  0.83273588  0.79351132  0.27225393  1
  O2-  O262  1  0.83923449  0.78713065  0.60047375  1
  O2-  O263  1  0.83098005  0.78656326  0.93170029  1
  O2-  O264  1  0.40608536  0.03682072  0.06916183  1
  O2-  O265  1  0.40503616  0.03288222  0.39842629  1
  O2-  O266  1  0.41079675  0.03379465  0.74129640  1
  O2-  O267  1  0.41372206  0.55327904  0.06245314  1
  O2-  O268  1  0.41952216  0.56017763  0.39363319  1
  O2-  O269  1  0.41935933  0.55200586  0.72772494  1
  O2-  O270  1  0.91624239  0.03492522  0.06201291  1
  O2-  O271  1  0.91657908  0.03677855  0.40195253  1
  O2-  O272  1  0.91608962  0.04536741  0.72971056  1
  O2-  O273  1  0.92646147  0.55528806  0.06095108  1
  O2-  O274  1  0.92110413  0.54504119  0.40074838  1
  O2-  O275  1  0.91195154  0.54853480  0.73098103  1
  O2-  O276  1  0.29162612  0.16338151  0.06601113  1
  O2-  O277  1  0.29341300  0.16044581  0.39660423  1
  O2-  O278  1  0.29171769  0.16616942  0.74136944  1
  O2-  O279  1  0.29040774  0.66606373  0.06421577  1
  O2-  O280  1  0.29234803  0.66881044  0.39975011  1
  O2-  O281  1  0.29485548  0.66652650  0.73327421  1
  O2-  O282  1  0.80809585  0.16653444  0.05670722  1
  O2-  O283  1  0.81014521  0.16766737  0.39302098  1
  O2-  O284  1  0.79948174  0.16945655  0.72469468  1
  O2-  O285  1  0.78607550  0.66446864  0.06879391  1
  O2-  O286  1  0.78979093  0.66591537  0.40305740  1
  O2-  O287  1  0.78756893  0.66140394  0.72748039  1
