# generated using pymatgen
data_Ca2Al2SiO7
_symmetry_space_group_name_H-M   'P 1'
_cell_length_a   15.45575028
_cell_length_b   15.45553471
_cell_length_c   15.28253561
_cell_angle_alpha   90.00149689
_cell_angle_beta   89.99822657
_cell_angle_gamma   90.00057272
_symmetry_Int_Tables_number   1
_chemical_formula_structural   Ca2Al2SiO7
_chemical_formula_sum   'Ca48 Al48 Si24 O168'
_cell_volume   3650.64449719
_cell_formula_units_Z   24
loop_
 _symmetry_equiv_pos_site_id
 _symmetry_equiv_pos_as_xyz
  1  'x, y, z'
loop_
 _atom_type_symbol
 _atom_type_oxidation_number
  Ca2+  2.0
  Al0+  0.0
  Si0+  0.0
  O2-  -2.0
loop_
 _atom_site_type_symbol
 _atom_site_label
 _atom_site_symmetry_multiplicity
 _atom_site_fract_x
 _atom_site_fract_y
 _atom_site_fract_z
 _atom_site_occupancy
  Ca2+  Ca0  1  0.17364471  0.08146693  0.17945873  1
  Ca2+  Ca1  1  0.16501938  0.08298659  0.49839225  1
  Ca2+  Ca2  1  0.16498779  0.08769903  0.83291047  1
  Ca2+  Ca3  1  0.17219391  0.57472222  0.17230172  1
  Ca2+  Ca4  1  0.17388430  0.59149288  0.50278177  1
  Ca2+  Ca5  1  0.16548200  0.57696150  0.84102187  1
  Ca2+  Ca6  1  0.66842484  0.08444297  0.16614620  1
  Ca2+  Ca7  1  0.67618619  0.07201174  0.51213552  1
  Ca2+  Ca8  1  0.67371857  0.07459418  0.84189920  1
  Ca2+  Ca9  1  0.67211909  0.57320225  0.17360542  1
  Ca2+  Ca10  1  0.66413234  0.58600205  0.49866632  1
  Ca2+  Ca11  1  0.67254259  0.58075946  0.84062877  1
  Ca2+  Ca12  1  0.08122736  0.33046432  0.15962335  1
  Ca2+  Ca13  1  0.08138951  0.32044783  0.49600741  1
  Ca2+  Ca14  1  0.07608379  0.33160125  0.83098963  1
  Ca2+  Ca15  1  0.07903857  0.83554050  0.16889027  1
  Ca2+  Ca16  1  0.07160385  0.83707504  0.49420251  1
  Ca2+  Ca17  1  0.07425576  0.82436872  0.82280488  1
  Ca2+  Ca18  1  0.58298976  0.33187865  0.15672328  1
  Ca2+  Ca19  1  0.58007360  0.33559824  0.49552568  1
  Ca2+  Ca20  1  0.57786321  0.33552245  0.83281184  1
  Ca2+  Ca21  1  0.58199708  0.83085877  0.16520580  1
  Ca2+  Ca22  1  0.58570545  0.82317105  0.49262931  1
  Ca2+  Ca23  1  0.59322351  0.82957533  0.82830847  1
  Ca2+  Ca24  1  0.33009645  0.41525804  0.17057757  1
  Ca2+  Ca25  1  0.33657843  0.42204871  0.50196357  1
  Ca2+  Ca26  1  0.32978565  0.40985257  0.83776973  1
  Ca2+  Ca27  1  0.32802297  0.92199703  0.18101456  1
  Ca2+  Ca28  1  0.33226938  0.91718334  0.49736226  1
  Ca2+  Ca29  1  0.32978376  0.91841143  0.83822558  1
  Ca2+  Ca30  1  0.82716797  0.42204856  0.17045715  1
  Ca2+  Ca31  1  0.82741043  0.42186312  0.49880847  1
  Ca2+  Ca32  1  0.83059472  0.42343021  0.84843329  1
  Ca2+  Ca33  1  0.83004865  0.91952463  0.16736076  1
  Ca2+  Ca34  1  0.83367997  0.91519862  0.50854430  1
  Ca2+  Ca35  1  0.82837696  0.92297522  0.83542217  1
  Ca2+  Ca36  1  0.42249182  0.16965857  0.15806328  1
  Ca2+  Ca37  1  0.41314865  0.17235104  0.49531014  1
  Ca2+  Ca38  1  0.42427950  0.17728079  0.83372369  1
  Ca2+  Ca39  1  0.41812459  0.66612634  0.17057577  1
  Ca2+  Ca40  1  0.42736017  0.66952495  0.48938595  1
  Ca2+  Ca41  1  0.42724139  0.66819800  0.82590843  1
  Ca2+  Ca42  1  0.92098183  0.17108340  0.15973297  1
  Ca2+  Ca43  1  0.92734600  0.15574728  0.49674318  1
  Ca2+  Ca44  1  0.91191255  0.16874895  0.83076427  1
  Ca2+  Ca45  1  0.90496732  0.66861940  0.16631715  1
  Ca2+  Ca46  1  0.91521574  0.67849553  0.49395407  1
  Ca2+  Ca47  1  0.91849696  0.66943827  0.82502985  1
  Al0+  Al48  1  -0.00025113  -0.00219187  0.00155924  1
  Al0+  Al49  1  0.00139074  -0.00052772  0.32559045  1
  Al0+  Al50  1  0.00119653  0.00080380  0.66579600  1
  Al0+  Al51  1  0.00301848  0.49955482  0.00549527  1
  Al0+  Al52  1  -0.00207334  0.49969948  0.33938996  1
  Al0+  Al53  1  0.00173865  0.49788882  0.66151710  1
  Al0+  Al54  1  0.49865450  -0.00019310  -0.00175443  1
  Al0+  Al55  1  0.49996939  0.00096272  0.33559529  1
  Al0+  Al56  1  0.49896355  0.00142404  0.67300801  1
  Al0+  Al57  1  0.49929781  0.50299220  -0.00197322  1
  Al0+  Al58  1  0.49859055  0.49876549  0.33549865  1
  Al0+  Al59  1  0.49875233  0.50117483  0.66032364  1
  Al0+  Al60  1  0.25037271  0.24976007  0.00035670  1
  Al0+  Al61  1  0.25012346  0.24890738  0.33296004  1
  Al0+  Al62  1  0.24930113  0.25135183  0.65920644  1
  Al0+  Al63  1  0.25005330  0.75004873  -0.00106785  1
  Al0+  Al64  1  0.24802306  0.75016171  0.33801336  1
  Al0+  Al65  1  0.25238074  0.75033321  0.66779485  1
  Al0+  Al66  1  0.75160671  0.24866667  -0.00194273  1
  Al0+  Al67  1  0.75029422  0.25065246  0.33942143  1
  Al0+  Al68  1  0.74816420  0.25113090  0.66988087  1
  Al0+  Al69  1  0.74950752  0.75270265  0.00549182  1
  Al0+  Al70  1  0.75057217  0.74897832  0.32639514  1
  Al0+  Al71  1  0.75006017  0.74823971  0.66274363  1
  Al0+  Al72  1  0.67878731  0.92630129  0.68054783  1
  Al0+  Al73  1  0.43038150  0.31914633  0.65066771  1
  Al0+  Al74  1  0.42860627  0.32321882  0.98601204  1
  Al0+  Al75  1  0.07374170  0.67555446  0.65205494  1
  Al0+  Al76  1  0.18109835  0.42817154  0.01263934  1
  Al0+  Al77  1  0.17732720  0.92958882  0.34952775  1
  Al0+  Al78  1  0.92936859  0.82024883  0.31585154  1
  Al0+  Al79  1  0.82043783  0.57311156  0.35147898  1
  Al0+  Al80  1  0.82366721  0.07167971  0.68178760  1
  Al0+  Al81  1  0.93074746  0.81879000  0.65307418  1
  Al0+  Al82  1  0.07036167  0.18076385  0.31722235  1
  Al0+  Al83  1  0.31882776  0.56962892  0.34737475  1
  Al0+  Al84  1  0.57012081  0.68111767  0.65334979  1
  Al0+  Al85  1  0.67692659  0.92991193  0.01784059  1
  Al0+  Al86  1  0.82283547  0.57180908  0.01399455  1
  Al0+  Al87  1  0.32315015  0.07208406  0.34950570  1
  Al0+  Al88  1  0.67816238  0.42782131  0.35011023  1
  Al0+  Al89  1  0.42823701  0.82213762  0.31915040  1
  Al0+  Al90  1  0.82283093  0.07152448  0.01694669  1
  Al0+  Al91  1  0.57026852  0.67746101  0.31409907  1
  Al0+  Al92  1  0.67687269  0.42868943  0.01219510  1
  Al0+  Al93  1  0.06871871  0.18080730  0.65326582  1
  Al0+  Al94  1  0.57307617  0.17714537  0.98416167  1
  Al0+  Al95  1  0.93047658  0.32167204  0.98854183  1
  Si0+  Si96  1  0.32200809  0.57473555  0.01540874  1
  Si0+  Si97  1  0.31992598  0.07447448  0.68368562  1
  Si0+  Si98  1  0.18059023  0.42831269  0.68047109  1
  Si0+  Si99  1  0.31864899  0.07002244  0.01304825  1
  Si0+  Si100  1  0.67909299  0.92944552  0.34711034  1
  Si0+  Si101  1  0.07285356  0.67989025  0.98693511  1
  Si0+  Si102  1  0.07202791  0.17635838  0.98373922  1
  Si0+  Si103  1  0.92677642  0.32257545  0.31739719  1
  Si0+  Si104  1  0.17932598  0.92654989  0.01384414  1
  Si0+  Si105  1  0.57112560  0.68160668  0.98516196  1
  Si0+  Si106  1  0.42649052  0.82105934  0.98449420  1
  Si0+  Si107  1  0.92394200  0.32344229  0.64914171  1
  Si0+  Si108  1  0.32187453  0.57108628  0.68246751  1
  Si0+  Si109  1  0.82184260  0.56842696  0.68005133  1
  Si0+  Si110  1  0.57322772  0.17899039  0.32117264  1
  Si0+  Si111  1  0.92861772  0.82072020  0.98396713  1
  Si0+  Si112  1  0.17672495  0.42625111  0.35218997  1
  Si0+  Si113  1  0.67633381  0.43038570  0.68235615  1
  Si0+  Si114  1  0.57255599  0.17710201  0.64981890  1
  Si0+  Si115  1  0.18022056  0.92913200  0.68306293  1
  Si0+  Si116  1  0.42981349  0.31981735  0.31796035  1
  Si0+  Si117  1  0.42668175  0.82581377  0.65143282  1
  Si0+  Si118  1  0.07219161  0.67559479  0.31607932  1
  Si0+  Si119  1  0.82116608  0.07048305  0.34703328  1
  O2-  O120  1  0.24723940  0.00007820  0.05530587  1
  O2-  O121  1  0.25164507  -0.00050303  0.39972400  1
  O2-  O122  1  0.25203702  -0.00025506  0.72615760  1
  O2-  O123  1  0.25828498  0.50076893  0.05810947  1
  O2-  O124  1  0.24208022  0.49793889  0.39670226  1
  O2-  O125  1  0.24673465  0.50394140  0.72391317  1
  O2-  O126  1  0.74754078  0.00329093  0.06790266  1
  O2-  O127  1  0.75103933  -0.00085090  0.38953813  1
  O2-  O128  1  0.74902650  0.00084243  0.72952106  1
  O2-  O129  1  0.75127928  0.49817354  0.06186577  1
  O2-  O130  1  0.74714925  0.50225294  0.40141684  1
  O2-  O131  1  0.75276466  0.49612474  0.72367138  1
  O2-  O132  1  -0.00212132  0.25726980  0.27175079  1
  O2-  O133  1  -0.01180855  0.24947443  0.60653202  1
  O2-  O134  1  0.00179086  0.24364764  0.94018838  1
  O2-  O135  1  0.00180260  0.74171383  0.27006533  1
  O2-  O136  1  0.00293784  0.74762520  0.60150228  1
  O2-  O137  1  -0.00150632  0.74714346  0.94391291  1
  O2-  O138  1  0.50139700  0.24885368  0.27791483  1
  O2-  O139  1  0.50492952  0.24512595  0.60279618  1
  O2-  O140  1  0.50470043  0.25490396  0.93628251  1
  O2-  O141  1  0.49846260  0.75093504  0.26509838  1
  O2-  O142  1  0.49917963  0.76071895  0.60927455  1
  O2-  O143  1  0.50012342  0.75298618  0.94226044  1
  O2-  O144  1  0.07390802  0.17739667  0.08906322  1
  O2-  O145  1  0.06845453  0.18067784  0.43059092  1
  O2-  O146  1  0.07290564  0.18539330  0.76636855  1
  O2-  O147  1  0.07903326  0.68381430  0.09131351  1
  O2-  O148  1  0.07160945  0.67803553  0.42151388  1
  O2-  O149  1  0.07179655  0.67567739  0.76668619  1
  O2-  O150  1  0.56704177  0.17496244  0.09832806  1
  O2-  O151  1  0.57333399  0.18007984  0.42633088  1
  O2-  O152  1  0.57051695  0.17877312  0.75497798  1
  O2-  O153  1  0.56878508  0.68086764  0.08946287  1
  O2-  O154  1  0.56912858  0.68008653  0.42801390  1
  O2-  O155  1  0.56866895  0.67887585  0.76712647  1
  O2-  O156  1  0.17937485  0.42560639  0.24631150  1
  O2-  O157  1  0.18370651  0.42661055  0.57571766  1
  O2-  O158  1  0.18009318  0.43011858  0.89892851  1
  O2-  O159  1  0.17839444  0.93269469  0.23506347  1
  O2-  O160  1  0.18042441  0.92893062  0.57878072  1
  O2-  O161  1  0.18158845  0.92421948  0.90833126  1
  O2-  O162  1  0.67953685  0.42417771  0.23686250  1
  O2-  O163  1  0.67575171  0.43125777  0.57754157  1
  O2-  O164  1  0.67645837  0.43502611  0.89787480  1
  O2-  O165  1  0.67771625  0.93301099  0.24224222  1
  O2-  O166  1  0.67952478  0.92718569  0.56644569  1
  O2-  O167  1  0.68044341  0.92632266  0.90439636  1
  O2-  O168  1  0.42530505  0.31898774  0.09951611  1
  O2-  O169  1  0.42931642  0.31916220  0.42331653  1
  O2-  O170  1  0.42961311  0.31888371  0.76357797  1
  O2-  O171  1  0.42156694  0.81954979  0.08880635  1
  O2-  O172  1  0.43245868  0.82185700  0.43292142  1
  O2-  O173  1  0.42197081  0.82180504  0.75761613  1
  O2-  O174  1  0.93516376  0.32230317  0.10140062  1
  O2-  O175  1  0.92686478  0.31954132  0.42330648  1
  O2-  O176  1  0.92750682  0.32846540  0.75467344  1
  O2-  O177  1  0.93099099  0.82234928  0.08881706  1
  O2-  O178  1  0.92975410  0.82292718  0.42881803  1
  O2-  O179  1  0.93200334  0.81631425  0.76729785  1
  O2-  O180  1  0.32197455  0.07321374  0.23536567  1
  O2-  O181  1  0.31981208  0.07484821  0.57913336  1
  O2-  O182  1  0.31662651  0.06932808  0.90742668  1
  O2-  O183  1  0.31770896  0.56563990  0.23390607  1
  O2-  O184  1  0.32265011  0.56979809  0.57772447  1
  O2-  O185  1  0.31851981  0.57984765  0.90960724  1
  O2-  O186  1  0.81871566  0.07253397  0.24225789  1
  O2-  O187  1  0.82330050  0.06886069  0.56741770  1
  O2-  O188  1  0.82642779  0.06602164  0.90366484  1
  O2-  O189  1  0.81990376  0.56923223  0.23807471  1
  O2-  O190  1  0.82055210  0.56810441  0.57556328  1
  O2-  O191  1  0.82241762  0.57280220  0.89923446  1
  O2-  O192  1  0.03987932  0.08570998  0.26144863  1
  O2-  O193  1  0.04402155  0.08291788  0.59918838  1
  O2-  O194  1  0.04943398  0.08101118  0.93890765  1
  O2-  O195  1  0.04984534  0.57925301  0.27352348  1
  O2-  O196  1  0.05081991  0.57652398  0.59856575  1
  O2-  O197  1  0.04891674  0.58648048  0.94137928  1
  O2-  O198  1  0.54652629  0.08730690  0.27361456  1
  O2-  O199  1  0.54639826  0.08239638  0.60615171  1
  O2-  O200  1  0.53684613  0.08107821  0.92926892  1
  O2-  O201  1  0.53755078  0.57872002  0.26428503  1
  O2-  O202  1  0.53404615  0.58778626  0.59717947  1
  O2-  O203  1  0.54312505  0.59097624  0.93507898  1
  O2-  O204  1  0.16812936  0.21048299  0.26439932  1
  O2-  O205  1  0.16210471  0.21628489  0.59609836  1
  O2-  O206  1  0.16498647  0.20388648  0.93721948  1
  O2-  O207  1  0.16533800  0.70256993  0.27000968  1
  O2-  O208  1  0.17389102  0.70374304  0.60352895  1
  O2-  O209  1  0.16257325  0.71086900  0.93534325  1
  O2-  O210  1  0.66509561  0.20757990  0.27415899  1
  O2-  O211  1  0.66682495  0.20200641  0.60443944  1
  O2-  O212  1  0.67314218  0.19768698  0.93243487  1
  O2-  O213  1  0.66823427  0.70510633  0.26164395  1
  O2-  O214  1  0.66652379  0.70684379  0.59763313  1
  O2-  O215  1  0.66326307  0.71090211  0.93836701  1
  O2-  O216  1  0.08839103  0.46157200  0.07130126  1
  O2-  O217  1  0.08179377  0.44569007  0.39727725  1
  O2-  O218  1  0.08648565  0.45124519  0.72655909  1
  O2-  O219  1  0.08660710  0.95010380  0.06021233  1
  O2-  O220  1  0.07964582  0.96401473  0.40068898  1
  O2-  O221  1  0.08953756  0.95839217  0.73180029  1
  O2-  O222  1  0.57834964  0.45855244  0.06467392  1
  O2-  O223  1  0.57895999  0.45404677  0.40217105  1
  O2-  O224  1  0.58547131  0.46398298  0.72817771  1
  O2-  O225  1  0.57594610  0.95489639  0.06739625  1
  O2-  O226  1  0.58848310  0.95706105  0.39631174  1
  O2-  O227  1  0.57883156  0.95106004  0.73413065  1
  O2-  O228  1  0.20991849  0.33151134  0.06785758  1
  O2-  O229  1  0.20768335  0.33432524  0.39813785  1
  O2-  O230  1  0.21397746  0.33845950  0.72840617  1
  O2-  O231  1  0.21027781  0.83644685  0.06241777  1
  O2-  O232  1  0.20031700  0.83062091  0.40273103  1
  O2-  O233  1  0.20868142  0.83733270  0.73224725  1
  O2-  O234  1  0.70050719  0.32836854  0.06133587  1
  O2-  O235  1  0.70958343  0.33107270  0.40752481  1
  O2-  O236  1  0.69686502  0.33635466  0.72832574  1
  O2-  O237  1  0.70765166  0.83334356  0.07235161  1
  O2-  O238  1  0.70701345  0.83640786  0.39047413  1
  O2-  O239  1  0.70947698  0.82781751  0.73313989  1
  O2-  O240  1  0.45575244  0.41147240  0.27075922  1
  O2-  O241  1  0.46064942  0.41549575  0.59641037  1
  O2-  O242  1  0.44993784  0.42399363  0.93302318  1
  O2-  O243  1  0.45604177  0.92183091  0.26722283  1
  O2-  O244  1  0.44563895  0.92224245  0.60950225  1
  O2-  O245  1  0.44973813  0.91356846  0.93654323  1
  O2-  O246  1  0.94938021  0.41799218  0.27446049  1
  O2-  O247  1  0.95577176  0.41330554  0.59913881  1
  O2-  O248  1  0.96591891  0.41768623  0.93389871  1
  O2-  O249  1  0.96403144  0.91433407  0.25921187  1
  O2-  O250  1  0.96019908  0.91719603  0.60135672  1
  O2-  O251  1  0.96018705  0.91101037  0.93556820  1
  O2-  O252  1  0.33781676  0.29207070  0.27111795  1
  O2-  O253  1  0.33528691  0.28771454  0.59471042  1
  O2-  O254  1  0.33171347  0.28838867  0.93148843  1
  O2-  O255  1  0.32764524  0.79495963  0.26943542  1
  O2-  O256  1  0.33475094  0.79730513  0.60446116  1
  O2-  O257  1  0.33621556  0.79026569  0.93360180  1
  O2-  O258  1  0.83378790  0.29289124  0.27263033  1
  O2-  O259  1  0.82793894  0.30397150  0.60593507  1
  O2-  O260  1  0.83388017  0.29588570  0.93242956  1
  O2-  O261  1  0.83336205  0.79167110  0.25995134  1
  O2-  O262  1  0.83362427  0.78994290  0.59881195  1
  O2-  O263  1  0.83570480  0.79436769  0.93846255  1
  O2-  O264  1  0.40997180  0.04177214  0.05986981  1
  O2-  O265  1  0.42153598  0.04601402  0.40440315  1
  O2-  O266  1  0.41195496  0.05073261  0.73300632  1
  O2-  O267  1  0.41690959  0.55502048  0.05940860  1
  O2-  O268  1  0.41358946  0.53603771  0.40277869  1
  O2-  O269  1  0.41221755  0.53837728  0.73026259  1
  O2-  O270  1  0.92082192  0.03891851  0.07025100  1
  O2-  O271  1  0.91367481  0.04059568  0.39070939  1
  O2-  O272  1  0.92239077  0.04418461  0.73488389  1
  O2-  O273  1  0.92145468  0.54698158  0.06727600  1
  O2-  O274  1  0.91902554  0.54547518  0.40557641  1
  O2-  O275  1  0.91553858  0.54226120  0.72563062  1
  O2-  O276  1  0.29221944  0.16128226  0.06148573  1
  O2-  O277  1  0.29154366  0.16986772  0.40249213  1
  O2-  O278  1  0.28539040  0.16485687  0.72981956  1
  O2-  O279  1  0.29022703  0.66560428  0.06393446  1
  O2-  O280  1  0.29102417  0.66615182  0.40288881  1
  O2-  O281  1  0.29999698  0.66456708  0.73043163  1
  O2-  O282  1  0.80005928  0.17168932  0.06782049  1
  O2-  O283  1  0.79513683  0.16118095  0.39718731  1
  O2-  O284  1  0.79676591  0.17192837  0.73283728  1
  O2-  O285  1  0.79272491  0.66914159  0.06644875  1
  O2-  O286  1  0.79203146  0.67320755  0.40084268  1
  O2-  O287  1  0.79285463  0.65995047  0.72713161  1
