# generated using pymatgen
data_Ca2Al2SiO7
_symmetry_space_group_name_H-M   'P 1'
_cell_length_a   15.46535840
_cell_length_b   15.46657299
_cell_length_c   15.28939949
_cell_angle_alpha   90.00513132
_cell_angle_beta   90.01592037
_cell_angle_gamma   89.98576597
_symmetry_Int_Tables_number   1
_chemical_formula_structural   Ca2Al2SiO7
_chemical_formula_sum   'Ca48 Al48 Si24 O168'
_cell_volume   3657.16437826
_cell_formula_units_Z   24
loop_
 _symmetry_equiv_pos_site_id
 _symmetry_equiv_pos_as_xyz
  1  'x, y, z'
loop_
 _atom_type_symbol
 _atom_type_oxidation_number
  Ca2+  2.0
  Al0+  0.0
  Si0+  0.0
  O2-  -2.0
loop_
 _atom_site_type_symbol
 _atom_site_label
 _atom_site_symmetry_multiplicity
 _atom_site_fract_x
 _atom_site_fract_y
 _atom_site_fract_z
 _atom_site_occupancy
  Ca2+  Ca0  1  0.16773396  0.09155391  0.16575770  1
  Ca2+  Ca1  1  0.16428587  0.09008900  0.50254653  1
  Ca2+  Ca2  1  0.16992681  0.08579708  0.84505409  1
  Ca2+  Ca3  1  0.16540336  0.58417140  0.16949572  1
  Ca2+  Ca4  1  0.16753528  0.57490488  0.51119700  1
  Ca2+  Ca5  1  0.16091775  0.58075097  0.83586912  1
  Ca2+  Ca6  1  0.67913324  0.07565642  0.17682867  1
  Ca2+  Ca7  1  0.66883523  0.08391325  0.50460409  1
  Ca2+  Ca8  1  0.66920297  0.07674087  0.84250185  1
  Ca2+  Ca9  1  0.66206975  0.57746948  0.16960597  1
  Ca2+  Ca10  1  0.66678052  0.57744334  0.50458230  1
  Ca2+  Ca11  1  0.66456681  0.56950089  0.83717578  1
  Ca2+  Ca12  1  0.07387617  0.32251797  0.16540731  1
  Ca2+  Ca13  1  0.08161398  0.32534448  0.49497404  1
  Ca2+  Ca14  1  0.08526750  0.32165502  0.82640199  1
  Ca2+  Ca15  1  0.07188126  0.83499168  0.15541194  1
  Ca2+  Ca16  1  0.07551321  0.82713591  0.49350249  1
  Ca2+  Ca17  1  0.08180015  0.82972580  0.83311603  1
  Ca2+  Ca18  1  0.57642645  0.32869632  0.16108398  1
  Ca2+  Ca19  1  0.58090689  0.32549079  0.49443661  1
  Ca2+  Ca20  1  0.57591436  0.33177895  0.82582319  1
  Ca2+  Ca21  1  0.59823367  0.82951038  0.16519201  1
  Ca2+  Ca22  1  0.59402975  0.82953180  0.49311539  1
  Ca2+  Ca23  1  0.58563289  0.84095490  0.82893383  1
  Ca2+  Ca24  1  0.33596148  0.41017715  0.16955899  1
  Ca2+  Ca25  1  0.33212353  0.40942381  0.50513637  1
  Ca2+  Ca26  1  0.32988653  0.40881716  0.83576216  1
  Ca2+  Ca27  1  0.32484576  0.92264515  0.16488962  1
  Ca2+  Ca28  1  0.33130586  0.92090814  0.50426777  1
  Ca2+  Ca29  1  0.32563191  0.92908801  0.84491664  1
  Ca2+  Ca30  1  0.83087397  0.41521195  0.17077401  1
  Ca2+  Ca31  1  0.83062292  0.41397714  0.50487116  1
  Ca2+  Ca32  1  0.81908912  0.41177371  0.83803492  1
  Ca2+  Ca33  1  0.83582986  0.92358928  0.17093129  1
  Ca2+  Ca34  1  0.82632648  0.91957287  0.49792561  1
  Ca2+  Ca35  1  0.82534423  0.92112275  0.84188839  1
  Ca2+  Ca36  1  0.42056236  0.17245773  0.16255116  1
  Ca2+  Ca37  1  0.43057518  0.17562617  0.49721214  1
  Ca2+  Ca38  1  0.41910808  0.17448781  0.82777094  1
  Ca2+  Ca39  1  0.42354893  0.66887585  0.16575223  1
  Ca2+  Ca40  1  0.42484455  0.66978107  0.49433254  1
  Ca2+  Ca41  1  0.41664492  0.67254722  0.83213086  1
  Ca2+  Ca42  1  0.92232497  0.15594508  0.16411142  1
  Ca2+  Ca43  1  0.92544884  0.16810225  0.49110165  1
  Ca2+  Ca44  1  0.92670291  0.15533112  0.83448243  1
  Ca2+  Ca45  1  0.91781587  0.68150886  0.15873786  1
  Ca2+  Ca46  1  0.91891139  0.67125184  0.49499182  1
  Ca2+  Ca47  1  0.92436246  0.67313163  0.83289372  1
  Al0+  Al48  1  -0.00119484  -0.00185074  -0.00444457  1
  Al0+  Al49  1  0.00042252  -0.00185067  0.33228309  1
  Al0+  Al50  1  -0.00101650  -0.00200881  0.66085623  1
  Al0+  Al51  1  -0.00133142  0.49932016  -0.00287493  1
  Al0+  Al52  1  0.00149637  0.49787205  0.33219342  1
  Al0+  Al53  1  0.00171642  0.50177255  0.66894142  1
  Al0+  Al54  1  0.49906478  -0.00102054  0.00919309  1
  Al0+  Al55  1  0.49669240  -0.00164119  0.33433387  1
  Al0+  Al56  1  0.49816267  0.00156947  0.66669849  1
  Al0+  Al57  1  0.49790280  0.49965100  -0.00046581  1
  Al0+  Al58  1  0.49908795  0.50304032  0.32818894  1
  Al0+  Al59  1  0.49866249  0.50405127  0.66795891  1
  Al0+  Al60  1  0.24967966  0.25255965  -0.00188960  1
  Al0+  Al61  1  0.24941364  0.25012724  0.32854857  1
  Al0+  Al62  1  0.24984970  0.25129060  0.66333186  1
  Al0+  Al63  1  0.25246506  0.74904891  0.00091100  1
  Al0+  Al64  1  0.25274492  0.74886592  0.33664907  1
  Al0+  Al65  1  0.24978565  0.74988218  0.66221742  1
  Al0+  Al66  1  0.74846324  0.24903913  0.00935471  1
  Al0+  Al67  1  0.75009109  0.25010132  0.33254715  1
  Al0+  Al68  1  0.75190080  0.24937990  0.67053015  1
  Al0+  Al69  1  0.75134308  0.74585347  -0.00574037  1
  Al0+  Al70  1  0.75177089  0.74761844  0.32868853  1
  Al0+  Al71  1  0.75016352  0.75179075  0.67151657  1
  Al0+  Al72  1  0.92729999  0.32337032  0.31965466  1
  Al0+  Al73  1  0.67843576  0.93113431  0.68030649  1
  Al0+  Al74  1  0.57069083  0.68207219  0.32015267  1
  Al0+  Al75  1  0.07013470  0.17859059  0.65336356  1
  Al0+  Al76  1  0.82265042  0.07248482  0.35155915  1
  Al0+  Al77  1  0.67669045  0.42966023  0.01547411  1
  Al0+  Al78  1  0.31969917  0.07513520  0.01615998  1
  Al0+  Al79  1  0.07124113  0.67921792  0.65121769  1
  Al0+  Al80  1  0.43099449  0.32057934  0.31800397  1
  Al0+  Al81  1  0.06957441  0.17840676  0.31724736  1
  Al0+  Al82  1  0.67809706  0.92549667  0.01512926  1
  Al0+  Al83  1  0.07386633  0.67770434  0.98532001  1
  Al0+  Al84  1  0.67928561  0.92752756  0.34855033  1
  Al0+  Al85  1  0.92786312  0.82174667  0.98139223  1
  Al0+  Al86  1  0.43048112  0.32067337  0.98406230  1
  Al0+  Al87  1  0.57329394  0.17793472  0.65456828  1
  Al0+  Al88  1  0.18044019  0.42923677  0.68076415  1
  Al0+  Al89  1  0.57280435  0.17510946  0.31717956  1
  Al0+  Al90  1  0.82133331  0.07009416  0.01501002  1
  Al0+  Al91  1  0.67873164  0.42880966  0.67845149  1
  Al0+  Al92  1  0.17908238  0.92795052  0.01321852  1
  Al0+  Al93  1  0.43000812  0.32346847  0.65212816  1
  Al0+  Al94  1  0.93078107  0.81816151  0.31998068  1
  Al0+  Al95  1  0.06826939  0.18138157  0.98590789  1
  Si0+  Si96  1  0.17833805  0.92749131  0.67905284  1
  Si0+  Si97  1  0.18040798  0.42949965  0.34803475  1
  Si0+  Si98  1  0.82461709  0.07186804  0.68321408  1
  Si0+  Si99  1  0.31820610  0.07076703  0.67994242  1
  Si0+  Si100  1  0.82222545  0.56928673  0.34704840  1
  Si0+  Si101  1  0.67693792  0.43066298  0.34752498  1
  Si0+  Si102  1  0.42442207  0.82248256  0.31580972  1
  Si0+  Si103  1  0.82221249  0.56901220  0.01702194  1
  Si0+  Si104  1  0.42862311  0.82225928  0.65255048  1
  Si0+  Si105  1  0.57015811  0.67824246  0.98305982  1
  Si0+  Si106  1  0.57144039  0.68147862  0.65331014  1
  Si0+  Si107  1  0.31908171  0.07293267  0.35084921  1
  Si0+  Si108  1  0.92781001  0.32356653  0.65337894  1
  Si0+  Si109  1  0.82249631  0.57353121  0.68416722  1
  Si0+  Si110  1  0.92446483  0.32302176  0.98243482  1
  Si0+  Si111  1  0.42977450  0.82181656  0.98557693  1
  Si0+  Si112  1  0.17750941  0.42982006  0.01564351  1
  Si0+  Si113  1  0.57202275  0.17648119  0.98569781  1
  Si0+  Si114  1  0.32083610  0.57119855  0.01609703  1
  Si0+  Si115  1  0.32161394  0.57533682  0.68472121  1
  Si0+  Si116  1  0.17989695  0.92708175  0.34982738  1
  Si0+  Si117  1  0.07456633  0.67714674  0.31868115  1
  Si0+  Si118  1  0.32219467  0.57146734  0.35002051  1
  Si0+  Si119  1  0.92640851  0.82031742  0.64708832  1
  O2-  O120  1  0.24556909  0.00406725  0.06537119  1
  O2-  O121  1  0.24874744  0.00014157  0.39295121  1
  O2-  O122  1  0.24438782  0.00232749  0.72176665  1
  O2-  O123  1  0.24618632  0.50376455  0.05748495  1
  O2-  O124  1  0.25117644  0.50070209  0.39115735  1
  O2-  O125  1  0.25542532  0.50418360  0.72816525  1
  O2-  O126  1  0.74928223  -0.00231698  0.06434521  1
  O2-  O127  1  0.74511498  0.00448550  0.40038636  1
  O2-  O128  1  0.75085748  0.00771365  0.72595353  1
  O2-  O129  1  0.75404359  0.50113382  0.06311350  1
  O2-  O130  1  0.75335964  0.49640351  0.38999706  1
  O2-  O131  1  0.75557777  0.50174136  0.72617953  1
  O2-  O132  1  -0.00803472  0.24535705  0.26904153  1
  O2-  O133  1  -0.00457660  0.25412367  0.60884847  1
  O2-  O134  1  -0.00828549  0.25347990  0.93762973  1
  O2-  O135  1  0.00866574  0.74638975  0.27378684  1
  O2-  O136  1  -0.00430237  0.75154024  0.60345460  1
  O2-  O137  1  0.00412108  0.75133454  0.93473726  1
  O2-  O138  1  0.50261319  0.24934015  0.26742679  1
  O2-  O139  1  0.50708789  0.25596234  0.60464585  1
  O2-  O140  1  0.50432562  0.24496791  0.93894082  1
  O2-  O141  1  0.50034662  0.76100344  0.27318863  1
  O2-  O142  1  0.50297964  0.75463098  0.61049682  1
  O2-  O143  1  0.50526225  0.75561041  0.94180059  1
  O2-  O144  1  0.06963730  0.18462545  0.09839625  1
  O2-  O145  1  0.07252095  0.18280700  0.43119193  1
  O2-  O146  1  0.07128684  0.17758172  0.76631185  1
  O2-  O147  1  0.07208346  0.67696165  0.09921725  1
  O2-  O148  1  0.07356574  0.67734312  0.42450884  1
  O2-  O149  1  0.07250173  0.68231864  0.76369882  1
  O2-  O150  1  0.56959221  0.17933667  0.09089543  1
  O2-  O151  1  0.57105191  0.17840393  0.43127377  1
  O2-  O152  1  0.56865301  0.17479463  0.76801023  1
  O2-  O153  1  0.56707588  0.67619623  0.08809384  1
  O2-  O154  1  0.56855923  0.67951079  0.43380638  1
  O2-  O155  1  0.56890629  0.68073422  0.75837907  1
  O2-  O156  1  0.18009710  0.43246128  0.24293007  1
  O2-  O157  1  0.18190094  0.43062829  0.56731520  1
  O2-  O158  1  0.17943961  0.42949873  0.91050172  1
  O2-  O159  1  0.18321133  0.92190619  0.24553078  1
  O2-  O160  1  0.18204448  0.92580436  0.57367104  1
  O2-  O161  1  0.18441268  0.92727533  0.89893432  1
  O2-  O162  1  0.67436892  0.43626804  0.24271582  1
  O2-  O163  1  0.67946337  0.43284719  0.56510669  1
  O2-  O164  1  0.67591612  0.43257728  0.90196340  1
  O2-  O165  1  0.68536027  0.92475215  0.23586144  1
  O2-  O166  1  0.68079046  0.92634067  0.56784500  1
  O2-  O167  1  0.67726813  0.92945533  0.90096508  1
  O2-  O168  1  0.43192774  0.32270705  0.09683179  1
  O2-  O169  1  0.43181682  0.32138088  0.43157897  1
  O2-  O170  1  0.42916041  0.32031398  0.76565847  1
  O2-  O171  1  0.42520408  0.81697377  0.09013294  1
  O2-  O172  1  0.41799077  0.81723901  0.42164847  1
  O2-  O173  1  0.42668470  0.82066338  0.75762793  1
  O2-  O174  1  0.92873422  0.32737253  0.08760750  1
  O2-  O175  1  0.93405914  0.32929957  0.43334553  1
  O2-  O176  1  0.92832426  0.32380674  0.75883977  1
  O2-  O177  1  0.92769908  0.81834360  0.09503504  1
  O2-  O178  1  0.93171063  0.81410584  0.43353548  1
  O2-  O179  1  0.92678276  0.82024824  0.75213573  1
  O2-  O180  1  0.31752106  0.07308245  0.24612660  1
  O2-  O181  1  0.31871194  0.06736251  0.57466766  1
  O2-  O182  1  0.31974628  0.07300184  0.90168282  1
  O2-  O183  1  0.32125844  0.57470837  0.24503661  1
  O2-  O184  1  0.32123464  0.57914415  0.57914032  1
  O2-  O185  1  0.32380630  0.57231786  0.91115388  1
  O2-  O186  1  0.82571481  0.06734295  0.23869581  1
  O2-  O187  1  0.82739510  0.07029166  0.57800561  1
  O2-  O188  1  0.81943370  0.07025892  0.90075551  1
  O2-  O189  1  0.82208841  0.56915798  0.24228027  1
  O2-  O190  1  0.82042458  0.57581765  0.57807458  1
  O2-  O191  1  0.82031763  0.56759834  0.91124470  1
  O2-  O192  1  0.04920956  0.07753292  0.26766044  1
  O2-  O193  1  0.04242241  0.08140105  0.59821795  1
  O2-  O194  1  0.04227323  0.08364386  0.93179869  1
  O2-  O195  1  0.04957108  0.58367152  0.27357524  1
  O2-  O196  1  0.04225467  0.58156447  0.59799504  1
  O2-  O197  1  0.04262073  0.57978730  0.93162322  1
  O2-  O198  1  0.54169042  0.07655104  0.26705062  1
  O2-  O199  1  0.53752369  0.08245740  0.59901738  1
  O2-  O200  1  0.54611002  0.08124978  0.94300121  1
  O2-  O201  1  0.53358595  0.58940167  0.26262476  1
  O2-  O202  1  0.54153362  0.59146827  0.60376456  1
  O2-  O203  1  0.53311220  0.59018170  0.93432695  1
  O2-  O204  1  0.16527861  0.21318756  0.26349790  1
  O2-  O205  1  0.16568730  0.21046489  0.59850064  1
  O2-  O206  1  0.16410442  0.21572990  0.93216764  1
  O2-  O207  1  0.17005524  0.70011738  0.27575797  1
  O2-  O208  1  0.16759222  0.71003849  0.59574044  1
  O2-  O209  1  0.17426569  0.70231795  0.93402433  1
  O2-  O210  1  0.67220003  0.20082071  0.26707881  1
  O2-  O211  1  0.67413760  0.20123681  0.60452275  1
  O2-  O212  1  0.66668337  0.20175710  0.94212804  1
  O2-  O213  1  0.66737179  0.70560521  0.26390126  1
  O2-  O214  1  0.66437578  0.70704577  0.60711355  1
  O2-  O215  1  0.66349746  0.69605929  0.93532638  1
  O2-  O216  1  0.08467337  0.45564471  0.06209787  1
  O2-  O217  1  0.08906645  0.45734091  0.39679930  1
  O2-  O218  1  0.08402142  0.45989684  0.73548574  1
  O2-  O219  1  0.07853148  0.95007758  0.06122300  1
  O2-  O220  1  0.08796731  0.95224635  0.39752494  1
  O2-  O221  1  0.08381858  0.94941684  0.72252334  1
  O2-  O222  1  0.58193563  0.46750136  0.06874234  1
  O2-  O223  1  0.58739299  0.46681574  0.39466155  1
  O2-  O224  1  0.58329588  0.46475428  0.73266477  1
  O2-  O225  1  0.57829494  0.94571513  0.06823886  1
  O2-  O226  1  0.57476389  0.94324109  0.39558155  1
  O2-  O227  1  0.57913467  0.95729310  0.73240042  1
  O2-  O228  1  0.20954225  0.34065220  0.06430487  1
  O2-  O229  1  0.20959432  0.33777252  0.39466764  1
  O2-  O230  1  0.21196432  0.33257221  0.73478580  1
  O2-  O231  1  0.21305863  0.83131288  0.06752570  1
  O2-  O232  1  0.21096891  0.83606823  0.39961042  1
  O2-  O233  1  0.21110736  0.83733536  0.72626891  1
  O2-  O234  1  0.70287272  0.33340036  0.07056577  1
  O2-  O235  1  0.69876675  0.33738231  0.39363389  1
  O2-  O236  1  0.70715740  0.33263301  0.73500300  1
  O2-  O237  1  0.70487683  0.82343581  0.06071261  1
  O2-  O238  1  0.71391039  0.82843716  0.39972305  1
  O2-  O239  1  0.70827788  0.83431016  0.73563409  1
  O2-  O240  1  0.45579410  0.42027141  0.26603422  1
  O2-  O241  1  0.45005697  0.42586840  0.60339345  1
  O2-  O242  1  0.46032951  0.41816289  0.93058246  1
  O2-  O243  1  0.43829092  0.91880630  0.27368022  1
  O2-  O244  1  0.45171946  0.91449091  0.60456666  1
  O2-  O245  1  0.45273005  0.91544388  0.93928224  1
  O2-  O246  1  0.96258675  0.41877250  0.26286301  1
  O2-  O247  1  0.95223970  0.41782882  0.60822338  1
  O2-  O248  1  0.94985061  0.41599707  0.93493919  1
  O2-  O249  1  0.96150723  0.91392003  0.26687621  1
  O2-  O250  1  0.95302529  0.91260625  0.59934624  1
  O2-  O251  1  0.95403982  0.91886640  0.92595264  1
  O2-  O252  1  0.33256796  0.29240306  0.26563932  1
  O2-  O253  1  0.33386619  0.29015755  0.59816399  1
  O2-  O254  1  0.33305792  0.29188479  0.93120404  1
  O2-  O255  1  0.33510241  0.78641842  0.26691474  1
  O2-  O256  1  0.33942142  0.79097254  0.60169667  1
  O2-  O257  1  0.34117015  0.78814988  0.93488989  1
  O2-  O258  1  0.82560245  0.30748955  0.27092865  1
  O2-  O259  1  0.83385307  0.30028016  0.60725711  1
  O2-  O260  1  0.82870884  0.29831014  0.94076309  1
  O2-  O261  1  0.83787979  0.78239242  0.26399062  1
  O2-  O262  1  0.83299924  0.79138839  0.60231710  1
  O2-  O263  1  0.83194018  0.78637278  0.92587581  1
  O2-  O264  1  0.41559474  0.04329969  0.07122446  1
  O2-  O265  1  0.41017037  0.04472220  0.39970106  1
  O2-  O266  1  0.40810184  0.03998581  0.72900518  1
  O2-  O267  1  0.41056774  0.53965486  0.06534229  1
  O2-  O268  1  0.41415825  0.54387805  0.39755340  1
  O2-  O269  1  0.41627818  0.55522272  0.73096599  1
  O2-  O270  1  0.92005797  0.04038238  0.06553957  1
  O2-  O271  1  0.92106667  0.03884401  0.40375201  1
  O2-  O272  1  0.91657290  0.03858394  0.72950067  1
  O2-  O273  1  0.91616065  0.54500199  0.06325302  1
  O2-  O274  1  0.91504570  0.54386076  0.39523117  1
  O2-  O275  1  0.91689835  0.55157034  0.72930684  1
  O2-  O276  1  0.29024121  0.17329079  0.06876186  1
  O2-  O277  1  0.28800781  0.16413816  0.39779296  1
  O2-  O278  1  0.29213229  0.16293529  0.72618914  1
  O2-  O279  1  0.29733666  0.66299378  0.06574292  1
  O2-  O280  1  0.29587107  0.66274082  0.40049773  1
  O2-  O281  1  0.29262212  0.66832140  0.73148848  1
  O2-  O282  1  0.79760936  0.16847575  0.07006397  1
  O2-  O283  1  0.79989221  0.17412777  0.40218902  1
  O2-  O284  1  0.80746135  0.16702423  0.72893875  1
  O2-  O285  1  0.79480976  0.66247675  0.06145757  1
  O2-  O286  1  0.79102267  0.65903371  0.39614109  1
  O2-  O287  1  0.79291175  0.66471794  0.73262201  1
