# generated using pymatgen
data_Ca2Al2SiO7
_symmetry_space_group_name_H-M   'P 1'
_cell_length_a   15.46116773
_cell_length_b   15.46026856
_cell_length_c   15.28488244
_cell_angle_alpha   90.01025611
_cell_angle_beta   90.00695295
_cell_angle_gamma   89.98334042
_symmetry_Int_Tables_number   1
_chemical_formula_structural   Ca2Al2SiO7
_chemical_formula_sum   'Ca48 Al48 Si24 O168'
_cell_volume   3653.60337318
_cell_formula_units_Z   24
loop_
 _symmetry_equiv_pos_site_id
 _symmetry_equiv_pos_as_xyz
  1  'x, y, z'
loop_
 _atom_type_symbol
 _atom_type_oxidation_number
  Ca2+  2.0
  Al0+  0.0
  Si0+  0.0
  O2-  -2.0
loop_
 _atom_site_type_symbol
 _atom_site_label
 _atom_site_symmetry_multiplicity
 _atom_site_fract_x
 _atom_site_fract_y
 _atom_site_fract_z
 _atom_site_occupancy
  Ca2+  Ca0  1  0.17615837  0.08444370  0.17348019  1
  Ca2+  Ca1  1  0.17444394  0.09116094  0.50057228  1
  Ca2+  Ca2  1  0.17528038  0.07336626  0.84617965  1
  Ca2+  Ca3  1  0.16379634  0.58425393  0.17157615  1
  Ca2+  Ca4  1  0.16536151  0.58946235  0.50303882  1
  Ca2+  Ca5  1  0.16513166  0.58834243  0.83726089  1
  Ca2+  Ca6  1  0.67221985  0.08205710  0.17985274  1
  Ca2+  Ca7  1  0.66054234  0.07709222  0.50196458  1
  Ca2+  Ca8  1  0.66176687  0.07827144  0.83010403  1
  Ca2+  Ca9  1  0.65761456  0.57204511  0.16887807  1
  Ca2+  Ca10  1  0.65858364  0.57037486  0.50711377  1
  Ca2+  Ca11  1  0.65918078  0.57512130  0.83909206  1
  Ca2+  Ca12  1  0.07630071  0.32447954  0.16270425  1
  Ca2+  Ca13  1  0.07346682  0.32926601  0.49458432  1
  Ca2+  Ca14  1  0.06790862  0.33538778  0.82901574  1
  Ca2+  Ca15  1  0.08911489  0.82477464  0.16160383  1
  Ca2+  Ca16  1  0.07887461  0.82546339  0.49647800  1
  Ca2+  Ca17  1  0.08350859  0.82710312  0.82681779  1
  Ca2+  Ca18  1  0.57860191  0.33283643  0.16395519  1
  Ca2+  Ca19  1  0.58658918  0.32468167  0.49337378  1
  Ca2+  Ca20  1  0.58336137  0.33068566  0.82881138  1
  Ca2+  Ca21  1  0.57984230  0.83603724  0.16472523  1
  Ca2+  Ca22  1  0.57848689  0.83989867  0.49608529  1
  Ca2+  Ca23  1  0.58222399  0.82247860  0.82066805  1
  Ca2+  Ca24  1  0.33960883  0.41610436  0.17300106  1
  Ca2+  Ca25  1  0.33314488  0.41514222  0.50143226  1
  Ca2+  Ca26  1  0.33354501  0.41852151  0.84070629  1
  Ca2+  Ca27  1  0.33253503  0.92685762  0.17164030  1
  Ca2+  Ca28  1  0.34136796  0.91908459  0.50135042  1
  Ca2+  Ca29  1  0.33154188  0.91948281  0.84000085  1
  Ca2+  Ca30  1  0.82209560  0.41291503  0.16938103  1
  Ca2+  Ca31  1  0.82315915  0.41403734  0.50601001  1
  Ca2+  Ca32  1  0.82469543  0.41228172  0.83704811  1
  Ca2+  Ca33  1  0.82487110  0.92273305  0.17766794  1
  Ca2+  Ca34  1  0.82505790  0.92056367  0.50457114  1
  Ca2+  Ca35  1  0.82924039  0.90933955  0.83224277  1
  Ca2+  Ca36  1  0.41639055  0.17164877  0.16717926  1
  Ca2+  Ca37  1  0.42889126  0.16862796  0.48974755  1
  Ca2+  Ca38  1  0.41939217  0.16909640  0.83142422  1
  Ca2+  Ca39  1  0.42267893  0.67533946  0.16426446  1
  Ca2+  Ca40  1  0.42193254  0.68003327  0.49992021  1
  Ca2+  Ca41  1  0.42757474  0.67204418  0.82844235  1
  Ca2+  Ca42  1  0.91702832  0.16609073  0.16552609  1
  Ca2+  Ca43  1  0.91664879  0.16860154  0.49423069  1
  Ca2+  Ca44  1  0.91045402  0.17862984  0.83011898  1
  Ca2+  Ca45  1  0.92652122  0.66492600  0.16283311  1
  Ca2+  Ca46  1  0.92308994  0.66954352  0.49921186  1
  Ca2+  Ca47  1  0.92827706  0.67163490  0.82559268  1
  Al0+  Al48  1  -0.00047610  -0.00232062  0.00415990  1
  Al0+  Al49  1  0.00031482  -0.00124647  0.33326393  1
  Al0+  Al50  1  0.00197253  0.00064118  0.66603950  1
  Al0+  Al51  1  -0.00092516  0.50038229  -0.00734809  1
  Al0+  Al52  1  -0.00040603  0.50018977  0.33009940  1
  Al0+  Al53  1  -0.00061682  0.49804117  0.65950635  1
  Al0+  Al54  1  0.49958944  0.00146774  0.00405232  1
  Al0+  Al55  1  0.49841000  0.00150577  0.33083214  1
  Al0+  Al56  1  0.50134812  0.00183769  0.66719928  1
  Al0+  Al57  1  0.49856186  0.49892952  -0.00273003  1
  Al0+  Al58  1  0.49788278  0.50182985  0.33774506  1
  Al0+  Al59  1  0.49684865  0.50056004  0.66933867  1
  Al0+  Al60  1  0.25003385  0.25069164  -0.00114200  1
  Al0+  Al61  1  0.24755292  0.25086351  0.33200131  1
  Al0+  Al62  1  0.24920994  0.25155942  0.67190126  1
  Al0+  Al63  1  0.25154135  0.74938051  0.00065037  1
  Al0+  Al64  1  0.25175247  0.74978672  0.32563790  1
  Al0+  Al65  1  0.25226993  0.75035646  0.66146792  1
  Al0+  Al66  1  0.74861617  0.24947651  0.00047397  1
  Al0+  Al67  1  0.75001126  0.25077264  0.33703957  1
  Al0+  Al68  1  0.74928861  0.25044441  0.66372902  1
  Al0+  Al69  1  0.75187651  0.74724161  -0.00164495  1
  Al0+  Al70  1  0.75108603  0.74790047  0.33666929  1
  Al0+  Al71  1  0.75244339  0.74732806  0.66327554  1
  Al0+  Al72  1  0.56900486  0.18101196  0.65389821  1
  Al0+  Al73  1  0.42850816  0.32025891  0.98557920  1
  Al0+  Al74  1  0.17895304  0.92674237  0.01581890  1
  Al0+  Al75  1  0.92803383  0.82422703  0.65050201  1
  Al0+  Al76  1  0.57229476  0.18011090  0.31715748  1
  Al0+  Al77  1  0.43179066  0.82205222  0.65304768  1
  Al0+  Al78  1  0.67842105  0.42958481  0.01418210  1
  Al0+  Al79  1  0.07216941  0.68045679  0.98561195  1
  Al0+  Al80  1  0.67863174  0.42934503  0.68231054  1
  Al0+  Al81  1  0.31820750  0.07235302  0.34920496  1
  Al0+  Al82  1  0.43103378  0.82211145  0.31750450  1
  Al0+  Al83  1  0.67985952  0.92815996  0.68101875  1
  Al0+  Al84  1  0.06991941  0.67994130  0.31758820  1
  Al0+  Al85  1  0.67772695  0.43142282  0.34780435  1
  Al0+  Al86  1  0.32177834  0.07339909  0.01723799  1
  Al0+  Al87  1  0.57282057  0.67562506  0.65163836  1
  Al0+  Al88  1  0.92809037  0.31858625  0.98694966  1
  Al0+  Al89  1  0.67765844  0.92828869  0.34788483  1
  Al0+  Al90  1  0.82348077  0.07148260  0.34907720  1
  Al0+  Al91  1  0.57144930  0.67943069  0.98779808  1
  Al0+  Al92  1  0.42889699  0.32267711  0.32030353  1
  Al0+  Al93  1  0.92856573  0.31911397  0.65156425  1
  Al0+  Al94  1  0.07030170  0.17757034  0.32030484  1
  Al0+  Al95  1  0.07177610  0.67958880  0.65073856  1
  Si0+  Si96  1  0.31954174  0.57284978  0.34915050  1
  Si0+  Si97  1  0.17978585  0.92549029  0.35114230  1
  Si0+  Si98  1  0.92770156  0.32174865  0.31581225  1
  Si0+  Si99  1  0.17587949  0.43027618  0.01418513  1
  Si0+  Si100  1  0.82516175  0.57058552  0.35089093  1
  Si0+  Si101  1  0.57327096  0.67722905  0.31814106  1
  Si0+  Si102  1  0.32147518  0.07239723  0.68220322  1
  Si0+  Si103  1  0.68022775  0.92602208  0.01271062  1
  Si0+  Si104  1  0.57270287  0.17696441  0.98279316  1
  Si0+  Si105  1  0.92747593  0.82320610  0.98420600  1
  Si0+  Si106  1  0.92651132  0.82134603  0.31550398  1
  Si0+  Si107  1  0.82344565  0.57165572  0.01610205  1
  Si0+  Si108  1  0.31850038  0.57213837  0.68294203  1
  Si0+  Si109  1  0.82384252  0.07176096  0.68430778  1
  Si0+  Si110  1  0.32060791  0.56909403  0.01579184  1
  Si0+  Si111  1  0.07171454  0.17599728  0.98354345  1
  Si0+  Si112  1  0.81966526  0.07120986  0.01332521  1
  Si0+  Si113  1  0.17747329  0.43012717  0.34757968  1
  Si0+  Si114  1  0.42479261  0.32240071  0.65161545  1
  Si0+  Si115  1  0.43057110  0.82339943  0.98404253  1
  Si0+  Si116  1  0.18017890  0.92853335  0.67993343  1
  Si0+  Si117  1  0.07432012  0.17868204  0.65273590  1
  Si0+  Si118  1  0.82496895  0.57022234  0.68396209  1
  Si0+  Si119  1  0.17772756  0.42880348  0.68267855  1
  O2-  O120  1  0.24776568  0.00192459  0.06538920  1
  O2-  O121  1  0.24453263  -0.00323638  0.39756482  1
  O2-  O122  1  0.25007984  0.00067984  0.72262170  1
  O2-  O123  1  0.24805550  0.49925357  0.05811476  1
  O2-  O124  1  0.24856900  0.50087097  0.39049868  1
  O2-  O125  1  0.24740087  0.50077753  0.72547410  1
  O2-  O126  1  0.75043426  -0.00203319  0.05410717  1
  O2-  O127  1  0.74953422  0.00086011  0.39776354  1
  O2-  O128  1  0.75809513  -0.00005471  0.72907967  1
  O2-  O129  1  0.75285358  0.50519225  0.06070424  1
  O2-  O130  1  0.75262578  0.50618171  0.39459134  1
  O2-  O131  1  0.75139510  0.50686715  0.72902482  1
  O2-  O132  1  -0.00738751  0.24880885  0.27274074  1
  O2-  O133  1  0.00305844  0.24326937  0.60736167  1
  O2-  O134  1  0.00237843  0.24345103  0.93859121  1
  O2-  O135  1  -0.00399730  0.75420492  0.26976694  1
  O2-  O136  1  -0.00053083  0.75102315  0.60137250  1
  O2-  O137  1  0.00015667  0.75807514  0.94089811  1
  O2-  O138  1  0.50136677  0.25337110  0.26762978  1
  O2-  O139  1  0.49503504  0.25672266  0.60790606  1
  O2-  O140  1  0.50189676  0.24428495  0.93963652  1
  O2-  O141  1  0.51098695  0.75130011  0.27314250  1
  O2-  O142  1  0.50820378  0.75465010  0.60260257  1
  O2-  O143  1  0.50250273  0.75877043  0.94001194  1
  O2-  O144  1  0.07036522  0.17828414  0.08906570  1
  O2-  O145  1  0.07189690  0.18385888  0.43358963  1
  O2-  O146  1  0.07630595  0.18155337  0.75831752  1
  O2-  O147  1  0.06958754  0.67828471  0.09861946  1
  O2-  O148  1  0.06931050  0.67995040  0.43022604  1
  O2-  O149  1  0.07282355  0.68140755  0.76450857  1
  O2-  O150  1  0.57611936  0.17702450  0.08777900  1
  O2-  O151  1  0.57020227  0.18088751  0.43077578  1
  O2-  O152  1  0.56638445  0.18025630  0.76755116  1
  O2-  O153  1  0.56804680  0.68039110  0.10100123  1
  O2-  O154  1  0.56886685  0.67425422  0.42326903  1
  O2-  O155  1  0.56707538  0.67510481  0.76563720  1
  O2-  O156  1  0.17600488  0.43190419  0.24232465  1
  O2-  O157  1  0.18022740  0.42528384  0.57765293  1
  O2-  O158  1  0.17629879  0.43255619  0.90883128  1
  O2-  O159  1  0.18284697  0.92504236  0.24565763  1
  O2-  O160  1  0.17991613  0.92883201  0.57513200  1
  O2-  O161  1  0.18122797  0.92717748  0.90127352  1
  O2-  O162  1  0.67773320  0.43322542  0.23427963  1
  O2-  O163  1  0.67994710  0.42904249  0.56939251  1
  O2-  O164  1  0.67962581  0.42912540  0.90116984  1
  O2-  O165  1  0.68114445  0.92770436  0.23313273  1
  O2-  O166  1  0.67711045  0.93311300  0.56888363  1
  O2-  O167  1  0.68096061  0.92554516  0.90760217  1
  O2-  O168  1  0.42998732  0.32331569  0.09800123  1
  O2-  O169  1  0.42835242  0.32210306  0.43408488  1
  O2-  O170  1  0.42188102  0.32005933  0.75726479  1
  O2-  O171  1  0.43099802  0.82208827  0.08959379  1
  O2-  O172  1  0.42825662  0.81870959  0.43029255  1
  O2-  O173  1  0.42914307  0.81964778  0.76704735  1
  O2-  O174  1  0.92932061  0.31699196  0.09983271  1
  O2-  O175  1  0.93135505  0.32453533  0.42137562  1
  O2-  O176  1  0.92978949  0.31888987  0.76506723  1
  O2-  O177  1  0.92413009  0.82157298  0.08951380  1
  O2-  O178  1  0.92799244  0.81963270  0.42075708  1
  O2-  O179  1  0.93275786  0.82393667  0.76474592  1
  O2-  O180  1  0.31612025  0.07289807  0.23653825  1
  O2-  O181  1  0.31923593  0.07583414  0.57741730  1
  O2-  O182  1  0.32140098  0.07096578  0.90266395  1
  O2-  O183  1  0.31971168  0.57244142  0.24380644  1
  O2-  O184  1  0.31761043  0.57149593  0.57778209  1
  O2-  O185  1  0.31975439  0.56889709  0.91043946  1
  O2-  O186  1  0.82271106  0.06901406  0.23441255  1
  O2-  O187  1  0.82451634  0.07192653  0.57933462  1
  O2-  O188  1  0.81947926  0.07273968  0.90826107  1
  O2-  O189  1  0.82910529  0.56800318  0.24519674  1
  O2-  O190  1  0.82883711  0.56519621  0.57849727  1
  O2-  O191  1  0.82461431  0.57151308  0.91083993  1
  O2-  O192  1  0.04530979  0.07944133  0.26640516  1
  O2-  O193  1  0.05521274  0.08385999  0.60764056  1
  O2-  O194  1  0.04750996  0.08081688  0.93988146  1
  O2-  O195  1  0.03934122  0.58275405  0.26367923  1
  O2-  O196  1  0.04569305  0.58065971  0.59835834  1
  O2-  O197  1  0.04055520  0.58516508  0.92963616  1
  O2-  O198  1  0.54343090  0.08248900  0.26414138  1
  O2-  O199  1  0.53693625  0.08581384  0.59973747  1
  O2-  O200  1  0.54703812  0.08247300  0.93738736  1
  O2-  O201  1  0.53812387  0.58711888  0.27063327  1
  O2-  O202  1  0.53396998  0.58037991  0.59870757  1
  O2-  O203  1  0.53442099  0.58565763  0.93305779  1
  O2-  O204  1  0.16320245  0.21468740  0.26369364  1
  O2-  O205  1  0.16648216  0.20951283  0.60595356  1
  O2-  O206  1  0.16481786  0.20221777  0.93738590  1
  O2-  O207  1  0.16639575  0.70873804  0.26272733  1
  O2-  O208  1  0.16939647  0.70850332  0.59737343  1
  O2-  O209  1  0.17048969  0.70771224  0.93281969  1
  O2-  O210  1  0.67209353  0.20757159  0.26635315  1
  O2-  O211  1  0.66524465  0.20957614  0.60010959  1
  O2-  O212  1  0.66482412  0.20437408  0.93500454  1
  O2-  O213  1  0.67012567  0.69321542  0.27505392  1
  O2-  O214  1  0.67479238  0.69051919  0.60360525  1
  O2-  O215  1  0.67016392  0.70311916  0.93461652  1
  O2-  O216  1  0.08463740  0.45999605  0.06161283  1
  O2-  O217  1  0.08606039  0.45917330  0.39565059  1
  O2-  O218  1  0.08497436  0.45628287  0.72828411  1
  O2-  O219  1  0.07817848  0.94849283  0.06766640  1
  O2-  O220  1  0.08391021  0.94621717  0.39379829  1
  O2-  O221  1  0.08851047  0.95488815  0.72924864  1
  O2-  O222  1  0.58164817  0.46256977  0.06665687  1
  O2-  O223  1  0.58153401  0.46244550  0.40312749  1
  O2-  O224  1  0.57937701  0.45706095  0.73435839  1
  O2-  O225  1  0.58778818  0.95204572  0.05922044  1
  O2-  O226  1  0.57882526  0.95712464  0.39842631  1
  O2-  O227  1  0.58439714  0.96308360  0.73701623  1
  O2-  O228  1  0.20016948  0.33683206  0.05935179  1
  O2-  O229  1  0.20463894  0.33941296  0.39682162  1
  O2-  O230  1  0.20559317  0.33843197  0.73417629  1
  O2-  O231  1  0.21018340  0.82898510  0.06895431  1
  O2-  O232  1  0.20993959  0.83223076  0.39554779  1
  O2-  O233  1  0.21034091  0.83693423  0.72697075  1
  O2-  O234  1  0.71074961  0.33300196  0.06746149  1
  O2-  O235  1  0.70928271  0.33542492  0.40142994  1
  O2-  O236  1  0.71266657  0.33269481  0.73510936  1
  O2-  O237  1  0.70857021  0.83469006  0.06088575  1
  O2-  O238  1  0.70397362  0.82832283  0.39944487  1
  O2-  O239  1  0.70832329  0.82885070  0.73264863  1
  O2-  O240  1  0.45443699  0.42320943  0.26950298  1
  O2-  O241  1  0.44508793  0.41787009  0.60870697  1
  O2-  O242  1  0.45901687  0.41598931  0.92963069  1
  O2-  O243  1  0.45761935  0.91849480  0.26220905  1
  O2-  O244  1  0.45571312  0.92154060  0.60184580  1
  O2-  O245  1  0.45158397  0.91878314  0.93997337  1
  O2-  O246  1  0.95852208  0.41293128  0.26802513  1
  O2-  O247  1  0.96193685  0.41280859  0.59487844  1
  O2-  O248  1  0.95982366  0.41376260  0.93085127  1
  O2-  O249  1  0.95037047  0.91540965  0.27017233  1
  O2-  O250  1  0.95778244  0.92261156  0.59836195  1
  O2-  O251  1  0.94811214  0.91834298  0.93872058  1
  O2-  O252  1  0.32968451  0.29597620  0.26839808  1
  O2-  O253  1  0.33075710  0.29611381  0.60623131  1
  O2-  O254  1  0.33024902  0.29378886  0.93076532  1
  O2-  O255  1  0.33794176  0.78489143  0.26076196  1
  O2-  O256  1  0.33619745  0.78933607  0.59745292  1
  O2-  O257  1  0.33824526  0.79296105  0.93860279  1
  O2-  O258  1  0.83334049  0.29918720  0.27156232  1
  O2-  O259  1  0.83340885  0.28863598  0.59686670  1
  O2-  O260  1  0.83226817  0.28597187  0.93214089  1
  O2-  O261  1  0.83313850  0.79400687  0.26902913  1
  O2-  O262  1  0.83027981  0.79700927  0.59714080  1
  O2-  O263  1  0.83628430  0.79314856  0.93534102  1
  O2-  O264  1  0.42033181  0.04536251  0.07037880  1
  O2-  O265  1  0.41541400  0.04150248  0.40070031  1
  O2-  O266  1  0.41225304  0.04462811  0.73071146  1
  O2-  O267  1  0.41075944  0.53878162  0.06413544  1
  O2-  O268  1  0.40970440  0.54607767  0.39972975  1
  O2-  O269  1  0.40877719  0.54358674  0.73315161  1
  O2-  O270  1  0.91230408  0.04686721  0.06125343  1
  O2-  O271  1  0.92235098  0.04339177  0.40219240  1
  O2-  O272  1  0.91958456  0.05157940  0.73020570  1
  O2-  O273  1  0.91667738  0.54254407  0.06189950  1
  O2-  O274  1  0.91716535  0.54058518  0.39867288  1
  O2-  O275  1  0.91745107  0.53852234  0.73063468  1
  O2-  O276  1  0.29314687  0.17289057  0.06801527  1
  O2-  O277  1  0.28420556  0.16862213  0.40316665  1
  O2-  O278  1  0.29245598  0.16362372  0.73179524  1
  O2-  O279  1  0.29489620  0.66135952  0.06326216  1
  O2-  O280  1  0.28821038  0.66375484  0.39604324  1
  O2-  O281  1  0.29007083  0.66381586  0.73082322  1
  O2-  O282  1  0.79016530  0.16114883  0.06296705  1
  O2-  O283  1  0.80005818  0.17140440  0.40017443  1
  O2-  O284  1  0.79235737  0.16401015  0.73034058  1
  O2-  O285  1  0.80132458  0.66595439  0.06320301  1
  O2-  O286  1  0.80540905  0.66578972  0.39559915  1
  O2-  O287  1  0.80797538  0.66674766  0.72718426  1
