# generated using pymatgen
data_Ca2Al2SiO7
_symmetry_space_group_name_H-M   'P 1'
_cell_length_a   15.46128003
_cell_length_b   15.46318616
_cell_length_c   15.28681441
_cell_angle_alpha   90.00616114
_cell_angle_beta   89.99948374
_cell_angle_gamma   90.00447258
_symmetry_Int_Tables_number   1
_chemical_formula_structural   Ca2Al2SiO7
_chemical_formula_sum   'Ca48 Al48 Si24 O168'
_cell_volume   3654.78151437
_cell_formula_units_Z   24
loop_
 _symmetry_equiv_pos_site_id
 _symmetry_equiv_pos_as_xyz
  1  'x, y, z'
loop_
 _atom_type_symbol
 _atom_type_oxidation_number
  Ca2+  2.0
  Al0+  0.0
  Si0+  0.0
  O2-  -2.0
loop_
 _atom_site_type_symbol
 _atom_site_label
 _atom_site_symmetry_multiplicity
 _atom_site_fract_x
 _atom_site_fract_y
 _atom_site_fract_z
 _atom_site_occupancy
  Ca2+  Ca0  1  0.17303848  0.09119127  0.16534043  1
  Ca2+  Ca1  1  0.17556898  0.08174755  0.50628999  1
  Ca2+  Ca2  1  0.17947398  0.09294862  0.83831488  1
  Ca2+  Ca3  1  0.16818387  0.57610537  0.17637030  1
  Ca2+  Ca4  1  0.17289715  0.57564033  0.50623007  1
  Ca2+  Ca5  1  0.17381114  0.57453752  0.83069530  1
  Ca2+  Ca6  1  0.67210405  0.08829967  0.16572657  1
  Ca2+  Ca7  1  0.66592846  0.07988978  0.50468370  1
  Ca2+  Ca8  1  0.66164597  0.07934731  0.84134854  1
  Ca2+  Ca9  1  0.66337238  0.56849055  0.16918042  1
  Ca2+  Ca10  1  0.66780021  0.57741303  0.50774434  1
  Ca2+  Ca11  1  0.66703768  0.57922541  0.83529907  1
  Ca2+  Ca12  1  0.07595867  0.33092865  0.16455415  1
  Ca2+  Ca13  1  0.07391102  0.34624391  0.49746297  1
  Ca2+  Ca14  1  0.07899362  0.32996966  0.82732217  1
  Ca2+  Ca15  1  0.08443711  0.82618825  0.16424094  1
  Ca2+  Ca16  1  0.08350605  0.82341967  0.49144843  1
  Ca2+  Ca17  1  0.07973413  0.83256856  0.83067515  1
  Ca2+  Ca18  1  0.57670246  0.33403799  0.15761237  1
  Ca2+  Ca19  1  0.57169751  0.33482336  0.49454404  1
  Ca2+  Ca20  1  0.57885658  0.32208851  0.82774155  1
  Ca2+  Ca21  1  0.57567676  0.83699212  0.16102925  1
  Ca2+  Ca22  1  0.58416410  0.82731191  0.50079903  1
  Ca2+  Ca23  1  0.58387383  0.83612087  0.82703435  1
  Ca2+  Ca24  1  0.32923722  0.40989061  0.17495123  1
  Ca2+  Ca25  1  0.32342599  0.40979234  0.50825158  1
  Ca2+  Ca26  1  0.34194412  0.41655718  0.83379004  1
  Ca2+  Ca27  1  0.34434489  0.92336258  0.16697963  1
  Ca2+  Ca28  1  0.33746012  0.92074940  0.50481363  1
  Ca2+  Ca29  1  0.34027042  0.93084181  0.83883926  1
  Ca2+  Ca30  1  0.81833765  0.40525576  0.17172936  1
  Ca2+  Ca31  1  0.83079238  0.41638071  0.50367530  1
  Ca2+  Ca32  1  0.82877862  0.41781094  0.83424227  1
  Ca2+  Ca33  1  0.82934319  0.93051871  0.16846318  1
  Ca2+  Ca34  1  0.82980228  0.92628496  0.50688696  1
  Ca2+  Ca35  1  0.81755039  0.92283014  0.84150796  1
  Ca2+  Ca36  1  0.42157683  0.17804001  0.15505445  1
  Ca2+  Ca37  1  0.41969634  0.17232897  0.50232846  1
  Ca2+  Ca38  1  0.42314568  0.16945195  0.82804792  1
  Ca2+  Ca39  1  0.41387209  0.68065162  0.16199732  1
  Ca2+  Ca40  1  0.41849597  0.66833205  0.49790682  1
  Ca2+  Ca41  1  0.42428911  0.67190684  0.82650361  1
  Ca2+  Ca42  1  0.91786080  0.16437748  0.16188196  1
  Ca2+  Ca43  1  0.91399730  0.17894254  0.49387122  1
  Ca2+  Ca44  1  0.92073221  0.16659776  0.83041433  1
  Ca2+  Ca45  1  0.92563625  0.66127886  0.16580917  1
  Ca2+  Ca46  1  0.92160588  0.66124459  0.49624698  1
  Ca2+  Ca47  1  0.91315648  0.66577058  0.82464606  1
  Al0+  Al48  1  0.00097023  -0.00234639  -0.00187405  1
  Al0+  Al49  1  0.00122800  -0.00002790  0.33866203  1
  Al0+  Al50  1  -0.00059381  -0.00053001  0.66530441  1
  Al0+  Al51  1  0.00251491  0.50016616  -0.00113969  1
  Al0+  Al52  1  -0.00015310  0.49859146  0.32582331  1
  Al0+  Al53  1  0.00012639  0.50048821  0.67201839  1
  Al0+  Al54  1  0.49834412  0.00084488  0.00294060  1
  Al0+  Al55  1  0.50187618  -0.00055445  0.33135969  1
  Al0+  Al56  1  0.49925770  -0.00006169  0.66875891  1
  Al0+  Al57  1  0.49910596  0.50451740  0.00205341  1
  Al0+  Al58  1  0.49940518  0.50093343  0.33360946  1
  Al0+  Al59  1  0.49919643  0.50082116  0.66257992  1
  Al0+  Al60  1  0.24699698  0.25138782  -0.00172223  1
  Al0+  Al61  1  0.24970790  0.24942486  0.33662527  1
  Al0+  Al62  1  0.24809862  0.24742263  0.67082475  1
  Al0+  Al63  1  0.25029374  0.74921802  -0.00628108  1
  Al0+  Al64  1  0.24976906  0.75070568  0.32476192  1
  Al0+  Al65  1  0.24878268  0.74839071  0.67103901  1
  Al0+  Al66  1  0.74957531  0.25177052  0.00260381  1
  Al0+  Al67  1  0.75007349  0.24977400  0.33991416  1
  Al0+  Al68  1  0.75198118  0.24892240  0.65912351  1
  Al0+  Al69  1  0.75205785  0.74971411  0.00744348  1
  Al0+  Al70  1  0.75063320  0.75082761  0.33041449  1
  Al0+  Al71  1  0.74935141  0.75099257  0.66861255  1
  Al0+  Al72  1  0.43006084  0.82148678  0.98413520  1
  Al0+  Al73  1  0.57224288  0.67938138  0.65396702  1
  Al0+  Al74  1  0.67688845  0.42981507  0.34885924  1
  Al0+  Al75  1  0.31932170  0.06889338  0.68008899  1
  Al0+  Al76  1  0.42791486  0.32036533  0.32029565  1
  Al0+  Al77  1  0.68089193  0.93107238  0.67883350  1
  Al0+  Al78  1  0.81952622  0.56993149  0.67777822  1
  Al0+  Al79  1  0.42798987  0.32069909  0.65126862  1
  Al0+  Al80  1  0.67683516  0.92809902  0.01756583  1
  Al0+  Al81  1  0.82276522  0.07160729  0.01343189  1
  Al0+  Al82  1  0.93108904  0.32175171  0.65321290  1
  Al0+  Al83  1  0.42725412  0.32464835  0.98553995  1
  Al0+  Al84  1  0.43084596  0.82042254  0.32029416  1
  Al0+  Al85  1  0.17879842  0.42884198  0.68310755  1
  Al0+  Al86  1  0.06919070  0.17785588  0.98682613  1
  Al0+  Al87  1  0.32350860  0.57214436  0.68253543  1
  Al0+  Al88  1  0.57169057  0.17604183  0.65037516  1
  Al0+  Al89  1  0.67900721  0.43122335  0.01093581  1
  Al0+  Al90  1  0.92845318  0.31961763  0.31868564  1
  Al0+  Al91  1  0.06907738  0.67923914  0.31981569  1
  Al0+  Al92  1  0.82214953  0.07022714  0.34970665  1
  Al0+  Al93  1  0.17923284  0.42882299  0.34625484  1
  Al0+  Al94  1  0.57198603  0.18080349  0.98653104  1
  Al0+  Al95  1  0.31881317  0.07192195  0.01522837  1
  Si0+  Si96  1  0.07104615  0.67736910  0.98103641  1
  Si0+  Si97  1  0.17518218  0.92602262  0.68299241  1
  Si0+  Si98  1  0.57476173  0.67709414  0.31529337  1
  Si0+  Si99  1  0.82541203  0.57198799  0.01822349  1
  Si0+  Si100  1  0.92932017  0.81913056  0.98475414  1
  Si0+  Si101  1  0.82372594  0.07392223  0.68343252  1
  Si0+  Si102  1  0.42698442  0.82106479  0.65144302  1
  Si0+  Si103  1  0.17842113  0.92518343  0.01686305  1
  Si0+  Si104  1  0.32228765  0.07021341  0.34828453  1
  Si0+  Si105  1  0.31976541  0.57260165  0.01625020  1
  Si0+  Si106  1  0.07216815  0.17540768  0.31820154  1
  Si0+  Si107  1  0.18032349  0.92728122  0.34696750  1
  Si0+  Si108  1  0.92812710  0.82090585  0.65187466  1
  Si0+  Si109  1  0.57177067  0.17844484  0.31688566  1
  Si0+  Si110  1  0.32038328  0.57473263  0.34787530  1
  Si0+  Si111  1  0.92813432  0.82494759  0.31634249  1
  Si0+  Si112  1  0.67722012  0.92717913  0.35145489  1
  Si0+  Si113  1  0.92761095  0.32292225  0.98327521  1
  Si0+  Si114  1  0.57401616  0.67969775  0.98464743  1
  Si0+  Si115  1  0.67702876  0.42596458  0.68157236  1
  Si0+  Si116  1  0.17841511  0.42999515  0.01715868  1
  Si0+  Si117  1  0.07178291  0.17599690  0.64852619  1
  Si0+  Si118  1  0.82187609  0.57222763  0.34735350  1
  Si0+  Si119  1  0.07028394  0.68015082  0.65240840  1
  O2-  O120  1  0.24525966  -0.00513085  0.06221151  1
  O2-  O121  1  0.25154185  -0.00250531  0.38939070  1
  O2-  O122  1  0.24299696  -0.00515869  0.72643944  1
  O2-  O123  1  0.25286505  0.49792599  0.05887326  1
  O2-  O124  1  0.25684968  0.50134769  0.39174196  1
  O2-  O125  1  0.25729814  0.49440185  0.73311726  1
  O2-  O126  1  0.74752209  0.00317257  0.06476967  1
  O2-  O127  1  0.74781823  -0.00592248  0.39501077  1
  O2-  O128  1  0.75145889  0.00915882  0.72636412  1
  O2-  O129  1  0.75626426  0.50343466  0.06027122  1
  O2-  O130  1  0.75068185  0.50749777  0.39257541  1
  O2-  O131  1  0.74528800  0.49579949  0.72541611  1
  O2-  O132  1  0.00224604  0.24280529  0.27427146  1
  O2-  O133  1  0.00459606  0.24593896  0.60489078  1
  O2-  O134  1  -0.00735266  0.25054145  0.93998588  1
  O2-  O135  1  -0.00667923  0.75291232  0.27176833  1
  O2-  O136  1  0.00134756  0.75256935  0.60887242  1
  O2-  O137  1  -0.00233948  0.74632883  0.93999543  1
  O2-  O138  1  0.50429854  0.24831769  0.27304532  1
  O2-  O139  1  0.50324613  0.25199998  0.60067116  1
  O2-  O140  1  0.49909159  0.25211502  0.93687499  1
  O2-  O141  1  0.50590850  0.74648186  0.27262588  1
  O2-  O142  1  0.49330270  0.75025737  0.60721259  1
  O2-  O143  1  0.51052391  0.75242468  0.93937597  1
  O2-  O144  1  0.06996945  0.18094198  0.10027733  1
  O2-  O145  1  0.07268836  0.17267479  0.42355002  1
  O2-  O146  1  0.06892015  0.17341919  0.75410852  1
  O2-  O147  1  0.07128318  0.67710524  0.08628342  1
  O2-  O148  1  0.06926368  0.68172456  0.43306382  1
  O2-  O149  1  0.06851482  0.68215854  0.75766607  1
  O2-  O150  1  0.57177768  0.18379459  0.10055956  1
  O2-  O151  1  0.56818118  0.17580405  0.42241492  1
  O2-  O152  1  0.57079272  0.17531419  0.76372819  1
  O2-  O153  1  0.56983518  0.67769629  0.09035145  1
  O2-  O154  1  0.57652611  0.67853379  0.42088540  1
  O2-  O155  1  0.57441085  0.68311648  0.76694746  1
  O2-  O156  1  0.17981576  0.43001813  0.23269813  1
  O2-  O157  1  0.17662213  0.43494613  0.56931597  1
  O2-  O158  1  0.17291573  0.43376510  0.91272247  1
  O2-  O159  1  0.17845116  0.92643987  0.24231177  1
  O2-  O160  1  0.17432050  0.92447244  0.57693024  1
  O2-  O161  1  0.17819643  0.92326217  0.91136507  1
  O2-  O162  1  0.67744737  0.43031651  0.23544783  1
  O2-  O163  1  0.67870129  0.42864242  0.57586881  1
  O2-  O164  1  0.68130189  0.43402993  0.89793822  1
  O2-  O165  1  0.67633729  0.92776972  0.24629940  1
  O2-  O166  1  0.68471995  0.92922749  0.56546367  1
  O2-  O167  1  0.68068794  0.92485708  0.90396033  1
  O2-  O168  1  0.42777601  0.32301284  0.09974494  1
  O2-  O169  1  0.42551662  0.31725636  0.43290186  1
  O2-  O170  1  0.43084796  0.31927121  0.76455746  1
  O2-  O171  1  0.42759209  0.81745910  0.09752550  1
  O2-  O172  1  0.42952270  0.81984137  0.43344781  1
  O2-  O173  1  0.42838316  0.82126150  0.75678541  1
  O2-  O174  1  0.93048035  0.32538310  0.08886764  1
  O2-  O175  1  0.93166257  0.32217695  0.43172333  1
  O2-  O176  1  0.93141743  0.32084403  0.76641012  1
  O2-  O177  1  0.93284477  0.81795825  0.08984107  1
  O2-  O178  1  0.93070999  0.82527477  0.42215214  1
  O2-  O179  1  0.92980874  0.81977751  0.75703798  1
  O2-  O180  1  0.32071498  0.07067776  0.24344686  1
  O2-  O181  1  0.31800932  0.06510753  0.56609720  1
  O2-  O182  1  0.31702042  0.07078837  0.90250050  1
  O2-  O183  1  0.31662892  0.57686142  0.24192259  1
  O2-  O184  1  0.31704362  0.58076497  0.56924860  1
  O2-  O185  1  0.31779420  0.57396137  0.91155638  1
  O2-  O186  1  0.82377983  0.06817982  0.23683573  1
  O2-  O187  1  0.82771788  0.06926734  0.57786012  1
  O2-  O188  1  0.82538756  0.06737246  0.90003710  1
  O2-  O189  1  0.82170178  0.57202302  0.24173127  1
  O2-  O190  1  0.82110794  0.57010764  0.56465298  1
  O2-  O191  1  0.82693880  0.57332145  0.91262690  1
  O2-  O192  1  0.04844919  0.08103655  0.27218203  1
  O2-  O193  1  0.04687792  0.08157804  0.60179642  1
  O2-  O194  1  0.04422959  0.07960145  0.93253516  1
  O2-  O195  1  0.03812601  0.58522876  0.26084644  1
  O2-  O196  1  0.03939283  0.58951700  0.60604797  1
  O2-  O197  1  0.04403793  0.58551520  0.93354749  1
  O2-  O198  1  0.54651129  0.08491861  0.27052795  1
  O2-  O199  1  0.53744451  0.07912325  0.59638456  1
  O2-  O200  1  0.54368939  0.08131406  0.93722844  1
  O2-  O201  1  0.54761314  0.58417239  0.26920283  1
  O2-  O202  1  0.54583490  0.58301073  0.59784357  1
  O2-  O203  1  0.54277985  0.58905536  0.93652746  1
  O2-  O204  1  0.16520755  0.20346327  0.27255482  1
  O2-  O205  1  0.16622157  0.19828155  0.60394708  1
  O2-  O206  1  0.16308178  0.21290825  0.93111397  1
  O2-  O207  1  0.16295073  0.71257248  0.26164036  1
  O2-  O208  1  0.16229085  0.70737465  0.60496692  1
  O2-  O209  1  0.16092625  0.70787708  0.93227351  1
  O2-  O210  1  0.66669496  0.20311428  0.27485977  1
  O2-  O211  1  0.67229140  0.19699188  0.59878929  1
  O2-  O212  1  0.67108362  0.20771409  0.93364113  1
  O2-  O213  1  0.66863555  0.70078176  0.26809360  1
  O2-  O214  1  0.66680142  0.71523974  0.59781494  1
  O2-  O215  1  0.67145094  0.69830300  0.94373822  1
  O2-  O216  1  0.08794951  0.46270082  0.06588367  1
  O2-  O217  1  0.08237541  0.46418082  0.39674473  1
  O2-  O218  1  0.08469510  0.46597914  0.73944513  1
  O2-  O219  1  0.08410890  0.94804691  0.06242023  1
  O2-  O220  1  0.08955569  0.95321709  0.39781691  1
  O2-  O221  1  0.08076449  0.95057100  0.72879185  1
  O2-  O222  1  0.58388008  0.46588354  0.06741286  1
  O2-  O223  1  0.58013784  0.46098336  0.40306889  1
  O2-  O224  1  0.58343219  0.45136005  0.72590350  1
  O2-  O225  1  0.57815219  0.95407007  0.06986960  1
  O2-  O226  1  0.58437462  0.95494776  0.39847834  1
  O2-  O227  1  0.58309295  0.95638785  0.73172098  1
  O2-  O228  1  0.20172316  0.33743185  0.06400226  1
  O2-  O229  1  0.20604154  0.33172683  0.40155083  1
  O2-  O230  1  0.19624127  0.32719321  0.73213708  1
  O2-  O231  1  0.20514613  0.83085364  0.06180827  1
  O2-  O232  1  0.20911832  0.83540053  0.39432324  1
  O2-  O233  1  0.19829395  0.83277144  0.73035175  1
  O2-  O234  1  0.70800575  0.33581843  0.06813645  1
  O2-  O235  1  0.70838018  0.33464351  0.40362474  1
  O2-  O236  1  0.70599242  0.33224883  0.72517363  1
  O2-  O237  1  0.70848341  0.83058831  0.07229738  1
  O2-  O238  1  0.70116373  0.83158036  0.39498128  1
  O2-  O239  1  0.71572080  0.83702277  0.73483151  1
  O2-  O240  1  0.45331112  0.41994974  0.26913921  1
  O2-  O241  1  0.44969236  0.42104032  0.59874746  1
  O2-  O242  1  0.45411156  0.42512491  0.93660029  1
  O2-  O243  1  0.46176893  0.91688606  0.26533936  1
  O2-  O244  1  0.45499217  0.91304923  0.60440958  1
  O2-  O245  1  0.45577137  0.91987754  0.93333767  1
  O2-  O246  1  0.95963700  0.41394631  0.26108000  1
  O2-  O247  1  0.96411415  0.41898400  0.60073458  1
  O2-  O248  1  0.95850544  0.41548827  0.93697968  1
  O2-  O249  1  0.96018580  0.91635495  0.27002675  1
  O2-  O250  1  0.95444478  0.91311906  0.60366478  1
  O2-  O251  1  0.95934740  0.90861888  0.93471908  1
  O2-  O252  1  0.33110666  0.28729114  0.26716986  1
  O2-  O253  1  0.32868852  0.28777920  0.60171318  1
  O2-  O254  1  0.32744855  0.29933601  0.93560432  1
  O2-  O255  1  0.33529574  0.79125978  0.26282812  1
  O2-  O256  1  0.33124488  0.79784283  0.60754768  1
  O2-  O257  1  0.33466443  0.78728552  0.92961726  1
  O2-  O258  1  0.83082307  0.28791201  0.26778068  1
  O2-  O259  1  0.83527250  0.29394791  0.59622591  1
  O2-  O260  1  0.83287761  0.30258848  0.93899567  1
  O2-  O261  1  0.83327699  0.80397952  0.27100027  1
  O2-  O262  1  0.83854826  0.79078320  0.60297313  1
  O2-  O263  1  0.83640170  0.79200321  0.93913855  1
  O2-  O264  1  0.41432495  0.04176445  0.07088879  1
  O2-  O265  1  0.41399029  0.04065011  0.39474652  1
  O2-  O266  1  0.41425498  0.03645949  0.73512643  1
  O2-  O267  1  0.41292141  0.55292407  0.06407622  1
  O2-  O268  1  0.41638974  0.55666113  0.39067806  1
  O2-  O269  1  0.42421380  0.54974903  0.73358290  1
  O2-  O270  1  0.92005060  0.03685031  0.06702520  1
  O2-  O271  1  0.91870625  0.03910245  0.40518220  1
  O2-  O272  1  0.91662912  0.04391598  0.72942898  1
  O2-  O273  1  0.91986147  0.54577768  0.06300152  1
  O2-  O274  1  0.91517365  0.54338966  0.39172090  1
  O2-  O275  1  0.91472630  0.54139082  0.73559600  1
  O2-  O276  1  0.28387608  0.16807862  0.06889711  1
  O2-  O277  1  0.29158467  0.15965721  0.39795206  1
  O2-  O278  1  0.28853192  0.16368057  0.73641968  1
  O2-  O279  1  0.28523683  0.66304465  0.06315557  1
  O2-  O280  1  0.28874269  0.66688950  0.39355217  1
  O2-  O281  1  0.28875304  0.66805522  0.73891151  1
  O2-  O282  1  0.79948863  0.17141380  0.06583693  1
  O2-  O283  1  0.79124136  0.16547336  0.40507033  1
  O2-  O284  1  0.80402663  0.16974506  0.72587695  1
  O2-  O285  1  0.80342280  0.66528142  0.06644451  1
  O2-  O286  1  0.80277450  0.66889630  0.39130995  1
  O2-  O287  1  0.79006398  0.66622561  0.73345288  1
