# generated using pymatgen
data_Ca2Al2SiO7
_symmetry_space_group_name_H-M   'P 1'
_cell_length_a   15.45935296
_cell_length_b   15.45872954
_cell_length_c   15.28454730
_cell_angle_alpha   89.99406897
_cell_angle_beta   89.99247073
_cell_angle_gamma   89.99681466
_symmetry_Int_Tables_number   1
_chemical_formula_structural   Ca2Al2SiO7
_chemical_formula_sum   'Ca48 Al48 Si24 O168'
_cell_volume   3652.73095687
_cell_formula_units_Z   24
loop_
 _symmetry_equiv_pos_site_id
 _symmetry_equiv_pos_as_xyz
  1  'x, y, z'
loop_
 _atom_type_symbol
 _atom_type_oxidation_number
  Ca2+  2.0
  Al0+  0.0
  Si0+  0.0
  O2-  -2.0
loop_
 _atom_site_type_symbol
 _atom_site_label
 _atom_site_symmetry_multiplicity
 _atom_site_fract_x
 _atom_site_fract_y
 _atom_site_fract_z
 _atom_site_occupancy
  Ca2+  Ca0  1  0.16546732  0.08657908  0.16346401  1
  Ca2+  Ca1  1  0.17329359  0.08365758  0.50664484  1
  Ca2+  Ca2  1  0.17764889  0.08389238  0.84325955  1
  Ca2+  Ca3  1  0.17904156  0.58609042  0.17336016  1
  Ca2+  Ca4  1  0.17000445  0.57875836  0.50135588  1
  Ca2+  Ca5  1  0.17457903  0.57410734  0.83966324  1
  Ca2+  Ca6  1  0.66934658  0.08133599  0.17584737  1
  Ca2+  Ca7  1  0.66706091  0.07475962  0.50430568  1
  Ca2+  Ca8  1  0.65522334  0.08157756  0.83609857  1
  Ca2+  Ca9  1  0.67499938  0.57679066  0.17105038  1
  Ca2+  Ca10  1  0.66941666  0.59014688  0.49950959  1
  Ca2+  Ca11  1  0.66831890  0.57615917  0.84248734  1
  Ca2+  Ca12  1  0.06923899  0.33026829  0.16107941  1
  Ca2+  Ca13  1  0.08064608  0.33506000  0.49423636  1
  Ca2+  Ca14  1  0.08299636  0.33411098  0.83352303  1
  Ca2+  Ca15  1  0.08180416  0.83107764  0.16389670  1
  Ca2+  Ca16  1  0.07555868  0.82606440  0.48686394  1
  Ca2+  Ca17  1  0.08509403  0.83578781  0.83397172  1
  Ca2+  Ca18  1  0.57667533  0.33211923  0.15726354  1
  Ca2+  Ca19  1  0.57097003  0.32956753  0.49581947  1
  Ca2+  Ca20  1  0.57425716  0.32614521  0.83123830  1
  Ca2+  Ca21  1  0.59121215  0.82698324  0.16908288  1
  Ca2+  Ca22  1  0.59151912  0.82698774  0.49600461  1
  Ca2+  Ca23  1  0.58442876  0.82642615  0.82444783  1
  Ca2+  Ca24  1  0.34146606  0.42265990  0.17083206  1
  Ca2+  Ca25  1  0.33336238  0.41530074  0.50250380  1
  Ca2+  Ca26  1  0.33521723  0.41483307  0.83842718  1
  Ca2+  Ca27  1  0.32853759  0.92335617  0.16568348  1
  Ca2+  Ca28  1  0.33482727  0.92470043  0.50582513  1
  Ca2+  Ca29  1  0.33216850  0.93119052  0.84182484  1
  Ca2+  Ca30  1  0.83095323  0.41625692  0.17136548  1
  Ca2+  Ca31  1  0.83813261  0.42234753  0.49995958  1
  Ca2+  Ca32  1  0.82472917  0.42090328  0.84634275  1
  Ca2+  Ca33  1  0.82989662  0.92463889  0.17908719  1
  Ca2+  Ca34  1  0.82589655  0.91515742  0.49686550  1
  Ca2+  Ca35  1  0.82496577  0.91864958  0.83563050  1
  Ca2+  Ca36  1  0.42058898  0.17769076  0.15620517  1
  Ca2+  Ca37  1  0.41557420  0.17395743  0.49935635  1
  Ca2+  Ca38  1  0.42027158  0.16949595  0.82812799  1
  Ca2+  Ca39  1  0.42057160  0.65980602  0.16386765  1
  Ca2+  Ca40  1  0.42941918  0.66261086  0.49177588  1
  Ca2+  Ca41  1  0.42120407  0.66514711  0.82951696  1
  Ca2+  Ca42  1  0.91417609  0.17538725  0.15947572  1
  Ca2+  Ca43  1  0.91659751  0.17181826  0.49064524  1
  Ca2+  Ca44  1  0.92085173  0.17222356  0.83638349  1
  Ca2+  Ca45  1  0.91435897  0.66676397  0.16761762  1
  Ca2+  Ca46  1  0.92224848  0.67042767  0.48498002  1
  Ca2+  Ca47  1  0.91438900  0.66510112  0.83211922  1
  Al0+  Al48  1  -0.00226590  -0.00166432  -0.00224637  1
  Al0+  Al49  1  0.00092317  -0.00031869  0.33531863  1
  Al0+  Al50  1  -0.00219725  0.00128852  0.66568094  1
  Al0+  Al51  1  0.00098246  0.50376597  -0.00137706  1
  Al0+  Al52  1  0.00133342  0.49827350  0.32843582  1
  Al0+  Al53  1  0.00154491  0.50114535  0.67162243  1
  Al0+  Al54  1  0.49716201  -0.00240004  0.00349105  1
  Al0+  Al55  1  0.49913180  -0.00143373  0.33824427  1
  Al0+  Al56  1  0.50071840  -0.00090948  0.67124353  1
  Al0+  Al57  1  0.50229236  0.49944769  0.00263176  1
  Al0+  Al58  1  0.50050206  0.50083669  0.33038476  1
  Al0+  Al59  1  0.50187277  0.50030188  0.65828550  1
  Al0+  Al60  1  0.24868522  0.25074937  -0.00080865  1
  Al0+  Al61  1  0.25033179  0.25123858  0.32892143  1
  Al0+  Al62  1  0.24798720  0.25066730  0.67109990  1
  Al0+  Al63  1  0.24935949  0.75008365  0.00502445  1
  Al0+  Al64  1  0.25252534  0.75014698  0.33626368  1
  Al0+  Al65  1  0.24938580  0.74894510  0.66599940  1
  Al0+  Al66  1  0.74824445  0.24893122  -0.00551994  1
  Al0+  Al67  1  0.74904598  0.24975787  0.33614449  1
  Al0+  Al68  1  0.75081644  0.25074852  0.66276137  1
  Al0+  Al69  1  0.75121150  0.74993893  0.00179951  1
  Al0+  Al70  1  0.75072576  0.74901354  0.33153484  1
  Al0+  Al71  1  0.75156451  0.75232849  0.66755299  1
  Al0+  Al72  1  0.68160919  0.93017268  0.68216504  1
  Al0+  Al73  1  0.57107807  0.68047080  0.31736051  1
  Al0+  Al74  1  0.32306900  0.57147635  0.34900371  1
  Al0+  Al75  1  0.57012620  0.17525042  0.98641913  1
  Al0+  Al76  1  0.57206895  0.17632172  0.64918633  1
  Al0+  Al77  1  0.32115989  0.07354010  0.01774615  1
  Al0+  Al78  1  0.32101273  0.56899267  0.01257813  1
  Al0+  Al79  1  0.92760538  0.31973769  0.32125876  1
  Al0+  Al80  1  0.92972433  0.82102044  0.31687951  1
  Al0+  Al81  1  0.06905980  0.17777298  0.98440455  1
  Al0+  Al82  1  0.17690518  0.92975516  0.01537937  1
  Al0+  Al83  1  0.82242610  0.57269581  0.01568723  1
  Al0+  Al84  1  0.82272664  0.07368825  0.34827961  1
  Al0+  Al85  1  0.92813382  0.32426538  0.98352703  1
  Al0+  Al86  1  0.82179207  0.56782202  0.34707604  1
  Al0+  Al87  1  0.17887158  0.43067375  0.68073306  1
  Al0+  Al88  1  0.07373843  0.67800002  0.31718665  1
  Al0+  Al89  1  0.42930533  0.31991070  0.31807313  1
  Al0+  Al90  1  0.31964332  0.06993301  0.68022298  1
  Al0+  Al91  1  0.42672185  0.32007996  0.65055212  1
  Al0+  Al92  1  0.57175528  0.68001468  0.65341338  1
  Al0+  Al93  1  0.68033911  0.42674266  0.01437841  1
  Al0+  Al94  1  0.67861805  0.92879971  0.34879507  1
  Al0+  Al95  1  0.42925333  0.32355283  0.98474926  1
  Si0+  Si96  1  0.82070584  0.57074079  0.68064780  1
  Si0+  Si97  1  0.31927431  0.07249073  0.34851433  1
  Si0+  Si98  1  0.07077593  0.67817112  0.65297249  1
  Si0+  Si99  1  0.17519629  0.92692487  0.68120848  1
  Si0+  Si100  1  0.17646355  0.42742178  0.01840858  1
  Si0+  Si101  1  0.32439071  0.57188392  0.68153676  1
  Si0+  Si102  1  0.57034407  0.17620864  0.31897738  1
  Si0+  Si103  1  0.42675760  0.81920155  0.98582410  1
  Si0+  Si104  1  0.67857713  0.42828070  0.67955896  1
  Si0+  Si105  1  0.82330887  0.07496697  0.68558219  1
  Si0+  Si106  1  0.07399879  0.68096989  0.98296788  1
  Si0+  Si107  1  0.42745216  0.82471643  0.31613431  1
  Si0+  Si108  1  0.67726062  0.92736392  0.01472936  1
  Si0+  Si109  1  0.57187146  0.68138110  0.98570372  1
  Si0+  Si110  1  0.92788765  0.82002972  0.98266578  1
  Si0+  Si111  1  0.67694580  0.42770874  0.35245158  1
  Si0+  Si112  1  0.81911005  0.06911633  0.01203576  1
  Si0+  Si113  1  0.06946334  0.17948445  0.65198374  1
  Si0+  Si114  1  0.92985169  0.32349623  0.65181129  1
  Si0+  Si115  1  0.17937341  0.92847278  0.34971175  1
  Si0+  Si116  1  0.17986593  0.42795872  0.34819466  1
  Si0+  Si117  1  0.42663911  0.82135596  0.65174751  1
  Si0+  Si118  1  0.93014747  0.82137715  0.65161525  1
  Si0+  Si119  1  0.07305059  0.17733912  0.31836252  1
  O2-  O120  1  0.24520549  0.00433661  0.06663373  1
  O2-  O121  1  0.24884131  0.00096309  0.39177384  1
  O2-  O122  1  0.24572770  -0.00723197  0.72512225  1
  O2-  O123  1  0.24926152  0.49234056  0.06115324  1
  O2-  O124  1  0.24740365  0.49704388  0.39419336  1
  O2-  O125  1  0.25758666  0.50202811  0.72623981  1
  O2-  O126  1  0.74305136  0.00370705  0.05416275  1
  O2-  O127  1  0.75034887  0.00184631  0.39817621  1
  O2-  O128  1  0.75134878  0.00937910  0.72983488  1
  O2-  O129  1  0.75652281  0.49479187  0.06407505  1
  O2-  O130  1  0.74814667  0.49412458  0.39752941  1
  O2-  O131  1  0.74915093  0.50043877  0.72189914  1
  O2-  O132  1  -0.00200818  0.24001794  0.27672187  1
  O2-  O133  1  -0.00135062  0.25032500  0.60935001  1
  O2-  O134  1  0.00193773  0.25400376  0.93262133  1
  O2-  O135  1  0.00194803  0.74975628  0.26595390  1
  O2-  O136  1  0.00494012  0.75374692  0.61114697  1
  O2-  O137  1  -0.00051541  0.74912826  0.94034951  1
  O2-  O138  1  0.50409709  0.24525428  0.27298101  1
  O2-  O139  1  0.49882598  0.24775391  0.60024501  1
  O2-  O140  1  0.49700483  0.24647738  0.93644567  1
  O2-  O141  1  0.49553686  0.75543828  0.27179354  1
  O2-  O142  1  0.49384000  0.75186768  0.60695979  1
  O2-  O143  1  0.49969937  0.75054381  0.94244952  1
  O2-  O144  1  0.06264364  0.17609537  0.09809888  1
  O2-  O145  1  0.07700716  0.18016994  0.42459751  1
  O2-  O146  1  0.06752677  0.17751707  0.75637639  1
  O2-  O147  1  0.07693201  0.68321389  0.08726846  1
  O2-  O148  1  0.07189915  0.68029440  0.43203375  1
  O2-  O149  1  0.06956659  0.67804364  0.75813951  1
  O2-  O150  1  0.57046170  0.17398326  0.10019155  1
  O2-  O151  1  0.56720656  0.17613779  0.42454933  1
  O2-  O152  1  0.57064778  0.17834444  0.76241698  1
  O2-  O153  1  0.57290653  0.68401669  0.09039421  1
  O2-  O154  1  0.57055234  0.68211415  0.43085780  1
  O2-  O155  1  0.57171363  0.68076048  0.76709816  1
  O2-  O156  1  0.18118029  0.42643281  0.24313398  1
  O2-  O157  1  0.17272190  0.43456942  0.56786880  1
  O2-  O158  1  0.17508880  0.43197931  0.91231052  1
  O2-  O159  1  0.17939971  0.92816786  0.24515760  1
  O2-  O160  1  0.17403796  0.92832140  0.57546765  1
  O2-  O161  1  0.18083923  0.92806099  0.90117168  1
  O2-  O162  1  0.67772008  0.42810764  0.24706973  1
  O2-  O163  1  0.68111798  0.42856809  0.57460580  1
  O2-  O164  1  0.67859824  0.43162759  0.89986005  1
  O2-  O165  1  0.67855870  0.93181943  0.23465082  1
  O2-  O166  1  0.68670051  0.92607692  0.56996459  1
  O2-  O167  1  0.68036760  0.92305672  0.90945957  1
  O2-  O168  1  0.43369519  0.32422499  0.09835867  1
  O2-  O169  1  0.42655837  0.31677911  0.43119605  1
  O2-  O170  1  0.42840151  0.32160160  0.76352433  1
  O2-  O171  1  0.42697745  0.81862916  0.09068224  1
  O2-  O172  1  0.42675932  0.82610778  0.42200545  1
  O2-  O173  1  0.42569962  0.81863051  0.75756761  1
  O2-  O174  1  0.92793163  0.32094492  0.09704710  1
  O2-  O175  1  0.93277380  0.32124615  0.43521997  1
  O2-  O176  1  0.93063449  0.32468180  0.75639007  1
  O2-  O177  1  0.92608497  0.82116653  0.08688442  1
  O2-  O178  1  0.93254598  0.81923407  0.43140654  1
  O2-  O179  1  0.92910170  0.82047035  0.75706659  1
  O2-  O180  1  0.31855841  0.07204584  0.24409484  1
  O2-  O181  1  0.31583055  0.06873167  0.56625366  1
  O2-  O182  1  0.32257836  0.06893448  0.90405137  1
  O2-  O183  1  0.32246447  0.56992377  0.23598601  1
  O2-  O184  1  0.32122896  0.57393133  0.57628438  1
  O2-  O185  1  0.31911089  0.57170172  0.89892675  1
  O2-  O186  1  0.82068058  0.07367371  0.23419373  1
  O2-  O187  1  0.82796346  0.07256190  0.58052699  1
  O2-  O188  1  0.82179560  0.06476931  0.90675435  1
  O2-  O189  1  0.82026584  0.56624063  0.23479686  1
  O2-  O190  1  0.82380428  0.57030541  0.57572055  1
  O2-  O191  1  0.81631963  0.57641784  0.90095729  1
  O2-  O192  1  0.05497932  0.08140215  0.27564382  1
  O2-  O193  1  0.04245177  0.08731063  0.60308644  1
  O2-  O194  1  0.03692194  0.08034465  0.92979665  1
  O2-  O195  1  0.04809949  0.57968458  0.26489266  1
  O2-  O196  1  0.03783238  0.58841702  0.60508400  1
  O2-  O197  1  0.04894904  0.58905717  0.93418350  1
  O2-  O198  1  0.54456087  0.08204295  0.27448844  1
  O2-  O199  1  0.54464963  0.07587195  0.59988237  1
  O2-  O200  1  0.54176641  0.07507269  0.93493518  1
  O2-  O201  1  0.54007268  0.58450789  0.26343669  1
  O2-  O202  1  0.54592335  0.58431516  0.59586277  1
  O2-  O203  1  0.54500040  0.58919334  0.93944324  1
  O2-  O204  1  0.16290438  0.20854863  0.26856786  1
  O2-  O205  1  0.16068408  0.20755446  0.60432728  1
  O2-  O206  1  0.16905387  0.20238609  0.93357970  1
  O2-  O207  1  0.17292002  0.70869465  0.26751695  1
  O2-  O208  1  0.16455601  0.69988013  0.60599703  1
  O2-  O209  1  0.16382346  0.71309941  0.93328039  1
  O2-  O210  1  0.66543620  0.19926006  0.27572298  1
  O2-  O211  1  0.67175774  0.20420154  0.59765458  1
  O2-  O212  1  0.66814516  0.20016716  0.93094845  1
  O2-  O213  1  0.66663796  0.71153335  0.26259172  1
  O2-  O214  1  0.66828746  0.71449182  0.60088568  1
  O2-  O215  1  0.66277910  0.71204914  0.93725922  1
  O2-  O216  1  0.08416867  0.45801379  0.06368557  1
  O2-  O217  1  0.08618977  0.45302147  0.39452293  1
  O2-  O218  1  0.08511949  0.46653534  0.73895794  1
  O2-  O219  1  0.07637837  0.95394596  0.06594698  1
  O2-  O220  1  0.08778285  0.95441233  0.39898815  1
  O2-  O221  1  0.08164814  0.95362041  0.72720288  1
  O2-  O222  1  0.58520215  0.46075556  0.06946779  1
  O2-  O223  1  0.58488844  0.45819750  0.39827212  1
  O2-  O224  1  0.58651386  0.45743802  0.72531741  1
  O2-  O225  1  0.58379229  0.94658817  0.06130988  1
  O2-  O226  1  0.57955907  0.95399777  0.40346746  1
  O2-  O227  1  0.58316511  0.95296834  0.73622016  1
  O2-  O228  1  0.19408936  0.33184352  0.06194013  1
  O2-  O229  1  0.20669919  0.33449138  0.39581766  1
  O2-  O230  1  0.20328776  0.33340592  0.73524724  1
  O2-  O231  1  0.20921400  0.83350699  0.06981832  1
  O2-  O232  1  0.20843299  0.83805984  0.39949023  1
  O2-  O233  1  0.19690283  0.83127126  0.72570902  1
  O2-  O234  1  0.70419888  0.32634862  0.06516790  1
  O2-  O235  1  0.69903331  0.33328590  0.39822411  1
  O2-  O236  1  0.70762714  0.33684692  0.72683500  1
  O2-  O237  1  0.71193364  0.83864447  0.06328484  1
  O2-  O238  1  0.71034206  0.83085079  0.40054524  1
  O2-  O239  1  0.71840838  0.83532088  0.73840403  1
  O2-  O240  1  0.46069360  0.41636069  0.26611092  1
  O2-  O241  1  0.45583951  0.41813525  0.59636104  1
  O2-  O242  1  0.46202275  0.42101893  0.93091202  1
  O2-  O243  1  0.45317066  0.91829509  0.26964839  1
  O2-  O244  1  0.45282701  0.91469424  0.60673206  1
  O2-  O245  1  0.45366713  0.91105511  0.93838442  1
  O2-  O246  1  0.96198210  0.41287611  0.26437858  1
  O2-  O247  1  0.96143101  0.41523796  0.60555898  1
  O2-  O248  1  0.95462942  0.42447452  0.93179551  1
  O2-  O249  1  0.95823126  0.92073502  0.26644190  1
  O2-  O250  1  0.95425387  0.91433296  0.60443242  1
  O2-  O251  1  0.95528565  0.91042431  0.93205106  1
  O2-  O252  1  0.33303448  0.28988126  0.26344746  1
  O2-  O253  1  0.32667727  0.29159183  0.59967020  1
  O2-  O254  1  0.32743245  0.30267911  0.93666267  1
  O2-  O255  1  0.33363277  0.80001992  0.27121208  1
  O2-  O256  1  0.33163941  0.79948977  0.60497633  1
  O2-  O257  1  0.33602982  0.78954210  0.93743561  1
  O2-  O258  1  0.82920371  0.29332308  0.26877724  1
  O2-  O259  1  0.83800091  0.29912533  0.60335884  1
  O2-  O260  1  0.83122407  0.29289469  0.92907430  1
  O2-  O261  1  0.83183189  0.79344260  0.26442920  1
  O2-  O262  1  0.84052969  0.78952793  0.60366498  1
  O2-  O263  1  0.83675795  0.78970615  0.93341086  1
  O2-  O264  1  0.41673004  0.03755456  0.07260513  1
  O2-  O265  1  0.41018265  0.04405551  0.39734552  1
  O2-  O266  1  0.41542319  0.03938353  0.73492393  1
  O2-  O267  1  0.41850417  0.54290300  0.06621604  1
  O2-  O268  1  0.41949016  0.53901998  0.40212560  1
  O2-  O269  1  0.41991574  0.54910631  0.72462832  1
  O2-  O270  1  0.90801546  0.03576984  0.06071881  1
  O2-  O271  1  0.92201227  0.04620180  0.40183042  1
  O2-  O272  1  0.91545522  0.04380657  0.73304630  1
  O2-  O273  1  0.92488972  0.55575738  0.06296977  1
  O2-  O274  1  0.91977933  0.53749085  0.40037597  1
  O2-  O275  1  0.91154111  0.54288183  0.73028181  1
  O2-  O276  1  0.29466419  0.17295799  0.06890969  1
  O2-  O277  1  0.28850247  0.16374524  0.39575639  1
  O2-  O278  1  0.28612528  0.16459077  0.73462136  1
  O2-  O279  1  0.28797789  0.66417190  0.06762170  1
  O2-  O280  1  0.29527217  0.66896584  0.40368281  1
  O2-  O281  1  0.29722324  0.66562331  0.72822694  1
  O2-  O282  1  0.79693969  0.16289081  0.05669431  1
  O2-  O283  1  0.79550453  0.17153379  0.40372583  1
  O2-  O284  1  0.80245035  0.17087451  0.72870701  1
  O2-  O285  1  0.78856270  0.66916849  0.06918886  1
  O2-  O286  1  0.79138556  0.66516987  0.40002350  1
  O2-  O287  1  0.79439712  0.66302720  0.72770206  1
