# generated using pymatgen
data_Ca2Al2SiO7
_symmetry_space_group_name_H-M   'P 1'
_cell_length_a   15.45966940
_cell_length_b   15.46099509
_cell_length_c   15.28474461
_cell_angle_alpha   90.00058920
_cell_angle_beta   89.99574130
_cell_angle_gamma   89.97918321
_symmetry_Int_Tables_number   1
_chemical_formula_structural   Ca2Al2SiO7
_chemical_formula_sum   'Ca48 Al48 Si24 O168'
_cell_volume   3653.38802793
_cell_formula_units_Z   24
loop_
 _symmetry_equiv_pos_site_id
 _symmetry_equiv_pos_as_xyz
  1  'x, y, z'
loop_
 _atom_type_symbol
 _atom_type_oxidation_number
  Ca2+  2.0
  Al0+  0.0
  Si0+  0.0
  O2-  -2.0
loop_
 _atom_site_type_symbol
 _atom_site_label
 _atom_site_symmetry_multiplicity
 _atom_site_fract_x
 _atom_site_fract_y
 _atom_site_fract_z
 _atom_site_occupancy
  Ca2+  Ca0  1  0.17509378  0.07716550  0.17997848  1
  Ca2+  Ca1  1  0.17715929  0.07703533  0.50282856  1
  Ca2+  Ca2  1  0.17148533  0.08556797  0.83434931  1
  Ca2+  Ca3  1  0.15823089  0.57416648  0.16972344  1
  Ca2+  Ca4  1  0.16741711  0.58056196  0.50547134  1
  Ca2+  Ca5  1  0.16560056  0.58525562  0.83692070  1
  Ca2+  Ca6  1  0.66488826  0.08706644  0.17055755  1
  Ca2+  Ca7  1  0.66797023  0.07809910  0.51120060  1
  Ca2+  Ca8  1  0.66751610  0.08404054  0.82985243  1
  Ca2+  Ca9  1  0.67461574  0.58173681  0.17763819  1
  Ca2+  Ca10  1  0.67074822  0.59052848  0.50377924  1
  Ca2+  Ca11  1  0.66769516  0.58313073  0.83611908  1
  Ca2+  Ca12  1  0.07742830  0.34354644  0.16362664  1
  Ca2+  Ca13  1  0.07484808  0.33598350  0.49601085  1
  Ca2+  Ca14  1  0.07377771  0.34001149  0.83145955  1
  Ca2+  Ca15  1  0.07500628  0.83279031  0.16021290  1
  Ca2+  Ca16  1  0.07573490  0.83501761  0.49468906  1
  Ca2+  Ca17  1  0.07537663  0.82486017  0.82596110  1
  Ca2+  Ca18  1  0.57558442  0.32092099  0.16012005  1
  Ca2+  Ca19  1  0.58157054  0.31926483  0.49517830  1
  Ca2+  Ca20  1  0.57935289  0.32241677  0.82937452  1
  Ca2+  Ca21  1  0.57785868  0.82914122  0.17154693  1
  Ca2+  Ca22  1  0.58153540  0.82723867  0.49549533  1
  Ca2+  Ca23  1  0.58457830  0.82840892  0.82431678  1
  Ca2+  Ca24  1  0.32160724  0.41074642  0.17067840  1
  Ca2+  Ca25  1  0.32728458  0.42177648  0.50572734  1
  Ca2+  Ca26  1  0.32876239  0.42219613  0.84119935  1
  Ca2+  Ca27  1  0.32719603  0.91944724  0.17997652  1
  Ca2+  Ca28  1  0.33679393  0.92176110  0.50108903  1
  Ca2+  Ca29  1  0.33555238  0.92334622  0.83339753  1
  Ca2+  Ca30  1  0.83962681  0.42322170  0.17559288  1
  Ca2+  Ca31  1  0.83779951  0.42060161  0.50116219  1
  Ca2+  Ca32  1  0.83627268  0.41343509  0.83708568  1
  Ca2+  Ca33  1  0.83564788  0.91499819  0.17292093  1
  Ca2+  Ca34  1  0.82924057  0.91807028  0.51127880  1
  Ca2+  Ca35  1  0.83083113  0.91157231  0.83265486  1
  Ca2+  Ca36  1  0.42465845  0.16406909  0.16247220  1
  Ca2+  Ca37  1  0.42587281  0.15174685  0.49642448  1
  Ca2+  Ca38  1  0.42255757  0.16939320  0.82804807  1
  Ca2+  Ca39  1  0.41707918  0.66973468  0.16882408  1
  Ca2+  Ca40  1  0.42691809  0.66573693  0.49540536  1
  Ca2+  Ca41  1  0.42096649  0.66503713  0.82210420  1
  Ca2+  Ca42  1  0.91943535  0.18032358  0.16288484  1
  Ca2+  Ca43  1  0.90841836  0.17690471  0.49720900  1
  Ca2+  Ca44  1  0.91177158  0.17708374  0.82559983  1
  Ca2+  Ca45  1  0.91952366  0.67573623  0.16404034  1
  Ca2+  Ca46  1  0.91749495  0.67779464  0.49593962  1
  Ca2+  Ca47  1  0.92896721  0.67393126  0.82798359  1
  Al0+  Al48  1  -0.00193764  0.00183402  -0.00242188  1
  Al0+  Al49  1  0.00009750  0.00252270  0.33351344  1
  Al0+  Al50  1  0.00051872  0.00312622  0.66840358  1
  Al0+  Al51  1  0.00048785  0.50198063  -0.00359961  1
  Al0+  Al52  1  -0.00171398  0.50187273  0.34034809  1
  Al0+  Al53  1  -0.00093399  0.50042443  0.65981551  1
  Al0+  Al54  1  0.50271986  -0.00218614  -0.00209907  1
  Al0+  Al55  1  0.50203542  -0.00260051  0.32720436  1
  Al0+  Al56  1  0.50033600  -0.00091304  0.67352212  1
  Al0+  Al57  1  0.50030461  0.49936272  0.00043756  1
  Al0+  Al58  1  0.50128727  0.49603620  0.32865500  1
  Al0+  Al59  1  0.49926149  0.49876156  0.66655357  1
  Al0+  Al60  1  0.25087913  0.25154910  0.00253216  1
  Al0+  Al61  1  0.25018035  0.24921663  0.34521758  1
  Al0+  Al62  1  0.24755253  0.25136887  0.67208886  1
  Al0+  Al63  1  0.25138791  0.75088435  -0.00199411  1
  Al0+  Al64  1  0.24948711  0.74786974  0.33378501  1
  Al0+  Al65  1  0.25024028  0.74913057  0.66782782  1
  Al0+  Al66  1  0.74944343  0.24879941  -0.00518892  1
  Al0+  Al67  1  0.74950732  0.25186800  0.32390054  1
  Al0+  Al68  1  0.74771259  0.25030968  0.66212830  1
  Al0+  Al69  1  0.74892921  0.75141074  -0.00006243  1
  Al0+  Al70  1  0.75196063  0.74951615  0.32959364  1
  Al0+  Al71  1  0.75044674  0.74890315  0.66659915  1
  Al0+  Al72  1  0.07301732  0.67945311  0.64865284  1
  Al0+  Al73  1  0.82157594  0.07394736  0.68110836  1
  Al0+  Al74  1  0.17607127  0.92624104  0.34771378  1
  Al0+  Al75  1  0.57047983  0.17692503  0.98145986  1
  Al0+  Al76  1  0.81883211  0.57161070  0.34816616  1
  Al0+  Al77  1  0.57051764  0.67676868  0.65456057  1
  Al0+  Al78  1  0.57272942  0.67629248  0.31776627  1
  Al0+  Al79  1  0.93178827  0.32181451  0.31917814  1
  Al0+  Al80  1  0.93100069  0.32116704  0.98694176  1
  Al0+  Al81  1  0.07165995  0.68023023  0.98606285  1
  Al0+  Al82  1  0.42826713  0.81921180  0.31948165  1
  Al0+  Al83  1  0.32093926  0.07063965  0.68283291  1
  Al0+  Al84  1  0.92845932  0.31934229  0.65120470  1
  Al0+  Al85  1  0.17927751  0.43157593  0.01345276  1
  Al0+  Al86  1  0.42679036  0.32160793  0.98485555  1
  Al0+  Al87  1  0.32142432  0.57053088  0.67946562  1
  Al0+  Al88  1  0.32390460  0.06859428  0.34797063  1
  Al0+  Al89  1  0.17826652  0.42981851  0.34941225  1
  Al0+  Al90  1  0.92686245  0.82376667  0.98382928  1
  Al0+  Al91  1  0.93055296  0.82384734  0.31994782  1
  Al0+  Al92  1  0.56975613  0.17830795  0.31962599  1
  Al0+  Al93  1  0.68076990  0.92716193  0.68199582  1
  Al0+  Al94  1  0.56695806  0.17892539  0.65205820  1
  Al0+  Al95  1  0.92982124  0.82260466  0.65119846  1
  Si0+  Si96  1  0.82003762  0.07436200  0.34515262  1
  Si0+  Si97  1  0.07167343  0.67794211  0.31776700  1
  Si0+  Si98  1  0.32468010  0.57426106  0.01821441  1
  Si0+  Si99  1  0.07499469  0.17824983  0.64929818  1
  Si0+  Si100  1  0.07311143  0.17722188  0.98493734  1
  Si0+  Si101  1  0.57067075  0.67877197  0.98602357  1
  Si0+  Si102  1  0.67936390  0.92787453  0.01871487  1
  Si0+  Si103  1  0.17872930  0.92943572  0.01325993  1
  Si0+  Si104  1  0.68176625  0.92943116  0.34607446  1
  Si0+  Si105  1  0.67886143  0.42862185  0.68123717  1
  Si0+  Si106  1  0.32510023  0.57078633  0.34940089  1
  Si0+  Si107  1  0.07393458  0.17942504  0.31863746  1
  Si0+  Si108  1  0.42561174  0.32161588  0.64996670  1
  Si0+  Si109  1  0.67788175  0.42615524  0.34910267  1
  Si0+  Si110  1  0.81906556  0.57038010  0.01381960  1
  Si0+  Si111  1  0.82055294  0.07272203  0.01657277  1
  Si0+  Si112  1  0.32203541  0.06944503  0.01505190  1
  Si0+  Si113  1  0.17713349  0.92767821  0.68529585  1
  Si0+  Si114  1  0.42939727  0.81999866  0.98429083  1
  Si0+  Si115  1  0.42489766  0.32169848  0.31835881  1
  Si0+  Si116  1  0.17590793  0.43033807  0.68511491  1
  Si0+  Si117  1  0.67842963  0.42723353  0.01513396  1
  Si0+  Si118  1  0.42834786  0.82221172  0.65200716  1
  Si0+  Si119  1  0.82101813  0.57006086  0.68304615  1
  O2-  O120  1  0.24861720  0.00097342  0.05692889  1
  O2-  O121  1  0.25169601  -0.00443746  0.39661678  1
  O2-  O122  1  0.24523134  -0.00281890  0.73050920  1
  O2-  O123  1  0.25538342  0.50546280  0.06106640  1
  O2-  O124  1  0.25566630  0.50303729  0.39366436  1
  O2-  O125  1  0.24538950  0.49850914  0.72842063  1
  O2-  O126  1  0.75094317  -0.00030464  0.05915681  1
  O2-  O127  1  0.75244008  0.00064900  0.38751289  1
  O2-  O128  1  0.75427287  -0.00208158  0.73287472  1
  O2-  O129  1  0.74973471  0.49795729  0.05741420  1
  O2-  O130  1  0.74133181  0.49886025  0.39457356  1
  O2-  O131  1  0.74990541  0.49900843  0.72559769  1
  O2-  O132  1  0.00895632  0.25022165  0.27179105  1
  O2-  O133  1  0.00211299  0.24289952  0.60583984  1
  O2-  O134  1  0.00544566  0.24655084  0.94024213  1
  O2-  O135  1  0.00902463  0.75248457  0.27390531  1
  O2-  O136  1  0.00364450  0.75394528  0.59937170  1
  O2-  O137  1  0.00177950  0.75418616  0.93638122  1
  O2-  O138  1  0.49163146  0.25057323  0.27495231  1
  O2-  O139  1  0.48840699  0.24877616  0.60406503  1
  O2-  O140  1  0.49754156  0.24925128  0.93379013  1
  O2-  O141  1  0.49726571  0.74464675  0.26771609  1
  O2-  O142  1  0.49554419  0.75143948  0.60942394  1
  O2-  O143  1  0.49684489  0.74564730  0.94274599  1
  O2-  O144  1  0.07088997  0.17474330  0.09049517  1
  O2-  O145  1  0.07107167  0.17889396  0.42385393  1
  O2-  O146  1  0.07793367  0.18183334  0.75524888  1
  O2-  O147  1  0.06922825  0.68030889  0.09985106  1
  O2-  O148  1  0.06893500  0.67686856  0.42296191  1
  O2-  O149  1  0.07088026  0.67921803  0.76244618  1
  O2-  O150  1  0.56929937  0.17719043  0.09541911  1
  O2-  O151  1  0.57126094  0.17822808  0.43253596  1
  O2-  O152  1  0.56708486  0.18209338  0.76479828  1
  O2-  O153  1  0.57200542  0.68051862  0.09073436  1
  O2-  O154  1  0.57253575  0.67929332  0.43115437  1
  O2-  O155  1  0.56903126  0.67680106  0.76852463  1
  O2-  O156  1  0.17769267  0.43184521  0.23590305  1
  O2-  O157  1  0.17715306  0.42998840  0.57950773  1
  O2-  O158  1  0.17875651  0.43362783  0.90069476  1
  O2-  O159  1  0.17595450  0.93062719  0.23307646  1
  O2-  O160  1  0.17786397  0.92825028  0.57998316  1
  O2-  O161  1  0.18169424  0.93024623  0.90826410  1
  O2-  O162  1  0.68107614  0.42583447  0.24317884  1
  O2-  O163  1  0.67895142  0.42874647  0.57631388  1
  O2-  O164  1  0.67807433  0.42969960  0.90973619  1
  O2-  O165  1  0.68230033  0.93022207  0.24036369  1
  O2-  O166  1  0.67888244  0.92789254  0.56802699  1
  O2-  O167  1  0.67785110  0.92429621  0.91418658  1
  O2-  O168  1  0.42729086  0.31878336  0.09868957  1
  O2-  O169  1  0.42802322  0.32583181  0.42367145  1
  O2-  O170  1  0.42909018  0.32238406  0.75558563  1
  O2-  O171  1  0.42959762  0.82091328  0.08906065  1
  O2-  O172  1  0.43252389  0.82097874  0.43271873  1
  O2-  O173  1  0.42973162  0.82114963  0.75847611  1
  O2-  O174  1  0.93156748  0.32203959  0.09996578  1
  O2-  O175  1  0.92944897  0.31895221  0.43188496  1
  O2-  O176  1  0.93001872  0.32076725  0.76468603  1
  O2-  O177  1  0.92712856  0.82239773  0.09771668  1
  O2-  O178  1  0.92748617  0.82339723  0.43231304  1
  O2-  O179  1  0.93011078  0.81795624  0.76477189  1
  O2-  O180  1  0.32216220  0.06839000  0.23352879  1
  O2-  O181  1  0.32176584  0.06692927  0.57025628  1
  O2-  O182  1  0.32142415  0.06757402  0.90985986  1
  O2-  O183  1  0.32529702  0.56960566  0.24365210  1
  O2-  O184  1  0.32420477  0.56632567  0.56660536  1
  O2-  O185  1  0.32675652  0.57436086  0.91272783  1
  O2-  O186  1  0.81848159  0.07464560  0.23953627  1
  O2-  O187  1  0.81594547  0.07567853  0.56706508  1
  O2-  O188  1  0.81998470  0.07485817  0.91208746  1
  O2-  O189  1  0.81984060  0.56997394  0.23415994  1
  O2-  O190  1  0.81939335  0.57007592  0.57809674  1
  O2-  O191  1  0.81609515  0.56991548  0.90853659  1
  O2-  O192  1  0.04592526  0.08771583  0.26969949  1
  O2-  O193  1  0.05589775  0.08279797  0.60566910  1
  O2-  O194  1  0.04767811  0.08496303  0.93617986  1
  O2-  O195  1  0.03705440  0.58708397  0.27168955  1
  O2-  O196  1  0.04207958  0.58223392  0.59601937  1
  O2-  O197  1  0.03972893  0.58464594  0.93030448  1
  O2-  O198  1  0.54244507  0.08238733  0.26278204  1
  O2-  O199  1  0.53859896  0.07984786  0.60218072  1
  O2-  O200  1  0.54328082  0.07756902  0.93062045  1
  O2-  O201  1  0.54942478  0.57605329  0.26513053  1
  O2-  O202  1  0.54056346  0.58057729  0.59962641  1
  O2-  O203  1  0.54809027  0.58528950  0.93972214  1
  O2-  O204  1  0.16994194  0.20160361  0.27596183  1
  O2-  O205  1  0.16694709  0.20851359  0.60196414  1
  O2-  O206  1  0.16746237  0.20155599  0.94061739  1
  O2-  O207  1  0.16775108  0.69309091  0.27303959  1
  O2-  O208  1  0.17378566  0.70293187  0.59879557  1
  O2-  O209  1  0.17148988  0.70572600  0.93397925  1
  O2-  O210  1  0.66314504  0.21325188  0.26125141  1
  O2-  O211  1  0.66141504  0.21349477  0.59739452  1
  O2-  O212  1  0.66810243  0.20709465  0.92920123  1
  O2-  O213  1  0.66842520  0.70999290  0.26253251  1
  O2-  O214  1  0.66701134  0.70662681  0.60184489  1
  O2-  O215  1  0.66098792  0.70971705  0.93793540  1
  O2-  O216  1  0.08241745  0.46493159  0.06738475  1
  O2-  O217  1  0.08378448  0.46323887  0.40493164  1
  O2-  O218  1  0.08173904  0.45801948  0.72905113  1
  O2-  O219  1  0.08528218  0.95551772  0.05866068  1
  O2-  O220  1  0.07961083  0.96029134  0.40196652  1
  O2-  O221  1  0.08419811  0.95398925  0.73251858  1
  O2-  O222  1  0.58693081  0.45520749  0.06364381  1
  O2-  O223  1  0.58172470  0.44429377  0.39288006  1
  O2-  O224  1  0.58758988  0.45651093  0.73005155  1
  O2-  O225  1  0.58721819  0.95653152  0.06608899  1
  O2-  O226  1  0.58965452  0.95646071  0.39188623  1
  O2-  O227  1  0.58343811  0.95561744  0.73773755  1
  O2-  O228  1  0.20712832  0.33374298  0.06860508  1
  O2-  O229  1  0.20485869  0.33355773  0.40619005  1
  O2-  O230  1  0.19890716  0.33660344  0.73210924  1
  O2-  O231  1  0.20779322  0.83786653  0.06067231  1
  O2-  O232  1  0.19901549  0.82581527  0.39816513  1
  O2-  O233  1  0.20446726  0.83463410  0.73182578  1
  O2-  O234  1  0.70537840  0.33437386  0.06047782  1
  O2-  O235  1  0.70953938  0.33405106  0.39491900  1
  O2-  O236  1  0.70792193  0.33778648  0.72945263  1
  O2-  O237  1  0.70706677  0.83621808  0.06754533  1
  O2-  O238  1  0.70926658  0.83764296  0.39234885  1
  O2-  O239  1  0.70859040  0.82839820  0.73685546  1
  O2-  O240  1  0.45110805  0.41289850  0.26754172  1
  O2-  O241  1  0.45700916  0.41255998  0.60257310  1
  O2-  O242  1  0.45607657  0.42084071  0.93338834  1
  O2-  O243  1  0.46194119  0.91377710  0.26110323  1
  O2-  O244  1  0.45695268  0.91473817  0.60712734  1
  O2-  O245  1  0.46142355  0.90977843  0.93585084  1
  O2-  O246  1  0.96190159  0.42012965  0.26838907  1
  O2-  O247  1  0.95966468  0.41500917  0.59660769  1
  O2-  O248  1  0.96050764  0.41703465  0.93167290  1
  O2-  O249  1  0.95677580  0.92207017  0.26561927  1
  O2-  O250  1  0.95273990  0.92436466  0.60285521  1
  O2-  O251  1  0.95090911  0.92364238  0.93268074  1
  O2-  O252  1  0.32956378  0.29696028  0.27586608  1
  O2-  O253  1  0.32880078  0.30250223  0.60889368  1
  O2-  O254  1  0.32795774  0.29516647  0.93208308  1
  O2-  O255  1  0.32871065  0.79354196  0.26566291  1
  O2-  O256  1  0.33404772  0.80026067  0.60765397  1
  O2-  O257  1  0.33705436  0.79747472  0.93581743  1
  O2-  O258  1  0.83683183  0.29024405  0.26225227  1
  O2-  O259  1  0.83185792  0.29072025  0.59665131  1
  O2-  O260  1  0.83444359  0.29112262  0.93311718  1
  O2-  O261  1  0.83631860  0.78895872  0.26376093  1
  O2-  O262  1  0.83188522  0.79057695  0.60003235  1
  O2-  O263  1  0.82867990  0.79191014  0.93292816  1
  O2-  O264  1  0.41385479  0.03778516  0.06034255  1
  O2-  O265  1  0.42247644  0.03582773  0.39846983  1
  O2-  O266  1  0.41512816  0.03762337  0.74009286  1
  O2-  O267  1  0.41871810  0.54929053  0.06458510  1
  O2-  O268  1  0.41930768  0.54331158  0.39408725  1
  O2-  O269  1  0.41741383  0.53781887  0.73555043  1
  O2-  O270  1  0.91368363  0.04778496  0.06398739  1
  O2-  O271  1  0.91323684  0.05255425  0.39144618  1
  O2-  O272  1  0.92336916  0.05639777  0.73215145  1
  O2-  O273  1  0.91124714  0.54336087  0.05988597  1
  O2-  O274  1  0.91238804  0.53875077  0.40537767  1
  O2-  O275  1  0.91303795  0.53994204  0.72865697  1
  O2-  O276  1  0.29778357  0.16223689  0.06164816  1
  O2-  O277  1  0.29903858  0.16612141  0.40395734  1
  O2-  O278  1  0.29028449  0.16810769  0.73666582  1
  O2-  O279  1  0.29990558  0.66899066  0.06315304  1
  O2-  O280  1  0.30234767  0.66500977  0.39464371  1
  O2-  O281  1  0.29582407  0.66844666  0.73456781  1
  O2-  O282  1  0.79015643  0.16418955  0.06461426  1
  O2-  O283  1  0.78827189  0.16561333  0.39086715  1
  O2-  O284  1  0.78621958  0.17102873  0.73434416  1
  O2-  O285  1  0.78890777  0.66183364  0.06133117  1
  O2-  O286  1  0.78803282  0.66850349  0.40158696  1
  O2-  O287  1  0.79239551  0.66055752  0.73198322  1
