# generated using pymatgen
data_Ca2Al2SiO7
_symmetry_space_group_name_H-M   'P 1'
_cell_length_a   15.46901499
_cell_length_b   15.47118996
_cell_length_c   15.29437363
_cell_angle_alpha   89.99872786
_cell_angle_beta   89.98196568
_cell_angle_gamma   90.00104714
_symmetry_Int_Tables_number   1
_chemical_formula_structural   Ca2Al2SiO7
_chemical_formula_sum   'Ca48 Al48 Si24 O168'
_cell_volume   3660.31155315
_cell_formula_units_Z   24
loop_
 _symmetry_equiv_pos_site_id
 _symmetry_equiv_pos_as_xyz
  1  'x, y, z'
loop_
 _atom_type_symbol
 _atom_type_oxidation_number
  Ca2+  2.0
  Al0+  0.0
  Si0+  0.0
  O2-  -2.0
loop_
 _atom_site_type_symbol
 _atom_site_label
 _atom_site_symmetry_multiplicity
 _atom_site_fract_x
 _atom_site_fract_y
 _atom_site_fract_z
 _atom_site_occupancy
  Ca2+  Ca0  1  0.18141115  0.09914089  0.16296039  1
  Ca2+  Ca1  1  0.18110493  0.08872871  0.50203407  1
  Ca2+  Ca2  1  0.17628450  0.08277344  0.84408175  1
  Ca2+  Ca3  1  0.16913617  0.57823373  0.16687173  1
  Ca2+  Ca4  1  0.17371065  0.57016866  0.50550962  1
  Ca2+  Ca5  1  0.17362334  0.57489555  0.83713812  1
  Ca2+  Ca6  1  0.66569036  0.08729818  0.16894419  1
  Ca2+  Ca7  1  0.65591629  0.08446373  0.49979255  1
  Ca2+  Ca8  1  0.67139783  0.09892623  0.84089657  1
  Ca2+  Ca9  1  0.67159006  0.57110711  0.16902426  1
  Ca2+  Ca10  1  0.67442032  0.58015334  0.50184345  1
  Ca2+  Ca11  1  0.66927199  0.57076357  0.84286928  1
  Ca2+  Ca12  1  0.07343082  0.33468610  0.16333587  1
  Ca2+  Ca13  1  0.07935420  0.34587943  0.49630428  1
  Ca2+  Ca14  1  0.07407454  0.33645512  0.83219333  1
  Ca2+  Ca15  1  0.09063639  0.82531499  0.15355810  1
  Ca2+  Ca16  1  0.08226587  0.82960880  0.49624740  1
  Ca2+  Ca17  1  0.09744714  0.82759288  0.83681856  1
  Ca2+  Ca18  1  0.57563486  0.32657617  0.15786768  1
  Ca2+  Ca19  1  0.56757758  0.32103364  0.49420289  1
  Ca2+  Ca20  1  0.57414240  0.32629710  0.83472377  1
  Ca2+  Ca21  1  0.58016852  0.83326651  0.16353317  1
  Ca2+  Ca22  1  0.58453664  0.83265047  0.49264324  1
  Ca2+  Ca23  1  0.57495767  0.83275108  0.83475494  1
  Ca2+  Ca24  1  0.33257716  0.41424032  0.17110496  1
  Ca2+  Ca25  1  0.32488858  0.41014843  0.50802448  1
  Ca2+  Ca26  1  0.34443567  0.42439518  0.83872058  1
  Ca2+  Ca27  1  0.33360286  0.92814888  0.16227370  1
  Ca2+  Ca28  1  0.33831256  0.93245395  0.50206553  1
  Ca2+  Ca29  1  0.33366363  0.92981417  0.84293222  1
  Ca2+  Ca30  1  0.82970088  0.41099732  0.16934196  1
  Ca2+  Ca31  1  0.84017953  0.41689822  0.50232145  1
  Ca2+  Ca32  1  0.82662709  0.40265772  0.84047328  1
  Ca2+  Ca33  1  0.82896407  0.92827709  0.16933887  1
  Ca2+  Ca34  1  0.82374546  0.91951569  0.50184656  1
  Ca2+  Ca35  1  0.82748179  0.92706968  0.84269917  1
  Ca2+  Ca36  1  0.42197856  0.17206736  0.16116585  1
  Ca2+  Ca37  1  0.41571467  0.17086853  0.49308015  1
  Ca2+  Ca38  1  0.42023670  0.17025693  0.82633547  1
  Ca2+  Ca39  1  0.41111900  0.67463827  0.15421599  1
  Ca2+  Ca40  1  0.41334047  0.66660122  0.50012232  1
  Ca2+  Ca41  1  0.40273381  0.67149315  0.83362487  1
  Ca2+  Ca42  1  0.92140487  0.17390331  0.15438083  1
  Ca2+  Ca43  1  0.92291135  0.18087623  0.49493126  1
  Ca2+  Ca44  1  0.92052289  0.17209339  0.83476613  1
  Ca2+  Ca45  1  0.92119205  0.66597430  0.16150653  1
  Ca2+  Ca46  1  0.91707139  0.66457049  0.49133126  1
  Ca2+  Ca47  1  0.92653513  0.66660913  0.83328698  1
  Al0+  Al48  1  -0.00215950  -0.00123996  0.00428806  1
  Al0+  Al49  1  -0.00056901  -0.00061890  0.33421808  1
  Al0+  Al50  1  -0.00323161  -0.00118293  0.66464163  1
  Al0+  Al51  1  0.00016779  0.50325162  -0.00948748  1
  Al0+  Al52  1  0.00125739  0.50163713  0.33573192  1
  Al0+  Al53  1  0.00193617  0.50335809  0.66707279  1
  Al0+  Al54  1  0.50073282  -0.00244869  -0.00448378  1
  Al0+  Al55  1  0.50021645  -0.00185517  0.33732065  1
  Al0+  Al56  1  0.49996131  -0.00405594  0.66853915  1
  Al0+  Al57  1  0.50304416  0.49998727  0.00800780  1
  Al0+  Al58  1  0.50203796  0.50207330  0.33220402  1
  Al0+  Al59  1  0.50250822  0.50091943  0.66536169  1
  Al0+  Al60  1  0.24802060  0.25347700  -0.00298797  1
  Al0+  Al61  1  0.24865924  0.25143889  0.33903712  1
  Al0+  Al62  1  0.24660525  0.24868005  0.67412529  1
  Al0+  Al63  1  0.25085613  0.74928553  -0.00225875  1
  Al0+  Al64  1  0.24949305  0.74988744  0.33390764  1
  Al0+  Al65  1  0.24950151  0.74839371  0.66339734  1
  Al0+  Al66  1  0.74839063  0.25029858  0.00504000  1
  Al0+  Al67  1  0.74997419  0.24990848  0.33054084  1
  Al0+  Al68  1  0.75136933  0.24957464  0.65615033  1
  Al0+  Al69  1  0.75077229  0.74930161  -0.00099586  1
  Al0+  Al70  1  0.75080467  0.75088149  0.33974646  1
  Al0+  Al71  1  0.75000612  0.75068584  0.66824844  1
  Al0+  Al72  1  0.18158360  0.43175072  0.34518949  1
  Al0+  Al73  1  0.32022192  0.56861304  0.01444111  1
  Al0+  Al74  1  0.56846980  0.17643964  0.31721104  1
  Al0+  Al75  1  0.31880351  0.06894303  0.34576316  1
  Al0+  Al76  1  0.32275950  0.07511078  0.01433978  1
  Al0+  Al77  1  0.93219197  0.32098263  0.65184518  1
  Al0+  Al78  1  0.81927207  0.56781204  0.34573572  1
  Al0+  Al79  1  0.57014936  0.17732643  0.65091121  1
  Al0+  Al80  1  0.42660767  0.32219731  0.65273195  1
  Al0+  Al81  1  0.68139774  0.93201002  0.34673960  1
  Al0+  Al82  1  0.81924996  0.07127745  0.01341688  1
  Al0+  Al83  1  0.56880072  0.17821736  0.98659048  1
  Al0+  Al84  1  0.92881513  0.32079558  0.98602765  1
  Al0+  Al85  1  0.42587071  0.32251081  0.31856529  1
  Al0+  Al86  1  0.07168239  0.17681889  0.98567305  1
  Al0+  Al87  1  0.17711777  0.42791764  0.68488218  1
  Al0+  Al88  1  0.07150769  0.68052393  0.98482209  1
  Al0+  Al89  1  0.93129087  0.32258412  0.31967640  1
  Al0+  Al90  1  0.68081333  0.42845327  0.01428175  1
  Al0+  Al91  1  0.17971274  0.92933931  0.01327481  1
  Al0+  Al92  1  0.42739818  0.32377375  0.98673126  1
  Al0+  Al93  1  0.43005652  0.81923192  0.98612302  1
  Al0+  Al94  1  0.32308898  0.56946086  0.68169965  1
  Al0+  Al95  1  0.32099508  0.06984255  0.68147833  1
  Si0+  Si96  1  0.42920778  0.81848688  0.64972370  1
  Si0+  Si97  1  0.07174601  0.17569017  0.31796391  1
  Si0+  Si98  1  0.82367356  0.57365516  0.01461485  1
  Si0+  Si99  1  0.81882265  0.07061333  0.68015061  1
  Si0+  Si100  1  0.17559892  0.92799261  0.68041983  1
  Si0+  Si101  1  0.07095612  0.17344189  0.64982856  1
  Si0+  Si102  1  0.06969817  0.68176197  0.31862831  1
  Si0+  Si103  1  0.57468041  0.67958022  0.65073199  1
  Si0+  Si104  1  0.82170977  0.57358074  0.68306458  1
  Si0+  Si105  1  0.67888280  0.92656949  0.68396965  1
  Si0+  Si106  1  0.67629238  0.42534243  0.35314045  1
  Si0+  Si107  1  0.17653166  0.92321183  0.35012622  1
  Si0+  Si108  1  0.68306125  0.42921998  0.67939886  1
  Si0+  Si109  1  0.92587405  0.82101723  0.64961144  1
  Si0+  Si110  1  0.92734788  0.82156711  0.31858530  1
  Si0+  Si111  1  0.32449892  0.57554088  0.34887025  1
  Si0+  Si112  1  0.67786376  0.92439044  0.01597893  1
  Si0+  Si113  1  0.82480260  0.07480402  0.35253299  1
  Si0+  Si114  1  0.42951345  0.81834474  0.31939137  1
  Si0+  Si115  1  0.57461196  0.68000933  0.31912335  1
  Si0+  Si116  1  0.07028808  0.68178655  0.64787711  1
  Si0+  Si117  1  0.17365594  0.42937567  0.01680544  1
  Si0+  Si118  1  0.57410343  0.67724349  0.98448457  1
  Si0+  Si119  1  0.92559200  0.82233530  0.98317709  1
  O2-  O120  1  0.24579524  0.00631693  0.06363551  1
  O2-  O121  1  0.24194737  -0.00498979  0.39305581  1
  O2-  O122  1  0.24132762  -0.00180841  0.72425788  1
  O2-  O123  1  0.24838062  0.49178638  0.06117771  1
  O2-  O124  1  0.26315521  0.50017297  0.39133158  1
  O2-  O125  1  0.25750881  0.49230584  0.73249595  1
  O2-  O126  1  0.74378737  -0.00404906  0.05841437  1
  O2-  O127  1  0.75261003  0.00883845  0.39628048  1
  O2-  O128  1  0.74428448  0.00324300  0.72355462  1
  O2-  O129  1  0.75820986  0.50268180  0.05821153  1
  O2-  O130  1  0.74785489  0.49231897  0.39678936  1
  O2-  O131  1  0.75540753  0.49873064  0.72420747  1
  O2-  O132  1  -0.00045296  0.24141313  0.27528435  1
  O2-  O133  1  0.01004902  0.24939370  0.60530342  1
  O2-  O134  1  0.00153048  0.25041403  0.93496888  1
  O2-  O135  1  0.00335661  0.75686213  0.27603079  1
  O2-  O136  1  -0.00217592  0.75184223  0.60578830  1
  O2-  O137  1  -0.00222152  0.75748816  0.93848567  1
  O2-  O138  1  0.50057754  0.25300350  0.26924347  1
  O2-  O139  1  0.49286418  0.24446483  0.60246116  1
  O2-  O140  1  0.49097823  0.24385766  0.93696415  1
  O2-  O141  1  0.49671257  0.74335493  0.27762752  1
  O2-  O142  1  0.50075019  0.74748169  0.60793003  1
  O2-  O143  1  0.50412061  0.74338069  0.93882275  1
  O2-  O144  1  0.06890156  0.17910588  0.09963355  1
  O2-  O145  1  0.07084955  0.17365692  0.42385624  1
  O2-  O146  1  0.06349441  0.16478657  0.75423208  1
  O2-  O147  1  0.06894026  0.68009482  0.09845311  1
  O2-  O148  1  0.06794661  0.68382336  0.42395204  1
  O2-  O149  1  0.07038761  0.68414101  0.75250423  1
  O2-  O150  1  0.57007560  0.17996456  0.09983479  1
  O2-  O151  1  0.56330682  0.17576737  0.43095865  1
  O2-  O152  1  0.57405677  0.18073551  0.76381532  1
  O2-  O153  1  0.57642049  0.68093327  0.09022172  1
  O2-  O154  1  0.57649774  0.68244011  0.42463619  1
  O2-  O155  1  0.58164946  0.68296473  0.75501333  1
  O2-  O156  1  0.17735135  0.43606463  0.23257015  1
  O2-  O157  1  0.17397951  0.43579988  0.57100583  1
  O2-  O158  1  0.16853571  0.43454529  0.91187001  1
  O2-  O159  1  0.17892836  0.91434238  0.24598469  1
  O2-  O160  1  0.17576782  0.92717718  0.57432313  1
  O2-  O161  1  0.18469345  0.92821244  0.89927491  1
  O2-  O162  1  0.67574978  0.42904624  0.24791415  1
  O2-  O163  1  0.68534030  0.43424158  0.57442914  1
  O2-  O164  1  0.68201038  0.43035771  0.90040406  1
  O2-  O165  1  0.68434464  0.92787996  0.23430395  1
  O2-  O166  1  0.68193647  0.92112790  0.57896103  1
  O2-  O167  1  0.68192309  0.91796548  0.91035693  1
  O2-  O168  1  0.43133516  0.32566202  0.10011357  1
  O2-  O169  1  0.42443602  0.32039739  0.43235875  1
  O2-  O170  1  0.43417521  0.32593951  0.76550536  1
  O2-  O171  1  0.43178300  0.81842037  0.09973222  1
  O2-  O172  1  0.43068931  0.81701558  0.42501021  1
  O2-  O173  1  0.42946664  0.81803374  0.75431871  1
  O2-  O174  1  0.93037776  0.32176856  0.09961990  1
  O2-  O175  1  0.93616564  0.32420960  0.43306067  1
  O2-  O176  1  0.92746053  0.31748302  0.76414600  1
  O2-  O177  1  0.92106938  0.81783692  0.08873502  1
  O2-  O178  1  0.92722181  0.81907449  0.42419026  1
  O2-  O179  1  0.92230104  0.81979795  0.75395919  1
  O2-  O180  1  0.31973087  0.06771577  0.23351600  1
  O2-  O181  1  0.32204300  0.06604402  0.56780689  1
  O2-  O182  1  0.32438879  0.07036457  0.90088693  1
  O2-  O183  1  0.31958221  0.58331826  0.24402151  1
  O2-  O184  1  0.31893349  0.57539177  0.56789380  1
  O2-  O185  1  0.31876000  0.56986728  0.90160136  1
  O2-  O186  1  0.82852133  0.07070840  0.24756137  1
  O2-  O187  1  0.82098103  0.06626498  0.57526174  1
  O2-  O188  1  0.81748658  0.07022494  0.89951771  1
  O2-  O189  1  0.81812034  0.57006446  0.23317379  1
  O2-  O190  1  0.81968361  0.57707410  0.57780522  1
  O2-  O191  1  0.82029846  0.57801838  0.90885629  1
  O2-  O192  1  0.05126757  0.08014188  0.27328128  1
  O2-  O193  1  0.03852770  0.08296604  0.59902744  1
  O2-  O194  1  0.04109830  0.07763945  0.93501996  1
  O2-  O195  1  0.03690497  0.59249369  0.27123065  1
  O2-  O196  1  0.04075850  0.59104088  0.60012073  1
  O2-  O197  1  0.03834136  0.58825174  0.92465792  1
  O2-  O198  1  0.53991505  0.07690228  0.26683121  1
  O2-  O199  1  0.54824357  0.07406471  0.60386725  1
  O2-  O200  1  0.55415744  0.07657085  0.93498185  1
  O2-  O201  1  0.55625567  0.58587287  0.27333782  1
  O2-  O202  1  0.55053120  0.58783093  0.60193924  1
  O2-  O203  1  0.55087886  0.58294428  0.94091824  1
  O2-  O204  1  0.16378039  0.20673976  0.27380317  1
  O2-  O205  1  0.16756305  0.19260824  0.60878953  1
  O2-  O206  1  0.17009951  0.20209440  0.93246658  1
  O2-  O207  1  0.16306409  0.70580742  0.27234399  1
  O2-  O208  1  0.16064756  0.71106847  0.59779555  1
  O2-  O209  1  0.16623648  0.71267624  0.92881328  1
  O2-  O210  1  0.67102690  0.19771141  0.27055814  1
  O2-  O211  1  0.66673114  0.20769674  0.59451832  1
  O2-  O212  1  0.66527800  0.21530640  0.93515666  1
  O2-  O213  1  0.66333289  0.71633800  0.27185261  1
  O2-  O214  1  0.66472476  0.71236783  0.60074596  1
  O2-  O215  1  0.66674168  0.70406889  0.93583101  1
  O2-  O216  1  0.08223089  0.46471680  0.06256904  1
  O2-  O217  1  0.08890669  0.47173232  0.40190231  1
  O2-  O218  1  0.08203104  0.46864692  0.73779241  1
  O2-  O219  1  0.07714462  0.94304514  0.06275383  1
  O2-  O220  1  0.08063253  0.94482557  0.39447854  1
  O2-  O221  1  0.07953992  0.94723910  0.72424534  1
  O2-  O222  1  0.58895051  0.46395745  0.07405447  1
  O2-  O223  1  0.58410799  0.45642291  0.39994840  1
  O2-  O224  1  0.59259110  0.45995664  0.72668461  1
  O2-  O225  1  0.58310256  0.94553353  0.05965928  1
  O2-  O226  1  0.58442744  0.95664502  0.40371996  1
  O2-  O227  1  0.58492101  0.94555050  0.72939476  1
  O2-  O228  1  0.19071793  0.33355107  0.06008921  1
  O2-  O229  1  0.20354199  0.33472780  0.40266353  1
  O2-  O230  1  0.18748904  0.32516965  0.73262756  1
  O2-  O231  1  0.21433980  0.83266271  0.06634667  1
  O2-  O232  1  0.20483835  0.83158767  0.40081166  1
  O2-  O233  1  0.20458955  0.83438130  0.72383079  1
  O2-  O234  1  0.71213871  0.33524728  0.07257779  1
  O2-  O235  1  0.69965253  0.33075134  0.39724135  1
  O2-  O236  1  0.71248152  0.33653854  0.72320713  1
  O2-  O237  1  0.70675580  0.83211227  0.06415690  1
  O2-  O238  1  0.71623084  0.83759295  0.40506028  1
  O2-  O239  1  0.71331551  0.83762484  0.73321856  1
  O2-  O240  1  0.44999503  0.42474777  0.27063809  1
  O2-  O241  1  0.45913535  0.42027421  0.59904279  1
  O2-  O242  1  0.46730534  0.42010435  0.93588266  1
  O2-  O243  1  0.46214544  0.90799538  0.27289851  1
  O2-  O244  1  0.45984246  0.90878190  0.60120986  1
  O2-  O245  1  0.46268822  0.91276790  0.92776290  1
  O2-  O246  1  0.96629750  0.41826929  0.26686125  1
  O2-  O247  1  0.95926282  0.42118898  0.60144094  1
  O2-  O248  1  0.95188761  0.42004894  0.93175463  1
  O2-  O249  1  0.94808876  0.91579083  0.27348315  1
  O2-  O250  1  0.95184075  0.91263822  0.60036234  1
  O2-  O251  1  0.94560367  0.91706653  0.93856874  1
  O2-  O252  1  0.32669811  0.29346589  0.26825992  1
  O2-  O253  1  0.32366011  0.29843439  0.60687416  1
  O2-  O254  1  0.32525843  0.31056990  0.93760054  1
  O2-  O255  1  0.33643917  0.79343328  0.27335204  1
  O2-  O256  1  0.33791927  0.79074362  0.60065290  1
  O2-  O257  1  0.33574483  0.78628605  0.93003924  1
  O2-  O258  1  0.83152547  0.29924391  0.26995968  1
  O2-  O259  1  0.83814128  0.28835737  0.59358692  1
  O2-  O260  1  0.83102609  0.28800566  0.93546596  1
  O2-  O261  1  0.83782714  0.78730090  0.27202339  1
  O2-  O262  1  0.83503404  0.79018900  0.60084377  1
  O2-  O263  1  0.83426865  0.79230843  0.93340179  1
  O2-  O264  1  0.41986718  0.03773642  0.06496901  1
  O2-  O265  1  0.41255954  0.03234461  0.40187205  1
  O2-  O266  1  0.41590905  0.03199798  0.73443091  1
  O2-  O267  1  0.41847391  0.54640645  0.06895784  1
  O2-  O268  1  0.42203884  0.56081644  0.39083954  1
  O2-  O269  1  0.42575715  0.55229994  0.73130374  1
  O2-  O270  1  0.91355731  0.03886617  0.07082302  1
  O2-  O271  1  0.91686301  0.04446832  0.40072785  1
  O2-  O272  1  0.90875865  0.03759405  0.72821711  1
  O2-  O273  1  0.91905823  0.55213617  0.05737443  1
  O2-  O274  1  0.91601938  0.54074033  0.40199343  1
  O2-  O275  1  0.91567089  0.55228070  0.72728015  1
  O2-  O276  1  0.29531919  0.17483948  0.06622879  1
  O2-  O277  1  0.28715935  0.16402927  0.40237815  1
  O2-  O278  1  0.29541519  0.16656473  0.73563702  1
  O2-  O279  1  0.28549400  0.66454349  0.06716723  1
  O2-  O280  1  0.29155621  0.66588551  0.39909714  1
  O2-  O281  1  0.28720637  0.66786950  0.73178388  1
  O2-  O282  1  0.78824244  0.16524033  0.07051945  1
  O2-  O283  1  0.80256668  0.16981344  0.39683980  1
  O2-  O284  1  0.79305969  0.16410379  0.72432988  1
  O2-  O285  1  0.79569416  0.66591571  0.06283146  1
  O2-  O286  1  0.78693444  0.66335362  0.40311200  1
  O2-  O287  1  0.78999176  0.66387546  0.73115737  1
