# generated using pymatgen
data_Ca2Al2SiO7
_symmetry_space_group_name_H-M   'P 1'
_cell_length_a   15.45959359
_cell_length_b   15.45993666
_cell_length_c   15.28570240
_cell_angle_alpha   89.99677964
_cell_angle_beta   89.98995954
_cell_angle_gamma   89.99848232
_symmetry_Int_Tables_number   1
_chemical_formula_structural   Ca2Al2SiO7
_chemical_formula_sum   'Ca48 Al48 Si24 O168'
_cell_volume   3653.34911633
_cell_formula_units_Z   24
loop_
 _symmetry_equiv_pos_site_id
 _symmetry_equiv_pos_as_xyz
  1  'x, y, z'
loop_
 _atom_type_symbol
 _atom_type_oxidation_number
  Ca2+  2.0
  Al0+  0.0
  Si0+  0.0
  O2-  -2.0
loop_
 _atom_site_type_symbol
 _atom_site_label
 _atom_site_symmetry_multiplicity
 _atom_site_fract_x
 _atom_site_fract_y
 _atom_site_fract_z
 _atom_site_occupancy
  Ca2+  Ca0  1  0.16290879  0.08240007  0.17167297  1
  Ca2+  Ca1  1  0.15810624  0.08059817  0.50810657  1
  Ca2+  Ca2  1  0.16158779  0.07925325  0.83024498  1
  Ca2+  Ca3  1  0.18097606  0.58546855  0.17180921  1
  Ca2+  Ca4  1  0.17714191  0.57875376  0.51251255  1
  Ca2+  Ca5  1  0.17249765  0.58644919  0.83197336  1
  Ca2+  Ca6  1  0.66844336  0.08038794  0.16797249  1
  Ca2+  Ca7  1  0.67261898  0.08864127  0.50721050  1
  Ca2+  Ca8  1  0.67971060  0.07814027  0.83970611  1
  Ca2+  Ca9  1  0.66769125  0.57847082  0.17679443  1
  Ca2+  Ca10  1  0.66652435  0.57458127  0.50753871  1
  Ca2+  Ca11  1  0.66667306  0.58198061  0.82792983  1
  Ca2+  Ca12  1  0.07229929  0.33114874  0.16206381  1
  Ca2+  Ca13  1  0.07465570  0.33276526  0.49590329  1
  Ca2+  Ca14  1  0.07276470  0.33030790  0.82033059  1
  Ca2+  Ca15  1  0.07593180  0.83181712  0.16103337  1
  Ca2+  Ca16  1  0.08726303  0.82867650  0.50485541  1
  Ca2+  Ca17  1  0.07988191  0.82958124  0.82579510  1
  Ca2+  Ca18  1  0.58359129  0.33370066  0.17315465  1
  Ca2+  Ca19  1  0.58334217  0.33587645  0.49160327  1
  Ca2+  Ca20  1  0.58479671  0.33518557  0.82780008  1
  Ca2+  Ca21  1  0.58066751  0.82692896  0.15756191  1
  Ca2+  Ca22  1  0.58030920  0.81895219  0.49931952  1
  Ca2+  Ca23  1  0.57379589  0.83237701  0.82571134  1
  Ca2+  Ca24  1  0.33826583  0.42710930  0.17523769  1
  Ca2+  Ca25  1  0.33281198  0.42413538  0.50729658  1
  Ca2+  Ca26  1  0.32708229  0.42970560  0.83425250  1
  Ca2+  Ca27  1  0.33561772  0.91555337  0.16772757  1
  Ca2+  Ca28  1  0.32882969  0.91927508  0.50950806  1
  Ca2+  Ca29  1  0.32891791  0.90530835  0.83385409  1
  Ca2+  Ca30  1  0.83115389  0.41116972  0.17152563  1
  Ca2+  Ca31  1  0.82510451  0.41264070  0.50835881  1
  Ca2+  Ca32  1  0.83429304  0.41624289  0.83137093  1
  Ca2+  Ca33  1  0.83189450  0.91901246  0.16594033  1
  Ca2+  Ca34  1  0.83146893  0.92697773  0.50891563  1
  Ca2+  Ca35  1  0.83424510  0.92762840  0.84247452  1
  Ca2+  Ca36  1  0.42138924  0.17251641  0.16738028  1
  Ca2+  Ca37  1  0.42451246  0.17696220  0.48967158  1
  Ca2+  Ca38  1  0.42121482  0.16771206  0.82796134  1
  Ca2+  Ca39  1  0.42107466  0.66388976  0.16294677  1
  Ca2+  Ca40  1  0.42461689  0.65847208  0.49897867  1
  Ca2+  Ca41  1  0.41658321  0.67218099  0.82446875  1
  Ca2+  Ca42  1  0.91497236  0.17621015  0.16391024  1
  Ca2+  Ca43  1  0.92240743  0.17577171  0.49965367  1
  Ca2+  Ca44  1  0.91366664  0.17289678  0.82549963  1
  Ca2+  Ca45  1  0.91905695  0.67246506  0.15837003  1
  Ca2+  Ca46  1  0.92385351  0.65462993  0.50356429  1
  Ca2+  Ca47  1  0.91704995  0.67269332  0.82332514  1
  Al0+  Al48  1  0.00060189  0.00028796  0.00250396  1
  Al0+  Al49  1  -0.00080644  -0.00029872  0.33104097  1
  Al0+  Al50  1  0.00028561  0.00083597  0.67241413  1
  Al0+  Al51  1  0.00057799  0.49751037  -0.00279062  1
  Al0+  Al52  1  0.00217646  0.50165325  0.32584448  1
  Al0+  Al53  1  -0.00198479  0.50105722  0.66534187  1
  Al0+  Al54  1  0.49939305  -0.00099772  -0.00048166  1
  Al0+  Al55  1  0.49929875  -0.00144972  0.33237470  1
  Al0+  Al56  1  0.49929318  0.00064777  0.66150036  1
  Al0+  Al57  1  0.50002473  0.49910519  0.00340594  1
  Al0+  Al58  1  0.50257051  0.50136343  0.33261818  1
  Al0+  Al59  1  0.50028981  0.50045116  0.67296267  1
  Al0+  Al60  1  0.25015918  0.24983989  0.00017851  1
  Al0+  Al61  1  0.24988543  0.24988132  0.32554092  1
  Al0+  Al62  1  0.25034640  0.24876617  0.66825815  1
  Al0+  Al63  1  0.25203768  0.74950712  0.00372261  1
  Al0+  Al64  1  0.24976839  0.75101178  0.33779826  1
  Al0+  Al65  1  0.24763899  0.75333395  0.66654261  1
  Al0+  Al66  1  0.75061987  0.24929681  0.00055251  1
  Al0+  Al67  1  0.75042801  0.24867603  0.32999567  1
  Al0+  Al68  1  0.74987869  0.24945679  0.67201854  1
  Al0+  Al69  1  0.75034651  0.74884363  -0.00147060  1
  Al0+  Al70  1  0.74986712  0.75083164  0.33100961  1
  Al0+  Al71  1  0.74666584  0.75030946  0.66476589  1
  Al0+  Al72  1  0.57121901  0.68011579  0.31852546  1
  Al0+  Al73  1  0.67901005  0.42835809  0.68269002  1
  Al0+  Al74  1  0.17702849  0.42635329  0.67993228  1
  Al0+  Al75  1  0.32031237  0.57182237  0.68219461  1
  Al0+  Al76  1  0.57028750  0.67778191  0.65110628  1
  Al0+  Al77  1  0.92833804  0.31984756  0.98268066  1
  Al0+  Al78  1  0.42688958  0.82233680  0.64959029  1
  Al0+  Al79  1  0.06932112  0.67934753  0.65388782  1
  Al0+  Al80  1  0.82123555  0.57294914  0.68073254  1
  Al0+  Al81  1  0.68333107  0.42957545  0.34547018  1
  Al0+  Al82  1  0.18006722  0.93076672  0.68092036  1
  Al0+  Al83  1  0.31968538  0.57022581  0.01549723  1
  Al0+  Al84  1  0.82188584  0.07131532  0.01881623  1
  Al0+  Al85  1  0.92934581  0.32248860  0.31748768  1
  Al0+  Al86  1  0.92857758  0.82084466  0.98636256  1
  Al0+  Al87  1  0.07068359  0.17691053  0.31717112  1
  Al0+  Al88  1  0.82021647  0.06945543  0.67984899  1
  Al0+  Al89  1  0.43030767  0.82022901  0.98653670  1
  Al0+  Al90  1  0.07163062  0.17824554  0.65305452  1
  Al0+  Al91  1  0.32106799  0.57051359  0.34894705  1
  Al0+  Al92  1  0.67774244  0.92767449  0.01470457  1
  Al0+  Al93  1  0.57234980  0.17613720  0.31810738  1
  Al0+  Al94  1  0.92729081  0.32180006  0.65126351  1
  Al0+  Al95  1  0.42971405  0.32294892  0.31916224  1
  Si0+  Si96  1  0.18062014  0.92947672  0.01658538  1
  Si0+  Si97  1  0.56922577  0.17942549  0.98457550  1
  Si0+  Si98  1  0.92675203  0.82325854  0.65088358  1
  Si0+  Si99  1  0.17704829  0.42750228  0.34773301  1
  Si0+  Si100  1  0.07295109  0.68040455  0.31802684  1
  Si0+  Si101  1  0.67933262  0.42902729  0.01697822  1
  Si0+  Si102  1  0.17751681  0.42651557  0.01801340  1
  Si0+  Si103  1  0.57278808  0.67495401  0.98261257  1
  Si0+  Si104  1  0.42859074  0.32211143  0.98393531  1
  Si0+  Si105  1  0.32174870  0.07191538  0.34699814  1
  Si0+  Si106  1  0.17770628  0.93106669  0.34862706  1
  Si0+  Si107  1  0.82488281  0.57524359  0.34743746  1
  Si0+  Si108  1  0.67730325  0.92670683  0.34964236  1
  Si0+  Si109  1  0.07416020  0.17784979  0.98191125  1
  Si0+  Si110  1  0.42655607  0.82095706  0.31634045  1
  Si0+  Si111  1  0.81990635  0.06869510  0.34900739  1
  Si0+  Si112  1  0.42910723  0.32109365  0.65492811  1
  Si0+  Si113  1  0.82294058  0.57055186  0.01431764  1
  Si0+  Si114  1  0.32204755  0.07324337  0.01600693  1
  Si0+  Si115  1  0.57091940  0.17997012  0.65405026  1
  Si0+  Si116  1  0.67574970  0.92827765  0.68142170  1
  Si0+  Si117  1  0.07231677  0.67917327  0.98486342  1
  Si0+  Si118  1  0.32476150  0.07254700  0.68291232  1
  Si0+  Si119  1  0.92946613  0.82142167  0.31945439  1
  O2-  O120  1  0.25032545  0.00236216  0.05815113  1
  O2-  O121  1  0.24785454  0.00381833  0.38906636  1
  O2-  O122  1  0.25662017  0.00373148  0.72779570  1
  O2-  O123  1  0.24594333  0.49489431  0.06331809  1
  O2-  O124  1  0.24779976  0.49326763  0.39276632  1
  O2-  O125  1  0.24607685  0.50104914  0.73117599  1
  O2-  O126  1  0.75077994  -0.00275930  0.06803295  1
  O2-  O127  1  0.74540366  0.00088667  0.39160997  1
  O2-  O128  1  0.74754777  -0.00741003  0.72617264  1
  O2-  O129  1  0.75108278  0.50062208  0.05736382  1
  O2-  O130  1  0.76021023  0.50271855  0.39019665  1
  O2-  O131  1  0.75162917  0.49978301  0.73282583  1
  O2-  O132  1  0.00230536  0.25141841  0.26664178  1
  O2-  O133  1  0.00433043  0.25404308  0.60291070  1
  O2-  O134  1  0.00449545  0.24534035  0.93892712  1
  O2-  O135  1  -0.00240961  0.74738560  0.27694604  1
  O2-  O136  1  -0.00903558  0.75076539  0.60560174  1
  O2-  O137  1  0.00092409  0.74430140  0.94024256  1
  O2-  O138  1  0.50002611  0.24861509  0.26857300  1
  O2-  O139  1  0.50026299  0.25073599  0.61236309  1
  O2-  O140  1  0.49914897  0.25098374  0.94110180  1
  O2-  O141  1  0.49571852  0.75375887  0.27124514  1
  O2-  O142  1  0.49586969  0.74749744  0.60048262  1
  O2-  O143  1  0.50627544  0.74686856  0.94080206  1
  O2-  O144  1  0.07606510  0.17947383  0.08763573  1
  O2-  O145  1  0.06707545  0.17253891  0.42989108  1
  O2-  O146  1  0.06943120  0.17709092  0.76669597  1
  O2-  O147  1  0.07174537  0.68239574  0.09135451  1
  O2-  O148  1  0.07407195  0.68103654  0.42260770  1
  O2-  O149  1  0.07034243  0.68409186  0.76706954  1
  O2-  O150  1  0.56712922  0.17968691  0.08944687  1
  O2-  O151  1  0.57053715  0.17546415  0.43196169  1
  O2-  O152  1  0.56846184  0.17831351  0.75952766  1
  O2-  O153  1  0.57146877  0.67386896  0.08863873  1
  O2-  O154  1  0.57278003  0.68069885  0.43080996  1
  O2-  O155  1  0.56990729  0.67993786  0.76488018  1
  O2-  O156  1  0.17629123  0.43225931  0.24182010  1
  O2-  O157  1  0.18160780  0.42637922  0.56593900  1
  O2-  O158  1  0.17901328  0.42597322  0.91292768  1
  O2-  O159  1  0.17783991  0.92930981  0.24311393  1
  O2-  O160  1  0.17868425  0.93310058  0.56735844  1
  O2-  O161  1  0.18095964  0.92833597  0.91207646  1
  O2-  O162  1  0.68392800  0.43220194  0.23165146  1
  O2-  O163  1  0.67785321  0.42625280  0.56926167  1
  O2-  O164  1  0.67680386  0.42885843  0.91233347  1
  O2-  O165  1  0.67932762  0.92497554  0.24477737  1
  O2-  O166  1  0.67658900  0.93182789  0.57528848  1
  O2-  O167  1  0.67637411  0.93233820  0.90137499  1
  O2-  O168  1  0.42931513  0.32156258  0.08871656  1
  O2-  O169  1  0.43012855  0.32057812  0.43305758  1
  O2-  O170  1  0.43022494  0.31808116  0.76065447  1
  O2-  O171  1  0.42956899  0.81911966  0.09995859  1
  O2-  O172  1  0.42603080  0.82228139  0.42124022  1
  O2-  O173  1  0.43015030  0.82326248  0.76345873  1
  O2-  O174  1  0.92917527  0.32014294  0.09586721  1
  O2-  O175  1  0.92858798  0.32190946  0.43035026  1
  O2-  O176  1  0.92609024  0.31714023  0.76495716  1
  O2-  O177  1  0.93181487  0.81841366  0.10037520  1
  O2-  O178  1  0.93087152  0.82530957  0.42404361  1
  O2-  O179  1  0.92978328  0.82367531  0.75651813  1
  O2-  O180  1  0.32331691  0.06801508  0.24158892  1
  O2-  O181  1  0.32703800  0.07228294  0.57735218  1
  O2-  O182  1  0.32285089  0.07609798  0.91134488  1
  O2-  O183  1  0.31847209  0.57240630  0.23535238  1
  O2-  O184  1  0.32166488  0.56767472  0.56856162  1
  O2-  O185  1  0.31845777  0.57061176  0.90309056  1
  O2-  O186  1  0.82095828  0.06529620  0.24416036  1
  O2-  O187  1  0.81789806  0.06907385  0.56606140  1
  O2-  O188  1  0.81971343  0.07098909  0.90539422  1
  O2-  O189  1  0.82313620  0.57859665  0.24123362  1
  O2-  O190  1  0.81918831  0.57209274  0.56692813  1
  O2-  O191  1  0.82347976  0.57119026  0.90998939  1
  O2-  O192  1  0.03932994  0.07910505  0.26245911  1
  O2-  O193  1  0.03815522  0.08056121  0.60105441  1
  O2-  O194  1  0.05081391  0.08228823  0.93988741  1
  O2-  O195  1  0.05059812  0.58926311  0.26674296  1
  O2-  O196  1  0.04227249  0.58337060  0.59686313  1
  O2-  O197  1  0.05185885  0.58374511  0.94198565  1
  O2-  O198  1  0.54192660  0.07797071  0.26463601  1
  O2-  O199  1  0.54476242  0.08927931  0.60376332  1
  O2-  O200  1  0.53919238  0.08883781  0.93663237  1
  O2-  O201  1  0.54114654  0.58454825  0.26303101  1
  O2-  O202  1  0.54187683  0.57782058  0.60083456  1
  O2-  O203  1  0.54375262  0.58185491  0.93772064  1
  O2-  O204  1  0.17072410  0.19812321  0.26388703  1
  O2-  O205  1  0.17359580  0.19797116  0.60291882  1
  O2-  O206  1  0.16874395  0.20189230  0.93643304  1
  O2-  O207  1  0.16244803  0.71514749  0.26947656  1
  O2-  O208  1  0.16314691  0.71544601  0.59798840  1
  O2-  O209  1  0.16461530  0.70987422  0.94051656  1
  O2-  O210  1  0.66938484  0.20402433  0.26348039  1
  O2-  O211  1  0.66219165  0.20786706  0.60703240  1
  O2-  O212  1  0.66103478  0.20782950  0.93839913  1
  O2-  O213  1  0.66791650  0.71156256  0.26342786  1
  O2-  O214  1  0.66748601  0.70810745  0.59554667  1
  O2-  O215  1  0.66772909  0.69620010  0.93856398  1
  O2-  O216  1  0.08333114  0.45221201  0.06359655  1
  O2-  O217  1  0.08371534  0.45664219  0.39245933  1
  O2-  O218  1  0.07796434  0.45300557  0.73083725  1
  O2-  O219  1  0.08914473  0.95621853  0.06590308  1
  O2-  O220  1  0.08543062  0.95754803  0.39565160  1
  O2-  O221  1  0.08526925  0.96194065  0.73834806  1
  O2-  O222  1  0.58762545  0.45627380  0.06528153  1
  O2-  O223  1  0.58702383  0.46130304  0.39834036  1
  O2-  O224  1  0.58208088  0.45718053  0.73922660  1
  O2-  O225  1  0.57961508  0.95850225  0.06856777  1
  O2-  O226  1  0.58377591  0.95059373  0.39522768  1
  O2-  O227  1  0.58330604  0.95869394  0.72706320  1
  O2-  O228  1  0.20364695  0.33253407  0.06381102  1
  O2-  O229  1  0.19811204  0.33106041  0.38900509  1
  O2-  O230  1  0.20767843  0.32920858  0.73517595  1
  O2-  O231  1  0.21013264  0.83915286  0.06660780  1
  O2-  O232  1  0.20646804  0.84016966  0.39701833  1
  O2-  O233  1  0.20842422  0.83523615  0.73776174  1
  O2-  O234  1  0.70742080  0.33712138  0.06344053  1
  O2-  O235  1  0.70888632  0.33049058  0.39761235  1
  O2-  O236  1  0.70588786  0.33057736  0.73813505  1
  O2-  O237  1  0.70453989  0.82743497  0.06639251  1
  O2-  O238  1  0.71014113  0.83679734  0.39798838  1
  O2-  O239  1  0.69506264  0.83339230  0.72557906  1
  O2-  O240  1  0.46290207  0.41860904  0.26386698  1
  O2-  O241  1  0.45703601  0.41280046  0.60925342  1
  O2-  O242  1  0.45856613  0.41343015  0.93717107  1
  O2-  O243  1  0.45085587  0.91503119  0.27033354  1
  O2-  O244  1  0.45710576  0.92041983  0.59513084  1
  O2-  O245  1  0.45580293  0.91847708  0.93278584  1
  O2-  O246  1  0.95575681  0.42147377  0.26197293  1
  O2-  O247  1  0.94833656  0.42186603  0.59995990  1
  O2-  O248  1  0.95762682  0.41775176  0.93040768  1
  O2-  O249  1  0.96182656  0.91001442  0.26838255  1
  O2-  O250  1  0.95894218  0.91471875  0.60465856  1
  O2-  O251  1  0.96177465  0.91760977  0.93497758  1
  O2-  O252  1  0.33195392  0.29679065  0.26308959  1
  O2-  O253  1  0.33832286  0.29310165  0.60669438  1
  O2-  O254  1  0.33652221  0.29377902  0.93752518  1
  O2-  O255  1  0.33208934  0.79556752  0.27090602  1
  O2-  O256  1  0.32633510  0.80101811  0.59962263  1
  O2-  O257  1  0.33292688  0.78824908  0.93475458  1
  O2-  O258  1  0.83270991  0.28998211  0.26363052  1
  O2-  O259  1  0.82979225  0.28607201  0.60026339  1
  O2-  O260  1  0.83068582  0.28911084  0.93117548  1
  O2-  O261  1  0.83753009  0.79663137  0.27090456  1
  O2-  O262  1  0.83113657  0.80485563  0.60645006  1
  O2-  O263  1  0.83157668  0.79301100  0.93251529  1
  O2-  O264  1  0.41261730  0.04346899  0.06441515  1
  O2-  O265  1  0.41245142  0.04215330  0.39608686  1
  O2-  O266  1  0.41866744  0.04714453  0.72953201  1
  O2-  O267  1  0.41664363  0.53798260  0.06914699  1
  O2-  O268  1  0.41858494  0.54051168  0.39956977  1
  O2-  O269  1  0.41642814  0.54127585  0.73771284  1
  O2-  O270  1  0.92125302  0.04356167  0.07086200  1
  O2-  O271  1  0.91035977  0.03507978  0.39576947  1
  O2-  O272  1  0.91486416  0.03923688  0.73648078  1
  O2-  O273  1  0.91540478  0.54325492  0.06220113  1
  O2-  O274  1  0.92158056  0.55355712  0.38858906  1
  O2-  O275  1  0.92064774  0.55044735  0.73366545  1
  O2-  O276  1  0.29490248  0.16497110  0.06503004  1
  O2-  O277  1  0.29880682  0.16607931  0.39140287  1
  O2-  O278  1  0.30041420  0.16513945  0.73158312  1
  O2-  O279  1  0.28804946  0.66601500  0.07195869  1
  O2-  O280  1  0.28789970  0.66695051  0.40179972  1
  O2-  O281  1  0.29119566  0.67097603  0.73203286  1
  O2-  O282  1  0.78842426  0.16878749  0.07103891  1
  O2-  O283  1  0.79426134  0.16130240  0.39461209  1
  O2-  O284  1  0.78529132  0.16268449  0.73653508  1
  O2-  O285  1  0.79713433  0.66281346  0.06263103  1
  O2-  O286  1  0.79818812  0.66820545  0.39386332  1
  O2-  O287  1  0.79147756  0.67220047  0.73332730  1
