# generated using pymatgen
data_Ca2Al2SiO7
_symmetry_space_group_name_H-M   'P 1'
_cell_length_a   15.45426184
_cell_length_b   15.45383845
_cell_length_c   15.28055420
_cell_angle_alpha   89.99532991
_cell_angle_beta   89.99024284
_cell_angle_gamma   90.01250734
_symmetry_Int_Tables_number   1
_chemical_formula_structural   Ca2Al2SiO7
_chemical_formula_sum   'Ca48 Al48 Si24 O168'
_cell_volume   3649.41893946
_cell_formula_units_Z   24
loop_
 _symmetry_equiv_pos_site_id
 _symmetry_equiv_pos_as_xyz
  1  'x, y, z'
loop_
 _atom_type_symbol
 _atom_type_oxidation_number
  Ca2+  2.0
  Al0+  0.0
  Si0+  0.0
  O2-  -2.0
loop_
 _atom_site_type_symbol
 _atom_site_label
 _atom_site_symmetry_multiplicity
 _atom_site_fract_x
 _atom_site_fract_y
 _atom_site_fract_z
 _atom_site_occupancy
  Ca2+  Ca0  1  0.16961067  0.07624676  0.17129786  1
  Ca2+  Ca1  1  0.17603696  0.09001426  0.50534772  1
  Ca2+  Ca2  1  0.16959338  0.08434830  0.83489684  1
  Ca2+  Ca3  1  0.17854400  0.57854124  0.16646808  1
  Ca2+  Ca4  1  0.17146153  0.58576442  0.50338656  1
  Ca2+  Ca5  1  0.16855876  0.57803828  0.84222464  1
  Ca2+  Ca6  1  0.67506382  0.07338506  0.17022072  1
  Ca2+  Ca7  1  0.66517216  0.08019091  0.50143454  1
  Ca2+  Ca8  1  0.66891271  0.08328434  0.83978538  1
  Ca2+  Ca9  1  0.67540203  0.58898551  0.17262353  1
  Ca2+  Ca10  1  0.67439689  0.58096085  0.50431557  1
  Ca2+  Ca11  1  0.67821246  0.57478336  0.83419057  1
  Ca2+  Ca12  1  0.07899686  0.33259909  0.15874363  1
  Ca2+  Ca13  1  0.07872183  0.32929359  0.50284388  1
  Ca2+  Ca14  1  0.07396405  0.33470112  0.82774068  1
  Ca2+  Ca15  1  0.07904117  0.83527943  0.16290001  1
  Ca2+  Ca16  1  0.07615568  0.82618856  0.49589677  1
  Ca2+  Ca17  1  0.08559534  0.82683338  0.82864606  1
  Ca2+  Ca18  1  0.57682773  0.33438132  0.16543797  1
  Ca2+  Ca19  1  0.57705215  0.33426735  0.49946923  1
  Ca2+  Ca20  1  0.57897812  0.32823149  0.82092988  1
  Ca2+  Ca21  1  0.58346212  0.83374717  0.16362521  1
  Ca2+  Ca22  1  0.58798576  0.82602784  0.49051026  1
  Ca2+  Ca23  1  0.57920796  0.83769711  0.83520037  1
  Ca2+  Ca24  1  0.33166815  0.42172476  0.17260668  1
  Ca2+  Ca25  1  0.34004604  0.41712266  0.50217634  1
  Ca2+  Ca26  1  0.32695513  0.41934626  0.83987833  1
  Ca2+  Ca27  1  0.32939625  0.91571002  0.16836014  1
  Ca2+  Ca28  1  0.33843312  0.93230433  0.50422767  1
  Ca2+  Ca29  1  0.32875275  0.92176189  0.84090973  1
  Ca2+  Ca30  1  0.83815677  0.42760481  0.16887398  1
  Ca2+  Ca31  1  0.82978033  0.42563773  0.51083262  1
  Ca2+  Ca32  1  0.83926035  0.42051595  0.83688327  1
  Ca2+  Ca33  1  0.82691531  0.92326419  0.17672637  1
  Ca2+  Ca34  1  0.83136993  0.91579361  0.49601284  1
  Ca2+  Ca35  1  0.82577369  0.92712124  0.84462025  1
  Ca2+  Ca36  1  0.41329974  0.16782167  0.16747401  1
  Ca2+  Ca37  1  0.41554815  0.17427625  0.49729053  1
  Ca2+  Ca38  1  0.42224632  0.17172850  0.81985361  1
  Ca2+  Ca39  1  0.42191074  0.66488336  0.16046603  1
  Ca2+  Ca40  1  0.42596148  0.66501943  0.48844263  1
  Ca2+  Ca41  1  0.40997045  0.67345911  0.83366245  1
  Ca2+  Ca42  1  0.90968017  0.17048890  0.15838265  1
  Ca2+  Ca43  1  0.91743402  0.16841835  0.49655200  1
  Ca2+  Ca44  1  0.91809488  0.17724040  0.82602118  1
  Ca2+  Ca45  1  0.90824776  0.67183078  0.16457594  1
  Ca2+  Ca46  1  0.91573106  0.66635434  0.49433543  1
  Ca2+  Ca47  1  0.92115523  0.66135542  0.82645386  1
  Al0+  Al48  1  0.00176314  0.00050508  0.00502366  1
  Al0+  Al49  1  -0.00038065  -0.00130889  0.33304750  1
  Al0+  Al50  1  -0.00029539  -0.00193775  0.66341836  1
  Al0+  Al51  1  0.00060813  0.49935200  0.00538000  1
  Al0+  Al52  1  0.00221238  0.49884207  0.33645178  1
  Al0+  Al53  1  0.00313360  0.50196635  0.65983368  1
  Al0+  Al54  1  0.49994636  -0.00090406  -0.00076980  1
  Al0+  Al55  1  0.49943901  -0.00026960  0.33978442  1
  Al0+  Al56  1  0.49882061  0.00142757  0.66834787  1
  Al0+  Al57  1  0.50213598  0.50076939  -0.00135089  1
  Al0+  Al58  1  0.49965552  0.49999099  0.32640254  1
  Al0+  Al59  1  0.50180122  0.50240221  0.66954148  1
  Al0+  Al60  1  0.24903138  0.24986197  0.00236544  1
  Al0+  Al61  1  0.24864691  0.24967093  0.33115476  1
  Al0+  Al62  1  0.24993022  0.25163529  0.66561299  1
  Al0+  Al63  1  0.25116586  0.75106918  0.00356779  1
  Al0+  Al64  1  0.24955036  0.74799941  0.33764706  1
  Al0+  Al65  1  0.24915799  0.75189464  0.66020218  1
  Al0+  Al66  1  0.74911565  0.25167994  -0.00146935  1
  Al0+  Al67  1  0.74915565  0.24931628  0.33418737  1
  Al0+  Al68  1  0.74772095  0.24938822  0.66071833  1
  Al0+  Al69  1  0.74841407  0.74928070  0.00221829  1
  Al0+  Al70  1  0.75106211  0.74953913  0.33262179  1
  Al0+  Al71  1  0.74927468  0.75056299  0.67339320  1
  Al0+  Al72  1  0.67974051  0.92887692  0.34968553  1
  Al0+  Al73  1  0.07178546  0.67957785  0.65314212  1
  Al0+  Al74  1  0.57077569  0.67987369  0.31933561  1
  Al0+  Al75  1  0.82313436  0.57046539  0.68194343  1
  Al0+  Al76  1  0.17929924  0.92856389  0.01281032  1
  Al0+  Al77  1  0.31859914  0.07055449  0.34707935  1
  Al0+  Al78  1  0.57123965  0.17669997  0.65018425  1
  Al0+  Al79  1  0.17882753  0.42745847  0.01458273  1
  Al0+  Al80  1  0.82112388  0.56967054  0.34749909  1
  Al0+  Al81  1  0.93005992  0.32094682  0.98743565  1
  Al0+  Al82  1  0.31942593  0.07237154  0.68161850  1
  Al0+  Al83  1  0.82126089  0.56929536  0.01408156  1
  Al0+  Al84  1  0.67845465  0.42726936  0.68117977  1
  Al0+  Al85  1  0.42887361  0.32385464  0.65304794  1
  Al0+  Al86  1  0.32241573  0.57096054  0.01358554  1
  Al0+  Al87  1  0.93134839  0.81855313  0.31843153  1
  Al0+  Al88  1  0.32194038  0.56945751  0.34771084  1
  Al0+  Al89  1  0.42927183  0.81984436  0.98655334  1
  Al0+  Al90  1  0.07032727  0.17699768  0.65198604  1
  Al0+  Al91  1  0.82221050  0.07279290  0.35036025  1
  Al0+  Al92  1  0.92809518  0.32188583  0.65004992  1
  Al0+  Al93  1  0.42914584  0.31919933  0.31726700  1
  Al0+  Al94  1  0.82100407  0.07319716  0.01260854  1
  Al0+  Al95  1  0.67737018  0.92914743  0.01501767  1
  Si0+  Si96  1  0.56886086  0.18000572  0.98634479  1
  Si0+  Si97  1  0.07028491  0.17924427  0.31700288  1
  Si0+  Si98  1  0.82244563  0.07044759  0.68037902  1
  Si0+  Si99  1  0.57456396  0.67660845  0.97916631  1
  Si0+  Si100  1  0.57099503  0.68180686  0.65369836  1
  Si0+  Si101  1  0.42687567  0.82331427  0.31841907  1
  Si0+  Si102  1  0.17806815  0.92719375  0.68198557  1
  Si0+  Si103  1  0.07346421  0.17562394  0.98395552  1
  Si0+  Si104  1  0.67718418  0.42703709  0.01725455  1
  Si0+  Si105  1  0.92825031  0.32121985  0.31826832  1
  Si0+  Si106  1  0.67817842  0.92867252  0.68337484  1
  Si0+  Si107  1  0.67684370  0.42753432  0.34830991  1
  Si0+  Si108  1  0.57223282  0.17567946  0.31453956  1
  Si0+  Si109  1  0.42733357  0.32199609  0.98501523  1
  Si0+  Si110  1  0.32249511  0.07216688  0.01576371  1
  Si0+  Si111  1  0.07450728  0.67539900  0.31346768  1
  Si0+  Si112  1  0.18044686  0.43074313  0.68042743  1
  Si0+  Si113  1  0.42839136  0.82147277  0.65099429  1
  Si0+  Si114  1  0.92745110  0.82258287  0.98563095  1
  Si0+  Si115  1  0.06970427  0.68118896  0.98780321  1
  Si0+  Si116  1  0.17660382  0.92613555  0.35224043  1
  Si0+  Si117  1  0.17906303  0.42715108  0.35304367  1
  Si0+  Si118  1  0.32225990  0.57424392  0.68057113  1
  Si0+  Si119  1  0.92518238  0.82131961  0.65185032  1
  O2-  O120  1  0.25228137  0.00485918  0.05927763  1
  O2-  O121  1  0.24678483  -0.00635880  0.39558530  1
  O2-  O122  1  0.24318571  -0.00143094  0.72728024  1
  O2-  O123  1  0.25575538  0.49435647  0.06395480  1
  O2-  O124  1  0.24746505  0.49631653  0.39716438  1
  O2-  O125  1  0.25216839  0.50207818  0.72185793  1
  O2-  O126  1  0.75387848  -0.00297441  0.06305074  1
  O2-  O127  1  0.74934370  0.00232222  0.40131932  1
  O2-  O128  1  0.74886285  0.00156651  0.72285951  1
  O2-  O129  1  0.74498029  0.49651774  0.06131535  1
  O2-  O130  1  0.74881877  0.49254712  0.39277035  1
  O2-  O131  1  0.75635388  0.49322098  0.73160854  1
  O2-  O132  1  -0.00460516  0.24652136  0.27542391  1
  O2-  O133  1  -0.00388618  0.24561136  0.60001286  1
  O2-  O134  1  0.00361375  0.24418071  0.94163662  1
  O2-  O135  1  0.00562512  0.74385921  0.26946564  1
  O2-  O136  1  -0.00714499  0.75080742  0.60884830  1
  O2-  O137  1  -0.00253086  0.75044084  0.94322422  1
  O2-  O138  1  0.50340845  0.24419065  0.26938226  1
  O2-  O139  1  0.50030007  0.25130113  0.60273424  1
  O2-  O140  1  0.49720822  0.25022405  0.94333692  1
  O2-  O141  1  0.49425448  0.75387805  0.27397614  1
  O2-  O142  1  0.49951694  0.75102796  0.60907708  1
  O2-  O143  1  0.50360201  0.74514815  0.93732427  1
  O2-  O144  1  0.07514324  0.17598064  0.08975129  1
  O2-  O145  1  0.07242191  0.18178446  0.42192359  1
  O2-  O146  1  0.06892067  0.17746960  0.76575639  1
  O2-  O147  1  0.06968795  0.68309054  0.09266821  1
  O2-  O148  1  0.07470558  0.67716445  0.41931337  1
  O2-  O149  1  0.07517045  0.68146381  0.76685142  1
  O2-  O150  1  0.56771975  0.18069133  0.09145326  1
  O2-  O151  1  0.57143550  0.17644073  0.41968334  1
  O2-  O152  1  0.56836607  0.17454689  0.76467731  1
  O2-  O153  1  0.57510865  0.67561803  0.08460355  1
  O2-  O154  1  0.56968828  0.68021899  0.43329072  1
  O2-  O155  1  0.57022412  0.68401748  0.75857875  1
  O2-  O156  1  0.17878880  0.42721603  0.24741673  1
  O2-  O157  1  0.18063833  0.43149177  0.57532822  1
  O2-  O158  1  0.17844120  0.42981760  0.90050932  1
  O2-  O159  1  0.17721453  0.92731714  0.24632402  1
  O2-  O160  1  0.18128262  0.92488309  0.57666875  1
  O2-  O161  1  0.18040852  0.92769803  0.89957031  1
  O2-  O162  1  0.67827692  0.42773710  0.24232110  1
  O2-  O163  1  0.67535637  0.43433670  0.56765056  1
  O2-  O164  1  0.67654771  0.42678909  0.91192471  1
  O2-  O165  1  0.68045507  0.93043373  0.23636676  1
  O2-  O166  1  0.67854652  0.92427424  0.57872556  1
  O2-  O167  1  0.67747062  0.93313061  0.90062125  1
  O2-  O168  1  0.42799439  0.32093835  0.09013283  1
  O2-  O169  1  0.43004884  0.31950769  0.42994650  1
  O2-  O170  1  0.42854752  0.32238156  0.76733349  1
  O2-  O171  1  0.42924471  0.81955750  0.09940323  1
  O2-  O172  1  0.42833239  0.82197279  0.42453369  1
  O2-  O173  1  0.42661120  0.82022533  0.75619329  1
  O2-  O174  1  0.93155786  0.32059965  0.10097848  1
  O2-  O175  1  0.93064734  0.32212909  0.42296167  1
  O2-  O176  1  0.93184092  0.32232512  0.76401227  1
  O2-  O177  1  0.92885784  0.82168272  0.09052239  1
  O2-  O178  1  0.93283270  0.81660733  0.43190605  1
  O2-  O179  1  0.92612106  0.82314157  0.75776744  1
  O2-  O180  1  0.31553845  0.06989702  0.23363465  1
  O2-  O181  1  0.31946165  0.07059467  0.56856113  1
  O2-  O182  1  0.32231718  0.07221554  0.91016162  1
  O2-  O183  1  0.32095009  0.56831409  0.23493149  1
  O2-  O184  1  0.32247139  0.57505102  0.57552340  1
  O2-  O185  1  0.31781587  0.57162771  0.89924422  1
  O2-  O186  1  0.82133944  0.07283863  0.23680938  1
  O2-  O187  1  0.82426105  0.06651442  0.57568184  1
  O2-  O188  1  0.81874054  0.07304856  0.89832175  1
  O2-  O189  1  0.82023121  0.56876877  0.23417691  1
  O2-  O190  1  0.81870479  0.57371771  0.56849617  1
  O2-  O191  1  0.82371760  0.56818605  0.90121513  1
  O2-  O192  1  0.04771174  0.08521038  0.27165915  1
  O2-  O193  1  0.04733224  0.07705452  0.59874866  1
  O2-  O194  1  0.05067116  0.08111501  0.93810863  1
  O2-  O195  1  0.05050155  0.58022923  0.27037333  1
  O2-  O196  1  0.04721695  0.58430892  0.59471593  1
  O2-  O197  1  0.04247746  0.58856162  0.94161355  1
  O2-  O198  1  0.54412028  0.08174259  0.27030329  1
  O2-  O199  1  0.53997128  0.07865893  0.59751828  1
  O2-  O200  1  0.54220362  0.08823691  0.93822880  1
  O2-  O201  1  0.54094753  0.58478974  0.26213891  1
  O2-  O202  1  0.54418182  0.59012721  0.60638328  1
  O2-  O203  1  0.55013447  0.58247246  0.93276931  1
  O2-  O204  1  0.15960348  0.21068513  0.26672972  1
  O2-  O205  1  0.16707005  0.21080750  0.59904566  1
  O2-  O206  1  0.16750932  0.20160105  0.93775551  1
  O2-  O207  1  0.16870162  0.70238740  0.26889953  1
  O2-  O208  1  0.16561460  0.71433290  0.59430559  1
  O2-  O209  1  0.16096537  0.71059152  0.94005048  1
  O2-  O210  1  0.66597193  0.20214125  0.26826208  1
  O2-  O211  1  0.66943117  0.19967632  0.59546696  1
  O2-  O212  1  0.65996784  0.20845223  0.93770860  1
  O2-  O213  1  0.66623542  0.71210961  0.26479002  1
  O2-  O214  1  0.66276493  0.71167162  0.60710349  1
  O2-  O215  1  0.66728513  0.70475267  0.93182323  1
  O2-  O216  1  0.08434063  0.46048598  0.07160923  1
  O2-  O217  1  0.08607608  0.45295346  0.40017907  1
  O2-  O218  1  0.08930157  0.46083825  0.72737920  1
  O2-  O219  1  0.08393473  0.95711794  0.07042989  1
  O2-  O220  1  0.08382753  0.95319783  0.39797962  1
  O2-  O221  1  0.08224165  0.94707937  0.72628054  1
  O2-  O222  1  0.58326436  0.45192606  0.06309845  1
  O2-  O223  1  0.58429341  0.45727478  0.39279152  1
  O2-  O224  1  0.58282596  0.46246760  0.73784779  1
  O2-  O225  1  0.58012237  0.96012764  0.06827007  1
  O2-  O226  1  0.58058557  0.95318413  0.40346009  1
  O2-  O227  1  0.58600968  0.95627444  0.73029959  1
  O2-  O228  1  0.20268231  0.32801665  0.06825453  1
  O2-  O229  1  0.20560025  0.33370991  0.39782990  1
  O2-  O230  1  0.20670672  0.33963336  0.72941753  1
  O2-  O231  1  0.21196906  0.83486728  0.07035653  1
  O2-  O232  1  0.19877093  0.83156814  0.39751012  1
  O2-  O233  1  0.20861385  0.83477663  0.72895851  1
  O2-  O234  1  0.70178037  0.33399789  0.06415324  1
  O2-  O235  1  0.69743357  0.33258539  0.39308242  1
  O2-  O236  1  0.69810682  0.32496555  0.72994058  1
  O2-  O237  1  0.70000954  0.82888345  0.06472538  1
  O2-  O238  1  0.71272725  0.83179168  0.40260992  1
  O2-  O239  1  0.70628675  0.83874428  0.73458355  1
  O2-  O240  1  0.46102102  0.41426741  0.26077783  1
  O2-  O241  1  0.45776060  0.42340734  0.60153593  1
  O2-  O242  1  0.45465895  0.41416565  0.93802381  1
  O2-  O243  1  0.45217188  0.91726994  0.27303948  1
  O2-  O244  1  0.45705504  0.91338598  0.60536791  1
  O2-  O245  1  0.45980565  0.91669209  0.93062583  1
  O2-  O246  1  0.96094785  0.41222056  0.27116385  1
  O2-  O247  1  0.96222398  0.41787164  0.59572969  1
  O2-  O248  1  0.96462029  0.41725979  0.93426775  1
  O2-  O249  1  0.96180068  0.91590574  0.26438857  1
  O2-  O250  1  0.95211441  0.91291356  0.60272467  1
  O2-  O251  1  0.95704347  0.91457276  0.93906852  1
  O2-  O252  1  0.33213955  0.28748247  0.26335608  1
  O2-  O253  1  0.33078927  0.29662681  0.59994119  1
  O2-  O254  1  0.33424454  0.29565963  0.93906994  1
  O2-  O255  1  0.33140419  0.79901001  0.27540229  1
  O2-  O256  1  0.33767345  0.79535738  0.60128324  1
  O2-  O257  1  0.33268828  0.78820635  0.93101138  1
  O2-  O258  1  0.83458538  0.29821297  0.27184758  1
  O2-  O259  1  0.82860198  0.29873667  0.59833986  1
  O2-  O260  1  0.83229905  0.29357020  0.93325308  1
  O2-  O261  1  0.83542772  0.78732566  0.26403253  1
  O2-  O262  1  0.83105977  0.79589156  0.60677092  1
  O2-  O263  1  0.83464597  0.79670427  0.93905212  1
  O2-  O264  1  0.41479592  0.04469592  0.06224856  1
  O2-  O265  1  0.41504164  0.04287120  0.40248890  1
  O2-  O266  1  0.41509714  0.03856979  0.73617901  1
  O2-  O267  1  0.42328350  0.54758663  0.06294916  1
  O2-  O268  1  0.41940655  0.53801552  0.39949168  1
  O2-  O269  1  0.41390403  0.55025576  0.72944348  1
  O2-  O270  1  0.92082815  0.05069123  0.06428019  1
  O2-  O271  1  0.92102108  0.04258680  0.40151541  1
  O2-  O272  1  0.91358291  0.04079184  0.72875327  1
  O2-  O273  1  0.91601575  0.53857408  0.07079903  1
  O2-  O274  1  0.91950193  0.54183571  0.39972846  1
  O2-  O275  1  0.92506578  0.54651118  0.72972866  1
  O2-  O276  1  0.29835040  0.16572059  0.06239103  1
  O2-  O277  1  0.28426518  0.16649656  0.39990713  1
  O2-  O278  1  0.28990826  0.16945940  0.73539983  1
  O2-  O279  1  0.29018879  0.66667719  0.06815766  1
  O2-  O280  1  0.29329748  0.66649746  0.40306841  1
  O2-  O281  1  0.29124429  0.66642926  0.72588681  1
  O2-  O282  1  0.78852348  0.17010841  0.06604022  1
  O2-  O283  1  0.79560701  0.17229498  0.40199010  1
  O2-  O284  1  0.79657388  0.16383186  0.72481476  1
  O2-  O285  1  0.79099836  0.66652426  0.06660228  1
  O2-  O286  1  0.78904226  0.66533726  0.40072766  1
  O2-  O287  1  0.79090122  0.66745811  0.73708252  1
