# generated using pymatgen
data_Ca2Al2SiO7
_symmetry_space_group_name_H-M   'P 1'
_cell_length_a   15.45731949
_cell_length_b   15.45789022
_cell_length_c   15.28333500
_cell_angle_alpha   89.99164391
_cell_angle_beta   89.99605319
_cell_angle_gamma   90.00589724
_symmetry_Int_Tables_number   1
_chemical_formula_structural   Ca2Al2SiO7
_chemical_formula_sum   'Ca48 Al48 Si24 O168'
_cell_volume   3651.76251945
_cell_formula_units_Z   24
loop_
 _symmetry_equiv_pos_site_id
 _symmetry_equiv_pos_as_xyz
  1  'x, y, z'
loop_
 _atom_type_symbol
 _atom_type_oxidation_number
  Ca2+  2.0
  Al0+  0.0
  Si0+  0.0
  O2-  -2.0
loop_
 _atom_site_type_symbol
 _atom_site_label
 _atom_site_symmetry_multiplicity
 _atom_site_fract_x
 _atom_site_fract_y
 _atom_site_fract_z
 _atom_site_occupancy
  Ca2+  Ca0  1  0.16490713  0.08787969  0.17389377  1
  Ca2+  Ca1  1  0.17431340  0.08758152  0.50222468  1
  Ca2+  Ca2  1  0.16978156  0.08618352  0.83526737  1
  Ca2+  Ca3  1  0.17572740  0.57855401  0.17122439  1
  Ca2+  Ca4  1  0.17600943  0.58048226  0.51203901  1
  Ca2+  Ca5  1  0.16754903  0.57881742  0.83867030  1
  Ca2+  Ca6  1  0.66490142  0.07657755  0.17138702  1
  Ca2+  Ca7  1  0.67127474  0.07179767  0.50719079  1
  Ca2+  Ca8  1  0.67440833  0.08615356  0.83769941  1
  Ca2+  Ca9  1  0.67073299  0.57905846  0.17310397  1
  Ca2+  Ca10  1  0.67238584  0.58571759  0.50575046  1
  Ca2+  Ca11  1  0.66652509  0.57456842  0.83167176  1
  Ca2+  Ca12  1  0.08218675  0.32516316  0.15874853  1
  Ca2+  Ca13  1  0.08795199  0.32941313  0.49564581  1
  Ca2+  Ca14  1  0.08698438  0.33628567  0.83361486  1
  Ca2+  Ca15  1  0.06952408  0.83408289  0.16109371  1
  Ca2+  Ca16  1  0.07313982  0.82669352  0.49920704  1
  Ca2+  Ca17  1  0.07491433  0.82431838  0.82509627  1
  Ca2+  Ca18  1  0.57757166  0.33274716  0.15964107  1
  Ca2+  Ca19  1  0.57582955  0.33796273  0.49558778  1
  Ca2+  Ca20  1  0.58882315  0.33468410  0.83047310  1
  Ca2+  Ca21  1  0.58632894  0.82752605  0.16856848  1
  Ca2+  Ca22  1  0.58735483  0.82140985  0.49491016  1
  Ca2+  Ca23  1  0.57818936  0.82278298  0.82497967  1
  Ca2+  Ca24  1  0.33172500  0.42148716  0.16951954  1
  Ca2+  Ca25  1  0.32995681  0.42190270  0.50447392  1
  Ca2+  Ca26  1  0.32122774  0.42863487  0.83561508  1
  Ca2+  Ca27  1  0.32926434  0.92616470  0.17489979  1
  Ca2+  Ca28  1  0.33654291  0.93131172  0.50388503  1
  Ca2+  Ca29  1  0.33287553  0.92100605  0.83500515  1
  Ca2+  Ca30  1  0.82935433  0.41544885  0.16854574  1
  Ca2+  Ca31  1  0.82744229  0.43037986  0.50976636  1
  Ca2+  Ca32  1  0.82731363  0.41974538  0.83864353  1
  Ca2+  Ca33  1  0.83083801  0.91295385  0.17455103  1
  Ca2+  Ca34  1  0.83490087  0.91552688  0.50233950  1
  Ca2+  Ca35  1  0.84390784  0.91962808  0.83284410  1
  Ca2+  Ca36  1  0.41829320  0.17304155  0.16452065  1
  Ca2+  Ca37  1  0.41043901  0.17327484  0.49138169  1
  Ca2+  Ca38  1  0.42325988  0.16661621  0.82853991  1
  Ca2+  Ca39  1  0.41992194  0.65686440  0.16623656  1
  Ca2+  Ca40  1  0.42737006  0.65283467  0.49601006  1
  Ca2+  Ca41  1  0.41837756  0.65691729  0.82577248  1
  Ca2+  Ca42  1  0.92897286  0.17141390  0.15716781  1
  Ca2+  Ca43  1  0.92145647  0.16659785  0.49599578  1
  Ca2+  Ca44  1  0.91905593  0.17394897  0.83149097  1
  Ca2+  Ca45  1  0.90772972  0.67606483  0.16537510  1
  Ca2+  Ca46  1  0.91131321  0.67115064  0.49581391  1
  Ca2+  Ca47  1  0.91679522  0.67511606  0.82122287  1
  Al0+  Al48  1  0.00105206  0.00085587  -0.00723309  1
  Al0+  Al49  1  0.00002558  -0.00120441  0.32609041  1
  Al0+  Al50  1  0.00064739  0.00050674  0.66601267  1
  Al0+  Al51  1  0.00041635  0.50155257  0.00379071  1
  Al0+  Al52  1  -0.00038670  0.50020831  0.33623673  1
  Al0+  Al53  1  -0.00068826  0.49937004  0.66936107  1
  Al0+  Al54  1  0.50122000  -0.00077366  -0.00363562  1
  Al0+  Al55  1  0.49992810  -0.00185340  0.34235908  1
  Al0+  Al56  1  0.50158170  -0.00006822  0.67060285  1
  Al0+  Al57  1  0.50226146  0.49918869  0.00581979  1
  Al0+  Al58  1  0.49916514  0.49817795  0.32608604  1
  Al0+  Al59  1  0.49858011  0.49741263  0.66889023  1
  Al0+  Al60  1  0.25238915  0.25202546  -0.00191965  1
  Al0+  Al61  1  0.25066672  0.25025800  0.32734587  1
  Al0+  Al62  1  0.25181088  0.25043463  0.67495474  1
  Al0+  Al63  1  0.25040921  0.75386950  0.00568781  1
  Al0+  Al64  1  0.25063728  0.75030850  0.33833224  1
  Al0+  Al65  1  0.25038218  0.75388509  0.66421768  1
  Al0+  Al66  1  0.75125316  0.24902538  -0.00036884  1
  Al0+  Al67  1  0.74964934  0.24848463  0.33414933  1
  Al0+  Al68  1  0.75088103  0.24676656  0.67022758  1
  Al0+  Al69  1  0.74727195  0.75142808  -0.00650291  1
  Al0+  Al70  1  0.74828555  0.74939259  0.33188228  1
  Al0+  Al71  1  0.74690689  0.75068526  0.66329947  1
  Al0+  Al72  1  0.17713723  0.42847909  0.01839924  1
  Al0+  Al73  1  0.81978595  0.56989818  0.34550249  1
  Al0+  Al74  1  0.67961117  0.92914384  0.34703306  1
  Al0+  Al75  1  0.32196960  0.07145251  0.68203779  1
  Al0+  Al76  1  0.92908422  0.32346914  0.98491972  1
  Al0+  Al77  1  0.57008805  0.17794504  0.98674207  1
  Al0+  Al78  1  0.82040399  0.57370395  0.68186833  1
  Al0+  Al79  1  0.07235225  0.67557828  0.65178560  1
  Al0+  Al80  1  0.32062339  0.57316204  0.67928890  1
  Al0+  Al81  1  0.06912575  0.18117273  0.32154957  1
  Al0+  Al82  1  0.93024674  0.81755908  0.31851583  1
  Al0+  Al83  1  0.56615770  0.67755469  0.65317232  1
  Al0+  Al84  1  0.56907945  0.67993726  0.31815112  1
  Al0+  Al85  1  0.32090639  0.57326079  0.01680706  1
  Al0+  Al86  1  0.32177920  0.57070325  0.34858045  1
  Al0+  Al87  1  0.92888392  0.82115591  0.64932143  1
  Al0+  Al88  1  0.67869479  0.42808953  0.67999460  1
  Al0+  Al89  1  0.92715150  0.81949093  0.98464470  1
  Al0+  Al90  1  0.31852135  0.07135364  0.34513649  1
  Al0+  Al91  1  0.43047852  0.31947408  0.31884968  1
  Al0+  Al92  1  0.68201242  0.42741092  0.01574680  1
  Al0+  Al93  1  0.82261859  0.06912228  0.68072163  1
  Al0+  Al94  1  0.07381722  0.18030309  0.98170031  1
  Al0+  Al95  1  0.17721121  0.42892391  0.68065091  1
  Si0+  Si96  1  0.17889586  0.42806386  0.34898501  1
  Si0+  Si97  1  0.67726740  0.42566868  0.34833984  1
  Si0+  Si98  1  0.56851028  0.67855085  0.98434635  1
  Si0+  Si99  1  0.82234033  0.06919219  0.01561649  1
  Si0+  Si100  1  0.57303180  0.17450613  0.31967743  1
  Si0+  Si101  1  0.92560705  0.32427279  0.31888621  1
  Si0+  Si102  1  0.07419373  0.68066237  0.98675217  1
  Si0+  Si103  1  0.07508005  0.67599192  0.31656592  1
  Si0+  Si104  1  0.67838711  0.92903171  0.01431768  1
  Si0+  Si105  1  0.43038249  0.32371563  0.98010301  1
  Si0+  Si106  1  0.42690529  0.82461691  0.31771171  1
  Si0+  Si107  1  0.82401890  0.07158142  0.34755221  1
  Si0+  Si108  1  0.92637816  0.32045359  0.65138449  1
  Si0+  Si109  1  0.32351554  0.06999427  0.01449311  1
  Si0+  Si110  1  0.17836234  0.93181591  0.01551362  1
  Si0+  Si111  1  0.07220314  0.18139655  0.65186369  1
  Si0+  Si112  1  0.42821364  0.82221602  0.98642972  1
  Si0+  Si113  1  0.17480800  0.92782767  0.35025106  1
  Si0+  Si114  1  0.43036973  0.31663781  0.65274866  1
  Si0+  Si115  1  0.42737369  0.82592250  0.64878531  1
  Si0+  Si116  1  0.67824465  0.92782709  0.68611421  1
  Si0+  Si117  1  0.57365910  0.17680960  0.65052396  1
  Si0+  Si118  1  0.82052593  0.57545655  0.01537222  1
  Si0+  Si119  1  0.17814779  0.92999680  0.68353517  1
  O2-  O120  1  0.24732030  0.00526649  0.05771605  1
  O2-  O121  1  0.24536159  -0.00431764  0.39323999  1
  O2-  O122  1  0.24947361  -0.00451670  0.72932790  1
  O2-  O123  1  0.24921266  0.50115702  0.06717393  1
  O2-  O124  1  0.24252190  0.50069400  0.39393687  1
  O2-  O125  1  0.24113448  0.50955853  0.72855773  1
  O2-  O126  1  0.75151758  -0.00249015  0.05750205  1
  O2-  O127  1  0.75286447  0.00606922  0.39229366  1
  O2-  O128  1  0.74951440  -0.00616420  0.72988913  1
  O2-  O129  1  0.75777508  0.50179754  0.06094361  1
  O2-  O130  1  0.74866700  0.49125417  0.39152341  1
  O2-  O131  1  0.75115599  0.49884531  0.73131487  1
  O2-  O132  1  -0.00712504  0.25406298  0.27514669  1
  O2-  O133  1  0.00194910  0.25310501  0.60933776  1
  O2-  O134  1  0.00412350  0.25510815  0.93282956  1
  O2-  O135  1  0.00569002  0.74373471  0.27100364  1
  O2-  O136  1  -0.00366401  0.74376622  0.60097778  1
  O2-  O137  1  -0.00009841  0.74224444  0.94100286  1
  O2-  O138  1  0.50748255  0.24518241  0.27437979  1
  O2-  O139  1  0.50202625  0.24663965  0.60834335  1
  O2-  O140  1  0.49851791  0.25373116  0.93663458  1
  O2-  O141  1  0.49123538  0.75268266  0.27171805  1
  O2-  O142  1  0.48977379  0.75121091  0.60590699  1
  O2-  O143  1  0.49228928  0.74524119  0.94418260  1
  O2-  O144  1  0.07039980  0.17683223  0.09550283  1
  O2-  O145  1  0.06977305  0.18204033  0.43518937  1
  O2-  O146  1  0.07166994  0.18111064  0.75658196  1
  O2-  O147  1  0.07646254  0.68667623  0.09237305  1
  O2-  O148  1  0.07459951  0.67743956  0.42174280  1
  O2-  O149  1  0.07305410  0.68068958  0.76590628  1
  O2-  O150  1  0.56560698  0.17439472  0.10000646  1
  O2-  O151  1  0.57307593  0.17537208  0.42528828  1
  O2-  O152  1  0.57241407  0.17634341  0.75569652  1
  O2-  O153  1  0.57155167  0.68168709  0.08947175  1
  O2-  O154  1  0.56902160  0.68010823  0.43101255  1
  O2-  O155  1  0.56454042  0.67938630  0.76691732  1
  O2-  O156  1  0.18030066  0.42739274  0.24369988  1
  O2-  O157  1  0.18369226  0.42145565  0.56700735  1
  O2-  O158  1  0.17954775  0.43037420  0.90510590  1
  O2-  O159  1  0.17516051  0.92947243  0.24412765  1
  O2-  O160  1  0.17718910  0.93396045  0.57800387  1
  O2-  O161  1  0.18147883  0.92948384  0.91064849  1
  O2-  O162  1  0.67854202  0.42490501  0.24262579  1
  O2-  O163  1  0.67876588  0.42772643  0.56607002  1
  O2-  O164  1  0.68028405  0.43019386  0.90305025  1
  O2-  O165  1  0.67991982  0.93066358  0.23309536  1
  O2-  O166  1  0.67550920  0.93087482  0.58051757  1
  O2-  O167  1  0.67622049  0.92999910  0.90967610  1
  O2-  O168  1  0.43113560  0.32139390  0.08604062  1
  O2-  O169  1  0.42952688  0.31816988  0.43246608  1
  O2-  O170  1  0.43168205  0.31434793  0.75757108  1
  O2-  O171  1  0.43130574  0.82815853  0.09119836  1
  O2-  O172  1  0.42979959  0.82883229  0.42275420  1
  O2-  O173  1  0.43115927  0.83036764  0.75484498  1
  O2-  O174  1  0.92732265  0.31700078  0.09899530  1
  O2-  O175  1  0.92547114  0.32292641  0.42458728  1
  O2-  O176  1  0.92354718  0.31684904  0.75600971  1
  O2-  O177  1  0.92620244  0.81990741  0.09810838  1
  O2-  O178  1  0.93091095  0.81917187  0.43087603  1
  O2-  O179  1  0.93326245  0.82258406  0.76311051  1
  O2-  O180  1  0.31850598  0.06977229  0.23166274  1
  O2-  O181  1  0.31942809  0.07338553  0.56881173  1
  O2-  O182  1  0.32558619  0.06447887  0.90950197  1
  O2-  O183  1  0.32072839  0.56837235  0.23565177  1
  O2-  O184  1  0.32364711  0.56538561  0.56593528  1
  O2-  O185  1  0.31944255  0.57436264  0.90338069  1
  O2-  O186  1  0.82361981  0.07072174  0.24183826  1
  O2-  O187  1  0.82037168  0.07002456  0.56728291  1
  O2-  O188  1  0.82151577  0.06821076  0.91051240  1
  O2-  O189  1  0.81679849  0.57007660  0.23202541  1
  O2-  O190  1  0.81736500  0.57229321  0.56797853  1
  O2-  O191  1  0.81590983  0.57825153  0.91027060  1
  O2-  O192  1  0.04125039  0.08477950  0.26500755  1
  O2-  O193  1  0.04388956  0.08998818  0.60436386  1
  O2-  O194  1  0.04340259  0.08284313  0.92788251  1
  O2-  O195  1  0.05044156  0.58133314  0.27195314  1
  O2-  O196  1  0.05140135  0.57430516  0.60122048  1
  O2-  O197  1  0.05637285  0.58403546  0.94578585  1
  O2-  O198  1  0.54446430  0.08112693  0.27472698  1
  O2-  O199  1  0.54585319  0.08402884  0.60496439  1
  O2-  O200  1  0.53767596  0.08264926  0.92964300  1
  O2-  O201  1  0.54051421  0.58363234  0.26234332  1
  O2-  O202  1  0.53672357  0.58011888  0.59945011  1
  O2-  O203  1  0.54432436  0.58505074  0.93940260  1
  O2-  O204  1  0.16394107  0.21195321  0.26459566  1
  O2-  O205  1  0.16540389  0.20960062  0.60680233  1
  O2-  O206  1  0.17457910  0.20403926  0.93116760  1
  O2-  O207  1  0.16925634  0.70266694  0.27152158  1
  O2-  O208  1  0.17005396  0.70919817  0.59811639  1
  O2-  O209  1  0.16546201  0.71393167  0.93970715  1
  O2-  O210  1  0.66832717  0.19511782  0.27363868  1
  O2-  O211  1  0.66579365  0.20263131  0.60316218  1
  O2-  O212  1  0.66803312  0.20507919  0.93467474  1
  O2-  O213  1  0.66301495  0.71537791  0.26187012  1
  O2-  O214  1  0.66160849  0.71081008  0.59855218  1
  O2-  O215  1  0.65679553  0.71203755  0.93400252  1
  O2-  O216  1  0.07786972  0.45355260  0.07222699  1
  O2-  O217  1  0.08322088  0.44642654  0.39385338  1
  O2-  O218  1  0.07651597  0.44607801  0.73246914  1
  O2-  O219  1  0.08565431  0.95939390  0.06170725  1
  O2-  O220  1  0.08219574  0.95691789  0.39572224  1
  O2-  O221  1  0.08686886  0.95988560  0.73133084  1
  O2-  O222  1  0.58638198  0.45930524  0.07088787  1
  O2-  O223  1  0.58395092  0.45425630  0.39189943  1
  O2-  O224  1  0.58138656  0.45659093  0.73469637  1
  O2-  O225  1  0.58744422  0.95947065  0.06277037  1
  O2-  O226  1  0.58461864  0.95703990  0.40537733  1
  O2-  O227  1  0.58626596  0.95639951  0.73435707  1
  O2-  O228  1  0.20842821  0.32873951  0.06868915  1
  O2-  O229  1  0.21048722  0.33587001  0.39422270  1
  O2-  O230  1  0.21457961  0.33532961  0.73801030  1
  O2-  O231  1  0.20756129  0.84264594  0.06715292  1
  O2-  O232  1  0.19784525  0.83429651  0.39665334  1
  O2-  O233  1  0.20184687  0.83631758  0.73017953  1
  O2-  O234  1  0.71030157  0.32977046  0.07001552  1
  O2-  O235  1  0.69688255  0.33006924  0.39410922  1
  O2-  O236  1  0.70549933  0.32896189  0.73199806  1
  O2-  O237  1  0.70475040  0.83619116  0.06070265  1
  O2-  O238  1  0.71272121  0.83397648  0.40061099  1
  O2-  O239  1  0.69944473  0.83316957  0.73045871  1
  O2-  O240  1  0.46128876  0.41323560  0.26018847  1
  O2-  O241  1  0.45795527  0.40801992  0.60474547  1
  O2-  O242  1  0.45932007  0.41714452  0.93641496  1
  O2-  O243  1  0.45717347  0.91709285  0.27034178  1
  O2-  O244  1  0.46061657  0.91762721  0.60190279  1
  O2-  O245  1  0.46224357  0.90989932  0.93432192  1
  O2-  O246  1  0.95072999  0.41758908  0.27225565  1
  O2-  O247  1  0.94906769  0.41386121  0.60557809  1
  O2-  O248  1  0.95077810  0.42531561  0.93598411  1
  O2-  O249  1  0.95978451  0.91396772  0.26216424  1
  O2-  O250  1  0.96234370  0.91917441  0.59695063  1
  O2-  O251  1  0.96117935  0.91487731  0.93126675  1
  O2-  O252  1  0.33674569  0.28555191  0.26145173  1
  O2-  O253  1  0.33897280  0.28574964  0.60590771  1
  O2-  O254  1  0.33700174  0.29846646  0.93460051  1
  O2-  O255  1  0.33067718  0.80441529  0.27408899  1
  O2-  O256  1  0.33102454  0.81246646  0.60509755  1
  O2-  O257  1  0.33386000  0.80187369  0.94070223  1
  O2-  O258  1  0.83104186  0.29990566  0.27306802  1
  O2-  O259  1  0.83706034  0.28627810  0.60219451  1
  O2-  O260  1  0.83248349  0.28958481  0.93152833  1
  O2-  O261  1  0.83389187  0.78602126  0.26415368  1
  O2-  O262  1  0.82758755  0.79942275  0.59996018  1
  O2-  O263  1  0.82980334  0.79361940  0.92956047  1
  O2-  O264  1  0.41304437  0.03535419  0.06243394  1
  O2-  O265  1  0.41420287  0.04245445  0.40211353  1
  O2-  O266  1  0.41903392  0.04131273  0.73585071  1
  O2-  O267  1  0.41947586  0.54291070  0.06847030  1
  O2-  O268  1  0.41835153  0.53369548  0.39831539  1
  O2-  O269  1  0.41429074  0.53490918  0.73503894  1
  O2-  O270  1  0.91500761  0.04068147  0.06099954  1
  O2-  O271  1  0.91664382  0.04235488  0.39335888  1
  O2-  O272  1  0.91943278  0.04033794  0.73520570  1
  O2-  O273  1  0.91661512  0.55954420  0.05953117  1
  O2-  O274  1  0.91784130  0.54485039  0.40009072  1
  O2-  O275  1  0.91967419  0.54895290  0.73328586  1
  O2-  O276  1  0.30309308  0.16501274  0.05736910  1
  O2-  O277  1  0.28543172  0.16744960  0.39879222  1
  O2-  O278  1  0.29022375  0.16498827  0.73963132  1
  O2-  O279  1  0.29601353  0.67344472  0.06980631  1
  O2-  O280  1  0.30006647  0.67032819  0.40078713  1
  O2-  O281  1  0.30580264  0.67712703  0.72593203  1
  O2-  O282  1  0.79402767  0.15997103  0.06365533  1
  O2-  O283  1  0.80295448  0.16659057  0.39368320  1
  O2-  O284  1  0.78936949  0.16338220  0.73733824  1
  O2-  O285  1  0.78602121  0.66727714  0.06161853  1
  O2-  O286  1  0.78426846  0.66454550  0.39884695  1
  O2-  O287  1  0.78927388  0.67192066  0.73316284  1
