# generated using pymatgen
data_Ca2Al2SiO7
_symmetry_space_group_name_H-M   'P 1'
_cell_length_a   15.45864665
_cell_length_b   15.45978079
_cell_length_c   15.28429084
_cell_angle_alpha   90.00232030
_cell_angle_beta   90.01351285
_cell_angle_gamma   89.99624225
_symmetry_Int_Tables_number   1
_chemical_formula_structural   Ca2Al2SiO7
_chemical_formula_sum   'Ca48 Al48 Si24 O168'
_cell_volume   3652.75110998
_cell_formula_units_Z   24
loop_
 _symmetry_equiv_pos_site_id
 _symmetry_equiv_pos_as_xyz
  1  'x, y, z'
loop_
 _atom_type_symbol
 _atom_type_oxidation_number
  Ca2+  2.0
  Al0+  0.0
  Si0+  0.0
  O2-  -2.0
loop_
 _atom_site_type_symbol
 _atom_site_label
 _atom_site_symmetry_multiplicity
 _atom_site_fract_x
 _atom_site_fract_y
 _atom_site_fract_z
 _atom_site_occupancy
  Ca2+  Ca0  1  0.16625911  0.07478363  0.17527955  1
  Ca2+  Ca1  1  0.16652265  0.08476480  0.49690725  1
  Ca2+  Ca2  1  0.16530788  0.08342797  0.84165709  1
  Ca2+  Ca3  1  0.16625388  0.57458956  0.16926627  1
  Ca2+  Ca4  1  0.16767562  0.57675196  0.51014463  1
  Ca2+  Ca5  1  0.15602638  0.57205710  0.83586243  1
  Ca2+  Ca6  1  0.67309511  0.08099581  0.17383596  1
  Ca2+  Ca7  1  0.66155557  0.07959067  0.49840574  1
  Ca2+  Ca8  1  0.67677156  0.08086514  0.84850196  1
  Ca2+  Ca9  1  0.66797400  0.58059010  0.17360390  1
  Ca2+  Ca10  1  0.66998963  0.59141523  0.50143436  1
  Ca2+  Ca11  1  0.66404980  0.57728959  0.83877450  1
  Ca2+  Ca12  1  0.08385016  0.31947244  0.16098864  1
  Ca2+  Ca13  1  0.08342046  0.32453824  0.49752591  1
  Ca2+  Ca14  1  0.08245243  0.32614039  0.82607750  1
  Ca2+  Ca15  1  0.07873982  0.84071778  0.15763583  1
  Ca2+  Ca16  1  0.08692314  0.82833906  0.49407680  1
  Ca2+  Ca17  1  0.07599167  0.83553849  0.83278568  1
  Ca2+  Ca18  1  0.58266576  0.32384954  0.16259851  1
  Ca2+  Ca19  1  0.57332072  0.32653735  0.48712294  1
  Ca2+  Ca20  1  0.59056002  0.32821874  0.83542076  1
  Ca2+  Ca21  1  0.57590346  0.84443568  0.16326728  1
  Ca2+  Ca22  1  0.58153330  0.82560480  0.48770407  1
  Ca2+  Ca23  1  0.57928712  0.83391921  0.83230601  1
  Ca2+  Ca24  1  0.33015355  0.41095805  0.16913088  1
  Ca2+  Ca25  1  0.32941536  0.41330627  0.50467246  1
  Ca2+  Ca26  1  0.32051123  0.41924798  0.83917859  1
  Ca2+  Ca27  1  0.32594549  0.91567191  0.17499997  1
  Ca2+  Ca28  1  0.33600377  0.92027321  0.49438856  1
  Ca2+  Ca29  1  0.32591902  0.91579375  0.84199279  1
  Ca2+  Ca30  1  0.82757992  0.42237325  0.17046305  1
  Ca2+  Ca31  1  0.83659573  0.41942551  0.50166630  1
  Ca2+  Ca32  1  0.83240815  0.41677222  0.83891004  1
  Ca2+  Ca33  1  0.82561133  0.92431443  0.16980715  1
  Ca2+  Ca34  1  0.82899802  0.92382652  0.49511506  1
  Ca2+  Ca35  1  0.82915475  0.92181244  0.84615439  1
  Ca2+  Ca36  1  0.42741919  0.15819114  0.16902571  1
  Ca2+  Ca37  1  0.41671804  0.17213173  0.48564167  1
  Ca2+  Ca38  1  0.42487917  0.16437349  0.83551702  1
  Ca2+  Ca39  1  0.42139766  0.67957957  0.16556821  1
  Ca2+  Ca40  1  0.42930490  0.67007945  0.48988937  1
  Ca2+  Ca41  1  0.42101759  0.67323307  0.83111738  1
  Ca2+  Ca42  1  0.92569417  0.15000848  0.16291332  1
  Ca2+  Ca43  1  0.92500893  0.16830900  0.49511629  1
  Ca2+  Ca44  1  0.92768837  0.16710297  0.83000278  1
  Ca2+  Ca45  1  0.91279183  0.67403135  0.16434458  1
  Ca2+  Ca46  1  0.92193020  0.66351158  0.49580648  1
  Ca2+  Ca47  1  0.91969310  0.67455164  0.83101743  1
  Al0+  Al48  1  0.00103680  -0.00122054  -0.00459237  1
  Al0+  Al49  1  -0.00139104  -0.00247460  0.34002340  1
  Al0+  Al50  1  -0.00056448  0.00062086  0.66305370  1
  Al0+  Al51  1  0.00060303  0.49905593  0.00675717  1
  Al0+  Al52  1  -0.00113633  0.49876344  0.33612614  1
  Al0+  Al53  1  -0.00158961  0.50137738  0.66542747  1
  Al0+  Al54  1  0.49954429  0.00046000  -0.00986531  1
  Al0+  Al55  1  0.49783076  -0.00001165  0.33516813  1
  Al0+  Al56  1  0.49900786  -0.00010543  0.66911107  1
  Al0+  Al57  1  0.49928770  0.49992805  0.00340623  1
  Al0+  Al58  1  0.49827987  0.50011495  0.32546692  1
  Al0+  Al59  1  0.50031431  0.50119942  0.66490553  1
  Al0+  Al60  1  0.25118697  0.25089388  -0.00041002  1
  Al0+  Al61  1  0.24689076  0.24829459  0.32873526  1
  Al0+  Al62  1  0.25097310  0.24913689  0.66970020  1
  Al0+  Al63  1  0.25142293  0.74818704  -0.00191432  1
  Al0+  Al64  1  0.25092806  0.74552084  0.33425349  1
  Al0+  Al65  1  0.25030255  0.75204116  0.66442948  1
  Al0+  Al66  1  0.75210316  0.25200948  0.00501896  1
  Al0+  Al67  1  0.75119248  0.25298387  0.33553863  1
  Al0+  Al68  1  0.75111781  0.25028220  0.66317781  1
  Al0+  Al69  1  0.74988266  0.75055694  -0.00245814  1
  Al0+  Al70  1  0.75317096  0.74817712  0.33910366  1
  Al0+  Al71  1  0.74901073  0.75083245  0.66540391  1
  Al0+  Al72  1  0.92896711  0.82027278  0.98762200  1
  Al0+  Al73  1  0.56973882  0.67955685  0.65327270  1
  Al0+  Al74  1  0.82167778  0.07400987  0.35084698  1
  Al0+  Al75  1  0.17777969  0.92531501  0.34935789  1
  Al0+  Al76  1  0.67765981  0.93004630  0.34833762  1
  Al0+  Al77  1  0.82257465  0.07132553  0.01320834  1
  Al0+  Al78  1  0.06997158  0.68057999  0.65416008  1
  Al0+  Al79  1  0.42896455  0.82048729  0.31825291  1
  Al0+  Al80  1  0.92767573  0.32174230  0.65172874  1
  Al0+  Al81  1  0.67850625  0.42910895  0.01398013  1
  Al0+  Al82  1  0.57516300  0.67986826  0.31624337  1
  Al0+  Al83  1  0.17855271  0.42809414  0.01538049  1
  Al0+  Al84  1  0.42587626  0.32123946  0.31721985  1
  Al0+  Al85  1  0.42816048  0.82175893  0.98456630  1
  Al0+  Al86  1  0.07127067  0.17905131  0.98675969  1
  Al0+  Al87  1  0.17911833  0.42983061  0.68016580  1
  Al0+  Al88  1  0.18058959  0.92896689  0.01054585  1
  Al0+  Al89  1  0.82041990  0.57004370  0.34852036  1
  Al0+  Al90  1  0.57282576  0.17860390  0.31911604  1
  Al0+  Al91  1  0.67684498  0.92853756  0.01267661  1
  Al0+  Al92  1  0.06666312  0.17782144  0.31850618  1
  Al0+  Al93  1  0.07337940  0.17828978  0.65004315  1
  Al0+  Al94  1  0.57253219  0.18071827  0.98624833  1
  Al0+  Al95  1  0.31884131  0.07087578  0.34705572  1
  Si0+  Si96  1  0.42770637  0.82387655  0.64847601  1
  Si0+  Si97  1  0.67780147  0.42884294  0.68025581  1
  Si0+  Si98  1  0.67885406  0.92936614  0.68295875  1
  Si0+  Si99  1  0.82047518  0.07164951  0.68220604  1
  Si0+  Si100  1  0.43028533  0.32007335  0.65497375  1
  Si0+  Si101  1  0.93175812  0.81894422  0.31972267  1
  Si0+  Si102  1  0.42877515  0.32438753  0.98035837  1
  Si0+  Si103  1  0.17833430  0.92847515  0.68240780  1
  Si0+  Si104  1  0.32178434  0.07120851  0.68400082  1
  Si0+  Si105  1  0.17926420  0.42876893  0.34902791  1
  Si0+  Si106  1  0.32136327  0.56947687  0.34886171  1
  Si0+  Si107  1  0.57174286  0.67677183  0.98327332  1
  Si0+  Si108  1  0.07201460  0.67560323  0.31845587  1
  Si0+  Si109  1  0.32303260  0.07264565  0.01499640  1
  Si0+  Si110  1  0.57162451  0.17867201  0.65315563  1
  Si0+  Si111  1  0.67568173  0.42978927  0.35120800  1
  Si0+  Si112  1  0.32329674  0.57323110  0.68310043  1
  Si0+  Si113  1  0.92872879  0.32430406  0.31504137  1
  Si0+  Si114  1  0.82012947  0.57229588  0.68331760  1
  Si0+  Si115  1  0.82203408  0.57301737  0.01565316  1
  Si0+  Si116  1  0.32246948  0.57172392  0.01807533  1
  Si0+  Si117  1  0.92950898  0.32515303  0.98537650  1
  Si0+  Si118  1  0.92691836  0.82256063  0.64763740  1
  Si0+  Si119  1  0.07224101  0.67567685  0.98529092  1
  O2-  O120  1  0.25469696  0.00328424  0.05765051  1
  O2-  O121  1  0.24906794  -0.00212109  0.39998470  1
  O2-  O122  1  0.24865950  0.00089185  0.72413030  1
  O2-  O123  1  0.25358732  0.50266141  0.06173252  1
  O2-  O124  1  0.25226750  0.49718090  0.39212610  1
  O2-  O125  1  0.25137447  0.50787253  0.72758170  1
  O2-  O126  1  0.74654853  0.00271975  0.06160969  1
  O2-  O127  1  0.74440167  0.00665590  0.40068835  1
  O2-  O128  1  0.74931008  0.00084970  0.72490001  1
  O2-  O129  1  0.75179584  0.50578827  0.05888102  1
  O2-  O130  1  0.74308794  0.49886389  0.39724607  1
  O2-  O131  1  0.74939311  0.49962580  0.72339038  1
  O2-  O132  1  -0.01110511  0.24886553  0.27048173  1
  O2-  O133  1  0.00109061  0.25120129  0.60199751  1
  O2-  O134  1  -0.00225703  0.25604238  0.94137974  1
  O2-  O135  1  0.00595829  0.75084356  0.27693885  1
  O2-  O136  1  -0.00225550  0.75560415  0.60405264  1
  O2-  O137  1  0.00455949  0.74546746  0.94137950  1
  O2-  O138  1  0.50026832  0.25064124  0.26944144  1
  O2-  O139  1  0.50096695  0.24980879  0.61186294  1
  O2-  O140  1  0.49885312  0.25639260  0.93676428  1
  O2-  O141  1  0.50706789  0.75558691  0.26697087  1
  O2-  O142  1  0.49576112  0.75410955  0.60619336  1
  O2-  O143  1  0.50546685  0.74812152  0.93921336  1
  O2-  O144  1  0.07037413  0.17783434  0.09949363  1
  O2-  O145  1  0.06869231  0.18242205  0.43157602  1
  O2-  O146  1  0.07263454  0.17798760  0.76390725  1
  O2-  O147  1  0.07114670  0.67427894  0.09097173  1
  O2-  O148  1  0.07036646  0.67377912  0.42382958  1
  O2-  O149  1  0.06622578  0.68085511  0.76726651  1
  O2-  O150  1  0.57119602  0.18053457  0.09835101  1
  O2-  O151  1  0.56961844  0.18219724  0.43400514  1
  O2-  O152  1  0.57254465  0.17940453  0.75825253  1
  O2-  O153  1  0.57090670  0.67401546  0.08804666  1
  O2-  O154  1  0.57132748  0.67951449  0.43042493  1
  O2-  O155  1  0.56849606  0.67882509  0.76648584  1
  O2-  O156  1  0.17837344  0.43208944  0.24395729  1
  O2-  O157  1  0.18369065  0.43000347  0.56693285  1
  O2-  O158  1  0.17793218  0.43042876  0.90188105  1
  O2-  O159  1  0.17684333  0.92566110  0.23572938  1
  O2-  O160  1  0.17977687  0.92573683  0.57788191  1
  O2-  O161  1  0.18065969  0.93017008  0.89667090  1
  O2-  O162  1  0.67806817  0.43086608  0.24571638  1
  O2-  O163  1  0.67554324  0.42933357  0.57571243  1
  O2-  O164  1  0.68025324  0.43108842  0.89966891  1
  O2-  O165  1  0.68081799  0.92880104  0.23523726  1
  O2-  O166  1  0.67749415  0.93021981  0.57823401  1
  O2-  O167  1  0.67998141  0.92926193  0.89788726  1
  O2-  O168  1  0.42850267  0.32537164  0.08522968  1
  O2-  O169  1  0.42663890  0.32172316  0.43224217  1
  O2-  O170  1  0.43149726  0.32003600  0.75989410  1
  O2-  O171  1  0.42528987  0.82029100  0.09674502  1
  O2-  O172  1  0.42801624  0.81498520  0.43229729  1
  O2-  O173  1  0.42834152  0.82411781  0.75425174  1
  O2-  O174  1  0.93221809  0.33068910  0.09040207  1
  O2-  O175  1  0.93444019  0.32860504  0.42059740  1
  O2-  O176  1  0.92537448  0.31970451  0.76556670  1
  O2-  O177  1  0.92929821  0.81835513  0.10060241  1
  O2-  O178  1  0.93271560  0.81638175  0.42522797  1
  O2-  O179  1  0.92647471  0.82187236  0.75346972  1
  O2-  O180  1  0.31698749  0.07087539  0.23373936  1
  O2-  O181  1  0.32608107  0.07203007  0.57960847  1
  O2-  O182  1  0.32144951  0.07190533  0.90830419  1
  O2-  O183  1  0.31752655  0.57161022  0.24401521  1
  O2-  O184  1  0.32460109  0.56984877  0.57755413  1
  O2-  O185  1  0.32370670  0.57043701  0.91206173  1
  O2-  O186  1  0.82464168  0.06727435  0.23783796  1
  O2-  O187  1  0.81861184  0.07100673  0.57753002  1
  O2-  O188  1  0.82211940  0.06997854  0.89852492  1
  O2-  O189  1  0.82359480  0.56733799  0.23553643  1
  O2-  O190  1  0.81961480  0.57327784  0.57851684  1
  O2-  O191  1  0.82357535  0.57178589  0.90960137  1
  O2-  O192  1  0.03826650  0.07824607  0.26944642  1
  O2-  O193  1  0.04454444  0.07981386  0.59777897  1
  O2-  O194  1  0.03925575  0.08450581  0.92934576  1
  O2-  O195  1  0.03880342  0.58562471  0.27055992  1
  O2-  O196  1  0.03880732  0.58504653  0.59891212  1
  O2-  O197  1  0.04228085  0.58278632  0.93919570  1
  O2-  O198  1  0.54412153  0.08016282  0.26820630  1
  O2-  O199  1  0.54262393  0.08618603  0.60810648  1
  O2-  O200  1  0.54066675  0.08695297  0.92622571  1
  O2-  O201  1  0.54255621  0.58311992  0.26347662  1
  O2-  O202  1  0.54037115  0.58278279  0.59822993  1
  O2-  O203  1  0.54171261  0.58406342  0.93597000  1
  O2-  O204  1  0.16133557  0.21108005  0.26375978  1
  O2-  O205  1  0.17295130  0.20719199  0.59980854  1
  O2-  O206  1  0.16878422  0.20943195  0.93321427  1
  O2-  O207  1  0.16547931  0.69621497  0.27244297  1
  O2-  O208  1  0.16820835  0.70759520  0.60058215  1
  O2-  O209  1  0.16623554  0.69669511  0.93886736  1
  O2-  O210  1  0.67220904  0.20751020  0.26884853  1
  O2-  O211  1  0.66266380  0.20505944  0.60501100  1
  O2-  O212  1  0.66985871  0.21384173  0.93288468  1
  O2-  O213  1  0.67757213  0.69992506  0.26945389  1
  O2-  O214  1  0.66683479  0.70997647  0.60036115  1
  O2-  O215  1  0.66608506  0.69852762  0.93656677  1
  O2-  O216  1  0.08385842  0.45968026  0.07248215  1
  O2-  O217  1  0.08904455  0.46021121  0.39702614  1
  O2-  O218  1  0.08163147  0.46101298  0.73282172  1
  O2-  O219  1  0.08408198  0.95912547  0.06311382  1
  O2-  O220  1  0.08051151  0.95215209  0.40472463  1
  O2-  O221  1  0.08449147  0.95456824  0.72734317  1
  O2-  O222  1  0.58148297  0.45733046  0.06739548  1
  O2-  O223  1  0.58007939  0.45395282  0.39414990  1
  O2-  O224  1  0.58660175  0.45775497  0.72933245  1
  O2-  O225  1  0.57615204  0.95514751  0.05937461  1
  O2-  O226  1  0.57818000  0.95279036  0.40243740  1
  O2-  O227  1  0.58584594  0.95564233  0.72963439  1
  O2-  O228  1  0.21131196  0.33213119  0.06880435  1
  O2-  O229  1  0.20535771  0.33639267  0.39488375  1
  O2-  O230  1  0.21307697  0.33436444  0.73506550  1
  O2-  O231  1  0.20725176  0.83028326  0.06215956  1
  O2-  O232  1  0.20668077  0.82552908  0.40097574  1
  O2-  O233  1  0.20699777  0.83686978  0.73085833  1
  O2-  O234  1  0.71045933  0.33530557  0.07096851  1
  O2-  O235  1  0.70138609  0.33701610  0.39899209  1
  O2-  O236  1  0.70575926  0.33635948  0.72728853  1
  O2-  O237  1  0.70442101  0.82945383  0.06330931  1
  O2-  O238  1  0.71323251  0.83368456  0.40285005  1
  O2-  O239  1  0.70729631  0.83723919  0.72964467  1
  O2-  O240  1  0.45058713  0.41954908  0.26309615  1
  O2-  O241  1  0.45635666  0.41204755  0.60675630  1
  O2-  O242  1  0.45343940  0.41861730  0.93440055  1
  O2-  O243  1  0.44859115  0.92136384  0.26864814  1
  O2-  O244  1  0.45507165  0.91776326  0.60389741  1
  O2-  O245  1  0.45554913  0.91679551  0.92505820  1
  O2-  O246  1  0.96199664  0.41502323  0.26705854  1
  O2-  O247  1  0.95259950  0.42137448  0.60024305  1
  O2-  O248  1  0.95585886  0.41869567  0.93786365  1
  O2-  O249  1  0.95657979  0.91122378  0.27348484  1
  O2-  O250  1  0.95059892  0.91642109  0.60236151  1
  O2-  O251  1  0.96229995  0.91339757  0.92809774  1
  O2-  O252  1  0.32816831  0.29332827  0.26415351  1
  O2-  O253  1  0.33912225  0.29157516  0.60746910  1
  O2-  O254  1  0.33579646  0.29649617  0.93354355  1
  O2-  O255  1  0.33219589  0.78377268  0.26593596  1
  O2-  O256  1  0.33355546  0.80117739  0.60340081  1
  O2-  O257  1  0.33330566  0.78601246  0.92764912  1
  O2-  O258  1  0.83109948  0.30982515  0.27485565  1
  O2-  O259  1  0.82979337  0.29382880  0.59614476  1
  O2-  O260  1  0.83501622  0.30197287  0.94058396  1
  O2-  O261  1  0.84169833  0.78618919  0.27325973  1
  O2-  O262  1  0.83427902  0.79390593  0.60215865  1
  O2-  O263  1  0.83361475  0.78892863  0.92952335  1
  O2-  O264  1  0.41754944  0.04668908  0.05665450  1
  O2-  O265  1  0.41714095  0.04586964  0.40298173  1
  O2-  O266  1  0.41301426  0.04146636  0.73370389  1
  O2-  O267  1  0.41502253  0.54630987  0.06540310  1
  O2-  O268  1  0.41424899  0.54265872  0.39502685  1
  O2-  O269  1  0.41542352  0.54357691  0.73090386  1
  O2-  O270  1  0.91875366  0.03550572  0.06428572  1
  O2-  O271  1  0.91575224  0.03683851  0.40767330  1
  O2-  O272  1  0.91342504  0.04369304  0.72772169  1
  O2-  O273  1  0.91428693  0.54738743  0.06428855  1
  O2-  O274  1  0.91626763  0.53561210  0.40440924  1
  O2-  O275  1  0.91162940  0.54582802  0.73154088  1
  O2-  O276  1  0.30088799  0.16698645  0.05917270  1
  O2-  O277  1  0.28728970  0.16933655  0.40062270  1
  O2-  O278  1  0.29641033  0.16276728  0.73324103  1
  O2-  O279  1  0.29526746  0.66439865  0.06425933  1
  O2-  O280  1  0.29236735  0.65878911  0.40019121  1
  O2-  O281  1  0.30132626  0.66903641  0.72643207  1
  O2-  O282  1  0.80172910  0.17085695  0.06550653  1
  O2-  O283  1  0.80211949  0.17593468  0.40096647  1
  O2-  O284  1  0.79244191  0.16404586  0.72855956  1
  O2-  O285  1  0.79689409  0.66652731  0.06101436  1
  O2-  O286  1  0.79561962  0.66581215  0.40705698  1
  O2-  O287  1  0.79073668  0.66408525  0.73093655  1
