# generated using pymatgen
data_Ca2Al2SiO7
_symmetry_space_group_name_H-M   'P 1'
_cell_length_a   15.47361254
_cell_length_b   15.47446238
_cell_length_c   15.29426430
_cell_angle_alpha   89.99937667
_cell_angle_beta   90.00702403
_cell_angle_gamma   89.97907241
_symmetry_Int_Tables_number   1
_chemical_formula_structural   Ca2Al2SiO7
_chemical_formula_sum   'Ca48 Al48 Si24 O168'
_cell_volume   3662.14761650
_cell_formula_units_Z   24
loop_
 _symmetry_equiv_pos_site_id
 _symmetry_equiv_pos_as_xyz
  1  'x, y, z'
loop_
 _atom_type_symbol
 _atom_type_oxidation_number
  Ca2+  2.0
  Al0+  0.0
  Si0+  0.0
  O2-  -2.0
loop_
 _atom_site_type_symbol
 _atom_site_label
 _atom_site_symmetry_multiplicity
 _atom_site_fract_x
 _atom_site_fract_y
 _atom_site_fract_z
 _atom_site_occupancy
  Ca2+  Ca0  1  0.16160412  0.08473761  0.16586093  1
  Ca2+  Ca1  1  0.16972755  0.07474346  0.51526022  1
  Ca2+  Ca2  1  0.16445803  0.08175102  0.83598788  1
  Ca2+  Ca3  1  0.16838151  0.58156458  0.17561268  1
  Ca2+  Ca4  1  0.16425303  0.57883323  0.50474711  1
  Ca2+  Ca5  1  0.15914275  0.58039720  0.83375740  1
  Ca2+  Ca6  1  0.67401486  0.09200922  0.16328343  1
  Ca2+  Ca7  1  0.67365180  0.07863989  0.51008226  1
  Ca2+  Ca8  1  0.67836239  0.08630770  0.84009244  1
  Ca2+  Ca9  1  0.66633285  0.57805698  0.16443503  1
  Ca2+  Ca10  1  0.67650966  0.57853198  0.51387224  1
  Ca2+  Ca11  1  0.66871891  0.57858019  0.83583661  1
  Ca2+  Ca12  1  0.07326492  0.33414783  0.16094310  1
  Ca2+  Ca13  1  0.07166570  0.34770623  0.49967056  1
  Ca2+  Ca14  1  0.07185561  0.33212264  0.82691086  1
  Ca2+  Ca15  1  0.08212918  0.82104534  0.15862046  1
  Ca2+  Ca16  1  0.08368023  0.82607340  0.50282066  1
  Ca2+  Ca17  1  0.07690529  0.82455746  0.82826906  1
  Ca2+  Ca18  1  0.57564133  0.33202650  0.15169389  1
  Ca2+  Ca19  1  0.57730583  0.34012099  0.50438763  1
  Ca2+  Ca20  1  0.57496847  0.34152919  0.82939796  1
  Ca2+  Ca21  1  0.57956291  0.82490028  0.15873408  1
  Ca2+  Ca22  1  0.58606448  0.82556401  0.50224101  1
  Ca2+  Ca23  1  0.58885621  0.82014915  0.82924387  1
  Ca2+  Ca24  1  0.32530016  0.42040853  0.17288383  1
  Ca2+  Ca25  1  0.31985003  0.41825207  0.50617388  1
  Ca2+  Ca26  1  0.32847193  0.40841758  0.83380671  1
  Ca2+  Ca27  1  0.33230346  0.91948449  0.17029288  1
  Ca2+  Ca28  1  0.32589871  0.92422104  0.51268674  1
  Ca2+  Ca29  1  0.32807381  0.91948845  0.83204229  1
  Ca2+  Ca30  1  0.82910109  0.40509627  0.16560147  1
  Ca2+  Ca31  1  0.82978013  0.41786711  0.51332051  1
  Ca2+  Ca32  1  0.82672151  0.41559297  0.83628517  1
  Ca2+  Ca33  1  0.84083590  0.92047655  0.16108731  1
  Ca2+  Ca34  1  0.83993742  0.92464354  0.51118252  1
  Ca2+  Ca35  1  0.84883447  0.92626771  0.83777582  1
  Ca2+  Ca36  1  0.42411814  0.17576218  0.15430721  1
  Ca2+  Ca37  1  0.40999447  0.17188572  0.50453175  1
  Ca2+  Ca38  1  0.42125129  0.17528245  0.82827570  1
  Ca2+  Ca39  1  0.41979492  0.66184584  0.15938835  1
  Ca2+  Ca40  1  0.42274718  0.65708773  0.49949105  1
  Ca2+  Ca41  1  0.43120378  0.65974390  0.82893468  1
  Ca2+  Ca42  1  0.92200001  0.17536495  0.15697635  1
  Ca2+  Ca43  1  0.91129812  0.17844842  0.50088448  1
  Ca2+  Ca44  1  0.91085817  0.17413072  0.83126712  1
  Ca2+  Ca45  1  0.93053669  0.67007233  0.15770347  1
  Ca2+  Ca46  1  0.93009984  0.65837217  0.50252305  1
  Ca2+  Ca47  1  0.92096503  0.67436513  0.82121993  1
  Al0+  Al48  1  0.00226960  -0.00107240  0.00307534  1
  Al0+  Al49  1  -0.00081425  0.00132500  0.33497213  1
  Al0+  Al50  1  0.00154094  -0.00077264  0.67161758  1
  Al0+  Al51  1  -0.00000141  0.49926353  -0.00398180  1
  Al0+  Al52  1  -0.00241786  0.50100950  0.32480558  1
  Al0+  Al53  1  -0.00038283  0.50036231  0.66807908  1
  Al0+  Al54  1  0.49940357  0.00000335  -0.00133074  1
  Al0+  Al55  1  0.50173851  -0.00176396  0.33377519  1
  Al0+  Al56  1  0.50078657  0.00022755  0.67053872  1
  Al0+  Al57  1  0.49969083  0.50115030  -0.00207748  1
  Al0+  Al58  1  0.50016503  0.49883807  0.33443340  1
  Al0+  Al59  1  0.49873875  0.49853653  0.65855330  1
  Al0+  Al60  1  0.25022851  0.24978245  -0.00270294  1
  Al0+  Al61  1  0.24979434  0.24980387  0.33648017  1
  Al0+  Al62  1  0.25141235  0.25086229  0.66959107  1
  Al0+  Al63  1  0.24982296  0.75049873  -0.00195436  1
  Al0+  Al64  1  0.25278304  0.75196181  0.33418180  1
  Al0+  Al65  1  0.25192522  0.75054765  0.66818140  1
  Al0+  Al66  1  0.74957709  0.24885479  0.00456476  1
  Al0+  Al67  1  0.74948145  0.24840479  0.33210467  1
  Al0+  Al68  1  0.74750395  0.24834829  0.66904919  1
  Al0+  Al69  1  0.74977984  0.75182815  -0.00340750  1
  Al0+  Al70  1  0.74876379  0.75074479  0.33197782  1
  Al0+  Al71  1  0.75055331  0.75090007  0.65934930  1
  Al0+  Al72  1  0.32227850  0.07239980  0.68440059  1
  Al0+  Al73  1  0.67935440  0.43123596  0.01416630  1
  Al0+  Al74  1  0.07182448  0.17878721  0.98574667  1
  Al0+  Al75  1  0.92744801  0.32048618  0.98368825  1
  Al0+  Al76  1  0.57168653  0.17749123  0.98495192  1
  Al0+  Al77  1  0.57016039  0.67985625  0.98732784  1
  Al0+  Al78  1  0.32267922  0.57252772  0.34825814  1
  Al0+  Al79  1  0.82047693  0.07005668  0.68048970  1
  Al0+  Al80  1  0.92977162  0.82010085  0.98641290  1
  Al0+  Al81  1  0.17833816  0.43095343  0.68165138  1
  Al0+  Al82  1  0.42735032  0.32031588  0.64969156  1
  Al0+  Al83  1  0.57083416  0.67865970  0.65074157  1
  Al0+  Al84  1  0.07162992  0.68141599  0.31926056  1
  Al0+  Al85  1  0.17892242  0.92705190  0.68476502  1
  Al0+  Al86  1  0.42939642  0.32245105  0.98521142  1
  Al0+  Al87  1  0.92811932  0.32054480  0.31983335  1
  Al0+  Al88  1  0.07307954  0.67736512  0.98437820  1
  Al0+  Al89  1  0.92750963  0.31905753  0.65374185  1
  Al0+  Al90  1  0.07269322  0.67816275  0.65043270  1
  Al0+  Al91  1  0.67717197  0.42931701  0.68130861  1
  Al0+  Al92  1  0.92983356  0.82335823  0.65023570  1
  Al0+  Al93  1  0.82171140  0.06994056  0.01635857  1
  Al0+  Al94  1  0.82164188  0.57198377  0.68091146  1
  Al0+  Al95  1  0.17632228  0.42989946  0.34742186  1
  Si0+  Si96  1  0.67793415  0.92771613  0.34876735  1
  Si0+  Si97  1  0.57104252  0.67787247  0.31724724  1
  Si0+  Si98  1  0.56950438  0.17702860  0.31919596  1
  Si0+  Si99  1  0.67576525  0.92672221  0.01815608  1
  Si0+  Si100  1  0.17929048  0.93031390  0.34738624  1
  Si0+  Si101  1  0.17785189  0.42758015  0.01470721  1
  Si0+  Si102  1  0.32187119  0.07156549  0.01708827  1
  Si0+  Si103  1  0.32357298  0.07005581  0.34689595  1
  Si0+  Si104  1  0.82265844  0.57421008  0.01704637  1
  Si0+  Si105  1  0.42668099  0.82302966  0.98321273  1
  Si0+  Si106  1  0.43133606  0.82258361  0.31888497  1
  Si0+  Si107  1  0.07236621  0.17927077  0.65125005  1
  Si0+  Si108  1  0.42866302  0.32011325  0.31839233  1
  Si0+  Si109  1  0.07251190  0.17539124  0.31974368  1
  Si0+  Si110  1  0.18143974  0.92849904  0.01835327  1
  Si0+  Si111  1  0.42974607  0.82330635  0.64993912  1
  Si0+  Si112  1  0.67969168  0.42747852  0.34755979  1
  Si0+  Si113  1  0.81870240  0.57309016  0.34548800  1
  Si0+  Si114  1  0.92725031  0.82531764  0.31631029  1
  Si0+  Si115  1  0.57103216  0.17681774  0.64877318  1
  Si0+  Si116  1  0.81962421  0.07007685  0.34908552  1
  Si0+  Si117  1  0.67781752  0.92686791  0.68331727  1
  Si0+  Si118  1  0.32298057  0.57151895  0.68349921  1
  Si0+  Si119  1  0.31954207  0.57113942  0.01266762  1
  O2-  O120  1  0.25143117  0.00083419  0.06165620  1
  O2-  O121  1  0.24745351  0.00466816  0.38852905  1
  O2-  O122  1  0.24911034  0.00173872  0.73395870  1
  O2-  O123  1  0.24712556  0.50181495  0.05541290  1
  O2-  O124  1  0.24770559  0.50328351  0.39721498  1
  O2-  O125  1  0.25138783  0.50735044  0.72885783  1
  O2-  O126  1  0.74432238  -0.00413541  0.06290916  1
  O2-  O127  1  0.75192221  -0.00449643  0.39045249  1
  O2-  O128  1  0.74908302  -0.00795099  0.72687509  1
  O2-  O129  1  0.75636886  0.50319949  0.06322811  1
  O2-  O130  1  0.75010517  0.49939579  0.38784313  1
  O2-  O131  1  0.74959153  0.50042808  0.73094858  1
  O2-  O132  1  0.00746837  0.24812107  0.27735369  1
  O2-  O133  1  0.00394949  0.24676973  0.60464925  1
  O2-  O134  1  -0.00037159  0.24866109  0.93441369  1
  O2-  O135  1  -0.00344212  0.75683242  0.27368757  1
  O2-  O136  1  -0.00023950  0.74958044  0.59983115  1
  O2-  O137  1  -0.00507736  0.74289389  0.93651976  1
  O2-  O138  1  0.49948501  0.24877591  0.27691160  1
  O2-  O139  1  0.50215381  0.24477157  0.60316090  1
  O2-  O140  1  0.50336947  0.25239515  0.93563658  1
  O2-  O141  1  0.49694148  0.74663314  0.27612260  1
  O2-  O142  1  0.49578737  0.75337467  0.60332540  1
  O2-  O143  1  0.49740826  0.75638388  0.94082301  1
  O2-  O144  1  0.07211182  0.18178879  0.10051370  1
  O2-  O145  1  0.07040217  0.16681706  0.42439632  1
  O2-  O146  1  0.07137317  0.18139600  0.75643329  1
  O2-  O147  1  0.07664579  0.68104108  0.09881921  1
  O2-  O148  1  0.07134052  0.68187923  0.43157586  1
  O2-  O149  1  0.07138775  0.67950688  0.76331679  1
  O2-  O150  1  0.56746147  0.17901293  0.10009562  1
  O2-  O151  1  0.56966619  0.17457823  0.42382455  1
  O2-  O152  1  0.57072326  0.17523033  0.75353815  1
  O2-  O153  1  0.56646712  0.68009643  0.10141964  1
  O2-  O154  1  0.57269757  0.67940035  0.42178688  1
  O2-  O155  1  0.56883388  0.67927539  0.76364283  1
  O2-  O156  1  0.17990225  0.42911619  0.23335282  1
  O2-  O157  1  0.17836660  0.43182021  0.56824040  1
  O2-  O158  1  0.17938878  0.42593277  0.91014056  1
  O2-  O159  1  0.18128567  0.93037859  0.24206491  1
  O2-  O160  1  0.18161341  0.92922165  0.56971949  1
  O2-  O161  1  0.18421724  0.92704463  0.91430463  1
  O2-  O162  1  0.67756582  0.42752991  0.24248319  1
  O2-  O163  1  0.67899372  0.43053021  0.56632188  1
  O2-  O164  1  0.67568509  0.43446523  0.90227402  1
  O2-  O165  1  0.67383242  0.92730315  0.24424417  1
  O2-  O166  1  0.67509137  0.93093502  0.57676328  1
  O2-  O167  1  0.67240245  0.92599062  0.91341481  1
  O2-  O168  1  0.42858992  0.32086892  0.10014331  1
  O2-  O169  1  0.42881463  0.31906688  0.42303928  1
  O2-  O170  1  0.42929906  0.32057411  0.76206470  1
  O2-  O171  1  0.42607815  0.82198754  0.08980455  1
  O2-  O172  1  0.43558998  0.82864182  0.42299824  1
  O2-  O173  1  0.43241737  0.82346988  0.75529809  1
  O2-  O174  1  0.93003388  0.31866980  0.09816565  1
  O2-  O175  1  0.92329164  0.31844141  0.43268035  1
  O2-  O176  1  0.92617596  0.31734970  0.76582350  1
  O2-  O177  1  0.93392581  0.81899591  0.10114170  1
  O2-  O178  1  0.92746232  0.82908928  0.42108656  1
  O2-  O179  1  0.93115906  0.82289666  0.76322564  1
  O2-  O180  1  0.32656884  0.06760490  0.24175673  1
  O2-  O181  1  0.32057918  0.06925672  0.56920344  1
  O2-  O182  1  0.32260282  0.06960184  0.91304766  1
  O2-  O183  1  0.32567962  0.56965804  0.23412220  1
  O2-  O184  1  0.32337961  0.56883928  0.57769991  1
  O2-  O185  1  0.32087328  0.57243810  0.90821408  1
  O2-  O186  1  0.81870581  0.07073115  0.24438890  1
  O2-  O187  1  0.81694196  0.07059812  0.56617777  1
  O2-  O188  1  0.82146516  0.06767853  0.90403826  1
  O2-  O189  1  0.81458148  0.57718009  0.24060249  1
  O2-  O190  1  0.82077537  0.56854824  0.56601321  1
  O2-  O191  1  0.81942849  0.57574567  0.91226245  1
  O2-  O192  1  0.04298519  0.08405664  0.26926526  1
  O2-  O193  1  0.04796305  0.08452469  0.60749598  1
  O2-  O194  1  0.04841876  0.07819613  0.93798533  1
  O2-  O195  1  0.04007991  0.58649294  0.26239528  1
  O2-  O196  1  0.04169863  0.58036469  0.59705000  1
  O2-  O197  1  0.05303885  0.57688032  0.93569464  1
  O2-  O198  1  0.54137325  0.08553262  0.27095601  1
  O2-  O199  1  0.54520141  0.08266214  0.60214554  1
  O2-  O200  1  0.54212522  0.07964895  0.93321027  1
  O2-  O201  1  0.54519567  0.58493474  0.27077418  1
  O2-  O202  1  0.53830994  0.58430814  0.59345326  1
  O2-  O203  1  0.53600362  0.58632479  0.93219802  1
  O2-  O204  1  0.16854758  0.19591935  0.27552308  1
  O2-  O205  1  0.16664095  0.20284755  0.60607251  1
  O2-  O206  1  0.17055303  0.20347131  0.93388281  1
  O2-  O207  1  0.16992218  0.71250958  0.26727967  1
  O2-  O208  1  0.17278977  0.70655422  0.59988367  1
  O2-  O209  1  0.16933189  0.71125838  0.93176726  1
  O2-  O210  1  0.66144307  0.20454805  0.27220818  1
  O2-  O211  1  0.66337906  0.20351189  0.60058417  1
  O2-  O212  1  0.67230415  0.19956880  0.93825971  1
  O2-  O213  1  0.66108804  0.70953471  0.26847558  1
  O2-  O214  1  0.66520302  0.71075672  0.59285056  1
  O2-  O215  1  0.66592144  0.70933421  0.93345441  1
  O2-  O216  1  0.08518130  0.45293477  0.06216428  1
  O2-  O217  1  0.07572892  0.45835819  0.39557878  1
  O2-  O218  1  0.08221385  0.45929584  0.73611794  1
  O2-  O219  1  0.09099972  0.95572315  0.06865300  1
  O2-  O220  1  0.08645000  0.95562976  0.39388468  1
  O2-  O221  1  0.08178565  0.95477558  0.73818645  1
  O2-  O222  1  0.58278866  0.46572385  0.06961880  1
  O2-  O223  1  0.58743493  0.45428665  0.39421359  1
  O2-  O224  1  0.57778544  0.45973737  0.72934825  1
  O2-  O225  1  0.58111808  0.95139332  0.06510247  1
  O2-  O226  1  0.58816929  0.95912828  0.39870946  1
  O2-  O227  1  0.58545678  0.95266358  0.73066522  1
  O2-  O228  1  0.20892365  0.33700336  0.06352179  1
  O2-  O229  1  0.20428164  0.33053530  0.39986769  1
  O2-  O230  1  0.21182248  0.33542759  0.73444638  1
  O2-  O231  1  0.21334604  0.83767134  0.06729712  1
  O2-  O232  1  0.21069062  0.84074162  0.39575841  1
  O2-  O233  1  0.21162657  0.83023211  0.73789278  1
  O2-  O234  1  0.70643828  0.33392679  0.07024703  1
  O2-  O235  1  0.70665683  0.33519036  0.39431749  1
  O2-  O236  1  0.70130567  0.32993757  0.73175856  1
  O2-  O237  1  0.70236941  0.83357844  0.06650723  1
  O2-  O238  1  0.70201861  0.83461142  0.39571852  1
  O2-  O239  1  0.69895246  0.83123894  0.72465896  1
  O2-  O240  1  0.45776933  0.41177540  0.27125961  1
  O2-  O241  1  0.45904283  0.41451659  0.59155620  1
  O2-  O242  1  0.45557556  0.42048802  0.93283200  1
  O2-  O243  1  0.46435226  0.91156357  0.26715035  1
  O2-  O244  1  0.45762059  0.91643554  0.60288741  1
  O2-  O245  1  0.44887409  0.91707092  0.93865473  1
  O2-  O246  1  0.95298896  0.41669402  0.26247623  1
  O2-  O247  1  0.95813335  0.41607661  0.60062966  1
  O2-  O248  1  0.95289358  0.41942746  0.93307728  1
  O2-  O249  1  0.95279721  0.91931904  0.27010494  1
  O2-  O250  1  0.96217138  0.92168280  0.59744910  1
  O2-  O251  1  0.96497634  0.91638382  0.93645508  1
  O2-  O252  1  0.33623618  0.29295450  0.27152215  1
  O2-  O253  1  0.33151611  0.28717061  0.59461239  1
  O2-  O254  1  0.33243095  0.29183338  0.93350440  1
  O2-  O255  1  0.33813747  0.80152349  0.27135464  1
  O2-  O256  1  0.33555406  0.80062152  0.60443819  1
  O2-  O257  1  0.33490892  0.79568106  0.93672270  1
  O2-  O258  1  0.83261544  0.28434362  0.26536501  1
  O2-  O259  1  0.83103377  0.28564764  0.59940388  1
  O2-  O260  1  0.82836871  0.29174516  0.93553285  1
  O2-  O261  1  0.83254931  0.79988520  0.27172000  1
  O2-  O262  1  0.82985494  0.80224787  0.59681169  1
  O2-  O263  1  0.82830229  0.80452468  0.93685344  1
  O2-  O264  1  0.41338698  0.04237898  0.06626107  1
  O2-  O265  1  0.41306264  0.03655612  0.39543827  1
  O2-  O266  1  0.42025526  0.04208100  0.73644917  1
  O2-  O267  1  0.41053476  0.54266359  0.06199637  1
  O2-  O268  1  0.42084212  0.54115315  0.40103336  1
  O2-  O269  1  0.41547283  0.54046977  0.72766678  1
  O2-  O270  1  0.91775975  0.03647761  0.07248812  1
  O2-  O271  1  0.91243732  0.04575329  0.39625961  1
  O2-  O272  1  0.91747450  0.04348440  0.73384305  1
  O2-  O273  1  0.91792512  0.54998934  0.06133091  1
  O2-  O274  1  0.91197279  0.54702004  0.38888145  1
  O2-  O275  1  0.91919359  0.54591909  0.73381025  1
  O2-  O276  1  0.29383790  0.16335585  0.06542429  1
  O2-  O277  1  0.30199375  0.16354681  0.39306265  1
  O2-  O278  1  0.29715032  0.17094433  0.73571174  1
  O2-  O279  1  0.29432464  0.66401201  0.06125215  1
  O2-  O280  1  0.30316524  0.67423490  0.39843649  1
  O2-  O281  1  0.30621339  0.66747944  0.72717714  1
  O2-  O282  1  0.79047145  0.16512918  0.07408571  1
  O2-  O283  1  0.78686331  0.16022429  0.39706113  1
  O2-  O284  1  0.78524848  0.16394283  0.73517548  1
  O2-  O285  1  0.79405796  0.66733855  0.06396430  1
  O2-  O286  1  0.78895999  0.66391890  0.39436445  1
  O2-  O287  1  0.79222741  0.67197653  0.72871180  1
