# generated using pymatgen
data_Ca2Al2SiO7
_symmetry_space_group_name_H-M   'P 1'
_cell_length_a   15.46482611
_cell_length_b   15.46541536
_cell_length_c   15.28935130
_cell_angle_alpha   90.00548471
_cell_angle_beta   89.99292790
_cell_angle_gamma   90.02226056
_symmetry_Int_Tables_number   1
_chemical_formula_structural   Ca2Al2SiO7
_chemical_formula_sum   'Ca48 Al48 Si24 O168'
_cell_volume   3656.75320836
_cell_formula_units_Z   24
loop_
 _symmetry_equiv_pos_site_id
 _symmetry_equiv_pos_as_xyz
  1  'x, y, z'
loop_
 _atom_type_symbol
 _atom_type_oxidation_number
  Ca2+  2.0
  Al0+  0.0
  Si0+  0.0
  O2-  -2.0
loop_
 _atom_site_type_symbol
 _atom_site_label
 _atom_site_symmetry_multiplicity
 _atom_site_fract_x
 _atom_site_fract_y
 _atom_site_fract_z
 _atom_site_occupancy
  Ca2+  Ca0  1  0.17290545  0.07794382  0.16577080  1
  Ca2+  Ca1  1  0.18015499  0.08150949  0.50234725  1
  Ca2+  Ca2  1  0.17577801  0.07598081  0.84315131  1
  Ca2+  Ca3  1  0.17184466  0.58097182  0.17917855  1
  Ca2+  Ca4  1  0.16727907  0.58765605  0.49257987  1
  Ca2+  Ca5  1  0.16875472  0.58330227  0.83673468  1
  Ca2+  Ca6  1  0.66068354  0.06953840  0.16956147  1
  Ca2+  Ca7  1  0.66487288  0.07051480  0.50166579  1
  Ca2+  Ca8  1  0.66589447  0.06951705  0.83715676  1
  Ca2+  Ca9  1  0.67092115  0.58214634  0.17127585  1
  Ca2+  Ca10  1  0.67389668  0.57684945  0.50386281  1
  Ca2+  Ca11  1  0.67501271  0.58288649  0.84213001  1
  Ca2+  Ca12  1  0.08677467  0.32918238  0.16165670  1
  Ca2+  Ca13  1  0.08605242  0.33350826  0.49173457  1
  Ca2+  Ca14  1  0.08433701  0.32438571  0.83170787  1
  Ca2+  Ca15  1  0.07898418  0.83183103  0.16484487  1
  Ca2+  Ca16  1  0.06726912  0.82710327  0.48953722  1
  Ca2+  Ca17  1  0.07676609  0.83644260  0.82836131  1
  Ca2+  Ca18  1  0.58007575  0.34069680  0.16397478  1
  Ca2+  Ca19  1  0.58427875  0.33258457  0.49126141  1
  Ca2+  Ca20  1  0.58959966  0.33408783  0.83031070  1
  Ca2+  Ca21  1  0.57710838  0.83214164  0.16097355  1
  Ca2+  Ca22  1  0.57750871  0.83944216  0.49481074  1
  Ca2+  Ca23  1  0.58016980  0.83567022  0.83112819  1
  Ca2+  Ca24  1  0.33059228  0.42501399  0.17995880  1
  Ca2+  Ca25  1  0.33403331  0.42236488  0.49306490  1
  Ca2+  Ca26  1  0.33392299  0.42035196  0.83664248  1
  Ca2+  Ca27  1  0.33948718  0.92357579  0.17114647  1
  Ca2+  Ca28  1  0.34354743  0.92542511  0.50481589  1
  Ca2+  Ca29  1  0.33595971  0.92299044  0.84197374  1
  Ca2+  Ca30  1  0.82251989  0.42735539  0.17332457  1
  Ca2+  Ca31  1  0.82597141  0.42769954  0.50529902  1
  Ca2+  Ca32  1  0.82286496  0.42766412  0.84039234  1
  Ca2+  Ca33  1  0.82107228  0.90904649  0.17163985  1
  Ca2+  Ca34  1  0.82291236  0.90250069  0.50174273  1
  Ca2+  Ca35  1  0.82162473  0.90499452  0.83481603  1
  Ca2+  Ca36  1  0.40781325  0.17132053  0.16704772  1
  Ca2+  Ca37  1  0.41381241  0.16986443  0.49193805  1
  Ca2+  Ca38  1  0.41434950  0.16281392  0.83073482  1
  Ca2+  Ca39  1  0.41964920  0.67640518  0.15923427  1
  Ca2+  Ca40  1  0.41681550  0.67930653  0.48953199  1
  Ca2+  Ca41  1  0.42512171  0.67989050  0.83056649  1
  Ca2+  Ca42  1  0.92454577  0.16903181  0.15787321  1
  Ca2+  Ca43  1  0.91852780  0.16995592  0.49313526  1
  Ca2+  Ca44  1  0.92540849  0.16138455  0.83128814  1
  Ca2+  Ca45  1  0.91583463  0.66160759  0.16926011  1
  Ca2+  Ca46  1  0.91343486  0.66916449  0.49307501  1
  Ca2+  Ca47  1  0.91329757  0.66642573  0.82888698  1
  Al0+  Al48  1  0.00207834  0.00046272  -0.00292760  1
  Al0+  Al49  1  0.00001314  0.00037541  0.32844177  1
  Al0+  Al50  1  0.00204555  -0.00077295  0.65822293  1
  Al0+  Al51  1  -0.00153900  0.49984536  0.00040714  1
  Al0+  Al52  1  -0.00056429  0.49863340  0.33640485  1
  Al0+  Al53  1  0.00132142  0.49756729  0.67064855  1
  Al0+  Al54  1  0.49981891  0.00465561  0.00437910  1
  Al0+  Al55  1  0.50091800  0.00152390  0.33689034  1
  Al0+  Al56  1  0.50179799  0.00277029  0.67104483  1
  Al0+  Al57  1  0.49954457  0.50144657  -0.00343540  1
  Al0+  Al58  1  0.49828120  0.49979447  0.33726045  1
  Al0+  Al59  1  0.49763946  0.49905044  0.66936647  1
  Al0+  Al60  1  0.24945131  0.24891121  -0.00417223  1
  Al0+  Al61  1  0.25164727  0.24943771  0.33615795  1
  Al0+  Al62  1  0.25169879  0.24905972  0.67004750  1
  Al0+  Al63  1  0.24731603  0.75136946  -0.00267635  1
  Al0+  Al64  1  0.24736638  0.75223799  0.32972755  1
  Al0+  Al65  1  0.24989096  0.75011739  0.66253194  1
  Al0+  Al66  1  0.74892979  0.25235343  0.00152497  1
  Al0+  Al67  1  0.75059399  0.24680213  0.33311959  1
  Al0+  Al68  1  0.75184598  0.24892168  0.66827791  1
  Al0+  Al69  1  0.75076874  0.74915174  0.00514749  1
  Al0+  Al70  1  0.74802368  0.75009756  0.33760988  1
  Al0+  Al71  1  0.74962425  0.74799355  0.67048032  1
  Al0+  Al72  1  0.82218465  0.57178743  0.01840288  1
  Al0+  Al73  1  0.32088609  0.07152669  0.01711752  1
  Al0+  Al74  1  0.81998963  0.57034153  0.35033571  1
  Al0+  Al75  1  0.82137093  0.57015892  0.68377544  1
  Al0+  Al76  1  0.67694887  0.42615753  0.34851001  1
  Al0+  Al77  1  0.42867231  0.82422138  0.98526260  1
  Al0+  Al78  1  0.32132563  0.57599165  0.34695671  1
  Al0+  Al79  1  0.57216069  0.67955338  0.98501208  1
  Al0+  Al80  1  0.67619150  0.42872759  0.01699049  1
  Al0+  Al81  1  0.67988849  0.93021498  0.01423802  1
  Al0+  Al82  1  0.06902004  0.67777457  0.31719407  1
  Al0+  Al83  1  0.07069395  0.17939483  0.98454275  1
  Al0+  Al84  1  0.17696726  0.92688935  0.01526325  1
  Al0+  Al85  1  0.43112917  0.82260965  0.65277913  1
  Al0+  Al86  1  0.92578690  0.82077238  0.31535067  1
  Al0+  Al87  1  0.92840485  0.81880326  0.65350416  1
  Al0+  Al88  1  0.68028236  0.93023680  0.34710394  1
  Al0+  Al89  1  0.43050059  0.32057918  0.32061741  1
  Al0+  Al90  1  0.67703223  0.42688536  0.68257914  1
  Al0+  Al91  1  0.68113346  0.93039844  0.68076248  1
  Al0+  Al92  1  0.32018128  0.06990916  0.68183703  1
  Al0+  Al93  1  0.31900554  0.06819453  0.34780707  1
  Al0+  Al94  1  0.42923718  0.82389775  0.32002211  1
  Al0+  Al95  1  0.17935226  0.42842122  0.34660021  1
  Si0+  Si96  1  0.57263268  0.18027088  0.98439337  1
  Si0+  Si97  1  0.18064486  0.42782594  0.68337210  1
  Si0+  Si98  1  0.82606857  0.07261921  0.68175919  1
  Si0+  Si99  1  0.42737507  0.32156687  0.65132546  1
  Si0+  Si100  1  0.17728005  0.92741865  0.68057980  1
  Si0+  Si101  1  0.31943329  0.57145139  0.01167985  1
  Si0+  Si102  1  0.17428076  0.92792356  0.35116953  1
  Si0+  Si103  1  0.92748892  0.32257713  0.98185924  1
  Si0+  Si104  1  0.93105632  0.31948205  0.65150904  1
  Si0+  Si105  1  0.57013075  0.67770566  0.31920248  1
  Si0+  Si106  1  0.92976645  0.82063810  0.98528738  1
  Si0+  Si107  1  0.07253384  0.17999423  0.31785220  1
  Si0+  Si108  1  0.57286436  0.17805268  0.31595168  1
  Si0+  Si109  1  0.07347707  0.17976626  0.64886286  1
  Si0+  Si110  1  0.82307072  0.07307345  0.01425388  1
  Si0+  Si111  1  0.42872410  0.32126677  0.98405292  1
  Si0+  Si112  1  0.17981391  0.42911733  0.01168781  1
  Si0+  Si113  1  0.92785946  0.31989817  0.31834247  1
  Si0+  Si114  1  0.32043400  0.57353936  0.68265990  1
  Si0+  Si115  1  0.57195118  0.18070233  0.65242904  1
  Si0+  Si116  1  0.07101027  0.67639158  0.98409153  1
  Si0+  Si117  1  0.57073656  0.67658241  0.64984113  1
  Si0+  Si118  1  0.82562931  0.07176427  0.34853867  1
  Si0+  Si119  1  0.07309762  0.67422888  0.64981509  1
  O2-  O120  1  0.25374156  -0.00595622  0.06512666  1
  O2-  O121  1  0.24789506  -0.00897366  0.39619194  1
  O2-  O122  1  0.24867114  -0.00812324  0.72665413  1
  O2-  O123  1  0.24808108  0.50120787  0.05422727  1
  O2-  O124  1  0.24814504  0.50370552  0.39654781  1
  O2-  O125  1  0.24893241  0.50181155  0.72477114  1
  O2-  O126  1  0.75523929  0.00527831  0.05995299  1
  O2-  O127  1  0.75968677  0.00104276  0.39278606  1
  O2-  O128  1  0.76077372  0.00133458  0.72629096  1
  O2-  O129  1  0.74704802  0.50169201  0.06537684  1
  O2-  O130  1  0.74809645  0.49770661  0.39914855  1
  O2-  O131  1  0.74591235  0.50116366  0.73277257  1
  O2-  O132  1  -0.00004939  0.24969852  0.27591981  1
  O2-  O133  1  0.00106586  0.24870527  0.60606127  1
  O2-  O134  1  -0.00587034  0.25199224  0.93622428  1
  O2-  O135  1  -0.00223198  0.74909641  0.26474207  1
  O2-  O136  1  0.00246135  0.74218191  0.60870780  1
  O2-  O137  1  0.00039175  0.74843342  0.94324924  1
  O2-  O138  1  0.50875977  0.25105238  0.27176953  1
  O2-  O139  1  0.50390841  0.25541015  0.61147640  1
  O2-  O140  1  0.50179236  0.25213544  0.94229392  1
  O2-  O141  1  0.49914636  0.74433698  0.27497049  1
  O2-  O142  1  0.50372031  0.74650904  0.60480703  1
  O2-  O143  1  0.50289219  0.75463938  0.93456270  1
  O2-  O144  1  0.07055998  0.18341037  0.09766166  1
  O2-  O145  1  0.07133325  0.18109885  0.42349186  1
  O2-  O146  1  0.07330389  0.18110161  0.75388156  1
  O2-  O147  1  0.07228503  0.67199962  0.08819451  1
  O2-  O148  1  0.06756850  0.67978936  0.43120172  1
  O2-  O149  1  0.07522431  0.67404442  0.75587341  1
  O2-  O150  1  0.57405074  0.17958416  0.08900977  1
  O2-  O151  1  0.57173811  0.17703595  0.42195185  1
  O2-  O152  1  0.57097868  0.17970731  0.75772301  1
  O2-  O153  1  0.56805159  0.67777610  0.09851304  1
  O2-  O154  1  0.56950357  0.67924350  0.42513355  1
  O2-  O155  1  0.56808849  0.67698684  0.75536654  1
  O2-  O156  1  0.18210415  0.42582108  0.23261111  1
  O2-  O157  1  0.18058803  0.42388587  0.57906155  1
  O2-  O158  1  0.18167318  0.42988790  0.90588619  1
  O2-  O159  1  0.17111833  0.93247368  0.24597944  1
  O2-  O160  1  0.17570142  0.93142575  0.57535469  1
  O2-  O161  1  0.17399640  0.92991458  0.90114158  1
  O2-  O162  1  0.67907039  0.42633323  0.23535040  1
  O2-  O163  1  0.67960936  0.42501563  0.56944590  1
  O2-  O164  1  0.67912123  0.42706505  0.90347638  1
  O2-  O165  1  0.67881994  0.93292517  0.23413429  1
  O2-  O166  1  0.67975349  0.93375274  0.56799160  1
  O2-  O167  1  0.68132741  0.93172847  0.90083580  1
  O2-  O168  1  0.42547795  0.32121474  0.08873806  1
  O2-  O169  1  0.42872786  0.31638721  0.43399450  1
  O2-  O170  1  0.42328401  0.32016705  0.75669259  1
  O2-  O171  1  0.42933936  0.82128978  0.09873388  1
  O2-  O172  1  0.43369066  0.82565729  0.43357723  1
  O2-  O173  1  0.43090136  0.82208593  0.76561100  1
  O2-  O174  1  0.93066655  0.32151300  0.08738070  1
  O2-  O175  1  0.92799459  0.31610350  0.42386815  1
  O2-  O176  1  0.93438411  0.31688950  0.75641335  1
  O2-  O177  1  0.93079071  0.82258166  0.08976561  1
  O2-  O178  1  0.92735720  0.82046371  0.42914382  1
  O2-  O179  1  0.93150217  0.82074438  0.76706253  1
  O2-  O180  1  0.31643538  0.07072536  0.23541062  1
  O2-  O181  1  0.31853416  0.07329563  0.56891780  1
  O2-  O182  1  0.31838210  0.07350356  0.90320855  1
  O2-  O183  1  0.32119322  0.57257977  0.23285534  1
  O2-  O184  1  0.32066314  0.57337997  0.57817338  1
  O2-  O185  1  0.31710446  0.56863660  0.90591914  1
  O2-  O186  1  0.82599050  0.07506916  0.24310639  1
  O2-  O187  1  0.82408625  0.07723175  0.57648803  1
  O2-  O188  1  0.82217579  0.07224025  0.90834918  1
  O2-  O189  1  0.81931647  0.56787180  0.23715143  1
  O2-  O190  1  0.82272945  0.56730320  0.57072173  1
  O2-  O191  1  0.82476203  0.56935109  0.90476675  1
  O2-  O192  1  0.04609556  0.08871468  0.26941194  1
  O2-  O193  1  0.04896038  0.08825889  0.59963634  1
  O2-  O194  1  0.04009859  0.08368414  0.92766912  1
  O2-  O195  1  0.04347518  0.57696768  0.26653894  1
  O2-  O196  1  0.05035346  0.57872314  0.60632297  1
  O2-  O197  1  0.04312284  0.58466526  0.93445017  1
  O2-  O198  1  0.54017255  0.08730790  0.26917622  1
  O2-  O199  1  0.54041009  0.09082880  0.60386222  1
  O2-  O200  1  0.54285896  0.08978600  0.93528819  1
  O2-  O201  1  0.54738624  0.58317490  0.27445790  1
  O2-  O202  1  0.54311265  0.58251714  0.60529404  1
  O2-  O203  1  0.54024890  0.58259044  0.92921368  1
  O2-  O204  1  0.16276708  0.21114787  0.27069070  1
  O2-  O205  1  0.16457342  0.21253263  0.60294243  1
  O2-  O206  1  0.16493446  0.21440282  0.92717926  1
  O2-  O207  1  0.16769934  0.70485236  0.26389673  1
  O2-  O208  1  0.16598794  0.69993112  0.60259723  1
  O2-  O209  1  0.16185309  0.70305160  0.93323214  1
  O2-  O210  1  0.66862395  0.19562326  0.27068029  1
  O2-  O211  1  0.66536655  0.20383810  0.60513755  1
  O2-  O212  1  0.66464828  0.20670085  0.93534253  1
  O2-  O213  1  0.66246582  0.70644304  0.27344505  1
  O2-  O214  1  0.66558768  0.70015360  0.60671374  1
  O2-  O215  1  0.67230536  0.70666869  0.93454633  1
  O2-  O216  1  0.08680415  0.45260665  0.05718501  1
  O2-  O217  1  0.08070381  0.45153285  0.40106920  1
  O2-  O218  1  0.08882705  0.45198721  0.73271069  1
  O2-  O219  1  0.08083871  0.96262077  0.06851863  1
  O2-  O220  1  0.08260008  0.96021126  0.39822787  1
  O2-  O221  1  0.08463671  0.95786350  0.72668197  1
  O2-  O222  1  0.57547581  0.45511320  0.06553265  1
  O2-  O223  1  0.57825751  0.45137859  0.40129145  1
  O2-  O224  1  0.57529770  0.44823554  0.73236232  1
  O2-  O225  1  0.58498850  0.96441421  0.06815176  1
  O2-  O226  1  0.58721240  0.96787690  0.40355455  1
  O2-  O227  1  0.58806725  0.96791111  0.73677180  1
  O2-  O228  1  0.20858260  0.33766397  0.05738921  1
  O2-  O229  1  0.21178331  0.33256516  0.40285116  1
  O2-  O230  1  0.21250645  0.33803869  0.73315887  1
  O2-  O231  1  0.19647997  0.82552297  0.06507500  1
  O2-  O232  1  0.19277380  0.83231446  0.39392602  1
  O2-  O233  1  0.19690514  0.83137999  0.72414847  1
  O2-  O234  1  0.70417721  0.32970351  0.06924882  1
  O2-  O235  1  0.70585252  0.32597817  0.39870304  1
  O2-  O236  1  0.70922454  0.32856446  0.73488157  1
  O2-  O237  1  0.71039576  0.83482409  0.06844755  1
  O2-  O238  1  0.70617183  0.83400725  0.40320128  1
  O2-  O239  1  0.70812717  0.83315648  0.73455384  1
  O2-  O240  1  0.45468059  0.41935130  0.26745207  1
  O2-  O241  1  0.44773842  0.41588021  0.60577418  1
  O2-  O242  1  0.45357348  0.41308512  0.93449651  1
  O2-  O243  1  0.46525614  0.91922934  0.26708263  1
  O2-  O244  1  0.46472284  0.92018021  0.60183990  1
  O2-  O245  1  0.45581785  0.92509397  0.93642097  1
  O2-  O246  1  0.95536595  0.41115008  0.27158116  1
  O2-  O247  1  0.96119313  0.41087743  0.60503794  1
  O2-  O248  1  0.95738871  0.41448721  0.93424288  1
  O2-  O249  1  0.95375804  0.92059908  0.26381333  1
  O2-  O250  1  0.95795631  0.91536175  0.59717062  1
  O2-  O251  1  0.95763064  0.91186046  0.93626457  1
  O2-  O252  1  0.33478458  0.28552772  0.26633777  1
  O2-  O253  1  0.33748385  0.28764597  0.60382719  1
  O2-  O254  1  0.33825344  0.29166335  0.93373349  1
  O2-  O255  1  0.32993059  0.80112865  0.26881701  1
  O2-  O256  1  0.33279889  0.79446622  0.60012255  1
  O2-  O257  1  0.32971719  0.79423079  0.93245901  1
  O2-  O258  1  0.83747215  0.28981105  0.26934290  1
  O2-  O259  1  0.83924554  0.29144601  0.60419598  1
  O2-  O260  1  0.83291650  0.29878666  0.93703541  1
  O2-  O261  1  0.82601166  0.79270269  0.26597717  1
  O2-  O262  1  0.83087198  0.78863329  0.60126720  1
  O2-  O263  1  0.83787202  0.79211612  0.93886333  1
  O2-  O264  1  0.42079267  0.05281093  0.06966026  1
  O2-  O265  1  0.41639048  0.04160358  0.40219472  1
  O2-  O266  1  0.41753134  0.04374946  0.73541414  1
  O2-  O267  1  0.41050045  0.54268477  0.05780740  1
  O2-  O268  1  0.41695054  0.54491331  0.40325376  1
  O2-  O269  1  0.41046213  0.54346665  0.73214456  1
  O2-  O270  1  0.91735420  0.04900185  0.05847884  1
  O2-  O271  1  0.92044201  0.05101141  0.39452214  1
  O2-  O272  1  0.92212347  0.04967837  0.72406736  1
  O2-  O273  1  0.92038601  0.53924533  0.07003997  1
  O2-  O274  1  0.91793726  0.54066049  0.40273129  1
  O2-  O275  1  0.92027241  0.53924303  0.73610659  1
  O2-  O276  1  0.28536515  0.16954655  0.06717983  1
  O2-  O277  1  0.28490181  0.16315755  0.40306688  1
  O2-  O278  1  0.28670059  0.16558026  0.73679310  1
  O2-  O279  1  0.29205907  0.66319961  0.05738619  1
  O2-  O280  1  0.29167156  0.67401454  0.40065935  1
  O2-  O281  1  0.29125907  0.66474294  0.73089569  1
  O2-  O282  1  0.79966340  0.16738120  0.05952167  1
  O2-  O283  1  0.79797300  0.16381996  0.39721944  1
  O2-  O284  1  0.79957153  0.16458846  0.73061510  1
  O2-  O285  1  0.79786389  0.67033868  0.07085411  1
  O2-  O286  1  0.79096902  0.66816838  0.40305093  1
  O2-  O287  1  0.79509105  0.66850990  0.73719236  1
