# generated using pymatgen
data_Ca2Al2SiO7
_symmetry_space_group_name_H-M   'P 1'
_cell_length_a   15.46342287
_cell_length_b   15.46376048
_cell_length_c   15.28820980
_cell_angle_alpha   90.00035966
_cell_angle_beta   89.98539881
_cell_angle_gamma   89.98261151
_symmetry_Int_Tables_number   1
_chemical_formula_structural   Ca2Al2SiO7
_chemical_formula_sum   'Ca48 Al48 Si24 O168'
_cell_volume   3655.75722227
_cell_formula_units_Z   24
loop_
 _symmetry_equiv_pos_site_id
 _symmetry_equiv_pos_as_xyz
  1  'x, y, z'
loop_
 _atom_type_symbol
 _atom_type_oxidation_number
  Ca2+  2.0
  Al0+  0.0
  Si0+  0.0
  O2-  -2.0
loop_
 _atom_site_type_symbol
 _atom_site_label
 _atom_site_symmetry_multiplicity
 _atom_site_fract_x
 _atom_site_fract_y
 _atom_site_fract_z
 _atom_site_occupancy
  Ca2+  Ca0  1  0.17076972  0.08219236  0.16795921  1
  Ca2+  Ca1  1  0.17120231  0.09363230  0.50548358  1
  Ca2+  Ca2  1  0.17531100  0.08583580  0.83944619  1
  Ca2+  Ca3  1  0.17169993  0.57609472  0.17979917  1
  Ca2+  Ca4  1  0.16877325  0.57735037  0.49286789  1
  Ca2+  Ca5  1  0.17018841  0.57871770  0.83760147  1
  Ca2+  Ca6  1  0.66520721  0.08436918  0.16728638  1
  Ca2+  Ca7  1  0.66103707  0.08982817  0.50323557  1
  Ca2+  Ca8  1  0.67015160  0.08364928  0.84221925  1
  Ca2+  Ca9  1  0.67604821  0.58753047  0.16942947  1
  Ca2+  Ca10  1  0.67169086  0.57220624  0.50462359  1
  Ca2+  Ca11  1  0.66980622  0.57626632  0.84143148  1
  Ca2+  Ca12  1  0.07756384  0.33513225  0.16753353  1
  Ca2+  Ca13  1  0.07857354  0.32688091  0.49254734  1
  Ca2+  Ca14  1  0.06987670  0.32626332  0.82766927  1
  Ca2+  Ca15  1  0.08927702  0.82549722  0.16255432  1
  Ca2+  Ca16  1  0.08258986  0.82536060  0.49198931  1
  Ca2+  Ca17  1  0.08733453  0.83552251  0.83460851  1
  Ca2+  Ca18  1  0.57196517  0.33414629  0.16384386  1
  Ca2+  Ca19  1  0.57833769  0.32633660  0.49792764  1
  Ca2+  Ca20  1  0.57430652  0.32799132  0.82453943  1
  Ca2+  Ca21  1  0.57458111  0.82849417  0.15807496  1
  Ca2+  Ca22  1  0.57440085  0.83127056  0.49130525  1
  Ca2+  Ca23  1  0.58733547  0.83220757  0.83786639  1
  Ca2+  Ca24  1  0.33202917  0.41900534  0.17877106  1
  Ca2+  Ca25  1  0.33235930  0.40920872  0.50049224  1
  Ca2+  Ca26  1  0.33402635  0.40886836  0.83880591  1
  Ca2+  Ca27  1  0.33684573  0.91723058  0.16724805  1
  Ca2+  Ca28  1  0.33350175  0.92427779  0.50471611  1
  Ca2+  Ca29  1  0.33106277  0.93135564  0.84418822  1
  Ca2+  Ca30  1  0.84056078  0.42271339  0.17250235  1
  Ca2+  Ca31  1  0.83371740  0.41315140  0.50256594  1
  Ca2+  Ca32  1  0.82828613  0.41243197  0.83881533  1
  Ca2+  Ca33  1  0.82657724  0.92231897  0.16578144  1
  Ca2+  Ca34  1  0.82975850  0.91999990  0.50308602  1
  Ca2+  Ca35  1  0.82637282  0.92812376  0.84708471  1
  Ca2+  Ca36  1  0.41615582  0.17612279  0.16341282  1
  Ca2+  Ca37  1  0.42324745  0.17364469  0.49604701  1
  Ca2+  Ca38  1  0.41449604  0.17137808  0.82716696  1
  Ca2+  Ca39  1  0.41504271  0.67532368  0.15946710  1
  Ca2+  Ca40  1  0.41203632  0.67395968  0.48958916  1
  Ca2+  Ca41  1  0.42269814  0.67370370  0.83629658  1
  Ca2+  Ca42  1  0.91908667  0.17696289  0.16145749  1
  Ca2+  Ca43  1  0.92622522  0.17785038  0.49265387  1
  Ca2+  Ca44  1  0.91642221  0.17303887  0.82677196  1
  Ca2+  Ca45  1  0.92121927  0.65630040  0.16368124  1
  Ca2+  Ca46  1  0.92096943  0.66508489  0.49035678  1
  Ca2+  Ca47  1  0.91217804  0.66741018  0.83512004  1
  Al0+  Al48  1  0.00151903  -0.00173191  0.00817644  1
  Al0+  Al49  1  -0.00127962  -0.00018298  0.33179222  1
  Al0+  Al50  1  -0.00108174  -0.00310199  0.66329041  1
  Al0+  Al51  1  0.00040289  0.49837285  -0.00395151  1
  Al0+  Al52  1  0.00205079  0.50147030  0.33611905  1
  Al0+  Al53  1  0.00186934  0.50312313  0.66534446  1
  Al0+  Al54  1  0.49893768  0.00039224  0.00460019  1
  Al0+  Al55  1  0.49969288  -0.00157841  0.32708903  1
  Al0+  Al56  1  0.49816794  -0.00169793  0.66921708  1
  Al0+  Al57  1  0.50033033  0.50089453  -0.00805258  1
  Al0+  Al58  1  0.50366965  0.50190300  0.33568407  1
  Al0+  Al59  1  0.50163893  0.50190941  0.66823313  1
  Al0+  Al60  1  0.24726450  0.24918090  0.00108086  1
  Al0+  Al61  1  0.24981914  0.24865802  0.33132458  1
  Al0+  Al62  1  0.24873535  0.25139097  0.66706028  1
  Al0+  Al63  1  0.25109125  0.74895629  -0.00433794  1
  Al0+  Al64  1  0.24806121  0.75038200  0.32995453  1
  Al0+  Al65  1  0.24995268  0.74903317  0.66800168  1
  Al0+  Al66  1  0.74834841  0.25248488  0.00179542  1
  Al0+  Al67  1  0.75122521  0.24929983  0.32696307  1
  Al0+  Al68  1  0.74869675  0.25090144  0.66482653  1
  Al0+  Al69  1  0.75241132  0.74895269  0.00368226  1
  Al0+  Al70  1  0.74922465  0.75209927  0.34030755  1
  Al0+  Al71  1  0.75026935  0.74952731  0.66554614  1
  Al0+  Al72  1  0.06998513  0.17713905  0.65343713  1
  Al0+  Al73  1  0.57129354  0.17800362  0.31626191  1
  Al0+  Al74  1  0.18125220  0.42708166  0.34935271  1
  Al0+  Al75  1  0.32361046  0.57271662  0.34669387  1
  Al0+  Al76  1  0.07284610  0.17612665  0.31582284  1
  Al0+  Al77  1  0.32088246  0.07350623  0.01804425  1
  Al0+  Al78  1  0.06801647  0.68116998  0.31938936  1
  Al0+  Al79  1  0.43007332  0.32302355  0.31939700  1
  Al0+  Al80  1  0.82090169  0.57072532  0.34809089  1
  Al0+  Al81  1  0.67966417  0.42851772  0.68122956  1
  Al0+  Al82  1  0.18018109  0.92654884  0.01629243  1
  Al0+  Al83  1  0.93076800  0.32194046  0.31741677  1
  Al0+  Al84  1  0.42824531  0.82278318  0.98211060  1
  Al0+  Al85  1  0.31906014  0.07161884  0.67895913  1
  Al0+  Al86  1  0.42806104  0.32347222  0.65184231  1
  Al0+  Al87  1  0.82155017  0.56811451  0.01295844  1
  Al0+  Al88  1  0.92880627  0.32116275  0.98541020  1
  Al0+  Al89  1  0.82139846  0.07514758  0.01593837  1
  Al0+  Al90  1  0.42829846  0.81870527  0.32013771  1
  Al0+  Al91  1  0.57440049  0.67992886  0.98462935  1
  Al0+  Al92  1  0.92779810  0.32270401  0.65161111  1
  Al0+  Al93  1  0.42688328  0.32033050  0.98645149  1
  Al0+  Al94  1  0.56994948  0.17611018  0.65438620  1
  Al0+  Al95  1  0.67870688  0.92868625  0.01617784  1
  Si0+  Si96  1  0.07118929  0.67789129  0.98329011  1
  Si0+  Si97  1  0.17728450  0.92536351  0.68163161  1
  Si0+  Si98  1  0.07316947  0.68029405  0.65089048  1
  Si0+  Si99  1  0.67533032  0.42932129  0.01755131  1
  Si0+  Si100  1  0.57479611  0.67869521  0.31940642  1
  Si0+  Si101  1  0.67818439  0.93133070  0.35046575  1
  Si0+  Si102  1  0.82303194  0.57300020  0.68412384  1
  Si0+  Si103  1  0.57115056  0.17885315  0.98432680  1
  Si0+  Si104  1  0.32127696  0.06885085  0.34877958  1
  Si0+  Si105  1  0.82061347  0.06925110  0.67856875  1
  Si0+  Si106  1  0.82120640  0.07183413  0.35001229  1
  Si0+  Si107  1  0.92751001  0.81945520  0.65189021  1
  Si0+  Si108  1  0.17923570  0.43072695  0.68328945  1
  Si0+  Si109  1  0.93030810  0.82145676  0.98628540  1
  Si0+  Si110  1  0.06974098  0.17561506  0.98380010  1
  Si0+  Si111  1  0.42933585  0.81879691  0.65220101  1
  Si0+  Si112  1  0.57309484  0.67995313  0.65018499  1
  Si0+  Si113  1  0.32171817  0.56939427  0.01193556  1
  Si0+  Si114  1  0.67860655  0.92677769  0.68079299  1
  Si0+  Si115  1  0.67858205  0.42541397  0.35026495  1
  Si0+  Si116  1  0.17747359  0.92846477  0.34895113  1
  Si0+  Si117  1  0.92477664  0.82272816  0.31577221  1
  Si0+  Si118  1  0.17889908  0.43013042  0.01285540  1
  Si0+  Si119  1  0.32163119  0.57398530  0.68361007  1
  O2-  O120  1  0.25228865  -0.00280878  0.06721150  1
  O2-  O121  1  0.24611052  0.00132253  0.39160810  1
  O2-  O122  1  0.24079057  -0.00115883  0.72401353  1
  O2-  O123  1  0.25518321  0.49531177  0.05433639  1
  O2-  O124  1  0.25819857  0.49555477  0.39905094  1
  O2-  O125  1  0.25470952  0.49831955  0.72512679  1
  O2-  O126  1  0.74712115  0.00459506  0.06567892  1
  O2-  O127  1  0.74797676  0.00303132  0.39375766  1
  O2-  O128  1  0.74675521  0.00104396  0.72134958  1
  O2-  O129  1  0.74642998  0.49556893  0.06151661  1
  O2-  O130  1  0.74828181  0.49425617  0.39420793  1
  O2-  O131  1  0.75807393  0.50104258  0.72725916  1
  O2-  O132  1  0.00192429  0.24938851  0.26706914  1
  O2-  O133  1  -0.00051235  0.25002648  0.60299781  1
  O2-  O134  1  -0.00296453  0.24008009  0.93963213  1
  O2-  O135  1  -0.00818900  0.75323017  0.27111929  1
  O2-  O136  1  -0.00037071  0.74959183  0.61034245  1
  O2-  O137  1  0.00213181  0.75158109  0.94197342  1
  O2-  O138  1  0.50141030  0.25201416  0.26729913  1
  O2-  O139  1  0.49902795  0.24916503  0.60458175  1
  O2-  O140  1  0.49983185  0.24417432  0.93959201  1
  O2-  O141  1  0.49910095  0.73927614  0.27598963  1
  O2-  O142  1  0.50009180  0.74875863  0.60789861  1
  O2-  O143  1  0.50445116  0.75399289  0.93318448  1
  O2-  O144  1  0.07091243  0.17832141  0.08893016  1
  O2-  O145  1  0.06962099  0.17474690  0.42971375  1
  O2-  O146  1  0.06684310  0.17646671  0.76717313  1
  O2-  O147  1  0.07083202  0.67594960  0.08787282  1
  O2-  O148  1  0.06794315  0.68453572  0.43314226  1
  O2-  O149  1  0.07505054  0.68066238  0.75617962  1
  O2-  O150  1  0.57199284  0.18293524  0.08958798  1
  O2-  O151  1  0.56844523  0.17630232  0.43008564  1
  O2-  O152  1  0.57016484  0.17447533  0.76775345  1
  O2-  O153  1  0.57221872  0.67921960  0.09813754  1
  O2-  O154  1  0.57714999  0.68426569  0.42553283  1
  O2-  O155  1  0.57593525  0.68307003  0.75480769  1
  O2-  O156  1  0.18001089  0.43159702  0.23530245  1
  O2-  O157  1  0.17705296  0.43329121  0.57883581  1
  O2-  O158  1  0.17770309  0.43367399  0.90714307  1
  O2-  O159  1  0.17876885  0.92631728  0.24451355  1
  O2-  O160  1  0.18004317  0.91893179  0.57622732  1
  O2-  O161  1  0.17944196  0.92799950  0.90198727  1
  O2-  O162  1  0.67676032  0.42741980  0.24486718  1
  O2-  O163  1  0.67927445  0.43232957  0.56821738  1
  O2-  O164  1  0.67630067  0.43035307  0.91168787  1
  O2-  O165  1  0.68007101  0.92846871  0.24622947  1
  O2-  O166  1  0.68076134  0.92286436  0.57556531  1
  O2-  O167  1  0.68388220  0.92906261  0.90152921  1
  O2-  O168  1  0.42790600  0.32384354  0.09902509  1
  O2-  O169  1  0.43107459  0.31969732  0.43282914  1
  O2-  O170  1  0.42889182  0.32148245  0.76561036  1
  O2-  O171  1  0.42575348  0.81614511  0.09536478  1
  O2-  O172  1  0.43061455  0.82089850  0.43438956  1
  O2-  O173  1  0.42944174  0.81734124  0.75658834  1
  O2-  O174  1  0.93493500  0.32607424  0.09760553  1
  O2-  O175  1  0.93034851  0.31934996  0.43106232  1
  O2-  O176  1  0.92885505  0.32093930  0.76551793  1
  O2-  O177  1  0.92997838  0.81954606  0.09087865  1
  O2-  O178  1  0.92636572  0.82256788  0.42232306  1
  O2-  O179  1  0.92551861  0.81983322  0.75679473  1
  O2-  O180  1  0.32200416  0.06644945  0.24421508  1
  O2-  O181  1  0.32081285  0.06689016  0.56565901  1
  O2-  O182  1  0.31702781  0.07504039  0.90389906  1
  O2-  O183  1  0.31924592  0.57449239  0.23290604  1
  O2-  O184  1  0.31814212  0.58134948  0.57930102  1
  O2-  O185  1  0.31811247  0.57016691  0.90619932  1
  O2-  O186  1  0.82194742  0.06854417  0.24551753  1
  O2-  O187  1  0.82199354  0.06425661  0.57354447  1
  O2-  O188  1  0.82127912  0.07218612  0.90108037  1
  O2-  O189  1  0.81915312  0.57214981  0.23509984  1
  O2-  O190  1  0.82097726  0.57788053  0.57884342  1
  O2-  O191  1  0.82217316  0.56725887  0.89954895  1
  O2-  O192  1  0.04335561  0.07728931  0.26455250  1
  O2-  O193  1  0.04483600  0.07727995  0.60057661  1
  O2-  O194  1  0.04977581  0.07929053  0.94107693  1
  O2-  O195  1  0.03980032  0.58472682  0.26576183  1
  O2-  O196  1  0.04720573  0.58895763  0.60289539  1
  O2-  O197  1  0.03989729  0.58878294  0.93238465  1
  O2-  O198  1  0.54187794  0.08041425  0.26330418  1
  O2-  O199  1  0.54279395  0.07655796  0.60134151  1
  O2-  O200  1  0.55165812  0.08260554  0.94208415  1
  O2-  O201  1  0.56127632  0.58238098  0.27658727  1
  O2-  O202  1  0.54697501  0.58791976  0.60404625  1
  O2-  O203  1  0.54248070  0.58425181  0.92739067  1
  O2-  O204  1  0.17164380  0.20143424  0.26426040  1
  O2-  O205  1  0.16774514  0.20728900  0.60174202  1
  O2-  O206  1  0.16107507  0.20709738  0.93644223  1
  O2-  O207  1  0.16274684  0.71361650  0.26386035  1
  O2-  O208  1  0.16350803  0.71120553  0.60248579  1
  O2-  O209  1  0.16223697  0.70437670  0.93326154  1
  O2-  O210  1  0.67091513  0.20104340  0.26476125  1
  O2-  O211  1  0.66818247  0.20342298  0.60081947  1
  O2-  O212  1  0.66421548  0.20638528  0.93754799  1
  O2-  O213  1  0.66533309  0.71351346  0.27288689  1
  O2-  O214  1  0.66401510  0.70978193  0.60135629  1
  O2-  O215  1  0.67377971  0.70759483  0.93176764  1
  O2-  O216  1  0.09021315  0.46537450  0.06045581  1
  O2-  O217  1  0.08601184  0.46355177  0.40409998  1
  O2-  O218  1  0.08927695  0.46502595  0.73215124  1
  O2-  O219  1  0.08163067  0.94949141  0.07086693  1
  O2-  O220  1  0.08339586  0.95124258  0.39560838  1
  O2-  O221  1  0.08058134  0.94418136  0.72478071  1
  O2-  O222  1  0.58229086  0.45949782  0.06212961  1
  O2-  O223  1  0.58664934  0.45256203  0.39955633  1
  O2-  O224  1  0.58431612  0.46337230  0.73633516  1
  O2-  O225  1  0.57903908  0.95030569  0.06770850  1
  O2-  O226  1  0.58544158  0.95815151  0.39736519  1
  O2-  O227  1  0.58577052  0.94904572  0.72763992  1
  O2-  O228  1  0.19895321  0.33681879  0.05876249  1
  O2-  O229  1  0.20494024  0.32690086  0.40166970  1
  O2-  O230  1  0.20265824  0.33851525  0.73169903  1
  O2-  O231  1  0.20757410  0.82578881  0.06569196  1
  O2-  O232  1  0.20742900  0.83772637  0.39770652  1
  O2-  O233  1  0.20667431  0.83378690  0.73086197  1
  O2-  O234  1  0.69687934  0.33533629  0.06289671  1
  O2-  O235  1  0.70529663  0.33133002  0.39488022  1
  O2-  O236  1  0.70733564  0.33099047  0.73572663  1
  O2-  O237  1  0.71286356  0.83246571  0.06952331  1
  O2-  O238  1  0.70738198  0.84133372  0.40234643  1
  O2-  O239  1  0.71130328  0.83655781  0.72905264  1
  O2-  O240  1  0.45712215  0.42352643  0.26885477  1
  O2-  O241  1  0.45555607  0.42349326  0.60184594  1
  O2-  O242  1  0.45654890  0.41641132  0.93053397  1
  O2-  O243  1  0.46336228  0.91177236  0.26441919  1
  O2-  O244  1  0.45690042  0.91019545  0.60450854  1
  O2-  O245  1  0.45348087  0.92345509  0.93287297  1
  O2-  O246  1  0.96081682  0.42074384  0.26757639  1
  O2-  O247  1  0.95614755  0.42291448  0.60239714  1
  O2-  O248  1  0.96614635  0.41445891  0.92792161  1
  O2-  O249  1  0.95026173  0.91572514  0.27049886  1
  O2-  O250  1  0.95332497  0.91013763  0.60115864  1
  O2-  O251  1  0.95775773  0.91350592  0.93836911  1
  O2-  O252  1  0.33137538  0.29533683  0.26810830  1
  O2-  O253  1  0.32859860  0.29729827  0.60172003  1
  O2-  O254  1  0.32855931  0.29145705  0.93377372  1
  O2-  O255  1  0.33158731  0.79225973  0.26612275  1
  O2-  O256  1  0.33712004  0.78986383  0.60548987  1
  O2-  O257  1  0.33219809  0.78795601  0.92666655  1
  O2-  O258  1  0.83267276  0.29524002  0.26406194  1
  O2-  O259  1  0.82974453  0.29533168  0.59934767  1
  O2-  O260  1  0.82902742  0.29648093  0.93483901  1
  O2-  O261  1  0.82981803  0.79869183  0.27335052  1
  O2-  O262  1  0.83679273  0.79075971  0.60181658  1
  O2-  O263  1  0.84021057  0.79153216  0.93683138  1
  O2-  O264  1  0.42032420  0.05005279  0.06943996  1
  O2-  O265  1  0.41199357  0.03495632  0.39522684  1
  O2-  O266  1  0.41376179  0.03636647  0.73460990  1
  O2-  O267  1  0.41557897  0.54720488  0.05629686  1
  O2-  O268  1  0.42564883  0.55638769  0.39770934  1
  O2-  O269  1  0.41570443  0.55299849  0.72885553  1
  O2-  O270  1  0.91795920  0.04306899  0.06926451  1
  O2-  O271  1  0.91176406  0.03994243  0.39874718  1
  O2-  O272  1  0.91098316  0.03702486  0.72696386  1
  O2-  O273  1  0.91898453  0.53626357  0.06508205  1
  O2-  O274  1  0.91797563  0.54375263  0.40251081  1
  O2-  O275  1  0.91954873  0.55474687  0.72759568  1
  O2-  O276  1  0.28675135  0.17020431  0.07164871  1
  O2-  O277  1  0.29628117  0.16147008  0.39527717  1
  O2-  O278  1  0.29015945  0.16849324  0.73368142  1
  O2-  O279  1  0.29007091  0.65998999  0.05806743  1
  O2-  O280  1  0.28595789  0.66915471  0.40066774  1
  O2-  O281  1  0.28679166  0.66264931  0.73462957  1
  O2-  O282  1  0.79436941  0.17372859  0.06866951  1
  O2-  O283  1  0.79522216  0.16457124  0.39607687  1
  O2-  O284  1  0.79618377  0.16185379  0.72489933  1
  O2-  O285  1  0.79612058  0.66540278  0.06736233  1
  O2-  O286  1  0.79030623  0.66786239  0.40390238  1
  O2-  O287  1  0.79290520  0.66600222  0.73080695  1
