# generated using pymatgen
data_Ca2Al2SiO7
_symmetry_space_group_name_H-M   'P 1'
_cell_length_a   15.45460786
_cell_length_b   15.45548229
_cell_length_c   15.28102516
_cell_angle_alpha   89.98651015
_cell_angle_beta   89.99139971
_cell_angle_gamma   90.01264128
_symmetry_Int_Tables_number   1
_chemical_formula_structural   Ca2Al2SiO7
_chemical_formula_sum   'Ca48 Al48 Si24 O168'
_cell_volume   3650.00126721
_cell_formula_units_Z   24
loop_
 _symmetry_equiv_pos_site_id
 _symmetry_equiv_pos_as_xyz
  1  'x, y, z'
loop_
 _atom_type_symbol
 _atom_type_oxidation_number
  Ca2+  2.0
  Al0+  0.0
  Si0+  0.0
  O2-  -2.0
loop_
 _atom_site_type_symbol
 _atom_site_label
 _atom_site_symmetry_multiplicity
 _atom_site_fract_x
 _atom_site_fract_y
 _atom_site_fract_z
 _atom_site_occupancy
  Ca2+  Ca0  1  0.17650463  0.07433711  0.17415080  1
  Ca2+  Ca1  1  0.17417381  0.08092532  0.50495191  1
  Ca2+  Ca2  1  0.17632674  0.08101693  0.84126448  1
  Ca2+  Ca3  1  0.17394138  0.59230667  0.17179901  1
  Ca2+  Ca4  1  0.16758586  0.58721339  0.49722451  1
  Ca2+  Ca5  1  0.17178512  0.58326516  0.84188525  1
  Ca2+  Ca6  1  0.67400738  0.08617372  0.17285438  1
  Ca2+  Ca7  1  0.67453352  0.09276754  0.50330552  1
  Ca2+  Ca8  1  0.67661795  0.09372431  0.83304266  1
  Ca2+  Ca9  1  0.66681312  0.57570319  0.17577833  1
  Ca2+  Ca10  1  0.67755585  0.58332006  0.50543121  1
  Ca2+  Ca11  1  0.66857865  0.57257849  0.83625368  1
  Ca2+  Ca12  1  0.07424916  0.33540250  0.16607680  1
  Ca2+  Ca13  1  0.07650281  0.32529791  0.49466222  1
  Ca2+  Ca14  1  0.08157691  0.32310254  0.82536188  1
  Ca2+  Ca15  1  0.08796755  0.83141798  0.16712817  1
  Ca2+  Ca16  1  0.07651381  0.82954177  0.48823595  1
  Ca2+  Ca17  1  0.08996015  0.83054883  0.83522133  1
  Ca2+  Ca18  1  0.57950886  0.32887407  0.16165332  1
  Ca2+  Ca19  1  0.59097096  0.32386513  0.49786610  1
  Ca2+  Ca20  1  0.58156854  0.33381167  0.83102251  1
  Ca2+  Ca21  1  0.58589285  0.82342785  0.16712604  1
  Ca2+  Ca22  1  0.57628764  0.83102682  0.49346323  1
  Ca2+  Ca23  1  0.57352089  0.83437638  0.82492908  1
  Ca2+  Ca24  1  0.33731452  0.42503797  0.16867547  1
  Ca2+  Ca25  1  0.33477738  0.42311400  0.49876473  1
  Ca2+  Ca26  1  0.33500250  0.42052765  0.84275337  1
  Ca2+  Ca27  1  0.32248759  0.92213272  0.17301870  1
  Ca2+  Ca28  1  0.33120558  0.92268373  0.50213486  1
  Ca2+  Ca29  1  0.33303728  0.92726693  0.83876405  1
  Ca2+  Ca30  1  0.82893009  0.41925442  0.17416814  1
  Ca2+  Ca31  1  0.83309959  0.42582540  0.50376826  1
  Ca2+  Ca32  1  0.82011767  0.41607941  0.83352724  1
  Ca2+  Ca33  1  0.83839199  0.92625826  0.17319799  1
  Ca2+  Ca34  1  0.83673552  0.92452246  0.50105736  1
  Ca2+  Ca35  1  0.83385149  0.92912152  0.83597013  1
  Ca2+  Ca36  1  0.41817800  0.16581565  0.16153664  1
  Ca2+  Ca37  1  0.42660916  0.15941808  0.49443998  1
  Ca2+  Ca38  1  0.41709413  0.16923173  0.82450646  1
  Ca2+  Ca39  1  0.41702755  0.65998612  0.16346810  1
  Ca2+  Ca40  1  0.42119474  0.67132265  0.49223442  1
  Ca2+  Ca41  1  0.41343352  0.67380151  0.82911140  1
  Ca2+  Ca42  1  0.90911136  0.16878128  0.16549719  1
  Ca2+  Ca43  1  0.91652701  0.16753300  0.49255865  1
  Ca2+  Ca44  1  0.92097649  0.16071196  0.82624903  1
  Ca2+  Ca45  1  0.92629256  0.66946903  0.16521618  1
  Ca2+  Ca46  1  0.91672740  0.66986841  0.48449640  1
  Ca2+  Ca47  1  0.92181789  0.66515249  0.82955627  1
  Al0+  Al48  1  -0.00081680  -0.00053623  0.00661939  1
  Al0+  Al49  1  0.00064173  0.00021147  0.33737634  1
  Al0+  Al50  1  0.00156022  -0.00278119  0.66644857  1
  Al0+  Al51  1  -0.00115426  0.50015824  -0.00836740  1
  Al0+  Al52  1  -0.00048373  0.49870271  0.32852547  1
  Al0+  Al53  1  0.00162710  0.49966374  0.67101621  1
  Al0+  Al54  1  0.50395877  -0.00118122  0.00215147  1
  Al0+  Al55  1  0.50061186  -0.00071196  0.32891770  1
  Al0+  Al56  1  0.49874257  0.00060390  0.66141862  1
  Al0+  Al57  1  0.50061335  0.49722038  0.00219254  1
  Al0+  Al58  1  0.49879451  0.49820160  0.33667233  1
  Al0+  Al59  1  0.49958276  0.50099057  0.66944049  1
  Al0+  Al60  1  0.24938801  0.25186735  0.00001075  1
  Al0+  Al61  1  0.25047755  0.25124817  0.33684852  1
  Al0+  Al62  1  0.24966242  0.25071002  0.66393030  1
  Al0+  Al63  1  0.25029342  0.74966280  0.00162748  1
  Al0+  Al64  1  0.25025755  0.75053277  0.33961784  1
  Al0+  Al65  1  0.24945735  0.75097596  0.66110071  1
  Al0+  Al66  1  0.74883309  0.25160424  0.00653065  1
  Al0+  Al67  1  0.74876451  0.24922053  0.32820711  1
  Al0+  Al68  1  0.74969566  0.25241783  0.67146389  1
  Al0+  Al69  1  0.75208609  0.75003152  -0.00468305  1
  Al0+  Al70  1  0.74914502  0.75028098  0.32686823  1
  Al0+  Al71  1  0.75124850  0.75049595  0.67293357  1
  Al0+  Al72  1  0.57073592  0.18197372  0.65410546  1
  Al0+  Al73  1  0.32122064  0.57016670  0.34854665  1
  Al0+  Al74  1  0.32145859  0.07104337  0.68011417  1
  Al0+  Al75  1  0.42869130  0.82119904  0.65214182  1
  Al0+  Al76  1  0.18042300  0.92912473  0.01518892  1
  Al0+  Al77  1  0.67838205  0.42979611  0.68160558  1
  Al0+  Al78  1  0.82147316  0.07009714  0.67881800  1
  Al0+  Al79  1  0.92786742  0.82372765  0.31737847  1
  Al0+  Al80  1  0.57029166  0.67737874  0.32094113  1
  Al0+  Al81  1  0.81848136  0.07116298  0.34771483  1
  Al0+  Al82  1  0.42898657  0.31936022  0.98660375  1
  Al0+  Al83  1  0.32402723  0.07444897  0.01414714  1
  Al0+  Al84  1  0.67986458  0.43138757  0.01678710  1
  Al0+  Al85  1  0.92905968  0.31938574  0.32009696  1
  Al0+  Al86  1  0.32317944  0.07283883  0.34978174  1
  Al0+  Al87  1  0.82036056  0.57086417  0.34271465  1
  Al0+  Al88  1  0.07147802  0.68057522  0.98441755  1
  Al0+  Al89  1  0.31908400  0.56906252  0.01190252  1
  Al0+  Al90  1  0.82403894  0.57391629  0.68292162  1
  Al0+  Al91  1  0.81892062  0.06983550  0.01440451  1
  Al0+  Al92  1  0.07144841  0.17680924  0.65341504  1
  Al0+  Al93  1  0.17903856  0.92932989  0.35200563  1
  Al0+  Al94  1  0.56977771  0.17858259  0.31790560  1
  Al0+  Al95  1  0.07179907  0.67894882  0.31832136  1
  Si0+  Si96  1  0.92659142  0.32051785  0.98258294  1
  Si0+  Si97  1  0.17951134  0.42863814  0.68197927  1
  Si0+  Si98  1  0.92792427  0.82416328  0.98016783  1
  Si0+  Si99  1  0.67763227  0.92370387  0.01676011  1
  Si0+  Si100  1  0.43046036  0.82014306  0.98637019  1
  Si0+  Si101  1  0.07367701  0.17808983  0.31645771  1
  Si0+  Si102  1  0.92902490  0.32143811  0.65152063  1
  Si0+  Si103  1  0.17891847  0.92697603  0.68438532  1
  Si0+  Si104  1  0.67666980  0.92784502  0.68179260  1
  Si0+  Si105  1  0.82356978  0.57288962  0.01689999  1
  Si0+  Si106  1  0.31908440  0.57208207  0.68125384  1
  Si0+  Si107  1  0.42623003  0.32217758  0.31708827  1
  Si0+  Si108  1  0.17572594  0.42772330  0.35050526  1
  Si0+  Si109  1  0.67785962  0.42763733  0.35033410  1
  Si0+  Si110  1  0.42627786  0.32520922  0.64874164  1
  Si0+  Si111  1  0.07030543  0.67773787  0.65116791  1
  Si0+  Si112  1  0.57267832  0.17741846  0.98295368  1
  Si0+  Si113  1  0.57238845  0.67766314  0.65204824  1
  Si0+  Si114  1  0.06921137  0.17861131  0.98718439  1
  Si0+  Si115  1  0.17426187  0.42737902  0.01527781  1
  Si0+  Si116  1  0.67748397  0.92635394  0.34901271  1
  Si0+  Si117  1  0.92820692  0.81995604  0.65274303  1
  Si0+  Si118  1  0.42811514  0.82055715  0.31450534  1
  Si0+  Si119  1  0.57202819  0.67680427  0.98415415  1
  O2-  O120  1  0.25213286  0.00235796  0.06331319  1
  O2-  O121  1  0.25013410  0.00277911  0.40106940  1
  O2-  O122  1  0.24565036  -0.00213821  0.72791106  1
  O2-  O123  1  0.24245252  0.49642907  0.05888480  1
  O2-  O124  1  0.24444001  0.49695991  0.39478231  1
  O2-  O125  1  0.25098841  0.49912687  0.72455190  1
  O2-  O126  1  0.74529978  -0.00647782  0.05959367  1
  O2-  O127  1  0.74520501  -0.00483072  0.39460077  1
  O2-  O128  1  0.74466849  -0.00254568  0.72622666  1
  O2-  O129  1  0.75350646  0.50723416  0.06242014  1
  O2-  O130  1  0.74474533  0.49887327  0.39262454  1
  O2-  O131  1  0.74959431  0.50344081  0.73127115  1
  O2-  O132  1  0.00316837  0.24455821  0.27130624  1
  O2-  O133  1  -0.00585326  0.24952525  0.60728087  1
  O2-  O134  1  -0.00171815  0.24916917  0.94204315  1
  O2-  O135  1  0.00067498  0.75176653  0.26827951  1
  O2-  O136  1  -0.00580900  0.74378799  0.61127893  1
  O2-  O137  1  -0.00380354  0.75442934  0.93608645  1
  O2-  O138  1  0.49091609  0.24985765  0.27317620  1
  O2-  O139  1  0.49539803  0.25628243  0.60636553  1
  O2-  O140  1  0.49820027  0.23987016  0.93879353  1
  O2-  O141  1  0.49459204  0.74937895  0.27041134  1
  O2-  O142  1  0.50544173  0.74731739  0.60732857  1
  O2-  O143  1  0.50322329  0.75057061  0.94248328  1
  O2-  O144  1  0.06794152  0.18134978  0.09191901  1
  O2-  O145  1  0.07305650  0.18128673  0.42236158  1
  O2-  O146  1  0.07112609  0.17911901  0.76735271  1
  O2-  O147  1  0.07115249  0.67987709  0.09652762  1
  O2-  O148  1  0.06818802  0.67828780  0.43268031  1
  O2-  O149  1  0.07374724  0.67959228  0.75646599  1
  O2-  O150  1  0.57397142  0.18003653  0.08833256  1
  O2-  O151  1  0.57275762  0.18210627  0.43122494  1
  O2-  O152  1  0.57031405  0.18313937  0.76736084  1
  O2-  O153  1  0.57160844  0.67699449  0.08909195  1
  O2-  O154  1  0.56963007  0.67985315  0.43429556  1
  O2-  O155  1  0.56889435  0.67792728  0.75818402  1
  O2-  O156  1  0.17613131  0.42574646  0.24500912  1
  O2-  O157  1  0.17736624  0.43038075  0.57720482  1
  O2-  O158  1  0.17538291  0.42746489  0.90907842  1
  O2-  O159  1  0.18206402  0.92973215  0.23835416  1
  O2-  O160  1  0.17916573  0.92555005  0.57947117  1
  O2-  O161  1  0.18250731  0.93038417  0.90083784  1
  O2-  O162  1  0.67785545  0.42892236  0.24452475  1
  O2-  O163  1  0.68078500  0.43051466  0.56816042  1
  O2-  O164  1  0.68042140  0.43142693  0.90370573  1
  O2-  O165  1  0.67785747  0.92703172  0.24319408  1
  O2-  O166  1  0.67897352  0.92403043  0.57666209  1
  O2-  O167  1  0.67610033  0.92203691  0.91095312  1
  O2-  O168  1  0.43224462  0.32217239  0.09930963  1
  O2-  O169  1  0.42788597  0.32497678  0.42275234  1
  O2-  O170  1  0.42484707  0.32616481  0.75450181  1
  O2-  O171  1  0.43143923  0.81816850  0.09098526  1
  O2-  O172  1  0.43103215  0.82009249  0.42042297  1
  O2-  O173  1  0.42816852  0.81857665  0.76615572  1
  O2-  O174  1  0.92734611  0.32206920  0.08753531  1
  O2-  O175  1  0.93029981  0.31937496  0.43349426  1
  O2-  O176  1  0.93209081  0.32112852  0.75763539  1
  O2-  O177  1  0.92505783  0.82384843  0.08489778  1
  O2-  O178  1  0.92691827  0.82116944  0.43181547  1
  O2-  O179  1  0.93074258  0.82210302  0.75797011  1
  O2-  O180  1  0.32172673  0.07177456  0.23605262  1
  O2-  O181  1  0.32120042  0.06889435  0.56771649  1
  O2-  O182  1  0.32263082  0.07328913  0.89998277  1
  O2-  O183  1  0.32237817  0.56740604  0.23547100  1
  O2-  O184  1  0.31799985  0.57152084  0.57643895  1
  O2-  O185  1  0.31818904  0.56933314  0.89799353  1
  O2-  O186  1  0.81566779  0.07176652  0.23458463  1
  O2-  O187  1  0.82117059  0.06952330  0.56622253  1
  O2-  O188  1  0.81943198  0.07007638  0.90067281  1
  O2-  O189  1  0.81949920  0.56763726  0.22973553  1
  O2-  O190  1  0.82502320  0.57426731  0.56923321  1
  O2-  O191  1  0.82216648  0.57089936  0.91105903  1
  O2-  O192  1  0.04998988  0.08371666  0.27315125  1
  O2-  O193  1  0.04369354  0.07925667  0.60060831  1
  O2-  O194  1  0.04085669  0.08645464  0.94054794  1
  O2-  O195  1  0.04579312  0.58042196  0.26495860  1
  O2-  O196  1  0.04865709  0.58308509  0.60677508  1
  O2-  O197  1  0.04201611  0.58360296  0.92766700  1
  O2-  O198  1  0.54479750  0.08074143  0.26300138  1
  O2-  O199  1  0.54323301  0.08505473  0.59948189  1
  O2-  O200  1  0.55754721  0.08015553  0.93975149  1
  O2-  O201  1  0.53954482  0.57972946  0.26852881  1
  O2-  O202  1  0.54532277  0.58482634  0.60569358  1
  O2-  O203  1  0.54047301  0.58648523  0.93664528  1
  O2-  O204  1  0.16682116  0.20677870  0.27086403  1
  O2-  O205  1  0.16572161  0.21230544  0.59780705  1
  O2-  O206  1  0.16080014  0.20687474  0.93865580  1
  O2-  O207  1  0.17202121  0.70755902  0.26923419  1
  O2-  O208  1  0.16015883  0.70871115  0.60199578  1
  O2-  O209  1  0.16843733  0.71218313  0.92946546  1
  O2-  O210  1  0.66348295  0.21364237  0.26131464  1
  O2-  O211  1  0.66804896  0.21461033  0.60111393  1
  O2-  O212  1  0.66458955  0.21177191  0.93766032  1
  O2-  O213  1  0.66407258  0.70866455  0.26186723  1
  O2-  O214  1  0.66816108  0.70171102  0.61002298  1
  O2-  O215  1  0.66496068  0.70164377  0.93639165  1
  O2-  O216  1  0.07934938  0.45251639  0.05833731  1
  O2-  O217  1  0.08276839  0.45378504  0.39739745  1
  O2-  O218  1  0.08895703  0.45566818  0.73272622  1
  O2-  O219  1  0.08176304  0.95449328  0.06758555  1
  O2-  O220  1  0.08032009  0.95584968  0.40488150  1
  O2-  O221  1  0.08472290  0.94923332  0.73057506  1
  O2-  O222  1  0.58413205  0.46221795  0.07120721  1
  O2-  O223  1  0.58385517  0.44906215  0.39650211  1
  O2-  O224  1  0.57930196  0.45759992  0.73574185  1
  O2-  O225  1  0.58450793  0.94631957  0.06481660  1
  O2-  O226  1  0.58313861  0.95061103  0.39351144  1
  O2-  O227  1  0.58276748  0.95332061  0.72691293  1
  O2-  O228  1  0.19826925  0.33448663  0.06239997  1
  O2-  O229  1  0.20219704  0.33545826  0.39943952  1
  O2-  O230  1  0.20678240  0.33700303  0.73001841  1
  O2-  O231  1  0.21113190  0.83192017  0.06792776  1
  O2-  O232  1  0.20770902  0.83166464  0.40622318  1
  O2-  O233  1  0.20811634  0.83335672  0.72974536  1
  O2-  O234  1  0.71141373  0.33613278  0.07175028  1
  O2-  O235  1  0.70858358  0.33530380  0.39470881  1
  O2-  O236  1  0.70922062  0.33413538  0.73931315  1
  O2-  O237  1  0.70420733  0.82959241  0.06184233  1
  O2-  O238  1  0.70179227  0.83243617  0.39468799  1
  O2-  O239  1  0.70136081  0.83547246  0.73204630  1
  O2-  O240  1  0.45597698  0.41431415  0.27011341  1
  O2-  O241  1  0.45163921  0.41986804  0.60379337  1
  O2-  O242  1  0.46428670  0.41492756  0.93120466  1
  O2-  O243  1  0.45550317  0.91258062  0.26670521  1
  O2-  O244  1  0.45926117  0.91593894  0.59569070  1
  O2-  O245  1  0.45863705  0.91233721  0.93821456  1
  O2-  O246  1  0.96108914  0.41367504  0.26201810  1
  O2-  O247  1  0.95978861  0.41444602  0.60641658  1
  O2-  O248  1  0.95313483  0.41142851  0.93242234  1
  O2-  O249  1  0.95725483  0.92281137  0.26617283  1
  O2-  O250  1  0.95982176  0.90939159  0.60333835  1
  O2-  O251  1  0.95579238  0.91802260  0.93475578  1
  O2-  O252  1  0.33046767  0.30303262  0.27244362  1
  O2-  O253  1  0.33264950  0.30180666  0.60222232  1
  O2-  O254  1  0.32931246  0.29730299  0.93241610  1
  O2-  O255  1  0.33380160  0.79480604  0.27188256  1
  O2-  O256  1  0.33399231  0.78754058  0.59622930  1
  O2-  O257  1  0.34005248  0.79024390  0.93756525  1
  O2-  O258  1  0.83398216  0.28865922  0.26329419  1
  O2-  O259  1  0.83408021  0.30050884  0.60811408  1
  O2-  O260  1  0.83464455  0.29031585  0.93703564  1
  O2-  O261  1  0.83005857  0.79714666  0.26266303  1
  O2-  O262  1  0.83367943  0.79818412  0.60800238  1
  O2-  O263  1  0.83427898  0.79937190  0.93153567  1
  O2-  O264  1  0.42408534  0.04727068  0.06370709  1
  O2-  O265  1  0.42252510  0.04137652  0.39915316  1
  O2-  O266  1  0.41819132  0.03891342  0.73327764  1
  O2-  O267  1  0.41480996  0.53678536  0.06569752  1
  O2-  O268  1  0.41599956  0.53638804  0.40560054  1
  O2-  O269  1  0.41196893  0.54865366  0.72857023  1
  O2-  O270  1  0.91487877  0.04128543  0.06957853  1
  O2-  O271  1  0.91644535  0.04495511  0.40049224  1
  O2-  O272  1  0.91724944  0.03557919  0.73351738  1
  O2-  O273  1  0.91750114  0.54413923  0.05944176  1
  O2-  O274  1  0.91665975  0.53849683  0.39649735  1
  O2-  O275  1  0.92182542  0.54323524  0.73703657  1
  O2-  O276  1  0.29509542  0.17303060  0.06597826  1
  O2-  O277  1  0.29848671  0.17289520  0.40153664  1
  O2-  O278  1  0.29210886  0.16982592  0.73117056  1
  O2-  O279  1  0.29109917  0.66531709  0.06623503  1
  O2-  O280  1  0.29323807  0.66613769  0.40428253  1
  O2-  O281  1  0.28758820  0.66344539  0.72771017  1
  O2-  O282  1  0.78758553  0.16558584  0.06873957  1
  O2-  O283  1  0.78502908  0.16793494  0.40011709  1
  O2-  O284  1  0.79335444  0.16695287  0.73382501  1
  O2-  O285  1  0.80203845  0.66913651  0.05815652  1
  O2-  O286  1  0.79017969  0.66832556  0.39531321  1
  O2-  O287  1  0.79809924  0.67203601  0.73884390  1
