# generated using pymatgen
data_Ca2Al2SiO7
_symmetry_space_group_name_H-M   'P 1'
_cell_length_a   15.46076074
_cell_length_b   15.46295699
_cell_length_c   15.28555255
_cell_angle_alpha   89.98873938
_cell_angle_beta   89.99820698
_cell_angle_gamma   89.97736099
_symmetry_Int_Tables_number   1
_chemical_formula_structural   Ca2Al2SiO7
_chemical_formula_sum   'Ca48 Al48 Si24 O168'
_cell_volume   3654.30260211
_cell_formula_units_Z   24
loop_
 _symmetry_equiv_pos_site_id
 _symmetry_equiv_pos_as_xyz
  1  'x, y, z'
loop_
 _atom_type_symbol
 _atom_type_oxidation_number
  Ca2+  2.0
  Al0+  0.0
  Si0+  0.0
  O2-  -2.0
loop_
 _atom_site_type_symbol
 _atom_site_label
 _atom_site_symmetry_multiplicity
 _atom_site_fract_x
 _atom_site_fract_y
 _atom_site_fract_z
 _atom_site_occupancy
  Ca2+  Ca0  1  0.16923922  0.08430786  0.17163135  1
  Ca2+  Ca1  1  0.17548458  0.08493607  0.49969976  1
  Ca2+  Ca2  1  0.16653016  0.08304061  0.84268274  1
  Ca2+  Ca3  1  0.16730390  0.57473029  0.17555427  1
  Ca2+  Ca4  1  0.16487080  0.57451245  0.50121217  1
  Ca2+  Ca5  1  0.16235020  0.57500185  0.83927862  1
  Ca2+  Ca6  1  0.67213704  0.09039544  0.17239356  1
  Ca2+  Ca7  1  0.66767504  0.08396648  0.50159905  1
  Ca2+  Ca8  1  0.66806981  0.07699594  0.84198306  1
  Ca2+  Ca9  1  0.67535860  0.59105237  0.17206807  1
  Ca2+  Ca10  1  0.67319254  0.59113858  0.49841472  1
  Ca2+  Ca11  1  0.67162758  0.58603120  0.84455550  1
  Ca2+  Ca12  1  0.08167277  0.33573547  0.16353659  1
  Ca2+  Ca13  1  0.08046533  0.34050670  0.49388206  1
  Ca2+  Ca14  1  0.08917525  0.33248260  0.83412992  1
  Ca2+  Ca15  1  0.07908526  0.81851677  0.15907032  1
  Ca2+  Ca16  1  0.08559674  0.81767630  0.49417076  1
  Ca2+  Ca17  1  0.07690613  0.82089246  0.83079776  1
  Ca2+  Ca18  1  0.57176326  0.32580110  0.16178023  1
  Ca2+  Ca19  1  0.57047599  0.33033451  0.48805093  1
  Ca2+  Ca20  1  0.57191455  0.33184433  0.83127462  1
  Ca2+  Ca21  1  0.58444419  0.82264428  0.16556794  1
  Ca2+  Ca22  1  0.58209768  0.83269143  0.49834059  1
  Ca2+  Ca23  1  0.58306981  0.83064740  0.83009214  1
  Ca2+  Ca24  1  0.32458124  0.41349586  0.17383948  1
  Ca2+  Ca25  1  0.32635538  0.41445530  0.50258788  1
  Ca2+  Ca26  1  0.32584619  0.40936483  0.83817969  1
  Ca2+  Ca27  1  0.33276470  0.92541642  0.17442715  1
  Ca2+  Ca28  1  0.34216703  0.92336625  0.50273053  1
  Ca2+  Ca29  1  0.33475503  0.91527321  0.83510070  1
  Ca2+  Ca30  1  0.83609226  0.42690350  0.17408509  1
  Ca2+  Ca31  1  0.83588966  0.42021629  0.49660501  1
  Ca2+  Ca32  1  0.82910637  0.42462543  0.84168752  1
  Ca2+  Ca33  1  0.84029310  0.92748161  0.16927518  1
  Ca2+  Ca34  1  0.82604551  0.92337547  0.50305957  1
  Ca2+  Ca35  1  0.82966149  0.91730963  0.84303937  1
  Ca2+  Ca36  1  0.42091975  0.17349391  0.16383964  1
  Ca2+  Ca37  1  0.41893203  0.17622429  0.48950842  1
  Ca2+  Ca38  1  0.41793653  0.17828447  0.83287839  1
  Ca2+  Ca39  1  0.42797307  0.65384296  0.16662294  1
  Ca2+  Ca40  1  0.41813725  0.67151891  0.49040363  1
  Ca2+  Ca41  1  0.42264240  0.67123258  0.82939177  1
  Ca2+  Ca42  1  0.91586764  0.17102834  0.16089405  1
  Ca2+  Ca43  1  0.91605379  0.17473998  0.48866926  1
  Ca2+  Ca44  1  0.92194658  0.16078401  0.83674678  1
  Ca2+  Ca45  1  0.92408471  0.66358693  0.15988556  1
  Ca2+  Ca46  1  0.92796661  0.66049185  0.49216323  1
  Ca2+  Ca47  1  0.92448942  0.66219662  0.83669433  1
  Al0+  Al48  1  -0.00105209  -0.00054786  -0.00313211  1
  Al0+  Al49  1  -0.00113986  -0.00052518  0.34184510  1
  Al0+  Al50  1  0.00224670  -0.00051050  0.66487203  1
  Al0+  Al51  1  -0.00094348  0.49864671  0.00335659  1
  Al0+  Al52  1  -0.00056144  0.49966728  0.33289950  1
  Al0+  Al53  1  0.00130309  0.49847699  0.66842809  1
  Al0+  Al54  1  0.50002139  0.00035928  -0.00123597  1
  Al0+  Al55  1  0.50016328  -0.00052120  0.33405447  1
  Al0+  Al56  1  0.50259238  -0.00020626  0.66966016  1
  Al0+  Al57  1  0.49849117  0.49991929  -0.01017461  1
  Al0+  Al58  1  0.49937306  0.50083365  0.32873151  1
  Al0+  Al59  1  0.50066013  0.50035393  0.66235749  1
  Al0+  Al60  1  0.24810291  0.24930691  -0.00224469  1
  Al0+  Al61  1  0.24818006  0.24780646  0.33949387  1
  Al0+  Al62  1  0.25037171  0.25013519  0.66681021  1
  Al0+  Al63  1  0.24991882  0.74852833  -0.00236296  1
  Al0+  Al64  1  0.24936987  0.74915236  0.33054586  1
  Al0+  Al65  1  0.25152739  0.75054587  0.65862668  1
  Al0+  Al66  1  0.74848084  0.24937046  -0.00146464  1
  Al0+  Al67  1  0.75084639  0.25165643  0.33096905  1
  Al0+  Al68  1  0.75238722  0.25155397  0.66947094  1
  Al0+  Al69  1  0.74880115  0.75102794  -0.00233051  1
  Al0+  Al70  1  0.75026577  0.75213653  0.33612993  1
  Al0+  Al71  1  0.75216560  0.75289195  0.67193780  1
  Al0+  Al72  1  0.81804486  0.57057283  0.01416007  1
  Al0+  Al73  1  0.18077908  0.43040461  0.68333771  1
  Al0+  Al74  1  0.43093243  0.82138237  0.65267877  1
  Al0+  Al75  1  0.32368674  0.57180369  0.34777736  1
  Al0+  Al76  1  0.82073675  0.07036324  0.01399729  1
  Al0+  Al77  1  0.42865474  0.32070350  0.65011517  1
  Al0+  Al78  1  0.57175453  0.67999793  0.32118038  1
  Al0+  Al79  1  0.42513263  0.32129350  0.31790849  1
  Al0+  Al80  1  0.42728485  0.32021104  0.98420196  1
  Al0+  Al81  1  0.82091808  0.07369828  0.34750275  1
  Al0+  Al82  1  0.93014018  0.32088938  0.31962101  1
  Al0+  Al83  1  0.06902867  0.67802339  0.65151989  1
  Al0+  Al84  1  0.92940577  0.82121488  0.98612788  1
  Al0+  Al85  1  0.07080460  0.67876154  0.31850669  1
  Al0+  Al86  1  0.57124277  0.17758253  0.31941022  1
  Al0+  Al87  1  0.07187505  0.67540960  0.98470413  1
  Al0+  Al88  1  0.68057937  0.93102326  0.68240969  1
  Al0+  Al89  1  0.32105117  0.06911599  0.34684645  1
  Al0+  Al90  1  0.57287349  0.17766984  0.98335968  1
  Al0+  Al91  1  0.82004484  0.57218415  0.34726702  1
  Al0+  Al92  1  0.06909598  0.17972695  0.98849726  1
  Al0+  Al93  1  0.17932848  0.42922510  0.34902724  1
  Al0+  Al94  1  0.57018537  0.68011893  0.98648343  1
  Al0+  Al95  1  0.18060766  0.42882360  0.01411657  1
  Si0+  Si96  1  0.07157581  0.17719229  0.65099518  1
  Si0+  Si97  1  0.17720079  0.92660896  0.35078533  1
  Si0+  Si98  1  0.31989786  0.06952269  0.01371201  1
  Si0+  Si99  1  0.67788432  0.42867739  0.34837700  1
  Si0+  Si100  1  0.32321745  0.57396937  0.01448423  1
  Si0+  Si101  1  0.82452331  0.07387281  0.68444997  1
  Si0+  Si102  1  0.92941719  0.31995757  0.65281051  1
  Si0+  Si103  1  0.57508434  0.67869523  0.65007408  1
  Si0+  Si104  1  0.67837112  0.92868405  0.35029100  1
  Si0+  Si105  1  0.67458339  0.42772680  0.01573341  1
  Si0+  Si106  1  0.92772511  0.82356475  0.64802581  1
  Si0+  Si107  1  0.17935015  0.92739740  0.68201450  1
  Si0+  Si108  1  0.42741193  0.82247938  0.31607528  1
  Si0+  Si109  1  0.67600957  0.92832158  0.01944293  1
  Si0+  Si110  1  0.42687737  0.82384912  0.98472711  1
  Si0+  Si111  1  0.32025586  0.07000453  0.68336424  1
  Si0+  Si112  1  0.57353365  0.17961412  0.65101007  1
  Si0+  Si113  1  0.17843906  0.92709755  0.01312977  1
  Si0+  Si114  1  0.92678306  0.32263992  0.98292676  1
  Si0+  Si115  1  0.32405631  0.57438908  0.68289434  1
  Si0+  Si116  1  0.07064534  0.17510542  0.31948909  1
  Si0+  Si117  1  0.82068850  0.56977774  0.68165781  1
  Si0+  Si118  1  0.67752355  0.42862811  0.68083093  1
  Si0+  Si119  1  0.92804294  0.82318465  0.31905950  1
  O2-  O120  1  0.25155868  -0.00426652  0.05564147  1
  O2-  O121  1  0.24780595  -0.00654031  0.39558297  1
  O2-  O122  1  0.24906201  -0.00100563  0.72627202  1
  O2-  O123  1  0.25366660  0.50603787  0.05781731  1
  O2-  O124  1  0.25341022  0.49916937  0.39966567  1
  O2-  O125  1  0.25691569  0.50476231  0.72854298  1
  O2-  O126  1  0.74394251  -0.00169331  0.06223152  1
  O2-  O127  1  0.74415918  0.00108166  0.39364137  1
  O2-  O128  1  0.75627378  0.00514792  0.72836737  1
  O2-  O129  1  0.74272111  0.49636830  0.06072693  1
  O2-  O130  1  0.74370444  0.49956382  0.39518944  1
  O2-  O131  1  0.74495238  0.50334577  0.72309279  1
  O2-  O132  1  0.00283391  0.24362985  0.27485768  1
  O2-  O133  1  -0.00226982  0.24595193  0.61110842  1
  O2-  O134  1  -0.00537840  0.25299270  0.93847464  1
  O2-  O135  1  -0.00401546  0.75458831  0.27451953  1
  O2-  O136  1  -0.00539754  0.75331973  0.60410055  1
  O2-  O137  1  -0.00062453  0.74752893  0.93525719  1
  O2-  O138  1  0.49779789  0.24844645  0.27047272  1
  O2-  O139  1  0.50675846  0.24875689  0.60535692  1
  O2-  O140  1  0.50196228  0.25058295  0.93386002  1
  O2-  O141  1  0.49271653  0.75017389  0.27340960  1
  O2-  O142  1  0.50409262  0.74504687  0.60647541  1
  O2-  O143  1  0.49470500  0.75429899  0.94079985  1
  O2-  O144  1  0.07017547  0.17898604  0.10116373  1
  O2-  O145  1  0.06859576  0.17413873  0.42563865  1
  O2-  O146  1  0.07166744  0.17514931  0.75611641  1
  O2-  O147  1  0.07222337  0.67769539  0.09791606  1
  O2-  O148  1  0.06878442  0.67947591  0.43215703  1
  O2-  O149  1  0.06646836  0.67808531  0.76439397  1
  O2-  O150  1  0.57049462  0.17716045  0.09649808  1
  O2-  O151  1  0.57017867  0.17894327  0.43378132  1
  O2-  O152  1  0.57263752  0.18099673  0.75646807  1
  O2-  O153  1  0.57032723  0.68136096  0.09934724  1
  O2-  O154  1  0.57436908  0.68569259  0.43443485  1
  O2-  O155  1  0.57514003  0.67963349  0.75574338  1
  O2-  O156  1  0.17827698  0.42944400  0.23560329  1
  O2-  O157  1  0.17787640  0.43016010  0.57090972  1
  O2-  O158  1  0.18207400  0.42852558  0.90041221  1
  O2-  O159  1  0.17654725  0.92893338  0.24493458  1
  O2-  O160  1  0.17874716  0.93005136  0.57725468  1
  O2-  O161  1  0.18048499  0.92830986  0.90754136  1
  O2-  O162  1  0.68069922  0.42875710  0.24307667  1
  O2-  O163  1  0.67960094  0.42585416  0.57615817  1
  O2-  O164  1  0.67729849  0.43021015  0.90912850  1
  O2-  O165  1  0.67919394  0.92562163  0.24517066  1
  O2-  O166  1  0.68162735  0.93181986  0.56926366  1
  O2-  O167  1  0.67594998  0.92915458  0.91341803  1
  O2-  O168  1  0.42600663  0.31733054  0.09719246  1
  O2-  O169  1  0.42708377  0.31884619  0.43207112  1
  O2-  O170  1  0.42822495  0.31736393  0.76298854  1
  O2-  O171  1  0.42647835  0.82764427  0.08986999  1
  O2-  O172  1  0.43040586  0.82484547  0.42183878  1
  O2-  O173  1  0.43109239  0.82037185  0.76595784  1
  O2-  O174  1  0.92758145  0.32271712  0.08817197  1
  O2-  O175  1  0.93088241  0.32019874  0.43374451  1
  O2-  O176  1  0.92804236  0.32077154  0.75774492  1
  O2-  O177  1  0.93370069  0.82325716  0.09963332  1
  O2-  O178  1  0.92932558  0.82272187  0.42507716  1
  O2-  O179  1  0.92914763  0.82532592  0.75332876  1
  O2-  O180  1  0.31927628  0.06737615  0.23341102  1
  O2-  O181  1  0.31906080  0.06917923  0.57838423  1
  O2-  O182  1  0.31823745  0.06820082  0.90805727  1
  O2-  O183  1  0.32167600  0.57110150  0.23412735  1
  O2-  O184  1  0.32357520  0.57420206  0.57769550  1
  O2-  O185  1  0.32296611  0.57646221  0.90854415  1
  O2-  O186  1  0.82381969  0.07073834  0.23481623  1
  O2-  O187  1  0.82357006  0.07525967  0.57886675  1
  O2-  O188  1  0.82126543  0.06664491  0.90047875  1
  O2-  O189  1  0.81935121  0.57242728  0.23461034  1
  O2-  O190  1  0.82125150  0.56841335  0.57654381  1
  O2-  O191  1  0.81734791  0.56759132  0.90000160  1
  O2-  O192  1  0.04606938  0.08038588  0.27543859  1
  O2-  O193  1  0.04842109  0.08444872  0.60266448  1
  O2-  O194  1  0.03931119  0.08417711  0.93090461  1
  O2-  O195  1  0.03704398  0.58375086  0.26580872  1
  O2-  O196  1  0.03507976  0.58160066  0.59894184  1
  O2-  O197  1  0.03912410  0.57803131  0.93204970  1
  O2-  O198  1  0.54516879  0.07825035  0.26766254  1
  O2-  O199  1  0.54720367  0.08567869  0.60727556  1
  O2-  O200  1  0.54225934  0.07934816  0.93063335  1
  O2-  O201  1  0.54693873  0.58326252  0.26510108  1
  O2-  O202  1  0.55482894  0.58390194  0.60478487  1
  O2-  O203  1  0.54245042  0.58492139  0.92797697  1
  O2-  O204  1  0.16507995  0.19829193  0.27563555  1
  O2-  O205  1  0.16261652  0.20715969  0.60406683  1
  O2-  O206  1  0.16417803  0.20940126  0.93061905  1
  O2-  O207  1  0.16692173  0.70931106  0.26373049  1
  O2-  O208  1  0.16515170  0.70959078  0.59768361  1
  O2-  O209  1  0.17005103  0.70473559  0.93114733  1
  O2-  O210  1  0.66896478  0.20714357  0.26725763  1
  O2-  O211  1  0.66923656  0.20352725  0.60786291  1
  O2-  O212  1  0.67148518  0.20365887  0.92916808  1
  O2-  O213  1  0.66719361  0.71599625  0.26735236  1
  O2-  O214  1  0.66891821  0.70803760  0.60616578  1
  O2-  O215  1  0.66498244  0.71221370  0.93000812  1
  O2-  O216  1  0.08266292  0.45554887  0.06650087  1
  O2-  O217  1  0.08174801  0.46164979  0.40221925  1
  O2-  O218  1  0.08334577  0.46056591  0.73717250  1
  O2-  O219  1  0.08837778  0.95823324  0.06028181  1
  O2-  O220  1  0.08564081  0.95278893  0.40108400  1
  O2-  O221  1  0.08687101  0.95480388  0.72928762  1
  O2-  O222  1  0.57953245  0.45295143  0.05756073  1
  O2-  O223  1  0.58341097  0.45218072  0.39306917  1
  O2-  O224  1  0.58454056  0.45337923  0.72784841  1
  O2-  O225  1  0.58126645  0.95178350  0.06425937  1
  O2-  O226  1  0.58422269  0.95140462  0.39681900  1
  O2-  O227  1  0.58440660  0.96096514  0.73855016  1
  O2-  O228  1  0.21102164  0.33146497  0.06686825  1
  O2-  O229  1  0.20149715  0.32939316  0.40283391  1
  O2-  O230  1  0.21059585  0.33170158  0.73512358  1
  O2-  O231  1  0.20432785  0.83477128  0.06069906  1
  O2-  O232  1  0.20209464  0.83263252  0.39553668  1
  O2-  O233  1  0.20915731  0.83559639  0.72817659  1
  O2-  O234  1  0.69890476  0.33352454  0.05974169  1
  O2-  O235  1  0.70702681  0.33710594  0.39697878  1
  O2-  O236  1  0.70931741  0.33892896  0.73110742  1
  O2-  O237  1  0.70256530  0.83475168  0.06388855  1
  O2-  O238  1  0.70860279  0.83842301  0.40112221  1
  O2-  O239  1  0.71023721  0.83430850  0.73836610  1
  O2-  O240  1  0.45239050  0.41940866  0.26541141  1
  O2-  O241  1  0.45647923  0.41892843  0.59812230  1
  O2-  O242  1  0.45253582  0.41779563  0.92744652  1
  O2-  O243  1  0.45690658  0.91421081  0.26861048  1
  O2-  O244  1  0.46440391  0.91824516  0.59979490  1
  O2-  O245  1  0.45297832  0.91617154  0.93604864  1
  O2-  O246  1  0.96178857  0.41591906  0.26467143  1
  O2-  O247  1  0.96023402  0.41044591  0.60490700  1
  O2-  O248  1  0.95431225  0.41492185  0.93549070  1
  O2-  O249  1  0.95489109  0.91747087  0.27513488  1
  O2-  O250  1  0.95432689  0.91721561  0.60168222  1
  O2-  O251  1  0.96004875  0.91711440  0.92920646  1
  O2-  O252  1  0.32638774  0.28905909  0.26872725  1
  O2-  O253  1  0.33267494  0.28554613  0.59790552  1
  O2-  O254  1  0.33172246  0.28458885  0.92956142  1
  O2-  O255  1  0.33229718  0.80348846  0.27124759  1
  O2-  O256  1  0.33448812  0.79639246  0.59580046  1
  O2-  O257  1  0.33356813  0.79921950  0.93701228  1
  O2-  O258  1  0.83378778  0.29338758  0.26504137  1
  O2-  O259  1  0.83678513  0.29539064  0.60450062  1
  O2-  O260  1  0.83291322  0.29905674  0.93636051  1
  O2-  O261  1  0.83413712  0.80018615  0.27420298  1
  O2-  O262  1  0.83296022  0.79909637  0.60426723  1
  O2-  O263  1  0.83071671  0.79514905  0.93301594  1
  O2-  O264  1  0.41219052  0.04335443  0.06066529  1
  O2-  O265  1  0.41713413  0.03784591  0.40268245  1
  O2-  O266  1  0.41200092  0.04198920  0.73030722  1
  O2-  O267  1  0.41772875  0.54643338  0.05748955  1
  O2-  O268  1  0.42455768  0.54974147  0.39939000  1
  O2-  O269  1  0.41987044  0.55123661  0.72686551  1
  O2-  O270  1  0.91764959  0.03801099  0.06720533  1
  O2-  O271  1  0.91559162  0.04177872  0.40627959  1
  O2-  O272  1  0.91975938  0.04780290  0.72758555  1
  O2-  O273  1  0.91418829  0.53894011  0.06761575  1
  O2-  O274  1  0.91426678  0.53628794  0.40236595  1
  O2-  O275  1  0.90976792  0.53539137  0.73005893  1
  O2-  O276  1  0.28749947  0.15920990  0.06082931  1
  O2-  O277  1  0.28818500  0.16258674  0.40554066  1
  O2-  O278  1  0.28958236  0.16077693  0.73083352  1
  O2-  O279  1  0.30171660  0.66848406  0.06094100  1
  O2-  O280  1  0.29613844  0.67217212  0.39850188  1
  O2-  O281  1  0.29781099  0.66903299  0.72693006  1
  O2-  O282  1  0.79398165  0.16941631  0.06518733  1
  O2-  O283  1  0.79167972  0.17070409  0.40197639  1
  O2-  O284  1  0.80152075  0.16812562  0.73085830  1
  O2-  O285  1  0.78821342  0.66830822  0.06559546  1
  O2-  O286  1  0.79066052  0.66873763  0.40337476  1
  O2-  O287  1  0.79848234  0.66329006  0.72811962  1
