# generated using pymatgen
data_Ca2Al2SiO7
_symmetry_space_group_name_H-M   'P 1'
_cell_length_a   15.46111106
_cell_length_b   15.46114970
_cell_length_c   15.28589833
_cell_angle_alpha   89.99460720
_cell_angle_beta   90.00043521
_cell_angle_gamma   90.03667364
_symmetry_Int_Tables_number   1
_chemical_formula_structural   Ca2Al2SiO7
_chemical_formula_sum   'Ca48 Al48 Si24 O168'
_cell_volume   3654.04053421
_cell_formula_units_Z   24
loop_
 _symmetry_equiv_pos_site_id
 _symmetry_equiv_pos_as_xyz
  1  'x, y, z'
loop_
 _atom_type_symbol
 _atom_type_oxidation_number
  Ca2+  2.0
  Al0+  0.0
  Si0+  0.0
  O2-  -2.0
loop_
 _atom_site_type_symbol
 _atom_site_label
 _atom_site_symmetry_multiplicity
 _atom_site_fract_x
 _atom_site_fract_y
 _atom_site_fract_z
 _atom_site_occupancy
  Ca2+  Ca0  1  0.17195141  0.08335328  0.17332193  1
  Ca2+  Ca1  1  0.16752628  0.07034599  0.50367977  1
  Ca2+  Ca2  1  0.16939358  0.08260645  0.83932630  1
  Ca2+  Ca3  1  0.17268013  0.58175604  0.17662994  1
  Ca2+  Ca4  1  0.16750019  0.57783493  0.50743520  1
  Ca2+  Ca5  1  0.17364963  0.58335533  0.83086316  1
  Ca2+  Ca6  1  0.67450169  0.07680212  0.16985668  1
  Ca2+  Ca7  1  0.66943425  0.08229094  0.50549112  1
  Ca2+  Ca8  1  0.65838433  0.07399285  0.83490930  1
  Ca2+  Ca9  1  0.68060762  0.57844064  0.16583272  1
  Ca2+  Ca10  1  0.68058400  0.58195771  0.50820734  1
  Ca2+  Ca11  1  0.67486891  0.57254065  0.83890648  1
  Ca2+  Ca12  1  0.08014669  0.32941071  0.15930866  1
  Ca2+  Ca13  1  0.08745565  0.33866630  0.49624289  1
  Ca2+  Ca14  1  0.08282225  0.33291567  0.83196162  1
  Ca2+  Ca15  1  0.07948069  0.83007790  0.16347540  1
  Ca2+  Ca16  1  0.09307167  0.82216425  0.49595362  1
  Ca2+  Ca17  1  0.07709904  0.82802925  0.82573735  1
  Ca2+  Ca18  1  0.58299457  0.33329939  0.15974101  1
  Ca2+  Ca19  1  0.57877540  0.33798836  0.50273549  1
  Ca2+  Ca20  1  0.58068052  0.33427233  0.82090545  1
  Ca2+  Ca21  1  0.58304906  0.83179103  0.15975306  1
  Ca2+  Ca22  1  0.58233003  0.83487103  0.49865681  1
  Ca2+  Ca23  1  0.58377801  0.83545945  0.82715059  1
  Ca2+  Ca24  1  0.32538045  0.42597041  0.17244270  1
  Ca2+  Ca25  1  0.32371811  0.42471343  0.50641564  1
  Ca2+  Ca26  1  0.33375551  0.42245532  0.83423526  1
  Ca2+  Ca27  1  0.32601202  0.92977396  0.17261009  1
  Ca2+  Ca28  1  0.32206116  0.91703625  0.50028345  1
  Ca2+  Ca29  1  0.32454005  0.92185561  0.83693905  1
  Ca2+  Ca30  1  0.83842860  0.42261699  0.16748289  1
  Ca2+  Ca31  1  0.83221118  0.42947113  0.50812700  1
  Ca2+  Ca32  1  0.82801567  0.42317517  0.83885489  1
  Ca2+  Ca33  1  0.83377938  0.91680900  0.16691080  1
  Ca2+  Ca34  1  0.83055929  0.92441318  0.50430970  1
  Ca2+  Ca35  1  0.82231798  0.91079558  0.83931788  1
  Ca2+  Ca36  1  0.41270133  0.16438895  0.16045777  1
  Ca2+  Ca37  1  0.41890769  0.16978279  0.49925020  1
  Ca2+  Ca38  1  0.42126258  0.17347599  0.82254819  1
  Ca2+  Ca39  1  0.41394143  0.66333194  0.16220998  1
  Ca2+  Ca40  1  0.41340516  0.66185564  0.49585181  1
  Ca2+  Ca41  1  0.41480280  0.66232251  0.82696424  1
  Ca2+  Ca42  1  0.92313824  0.17087356  0.15641288  1
  Ca2+  Ca43  1  0.91470595  0.16911195  0.49369229  1
  Ca2+  Ca44  1  0.91973642  0.17364161  0.83363468  1
  Ca2+  Ca45  1  0.92106609  0.66492832  0.16124527  1
  Ca2+  Ca46  1  0.92718277  0.65944521  0.49588038  1
  Ca2+  Ca47  1  0.91441921  0.66711378  0.82857762  1
  Al0+  Al48  1  -0.00118042  -0.00298994  -0.01037354  1
  Al0+  Al49  1  -0.00177808  -0.00048677  0.34026551  1
  Al0+  Al50  1  -0.00075582  0.00033868  0.67022877  1
  Al0+  Al51  1  0.00118193  0.49922951  -0.00260574  1
  Al0+  Al52  1  -0.00087456  0.50055008  0.33381840  1
  Al0+  Al53  1  0.00241242  0.50090894  0.67139236  1
  Al0+  Al54  1  0.49788706  -0.00178372  0.00754835  1
  Al0+  Al55  1  0.49992376  0.00036649  0.33398609  1
  Al0+  Al56  1  0.50054997  0.00072035  0.66348165  1
  Al0+  Al57  1  0.50083345  0.49987203  0.00735232  1
  Al0+  Al58  1  0.49989832  0.49891973  0.33196837  1
  Al0+  Al59  1  0.50096590  0.50127691  0.66501408  1
  Al0+  Al60  1  0.25228705  0.25022899  -0.00121005  1
  Al0+  Al61  1  0.25156277  0.25088760  0.33861407  1
  Al0+  Al62  1  0.24996536  0.25103453  0.66387908  1
  Al0+  Al63  1  0.25086824  0.75159846  0.00285384  1
  Al0+  Al64  1  0.25182131  0.75154666  0.33113013  1
  Al0+  Al65  1  0.24879241  0.75175104  0.67066945  1
  Al0+  Al66  1  0.74915746  0.24720767  -0.00234385  1
  Al0+  Al67  1  0.74832137  0.24830589  0.33443266  1
  Al0+  Al68  1  0.75136334  0.24995960  0.66400112  1
  Al0+  Al69  1  0.74880514  0.74753833  0.00403531  1
  Al0+  Al70  1  0.74884400  0.74903472  0.33563695  1
  Al0+  Al71  1  0.74992927  0.75408857  0.67064477  1
  Al0+  Al72  1  0.67884397  0.93241204  0.67943110  1
  Al0+  Al73  1  0.07109485  0.67929686  0.31921414  1
  Al0+  Al74  1  0.92728787  0.81797625  0.98623302  1
  Al0+  Al75  1  0.17757753  0.43026238  0.34659752  1
  Al0+  Al76  1  0.82023708  0.57086995  0.34738004  1
  Al0+  Al77  1  0.06976549  0.68095391  0.65349435  1
  Al0+  Al78  1  0.32302326  0.07291107  0.35057256  1
  Al0+  Al79  1  0.17891827  0.42650049  0.68447265  1
  Al0+  Al80  1  0.42803573  0.32414173  0.64923876  1
  Al0+  Al81  1  0.82026575  0.07135537  0.34497781  1
  Al0+  Al82  1  0.82318082  0.56956320  0.01572920  1
  Al0+  Al83  1  0.32017346  0.57184016  0.01453069  1
  Al0+  Al84  1  0.07360323  0.17866394  0.98534334  1
  Al0+  Al85  1  0.67904305  0.42513784  0.01515290  1
  Al0+  Al86  1  0.82280683  0.57266143  0.68225537  1
  Al0+  Al87  1  0.32118243  0.57180366  0.68081468  1
  Al0+  Al88  1  0.57199114  0.17840466  0.65007582  1
  Al0+  Al89  1  0.17811007  0.92896320  0.68246667  1
  Al0+  Al90  1  0.67993854  0.42884408  0.67939383  1
  Al0+  Al91  1  0.32238297  0.57201810  0.34778362  1
  Al0+  Al92  1  0.92754938  0.32204019  0.98390176  1
  Al0+  Al93  1  0.67841585  0.92823972  0.01445770  1
  Al0+  Al94  1  0.17762750  0.92944925  0.34692187  1
  Al0+  Al95  1  0.31870311  0.07123129  0.01130874  1
  Si0+  Si96  1  0.17533693  0.92850542  0.01585820  1
  Si0+  Si97  1  0.67789300  0.92771855  0.34956650  1
  Si0+  Si98  1  0.43171254  0.32186606  0.98639853  1
  Si0+  Si99  1  0.57206235  0.67841452  0.31693599  1
  Si0+  Si100  1  0.42935978  0.82168752  0.98498896  1
  Si0+  Si101  1  0.92763282  0.32007817  0.31989876  1
  Si0+  Si102  1  0.57240920  0.68072992  0.65225300  1
  Si0+  Si103  1  0.42872878  0.82125313  0.65184344  1
  Si0+  Si104  1  0.32091355  0.07107822  0.68183240  1
  Si0+  Si105  1  0.07111759  0.17730371  0.64956279  1
  Si0+  Si106  1  0.56883754  0.67874245  0.98547053  1
  Si0+  Si107  1  0.43025667  0.82227011  0.31612776  1
  Si0+  Si108  1  0.82315300  0.07011698  0.01423809  1
  Si0+  Si109  1  0.56949493  0.17565982  0.98706324  1
  Si0+  Si110  1  0.17932566  0.42737834  0.01605400  1
  Si0+  Si111  1  0.92582324  0.82351705  0.64832537  1
  Si0+  Si112  1  0.42931702  0.32036120  0.31556458  1
  Si0+  Si113  1  0.82317862  0.07399359  0.68547652  1
  Si0+  Si114  1  0.67793044  0.42655746  0.34978884  1
  Si0+  Si115  1  0.57102967  0.17787394  0.31490054  1
  Si0+  Si116  1  0.07046969  0.17782440  0.32174448  1
  Si0+  Si117  1  0.07517100  0.67809551  0.98306112  1
  Si0+  Si118  1  0.93081907  0.32073325  0.65061226  1
  Si0+  Si119  1  0.92603951  0.82283451  0.31818925  1
  O2-  O120  1  0.23931093  0.00205028  0.05881958  1
  O2-  O121  1  0.24907634  0.00197927  0.39780535  1
  O2-  O122  1  0.25009025  0.00640980  0.72826743  1
  O2-  O123  1  0.24241078  0.50075698  0.06073281  1
  O2-  O124  1  0.24680129  0.50455063  0.39686059  1
  O2-  O125  1  0.25331871  0.49712266  0.73235003  1
  O2-  O126  1  0.75532505  0.00099429  0.05975153  1
  O2-  O127  1  0.74697764  -0.00410134  0.39246536  1
  O2-  O128  1  0.75260682  0.00653413  0.72806749  1
  O2-  O129  1  0.75581403  0.49214741  0.06503726  1
  O2-  O130  1  0.74577734  0.49568212  0.39322287  1
  O2-  O131  1  0.75087892  0.50016701  0.73067419  1
  O2-  O132  1  0.00015536  0.24944130  0.27889277  1
  O2-  O133  1  0.00156001  0.24960780  0.60691954  1
  O2-  O134  1  0.00185240  0.25108867  0.93488040  1
  O2-  O135  1  -0.00502371  0.75429183  0.27415258  1
  O2-  O136  1  -0.00607710  0.75459005  0.60467453  1
  O2-  O137  1  0.00210469  0.74309767  0.94017230  1
  O2-  O138  1  0.49940903  0.24805625  0.27234811  1
  O2-  O139  1  0.50135625  0.25183627  0.59980669  1
  O2-  O140  1  0.50360806  0.25114688  0.94498136  1
  O2-  O141  1  0.49986411  0.74888641  0.27459334  1
  O2-  O142  1  0.49861934  0.74893791  0.60938084  1
  O2-  O143  1  0.49743272  0.74877321  0.94156225  1
  O2-  O144  1  0.07285318  0.17932398  0.09985898  1
  O2-  O145  1  0.06754444  0.17755213  0.42687641  1
  O2-  O146  1  0.06975393  0.17605103  0.75447841  1
  O2-  O147  1  0.07700813  0.68084991  0.08890686  1
  O2-  O148  1  0.07022575  0.67910194  0.43212302  1
  O2-  O149  1  0.07049861  0.68432021  0.76660767  1
  O2-  O150  1  0.56720323  0.17470336  0.09249434  1
  O2-  O151  1  0.57261860  0.17740214  0.41942971  1
  O2-  O152  1  0.56724096  0.17491244  0.76411794  1
  O2-  O153  1  0.56744607  0.68091035  0.09093307  1
  O2-  O154  1  0.57367218  0.68050079  0.42215755  1
  O2-  O155  1  0.57255859  0.68292927  0.75741728  1
  O2-  O156  1  0.17908475  0.42800942  0.23261638  1
  O2-  O157  1  0.17747157  0.42871169  0.57105358  1
  O2-  O158  1  0.18347114  0.42516864  0.91091707  1
  O2-  O159  1  0.17710283  0.93264839  0.23300756  1
  O2-  O160  1  0.18113252  0.92882317  0.56957636  1
  O2-  O161  1  0.17966990  0.92659845  0.91031434  1
  O2-  O162  1  0.67911659  0.42550050  0.24419541  1
  O2-  O163  1  0.68265000  0.43210578  0.56536474  1
  O2-  O164  1  0.67493780  0.42884014  0.90222335  1
  O2-  O165  1  0.67721965  0.92802118  0.24392823  1
  O2-  O166  1  0.68003743  0.93168021  0.56617016  1
  O2-  O167  1  0.67545005  0.93082279  0.90162649  1
  O2-  O168  1  0.43119268  0.32041316  0.09180594  1
  O2-  O169  1  0.43211660  0.32171439  0.42001826  1
  O2-  O170  1  0.42906052  0.32151507  0.76367463  1
  O2-  O171  1  0.43117843  0.82237899  0.09011781  1
  O2-  O172  1  0.43277463  0.82442213  0.42137817  1
  O2-  O173  1  0.43084043  0.82318985  0.75719430  1
  O2-  O174  1  0.92907700  0.31905905  0.09845972  1
  O2-  O175  1  0.92590066  0.31844831  0.42508015  1
  O2-  O176  1  0.93004680  0.31773529  0.75532778  1
  O2-  O177  1  0.92963843  0.81978605  0.09976264  1
  O2-  O178  1  0.92329018  0.82326697  0.42341594  1
  O2-  O179  1  0.92505747  0.82294000  0.75395426  1
  O2-  O180  1  0.32185526  0.07154561  0.23656096  1
  O2-  O181  1  0.32024343  0.06781221  0.57640879  1
  O2-  O182  1  0.32169387  0.06775996  0.89843539  1
  O2-  O183  1  0.32234480  0.56838879  0.23394445  1
  O2-  O184  1  0.31876496  0.57356288  0.56763113  1
  O2-  O185  1  0.32263706  0.57081663  0.90205025  1
  O2-  O186  1  0.81918335  0.07175258  0.23192336  1
  O2-  O187  1  0.82417377  0.07219609  0.57941289  1
  O2-  O188  1  0.82085494  0.07042882  0.90892562  1
  O2-  O189  1  0.82004975  0.57020451  0.23456768  1
  O2-  O190  1  0.82162143  0.57139412  0.56816776  1
  O2-  O191  1  0.81790755  0.57218877  0.90284447  1
  O2-  O192  1  0.04136844  0.08613582  0.27454369  1
  O2-  O193  1  0.04052992  0.08543544  0.60261849  1
  O2-  O194  1  0.04625962  0.08077491  0.93047675  1
  O2-  O195  1  0.03905076  0.58275008  0.26455142  1
  O2-  O196  1  0.04088772  0.58273843  0.60099500  1
  O2-  O197  1  0.05609502  0.58240756  0.93961604  1
  O2-  O198  1  0.54458073  0.08496914  0.26794184  1
  O2-  O199  1  0.54155826  0.08074265  0.59473185  1
  O2-  O200  1  0.53561008  0.08503049  0.94062238  1
  O2-  O201  1  0.54559828  0.58606922  0.26958890  1
  O2-  O202  1  0.54887381  0.58912250  0.60305555  1
  O2-  O203  1  0.54051077  0.58633357  0.93984147  1
  O2-  O204  1  0.16374933  0.20442105  0.27626899  1
  O2-  O205  1  0.16352456  0.20182222  0.60238324  1
  O2-  O206  1  0.17213367  0.20722178  0.93151016  1
  O2-  O207  1  0.16811862  0.71037934  0.26478888  1
  O2-  O208  1  0.16638955  0.71536919  0.60064138  1
  O2-  O209  1  0.16741470  0.70938106  0.93666233  1
  O2-  O210  1  0.66285666  0.20668481  0.26677621  1
  O2-  O211  1  0.67211599  0.20313836  0.59759623  1
  O2-  O212  1  0.66317654  0.19431879  0.94018767  1
  O2-  O213  1  0.66289344  0.70880552  0.26800494  1
  O2-  O214  1  0.66259925  0.71409541  0.60379933  1
  O2-  O215  1  0.66011534  0.70748142  0.93878891  1
  O2-  O216  1  0.08330397  0.44633455  0.05886216  1
  O2-  O217  1  0.07862935  0.45437794  0.39925800  1
  O2-  O218  1  0.08244194  0.45688199  0.73874699  1
  O2-  O219  1  0.07919671  0.94864740  0.05768919  1
  O2-  O220  1  0.08041693  0.95501707  0.40292501  1
  O2-  O221  1  0.08060301  0.95736186  0.73526706  1
  O2-  O222  1  0.58411304  0.45951704  0.07238370  1
  O2-  O223  1  0.58404225  0.45258874  0.39357999  1
  O2-  O224  1  0.58135630  0.45642168  0.73074336  1
  O2-  O225  1  0.58393311  0.96063130  0.07162026  1
  O2-  O226  1  0.58508843  0.95473834  0.39547532  1
  O2-  O227  1  0.58137095  0.96156842  0.73343509  1
  O2-  O228  1  0.21011340  0.33581471  0.06350135  1
  O2-  O229  1  0.20687157  0.33297447  0.40053922  1
  O2-  O230  1  0.20470033  0.32633875  0.73507942  1
  O2-  O231  1  0.20669254  0.83783253  0.06414417  1
  O2-  O232  1  0.21175167  0.83287643  0.39925276  1
  O2-  O233  1  0.21301930  0.83609472  0.73914483  1
  O2-  O234  1  0.69999185  0.32348232  0.06533613  1
  O2-  O235  1  0.70180820  0.33273663  0.39532368  1
  O2-  O236  1  0.70622353  0.32911796  0.72987642  1
  O2-  O237  1  0.70687211  0.83195759  0.06926536  1
  O2-  O238  1  0.70105156  0.83417094  0.39613811  1
  O2-  O239  1  0.70790964  0.83692004  0.73599028  1
  O2-  O240  1  0.45853628  0.41171536  0.26654068  1
  O2-  O241  1  0.45785299  0.42218922  0.59508297  1
  O2-  O242  1  0.46006642  0.41413161  0.94051149  1
  O2-  O243  1  0.46112360  0.91343881  0.26754574  1
  O2-  O244  1  0.45912362  0.91104406  0.60181731  1
  O2-  O245  1  0.46041707  0.91263180  0.93757512  1
  O2-  O246  1  0.95491215  0.41138722  0.27186979  1
  O2-  O247  1  0.95930093  0.41310602  0.60504857  1
  O2-  O248  1  0.95384867  0.42084224  0.93072402  1
  O2-  O249  1  0.95223981  0.91718943  0.27255069  1
  O2-  O250  1  0.95156988  0.91867024  0.60468988  1
  O2-  O251  1  0.95365731  0.91352664  0.92762233  1
  O2-  O252  1  0.33666882  0.29286565  0.26903727  1
  O2-  O253  1  0.32983890  0.29416548  0.59604492  1
  O2-  O254  1  0.34069423  0.29418118  0.93817836  1
  O2-  O255  1  0.33868485  0.79819906  0.26671224  1
  O2-  O256  1  0.33695679  0.79396625  0.60497803  1
  O2-  O257  1  0.33618416  0.79711553  0.93846067  1
  O2-  O258  1  0.83603919  0.29070721  0.27223058  1
  O2-  O259  1  0.83974317  0.29317299  0.60090995  1
  O2-  O260  1  0.82961526  0.29036590  0.93054052  1
  O2-  O261  1  0.83149324  0.79781571  0.27235128  1
  O2-  O262  1  0.83106974  0.80097349  0.60263815  1
  O2-  O263  1  0.82933508  0.78739080  0.93367940  1
  O2-  O264  1  0.41126989  0.03511263  0.07025277  1
  O2-  O265  1  0.42114100  0.04194388  0.40182809  1
  O2-  O266  1  0.41381207  0.04226309  0.72673070  1
  O2-  O267  1  0.41528860  0.53952071  0.07019433  1
  O2-  O268  1  0.42089830  0.54142079  0.39898578  1
  O2-  O269  1  0.42187609  0.54854691  0.73094723  1
  O2-  O270  1  0.91745109  0.04365979  0.05833188  1
  O2-  O271  1  0.91465229  0.04320540  0.40380787  1
  O2-  O272  1  0.91573692  0.04792831  0.73241035  1
  O2-  O273  1  0.92419446  0.54606830  0.06630793  1
  O2-  O274  1  0.91549548  0.53865674  0.40124774  1
  O2-  O275  1  0.91988322  0.54459554  0.73520830  1
  O2-  O276  1  0.29415916  0.16903883  0.06632094  1
  O2-  O277  1  0.29844795  0.17116997  0.40296106  1
  O2-  O278  1  0.29827853  0.16589014  0.72539512  1
  O2-  O279  1  0.29418689  0.67040821  0.06785152  1
  O2-  O280  1  0.30347827  0.67399718  0.39473459  1
  O2-  O281  1  0.29153239  0.66914652  0.73537784  1
  O2-  O282  1  0.79688692  0.16284979  0.06134246  1
  O2-  O283  1  0.78755617  0.16623366  0.40161194  1
  O2-  O284  1  0.79975750  0.16820990  0.72944536  1
  O2-  O285  1  0.78759077  0.66465269  0.07116953  1
  O2-  O286  1  0.78819339  0.66686855  0.40166431  1
  O2-  O287  1  0.79365942  0.67151283  0.73242632  1
