# generated using pymatgen
data_Ca2Al2SiO7
_symmetry_space_group_name_H-M   'P 1'
_cell_length_a   15.46372862
_cell_length_b   15.46278269
_cell_length_c   15.28715074
_cell_angle_alpha   90.00383804
_cell_angle_beta   90.00231387
_cell_angle_gamma   90.00273347
_symmetry_Int_Tables_number   1
_chemical_formula_structural   Ca2Al2SiO7
_chemical_formula_sum   'Ca48 Al48 Si24 O168'
_cell_volume   3655.34537857
_cell_formula_units_Z   24
loop_
 _symmetry_equiv_pos_site_id
 _symmetry_equiv_pos_as_xyz
  1  'x, y, z'
loop_
 _atom_type_symbol
 _atom_type_oxidation_number
  Ca2+  2.0
  Al0+  0.0
  Si0+  0.0
  O2-  -2.0
loop_
 _atom_site_type_symbol
 _atom_site_label
 _atom_site_symmetry_multiplicity
 _atom_site_fract_x
 _atom_site_fract_y
 _atom_site_fract_z
 _atom_site_occupancy
  Ca2+  Ca0  1  0.16359606  0.07061500  0.17043517  1
  Ca2+  Ca1  1  0.15403451  0.07949406  0.49884780  1
  Ca2+  Ca2  1  0.16912369  0.07896320  0.83991138  1
  Ca2+  Ca3  1  0.16075320  0.57865477  0.17180097  1
  Ca2+  Ca4  1  0.16721176  0.58021292  0.50256077  1
  Ca2+  Ca5  1  0.17338805  0.58193985  0.84596688  1
  Ca2+  Ca6  1  0.67383288  0.07335861  0.16988659  1
  Ca2+  Ca7  1  0.68272481  0.08256516  0.50473322  1
  Ca2+  Ca8  1  0.67668655  0.07703482  0.84114970  1
  Ca2+  Ca9  1  0.67209712  0.58787785  0.16717546  1
  Ca2+  Ca10  1  0.66358654  0.58726957  0.50442867  1
  Ca2+  Ca11  1  0.67308754  0.58166985  0.84112911  1
  Ca2+  Ca12  1  0.09602302  0.32840271  0.16382715  1
  Ca2+  Ca13  1  0.08437907  0.32226039  0.49384422  1
  Ca2+  Ca14  1  0.08071279  0.32954409  0.82825092  1
  Ca2+  Ca15  1  0.07800930  0.83112775  0.15950847  1
  Ca2+  Ca16  1  0.07507022  0.83093243  0.49050469  1
  Ca2+  Ca17  1  0.07677281  0.83262571  0.83502237  1
  Ca2+  Ca18  1  0.57850620  0.33427396  0.16273118  1
  Ca2+  Ca19  1  0.57419850  0.33322909  0.49186627  1
  Ca2+  Ca20  1  0.58496589  0.33659818  0.83233436  1
  Ca2+  Ca21  1  0.57984172  0.83140548  0.15838287  1
  Ca2+  Ca22  1  0.58221904  0.81981220  0.49512384  1
  Ca2+  Ca23  1  0.57851496  0.83193033  0.83300537  1
  Ca2+  Ca24  1  0.32373115  0.42156708  0.16850748  1
  Ca2+  Ca25  1  0.32831425  0.41840404  0.50074667  1
  Ca2+  Ca26  1  0.32694321  0.42937526  0.84100539  1
  Ca2+  Ca27  1  0.32154713  0.91115026  0.16569832  1
  Ca2+  Ca28  1  0.32234970  0.91239225  0.50085419  1
  Ca2+  Ca29  1  0.32710596  0.92127931  0.84837252  1
  Ca2+  Ca30  1  0.83228550  0.42548307  0.16469492  1
  Ca2+  Ca31  1  0.83322604  0.41680151  0.50509691  1
  Ca2+  Ca32  1  0.83089172  0.42164138  0.84447576  1
  Ca2+  Ca33  1  0.83437052  0.91236374  0.17179055  1
  Ca2+  Ca34  1  0.84679446  0.92514010  0.50234720  1
  Ca2+  Ca35  1  0.83365942  0.91464217  0.83691121  1
  Ca2+  Ca36  1  0.40775649  0.17253336  0.16138997  1
  Ca2+  Ca37  1  0.41732812  0.17517124  0.49053540  1
  Ca2+  Ca38  1  0.41678024  0.16458580  0.83282850  1
  Ca2+  Ca39  1  0.42051436  0.66862190  0.15973838  1
  Ca2+  Ca40  1  0.42668950  0.65610977  0.49878218  1
  Ca2+  Ca41  1  0.41578209  0.66671122  0.83146964  1
  Ca2+  Ca42  1  0.92033182  0.16370067  0.16827255  1
  Ca2+  Ca43  1  0.92208308  0.16605205  0.49776307  1
  Ca2+  Ca44  1  0.92238578  0.17272225  0.82143036  1
  Ca2+  Ca45  1  0.92678652  0.67393390  0.15929899  1
  Ca2+  Ca46  1  0.92025660  0.68045940  0.49110868  1
  Ca2+  Ca47  1  0.91753906  0.67375110  0.83482956  1
  Al0+  Al48  1  0.00114497  0.00175783  -0.00249857  1
  Al0+  Al49  1  -0.00029205  0.00232825  0.33319488  1
  Al0+  Al50  1  -0.00020030  0.00083668  0.66670587  1
  Al0+  Al51  1  -0.00060337  0.49862825  0.00355074  1
  Al0+  Al52  1  -0.00194067  0.49912906  0.33849553  1
  Al0+  Al53  1  -0.00134009  0.49974601  0.66455578  1
  Al0+  Al54  1  0.50327189  0.00183748  0.00333755  1
  Al0+  Al55  1  0.50140600  -0.00031561  0.33644945  1
  Al0+  Al56  1  0.49943453  -0.00113045  0.66331613  1
  Al0+  Al57  1  0.49882837  0.49774915  0.00473021  1
  Al0+  Al58  1  0.50017813  0.49858967  0.32383444  1
  Al0+  Al59  1  0.49906749  0.49993011  0.66800258  1
  Al0+  Al60  1  0.25217702  0.25237456  0.00060033  1
  Al0+  Al61  1  0.24965642  0.25164865  0.32925919  1
  Al0+  Al62  1  0.25030242  0.24891997  0.66342982  1
  Al0+  Al63  1  0.25148993  0.75141548  -0.00104366  1
  Al0+  Al64  1  0.25214263  0.74865967  0.33850950  1
  Al0+  Al65  1  0.25001902  0.75051354  0.67150839  1
  Al0+  Al66  1  0.74948739  0.24963387  0.00380223  1
  Al0+  Al67  1  0.74915064  0.24958323  0.33727210  1
  Al0+  Al68  1  0.74957490  0.24894418  0.66722381  1
  Al0+  Al69  1  0.75028253  0.75040655  0.00349143  1
  Al0+  Al70  1  0.74865867  0.74933937  0.32777023  1
  Al0+  Al71  1  0.74815810  0.75001773  0.65892964  1
  Al0+  Al72  1  0.17797957  0.43049310  0.01378978  1
  Al0+  Al73  1  0.07177762  0.67664058  0.98512390  1
  Al0+  Al74  1  0.07279992  0.67668294  0.32080273  1
  Al0+  Al75  1  0.56786794  0.67958885  0.65544249  1
  Al0+  Al76  1  0.43022788  0.82246374  0.98757724  1
  Al0+  Al77  1  0.56962748  0.67917157  0.31710932  1
  Al0+  Al78  1  0.93124329  0.82231950  0.31768716  1
  Al0+  Al79  1  0.18013757  0.92847344  0.34812611  1
  Al0+  Al80  1  0.82096314  0.06993446  0.68215584  1
  Al0+  Al81  1  0.92615800  0.32330211  0.65223279  1
  Al0+  Al82  1  0.32286858  0.07210455  0.01377771  1
  Al0+  Al83  1  0.42922546  0.31880799  0.31721481  1
  Al0+  Al84  1  0.17801450  0.42859172  0.34967406  1
  Al0+  Al85  1  0.07158272  0.18049888  0.65136875  1
  Al0+  Al86  1  0.32116038  0.57389177  0.01609645  1
  Al0+  Al87  1  0.06904067  0.18147744  0.31691373  1
  Al0+  Al88  1  0.17775354  0.92996481  0.01415766  1
  Al0+  Al89  1  0.67873097  0.42700501  0.01568693  1
  Al0+  Al90  1  0.82128436  0.57219631  0.01515606  1
  Al0+  Al91  1  0.92782408  0.82259869  0.98375501  1
  Al0+  Al92  1  0.32067615  0.56947439  0.68057451  1
  Al0+  Al93  1  0.92991576  0.81886358  0.65291722  1
  Al0+  Al94  1  0.81983471  0.07002202  0.34783324  1
  Al0+  Al95  1  0.68082703  0.92916853  0.01207852  1
  Si0+  Si96  1  0.81909191  0.57179904  0.35072847  1
  Si0+  Si97  1  0.57334203  0.17726093  0.31673739  1
  Si0+  Si98  1  0.67808903  0.43034235  0.34923077  1
  Si0+  Si99  1  0.67688664  0.92521649  0.35253189  1
  Si0+  Si100  1  0.07257451  0.18070427  0.98479972  1
  Si0+  Si101  1  0.92453366  0.32269272  0.31559742  1
  Si0+  Si102  1  0.07492598  0.67748096  0.65129018  1
  Si0+  Si103  1  0.67672101  0.92695448  0.68221554  1
  Si0+  Si104  1  0.32429855  0.57025946  0.35049108  1
  Si0+  Si105  1  0.82052396  0.57295262  0.67889909  1
  Si0+  Si106  1  0.92690050  0.31912986  0.98713574  1
  Si0+  Si107  1  0.42790854  0.82440195  0.31761018  1
  Si0+  Si108  1  0.43153575  0.31964704  0.65291319  1
  Si0+  Si109  1  0.67865311  0.42945967  0.67929371  1
  Si0+  Si110  1  0.57164475  0.17630508  0.65154245  1
  Si0+  Si111  1  0.17742055  0.42653260  0.68224491  1
  Si0+  Si112  1  0.57291721  0.17990498  0.98429702  1
  Si0+  Si113  1  0.42948944  0.32079684  0.98162821  1
  Si0+  Si114  1  0.32211256  0.07288252  0.35013931  1
  Si0+  Si115  1  0.17931240  0.93049939  0.68217534  1
  Si0+  Si116  1  0.42540895  0.82383274  0.64969756  1
  Si0+  Si117  1  0.57081049  0.67650757  0.98320449  1
  Si0+  Si118  1  0.82315250  0.07268446  0.01596621  1
  Si0+  Si119  1  0.32360967  0.07200344  0.67967988  1
  O2-  O120  1  0.25189050  0.00024571  0.06406129  1
  O2-  O121  1  0.25570824  0.00315313  0.39637166  1
  O2-  O122  1  0.25392415  -0.00001072  0.72138154  1
  O2-  O123  1  0.24365552  0.50757446  0.06494487  1
  O2-  O124  1  0.25098672  0.50617031  0.39515088  1
  O2-  O125  1  0.24095000  0.49972365  0.72618568  1
  O2-  O126  1  0.76084962  -0.00197081  0.05896021  1
  O2-  O127  1  0.74679077  -0.00685090  0.39558428  1
  O2-  O128  1  0.74521257  -0.00448011  0.72704234  1
  O2-  O129  1  0.74672980  0.50209370  0.06557925  1
  O2-  O130  1  0.74798048  0.50057436  0.39398329  1
  O2-  O131  1  0.75434187  0.49609536  0.71994299  1
  O2-  O132  1  -0.00384539  0.25817556  0.27010511  1
  O2-  O133  1  0.00025704  0.25388684  0.60201668  1
  O2-  O134  1  -0.00058739  0.25020668  0.94405082  1
  O2-  O135  1  0.00499161  0.75153943  0.26973651  1
  O2-  O136  1  0.00429656  0.74367717  0.60694646  1
  O2-  O137  1  0.00007806  0.74966217  0.93494470  1
  O2-  O138  1  0.50053788  0.24008196  0.27116362  1
  O2-  O139  1  0.50024461  0.24693173  0.60925873  1
  O2-  O140  1  0.50188571  0.25040126  0.93978733  1
  O2-  O141  1  0.49706283  0.75649634  0.27360363  1
  O2-  O142  1  0.49260257  0.75302605  0.60673937  1
  O2-  O143  1  0.50178954  0.74482110  0.93904877  1
  O2-  O144  1  0.07235172  0.18034348  0.08965885  1
  O2-  O145  1  0.06771863  0.18152834  0.43000781  1
  O2-  O146  1  0.07308003  0.18230269  0.76540287  1
  O2-  O147  1  0.06917459  0.67616405  0.09834608  1
  O2-  O148  1  0.06904594  0.67775013  0.43526207  1
  O2-  O149  1  0.07599032  0.67836756  0.75650299  1
  O2-  O150  1  0.57462273  0.18189014  0.08893890  1
  O2-  O151  1  0.57261617  0.18139052  0.42310858  1
  O2-  O152  1  0.57087759  0.17588884  0.75657653  1
  O2-  O153  1  0.56991429  0.67790919  0.08870500  1
  O2-  O154  1  0.56781115  0.67735080  0.43095988  1
  O2-  O155  1  0.56879654  0.67894020  0.76792920  1
  O2-  O156  1  0.18100404  0.42790416  0.23727503  1
  O2-  O157  1  0.18102290  0.42462698  0.57671524  1
  O2-  O158  1  0.18156647  0.42631093  0.89962186  1
  O2-  O159  1  0.18055814  0.92878827  0.23581462  1
  O2-  O160  1  0.18018094  0.93001490  0.57689844  1
  O2-  O161  1  0.17723865  0.93445319  0.89988017  1
  O2-  O162  1  0.67956856  0.42942014  0.24486745  1
  O2-  O163  1  0.67478316  0.43097142  0.57405836  1
  O2-  O164  1  0.68186522  0.42583530  0.90106873  1
  O2-  O165  1  0.67462194  0.92731561  0.24707149  1
  O2-  O166  1  0.67431287  0.92931451  0.57677829  1
  O2-  O167  1  0.67892366  0.93288184  0.89859779  1
  O2-  O168  1  0.42906118  0.31874786  0.08621221  1
  O2-  O169  1  0.43263471  0.31930028  0.43162698  1
  O2-  O170  1  0.43350280  0.31891925  0.75785072  1
  O2-  O171  1  0.43443588  0.82361944  0.10050406  1
  O2-  O172  1  0.42947994  0.82502785  0.42380795  1
  O2-  O173  1  0.42735734  0.82776391  0.75478715  1
  O2-  O174  1  0.92289753  0.31570166  0.09180979  1
  O2-  O175  1  0.92270378  0.32035768  0.42131651  1
  O2-  O176  1  0.92546471  0.32245495  0.76622253  1
  O2-  O177  1  0.92904112  0.82355381  0.09673836  1
  O2-  O178  1  0.93193110  0.82073275  0.43190914  1
  O2-  O179  1  0.92886483  0.81731698  0.76559458  1
  O2-  O180  1  0.32182783  0.07196540  0.24512388  1
  O2-  O181  1  0.32701457  0.07291781  0.57492652  1
  O2-  O182  1  0.32067039  0.07234308  0.89902170  1
  O2-  O183  1  0.32682636  0.56884486  0.24566221  1
  O2-  O184  1  0.32405150  0.56415040  0.56748658  1
  O2-  O185  1  0.32355912  0.56782420  0.90192188  1
  O2-  O186  1  0.81593947  0.07214167  0.23479977  1
  O2-  O187  1  0.81931514  0.06993089  0.56917922  1
  O2-  O188  1  0.81940241  0.07702493  0.91030882  1
  O2-  O189  1  0.81804303  0.57054091  0.24628743  1
  O2-  O190  1  0.81698305  0.57369677  0.57372954  1
  O2-  O191  1  0.81938925  0.56969402  0.90042818  1
  O2-  O192  1  0.03571387  0.08622824  0.26319806  1
  O2-  O193  1  0.04022973  0.08286522  0.59943052  1
  O2-  O194  1  0.04636559  0.08956727  0.93556637  1
  O2-  O195  1  0.04063865  0.57823693  0.27084230  1
  O2-  O196  1  0.05295065  0.58221002  0.60718893  1
  O2-  O197  1  0.04250555  0.57710412  0.93264304  1
  O2-  O198  1  0.55443467  0.08059795  0.27507135  1
  O2-  O199  1  0.54488764  0.08521435  0.60208797  1
  O2-  O200  1  0.54561745  0.08904898  0.93513811  1
  O2-  O201  1  0.54018334  0.58381678  0.26172115  1
  O2-  O202  1  0.53678244  0.58269254  0.59986673  1
  O2-  O203  1  0.54598496  0.58134055  0.93932371  1
  O2-  O204  1  0.16599904  0.21048846  0.26400514  1
  O2-  O205  1  0.17087644  0.20559483  0.59688500  1
  O2-  O206  1  0.16367866  0.21113242  0.93700590  1
  O2-  O207  1  0.17518885  0.69768044  0.27452871  1
  O2-  O208  1  0.16834834  0.70477107  0.60518043  1
  O2-  O209  1  0.17081154  0.70426443  0.93302819  1
  O2-  O210  1  0.66462590  0.20875738  0.27047319  1
  O2-  O211  1  0.66225640  0.20586875  0.60343653  1
  O2-  O212  1  0.66414658  0.20962413  0.93523703  1
  O2-  O213  1  0.66583317  0.70807021  0.26279494  1
  O2-  O214  1  0.66197735  0.71013775  0.59609702  1
  O2-  O215  1  0.66487718  0.70267251  0.93894684  1
  O2-  O216  1  0.07787514  0.44688799  0.06664966  1
  O2-  O217  1  0.07989090  0.45402539  0.40445613  1
  O2-  O218  1  0.08083297  0.44593590  0.72495465  1
  O2-  O219  1  0.08067990  0.96257033  0.06724928  1
  O2-  O220  1  0.08445850  0.96320262  0.40159753  1
  O2-  O221  1  0.08950608  0.96187967  0.73003535  1
  O2-  O222  1  0.57913123  0.44920906  0.06677891  1
  O2-  O223  1  0.58534751  0.45892343  0.39507181  1
  O2-  O224  1  0.58919621  0.46052255  0.72936066  1
  O2-  O225  1  0.58886746  0.96676076  0.07006570  1
  O2-  O226  1  0.58353518  0.95072262  0.40043013  1
  O2-  O227  1  0.58214832  0.95282529  0.72727010  1
  O2-  O228  1  0.21516524  0.33501760  0.06695236  1
  O2-  O229  1  0.21458387  0.33277019  0.40281541  1
  O2-  O230  1  0.20851579  0.33407186  0.72821061  1
  O2-  O231  1  0.20539532  0.83176035  0.06548535  1
  O2-  O232  1  0.21151294  0.83277511  0.40576817  1
  O2-  O233  1  0.20462977  0.83855936  0.73022191  1
  O2-  O234  1  0.70887860  0.33014452  0.07071644  1
  O2-  O235  1  0.70419204  0.33828480  0.39815625  1
  O2-  O236  1  0.70010584  0.33581336  0.72591022  1
  O2-  O237  1  0.70343764  0.83201788  0.06731858  1
  O2-  O238  1  0.70143225  0.83028643  0.39630621  1
  O2-  O239  1  0.70330059  0.83291602  0.72625171  1
  O2-  O240  1  0.46444714  0.41171395  0.26099364  1
  O2-  O241  1  0.46315549  0.40940693  0.60426829  1
  O2-  O242  1  0.45857668  0.41246419  0.93404874  1
  O2-  O243  1  0.45196771  0.91899000  0.27316531  1
  O2-  O244  1  0.45107570  0.91636707  0.60044535  1
  O2-  O245  1  0.46522323  0.91893404  0.93353740  1
  O2-  O246  1  0.94553191  0.41854280  0.27413438  1
  O2-  O247  1  0.94845804  0.42336621  0.59903380  1
  O2-  O248  1  0.95210641  0.41145518  0.94014197  1
  O2-  O249  1  0.95590221  0.92146510  0.26687584  1
  O2-  O250  1  0.96286390  0.91550315  0.60118554  1
  O2-  O251  1  0.95638789  0.92199692  0.93067051  1
  O2-  O252  1  0.33354286  0.29012119  0.26225318  1
  O2-  O253  1  0.33981919  0.29318063  0.60484960  1
  O2-  O254  1  0.33920647  0.29122218  0.93162166  1
  O2-  O255  1  0.33434565  0.79747638  0.27387027  1
  O2-  O256  1  0.33113667  0.79851649  0.60501250  1
  O2-  O257  1  0.33339729  0.79731017  0.93148817  1
  O2-  O258  1  0.83159859  0.29307544  0.27021415  1
  O2-  O259  1  0.82738901  0.29400999  0.59921566  1
  O2-  O260  1  0.83570564  0.28964957  0.93811525  1
  O2-  O261  1  0.83211557  0.79350390  0.26779524  1
  O2-  O262  1  0.83369643  0.79031011  0.59686867  1
  O2-  O263  1  0.82819098  0.79360628  0.93216882  1
  O2-  O264  1  0.42243185  0.05032008  0.06570122  1
  O2-  O265  1  0.41778915  0.05134787  0.39608957  1
  O2-  O266  1  0.41642398  0.04636063  0.72725034  1
  O2-  O267  1  0.41700717  0.53907210  0.06953884  1
  O2-  O268  1  0.41659895  0.53553742  0.39559263  1
  O2-  O269  1  0.41524986  0.53346239  0.73591584  1
  O2-  O270  1  0.91902014  0.05438864  0.05858475  1
  O2-  O271  1  0.91642249  0.04145283  0.40244298  1
  O2-  O272  1  0.91766735  0.04046112  0.73592349  1
  O2-  O273  1  0.91638360  0.53874358  0.07019420  1
  O2-  O274  1  0.90953219  0.54441512  0.40087613  1
  O2-  O275  1  0.91443024  0.55144308  0.72519799  1
  O2-  O276  1  0.29441869  0.17058169  0.06465256  1
  O2-  O277  1  0.29568143  0.16667400  0.39518399  1
  O2-  O278  1  0.29600622  0.16403354  0.72744821  1
  O2-  O279  1  0.30395452  0.67509556  0.06515526  1
  O2-  O280  1  0.30708002  0.66504404  0.39799987  1
  O2-  O281  1  0.29703685  0.66865335  0.73300144  1
  O2-  O282  1  0.79035487  0.16232749  0.06514535  1
  O2-  O283  1  0.78587047  0.16580653  0.40392212  1
  O2-  O284  1  0.78837933  0.16689662  0.73561755  1
  O2-  O285  1  0.79398325  0.66933929  0.06957775  1
  O2-  O286  1  0.78842801  0.66366546  0.39703169  1
  O2-  O287  1  0.78586957  0.66244069  0.72625471  1
