# generated using pymatgen
data_Ca2Al2SiO7
_symmetry_space_group_name_H-M   'P 1'
_cell_length_a   15.46290815
_cell_length_b   15.46165808
_cell_length_c   15.28776383
_cell_angle_alpha   89.99770274
_cell_angle_beta   89.99212027
_cell_angle_gamma   90.00001208
_symmetry_Int_Tables_number   1
_chemical_formula_structural   Ca2Al2SiO7
_chemical_formula_sum   'Ca48 Al48 Si24 O168'
_cell_volume   3655.03215251
_cell_formula_units_Z   24
loop_
 _symmetry_equiv_pos_site_id
 _symmetry_equiv_pos_as_xyz
  1  'x, y, z'
loop_
 _atom_type_symbol
 _atom_type_oxidation_number
  Ca2+  2.0
  Al0+  0.0
  Si0+  0.0
  O2-  -2.0
loop_
 _atom_site_type_symbol
 _atom_site_label
 _atom_site_symmetry_multiplicity
 _atom_site_fract_x
 _atom_site_fract_y
 _atom_site_fract_z
 _atom_site_occupancy
  Ca2+  Ca0  1  0.17215599  0.08127397  0.17649575  1
  Ca2+  Ca1  1  0.17086177  0.08108776  0.49709239  1
  Ca2+  Ca2  1  0.16758264  0.08483058  0.84101559  1
  Ca2+  Ca3  1  0.16611169  0.57802570  0.17679754  1
  Ca2+  Ca4  1  0.16794124  0.57788487  0.49969771  1
  Ca2+  Ca5  1  0.17445276  0.58098221  0.83440194  1
  Ca2+  Ca6  1  0.66462738  0.07948890  0.17656556  1
  Ca2+  Ca7  1  0.66978408  0.08009365  0.50193322  1
  Ca2+  Ca8  1  0.66461641  0.08654050  0.83205809  1
  Ca2+  Ca9  1  0.67538505  0.57681778  0.16850162  1
  Ca2+  Ca10  1  0.68096355  0.58378057  0.50386311  1
  Ca2+  Ca11  1  0.67417424  0.57632607  0.84182575  1
  Ca2+  Ca12  1  0.07900166  0.33141269  0.16900897  1
  Ca2+  Ca13  1  0.07787303  0.33487471  0.49003082  1
  Ca2+  Ca14  1  0.08340355  0.32633569  0.83420712  1
  Ca2+  Ca15  1  0.07172204  0.83623467  0.16603805  1
  Ca2+  Ca16  1  0.07696009  0.82525181  0.48680558  1
  Ca2+  Ca17  1  0.07335211  0.83169927  0.83169287  1
  Ca2+  Ca18  1  0.57863461  0.32256267  0.15952921  1
  Ca2+  Ca19  1  0.57682169  0.32231621  0.49047328  1
  Ca2+  Ca20  1  0.58465932  0.32787820  0.82740478  1
  Ca2+  Ca21  1  0.58106828  0.83575979  0.16335423  1
  Ca2+  Ca22  1  0.59163778  0.83556371  0.49566060  1
  Ca2+  Ca23  1  0.57984677  0.83643958  0.83073338  1
  Ca2+  Ca24  1  0.32919514  0.40733070  0.17340587  1
  Ca2+  Ca25  1  0.33126381  0.41194517  0.50244888  1
  Ca2+  Ca26  1  0.34374426  0.41706557  0.83573026  1
  Ca2+  Ca27  1  0.32917776  0.92365082  0.17828261  1
  Ca2+  Ca28  1  0.33051308  0.92355384  0.49676635  1
  Ca2+  Ca29  1  0.33286143  0.91773418  0.84043858  1
  Ca2+  Ca30  1  0.83378285  0.42357012  0.17315890  1
  Ca2+  Ca31  1  0.84131600  0.42687758  0.50231594  1
  Ca2+  Ca32  1  0.82742344  0.42804070  0.84345190  1
  Ca2+  Ca33  1  0.83141878  0.92082224  0.17784262  1
  Ca2+  Ca34  1  0.82669410  0.92509767  0.50138742  1
  Ca2+  Ca35  1  0.82728772  0.91975740  0.83506796  1
  Ca2+  Ca36  1  0.42400101  0.17028152  0.16366883  1
  Ca2+  Ca37  1  0.42584079  0.17087282  0.49208534  1
  Ca2+  Ca38  1  0.43121990  0.17915856  0.82802033  1
  Ca2+  Ca39  1  0.41694299  0.67618225  0.16167189  1
  Ca2+  Ca40  1  0.41696232  0.66515661  0.49766041  1
  Ca2+  Ca41  1  0.41543120  0.67031219  0.82824147  1
  Ca2+  Ca42  1  0.91673253  0.16973971  0.16499032  1
  Ca2+  Ca43  1  0.90985507  0.17020753  0.49153227  1
  Ca2+  Ca44  1  0.92135153  0.16167332  0.82915603  1
  Ca2+  Ca45  1  0.91319019  0.67366917  0.16795207  1
  Ca2+  Ca46  1  0.91825708  0.66901735  0.48534673  1
  Ca2+  Ca47  1  0.90523310  0.67025625  0.83288244  1
  Al0+  Al48  1  -0.00063910  -0.00225081  -0.00828179  1
  Al0+  Al49  1  0.00004252  -0.00114139  0.33814058  1
  Al0+  Al50  1  -0.00036225  -0.00224260  0.66802106  1
  Al0+  Al51  1  0.00352076  0.50140555  0.00302524  1
  Al0+  Al52  1  0.00246380  0.49894184  0.33276806  1
  Al0+  Al53  1  0.00306750  0.50030794  0.67432954  1
  Al0+  Al54  1  0.49889639  0.00185293  -0.00793659  1
  Al0+  Al55  1  0.49932693  -0.00084347  0.33864532  1
  Al0+  Al56  1  0.49755046  0.00047143  0.66690978  1
  Al0+  Al57  1  0.50050804  0.50227613  0.00399103  1
  Al0+  Al58  1  0.50029938  0.50034127  0.32826365  1
  Al0+  Al59  1  0.49904817  0.50289983  0.66599357  1
  Al0+  Al60  1  0.25096089  0.24963027  -0.00767702  1
  Al0+  Al61  1  0.24961989  0.25088994  0.34050822  1
  Al0+  Al62  1  0.24806603  0.24857082  0.66449613  1
  Al0+  Al63  1  0.24722834  0.75010039  -0.00353471  1
  Al0+  Al64  1  0.25043731  0.74791900  0.33351623  1
  Al0+  Al65  1  0.24832545  0.74809465  0.66968413  1
  Al0+  Al66  1  0.75105824  0.25043519  -0.00064573  1
  Al0+  Al67  1  0.74862259  0.25061167  0.32707505  1
  Al0+  Al68  1  0.75219643  0.24965193  0.66595074  1
  Al0+  Al69  1  0.74972830  0.75181140  -0.00015600  1
  Al0+  Al70  1  0.75045633  0.74869621  0.33522669  1
  Al0+  Al71  1  0.74787881  0.75266509  0.67374777  1
  Al0+  Al72  1  0.32087305  0.56985835  0.68012058  1
  Al0+  Al73  1  0.82213145  0.07233477  0.68325074  1
  Al0+  Al74  1  0.82035365  0.56751760  0.34635431  1
  Al0+  Al75  1  0.32078273  0.07173046  0.34850463  1
  Al0+  Al76  1  0.82314993  0.57175006  0.68067411  1
  Al0+  Al77  1  0.18061118  0.42962085  0.34627575  1
  Al0+  Al78  1  0.67858292  0.92791280  0.34627565  1
  Al0+  Al79  1  0.57048813  0.17661244  0.31718479  1
  Al0+  Al80  1  0.67674463  0.93084851  0.68447075  1
  Al0+  Al81  1  0.42923277  0.32244705  0.98489427  1
  Al0+  Al82  1  0.67794285  0.42681941  0.01651947  1
  Al0+  Al83  1  0.42722937  0.82080330  0.98737210  1
  Al0+  Al84  1  0.42735471  0.32141646  0.31748897  1
  Al0+  Al85  1  0.92811315  0.82175342  0.32004010  1
  Al0+  Al86  1  0.57410778  0.17896846  0.98315306  1
  Al0+  Al87  1  0.82152123  0.07413982  0.34503407  1
  Al0+  Al88  1  0.92803570  0.81954184  0.98425796  1
  Al0+  Al89  1  0.06915456  0.17937669  0.98844585  1
  Al0+  Al90  1  0.07234971  0.67772610  0.31844072  1
  Al0+  Al91  1  0.42911679  0.32363825  0.64960482  1
  Al0+  Al92  1  0.57327868  0.17864071  0.64782510  1
  Al0+  Al93  1  0.82239366  0.57281346  0.01847385  1
  Al0+  Al94  1  0.92840537  0.32105983  0.32105723  1
  Al0+  Al95  1  0.17758161  0.92608730  0.34739848  1
  Si0+  Si96  1  0.17728229  0.92854827  0.01392285  1
  Si0+  Si97  1  0.57292139  0.67822374  0.31830786  1
  Si0+  Si98  1  0.07254106  0.67645646  0.98050340  1
  Si0+  Si99  1  0.92743220  0.81882941  0.65105555  1
  Si0+  Si100  1  0.67723487  0.93223094  0.01427217  1
  Si0+  Si101  1  0.92928481  0.32435773  0.98352200  1
  Si0+  Si102  1  0.07093887  0.67883140  0.65224296  1
  Si0+  Si103  1  0.32069170  0.57380093  0.01574230  1
  Si0+  Si104  1  0.42554053  0.82048600  0.65068762  1
  Si0+  Si105  1  0.32486914  0.57264285  0.34843031  1
  Si0+  Si106  1  0.42925187  0.81961125  0.32086141  1
  Si0+  Si107  1  0.57080716  0.68024792  0.98341248  1
  Si0+  Si108  1  0.31873941  0.07129509  0.68427596  1
  Si0+  Si109  1  0.57092933  0.68159334  0.65205213  1
  Si0+  Si110  1  0.82383198  0.06968752  0.01373744  1
  Si0+  Si111  1  0.93208194  0.32212474  0.65441306  1
  Si0+  Si112  1  0.07185055  0.17723682  0.32038602  1
  Si0+  Si113  1  0.17971734  0.92787577  0.68351772  1
  Si0+  Si114  1  0.31928561  0.06975193  0.01254775  1
  Si0+  Si115  1  0.18231233  0.42751147  0.01524667  1
  Si0+  Si116  1  0.17873806  0.42601281  0.68631918  1
  Si0+  Si117  1  0.67915220  0.42999732  0.67997454  1
  Si0+  Si118  1  0.67612739  0.42804229  0.34951470  1
  Si0+  Si119  1  0.07032075  0.17618897  0.65013415  1
  O2-  O120  1  0.24981915  -0.00248088  0.05586317  1
  O2-  O121  1  0.24762480  -0.00042920  0.39817063  1
  O2-  O122  1  0.24836317  -0.00018603  0.72790135  1
  O2-  O123  1  0.25383559  0.49871005  0.05684293  1
  O2-  O124  1  0.25817669  0.50192288  0.39179190  1
  O2-  O125  1  0.25251262  0.49026196  0.72904022  1
  O2-  O126  1  0.74727703  0.00442604  0.05538619  1
  O2-  O127  1  0.74966553  0.00161605  0.39438558  1
  O2-  O128  1  0.74744812  0.00398888  0.73494653  1
  O2-  O129  1  0.75351351  0.49638276  0.06567917  1
  O2-  O130  1  0.74721381  0.49305721  0.39604351  1
  O2-  O131  1  0.74933281  0.49621623  0.72632407  1
  O2-  O132  1  -0.00125763  0.24087971  0.27599140  1
  O2-  O133  1  -0.00111254  0.24750665  0.61058199  1
  O2-  O134  1  -0.00593782  0.25225137  0.93841801  1
  O2-  O135  1  0.00257571  0.75211698  0.26933175  1
  O2-  O136  1  -0.00533680  0.74367368  0.61026033  1
  O2-  O137  1  -0.00064516  0.74088345  0.93696069  1
  O2-  O138  1  0.49922460  0.24978221  0.26798694  1
  O2-  O139  1  0.50145187  0.25231068  0.60015877  1
  O2-  O140  1  0.50734741  0.25733108  0.93529054  1
  O2-  O141  1  0.50134440  0.75017168  0.27806521  1
  O2-  O142  1  0.50022789  0.75316737  0.60888219  1
  O2-  O143  1  0.49992588  0.74602706  0.93763184  1
  O2-  O144  1  0.06970240  0.17908081  0.10111144  1
  O2-  O145  1  0.07243772  0.18038130  0.42629224  1
  O2-  O146  1  0.07156610  0.17670345  0.75563085  1
  O2-  O147  1  0.07830974  0.67843646  0.08523699  1
  O2-  O148  1  0.07066312  0.67750116  0.43286391  1
  O2-  O149  1  0.07386771  0.68171682  0.75737379  1
  O2-  O150  1  0.56900218  0.17238410  0.09591786  1
  O2-  O151  1  0.56993546  0.17734699  0.43056810  1
  O2-  O152  1  0.57157754  0.18083578  0.76156775  1
  O2-  O153  1  0.56971944  0.68309583  0.08915130  1
  O2-  O154  1  0.57232587  0.67702521  0.42371112  1
  O2-  O155  1  0.56918948  0.68160344  0.75709159  1
  O2-  O156  1  0.18079538  0.42970822  0.23278785  1
  O2-  O157  1  0.17379412  0.42845001  0.58124135  1
  O2-  O158  1  0.18132557  0.42867651  0.90995565  1
  O2-  O159  1  0.18077086  0.92732339  0.23319643  1
  O2-  O160  1  0.18084533  0.92699006  0.57903513  1
  O2-  O161  1  0.17833938  0.92954554  0.90819048  1
  O2-  O162  1  0.67621179  0.43250081  0.24427078  1
  O2-  O163  1  0.68041215  0.43364247  0.57449792  1
  O2-  O164  1  0.67945511  0.43040804  0.90195281  1
  O2-  O165  1  0.67715000  0.92704095  0.23206711  1
  O2-  O166  1  0.68097276  0.92653374  0.57168986  1
  O2-  O167  1  0.67764225  0.93133887  0.90938396  1
  O2-  O168  1  0.42356322  0.31563091  0.09755372  1
  O2-  O169  1  0.42964174  0.32213585  0.43095359  1
  O2-  O170  1  0.43191791  0.32277002  0.76326412  1
  O2-  O171  1  0.42745697  0.82051129  0.10052738  1
  O2-  O172  1  0.42755647  0.81693411  0.42609829  1
  O2-  O173  1  0.42347560  0.81758032  0.75598591  1
  O2-  O174  1  0.93238007  0.32452777  0.08887354  1
  O2-  O175  1  0.93246333  0.32387803  0.43469341  1
  O2-  O176  1  0.93615376  0.32316030  0.75954459  1
  O2-  O177  1  0.93037046  0.82365924  0.09650582  1
  O2-  O178  1  0.92755593  0.81777683  0.43400167  1
  O2-  O179  1  0.93044766  0.81890472  0.75656107  1
  O2-  O180  1  0.31971218  0.06943375  0.23411965  1
  O2-  O181  1  0.31668079  0.06962044  0.57958527  1
  O2-  O182  1  0.31577520  0.06729077  0.90715126  1
  O2-  O183  1  0.32392011  0.57603860  0.24279142  1
  O2-  O184  1  0.31579775  0.57533425  0.56775658  1
  O2-  O185  1  0.31804035  0.57601976  0.91048376  1
  O2-  O186  1  0.82233087  0.07171263  0.23083669  1
  O2-  O187  1  0.82631154  0.06962478  0.57052617  1
  O2-  O188  1  0.82656946  0.06578736  0.90877660  1
  O2-  O189  1  0.81796848  0.56862110  0.23384176  1
  O2-  O190  1  0.82422667  0.57116612  0.56765561  1
  O2-  O191  1  0.81867665  0.57147766  0.90418806  1
  O2-  O192  1  0.05394768  0.08145246  0.27655310  1
  O2-  O193  1  0.04506506  0.08302580  0.60459407  1
  O2-  O194  1  0.04056483  0.08398744  0.92994082  1
  O2-  O195  1  0.04232423  0.58101110  0.26451979  1
  O2-  O196  1  0.04937554  0.58360775  0.60920795  1
  O2-  O197  1  0.05282672  0.58095523  0.93531933  1
  O2-  O198  1  0.53944084  0.07726100  0.26692533  1
  O2-  O199  1  0.54076831  0.07928832  0.59927308  1
  O2-  O200  1  0.53857529  0.08416914  0.92644380  1
  O2-  O201  1  0.54456009  0.58848636  0.26751430  1
  O2-  O202  1  0.54310977  0.59097360  0.60285395  1
  O2-  O203  1  0.54690730  0.58607503  0.93831089  1
  O2-  O204  1  0.16352702  0.20847042  0.27431541  1
  O2-  O205  1  0.16155515  0.20397664  0.60240991  1
  O2-  O206  1  0.16328457  0.21201215  0.92947085  1
  O2-  O207  1  0.17265133  0.70143347  0.26658721  1
  O2-  O208  1  0.16064403  0.71203295  0.60422555  1
  O2-  O209  1  0.16319325  0.70780889  0.93029053  1
  O2-  O210  1  0.66820452  0.20349787  0.26276954  1
  O2-  O211  1  0.67394863  0.20446019  0.59806113  1
  O2-  O212  1  0.67500445  0.20157301  0.93164689  1
  O2-  O213  1  0.66300793  0.70709980  0.26932561  1
  O2-  O214  1  0.66304193  0.71058247  0.60524613  1
  O2-  O215  1  0.66293492  0.70861323  0.93646156  1
  O2-  O216  1  0.09066424  0.45483572  0.06292879  1
  O2-  O217  1  0.08659854  0.46372720  0.40334702  1
  O2-  O218  1  0.08930489  0.45780063  0.73791069  1
  O2-  O219  1  0.08575001  0.95902733  0.05913660  1
  O2-  O220  1  0.08031262  0.95133921  0.40337289  1
  O2-  O221  1  0.08741075  0.95462313  0.73078837  1
  O2-  O222  1  0.58069310  0.45881736  0.07043070  1
  O2-  O223  1  0.58348499  0.45789398  0.39532946  1
  O2-  O224  1  0.58663730  0.45897605  0.72624596  1
  O2-  O225  1  0.58371294  0.95856154  0.05931934  1
  O2-  O226  1  0.58037576  0.95162829  0.40130750  1
  O2-  O227  1  0.57544825  0.95427826  0.73507613  1
  O2-  O228  1  0.21058128  0.33504632  0.06065379  1
  O2-  O229  1  0.20653523  0.33456206  0.40523289  1
  O2-  O230  1  0.19865058  0.32991020  0.72997613  1
  O2-  O231  1  0.20244149  0.83542031  0.05895013  1
  O2-  O232  1  0.20946558  0.82868004  0.40124477  1
  O2-  O233  1  0.20904759  0.83715137  0.73258504  1
  O2-  O234  1  0.70354061  0.32681195  0.06754263  1
  O2-  O235  1  0.69848697  0.33298978  0.39195848  1
  O2-  O236  1  0.70350914  0.33596913  0.72494239  1
  O2-  O237  1  0.70439550  0.83987137  0.06030180  1
  O2-  O238  1  0.70717608  0.83010700  0.40060126  1
  O2-  O239  1  0.70612348  0.83352866  0.74054292  1
  O2-  O240  1  0.45212931  0.42131970  0.26493390  1
  O2-  O241  1  0.45145165  0.42510768  0.59983274  1
  O2-  O242  1  0.44933858  0.42597650  0.93883733  1
  O2-  O243  1  0.45491362  0.91163796  0.27396581  1
  O2-  O244  1  0.44784581  0.91409323  0.60576980  1
  O2-  O245  1  0.45758165  0.91550263  0.92993470  1
  O2-  O246  1  0.96719276  0.41335216  0.26481502  1
  O2-  O247  1  0.96498665  0.41355363  0.60815548  1
  O2-  O248  1  0.96040101  0.41670028  0.93716831  1
  O2-  O249  1  0.95584708  0.92098388  0.26772294  1
  O2-  O250  1  0.96032060  0.90951453  0.60535482  1
  O2-  O251  1  0.96422900  0.91219359  0.92535840  1
  O2-  O252  1  0.32719297  0.29226042  0.26892980  1
  O2-  O253  1  0.32833427  0.29417552  0.60164196  1
  O2-  O254  1  0.33392122  0.28950786  0.92734681  1
  O2-  O255  1  0.33900230  0.79037656  0.27118080  1
  O2-  O256  1  0.33510104  0.78733388  0.60375726  1
  O2-  O257  1  0.33052673  0.79116767  0.93163208  1
  O2-  O258  1  0.83202654  0.29727311  0.26419260  1
  O2-  O259  1  0.83921678  0.30060235  0.60735111  1
  O2-  O260  1  0.83470120  0.30338656  0.93861695  1
  O2-  O261  1  0.83095688  0.78958510  0.26639538  1
  O2-  O262  1  0.83334684  0.79506496  0.60800363  1
  O2-  O263  1  0.83063307  0.79136480  0.92971427  1
  O2-  O264  1  0.41150422  0.04144984  0.05785194  1
  O2-  O265  1  0.41540034  0.03778959  0.40493305  1
  O2-  O266  1  0.41005453  0.04308686  0.73152934  1
  O2-  O267  1  0.41443011  0.55530008  0.06235467  1
  O2-  O268  1  0.41961409  0.55016813  0.39377419  1
  O2-  O269  1  0.41942555  0.54748423  0.73518136  1
  O2-  O270  1  0.91422400  0.03607322  0.06012838  1
  O2-  O271  1  0.91986666  0.04907181  0.39968119  1
  O2-  O272  1  0.92043762  0.03898677  0.73652963  1
  O2-  O273  1  0.92390762  0.54864327  0.06648715  1
  O2-  O274  1  0.91701473  0.53676214  0.39958237  1
  O2-  O275  1  0.91955592  0.54309824  0.73672507  1
  O2-  O276  1  0.28857967  0.16125281  0.05766791  1
  O2-  O277  1  0.29096825  0.16730881  0.40514281  1
  O2-  O278  1  0.28796094  0.16255036  0.73116436  1
  O2-  O279  1  0.28784681  0.66462976  0.06289060  1
  O2-  O280  1  0.29815507  0.66456364  0.39732487  1
  O2-  O281  1  0.28412667  0.66431096  0.73722440  1
  O2-  O282  1  0.80526837  0.16524158  0.05647710  1
  O2-  O283  1  0.79428505  0.17352008  0.39699841  1
  O2-  O284  1  0.80039400  0.17324054  0.73524906  1
  O2-  O285  1  0.78940683  0.67123072  0.06852675  1
  O2-  O286  1  0.78763495  0.66299725  0.40115669  1
  O2-  O287  1  0.78928145  0.66680621  0.73486626  1
