# generated using pymatgen
data_Ca2Al2SiO7
_symmetry_space_group_name_H-M   'P 1'
_cell_length_a   15.45551526
_cell_length_b   15.45542545
_cell_length_c   15.28170252
_cell_angle_alpha   90.00728423
_cell_angle_beta   90.00742166
_cell_angle_gamma   90.01228491
_symmetry_Int_Tables_number   1
_chemical_formula_structural   Ca2Al2SiO7
_chemical_formula_sum   'Ca48 Al48 Si24 O168'
_cell_volume   3650.36403681
_cell_formula_units_Z   24
loop_
 _symmetry_equiv_pos_site_id
 _symmetry_equiv_pos_as_xyz
  1  'x, y, z'
loop_
 _atom_type_symbol
 _atom_type_oxidation_number
  Ca2+  2.0
  Al0+  0.0
  Si0+  0.0
  O2-  -2.0
loop_
 _atom_site_type_symbol
 _atom_site_label
 _atom_site_symmetry_multiplicity
 _atom_site_fract_x
 _atom_site_fract_y
 _atom_site_fract_z
 _atom_site_occupancy
  Ca2+  Ca0  1  0.15969522  0.07484278  0.17181483  1
  Ca2+  Ca1  1  0.16442297  0.07819194  0.50919299  1
  Ca2+  Ca2  1  0.16531232  0.07544880  0.83165937  1
  Ca2+  Ca3  1  0.16826156  0.57934421  0.16126961  1
  Ca2+  Ca4  1  0.17195221  0.58129678  0.50971662  1
  Ca2+  Ca5  1  0.17497526  0.58812637  0.84092773  1
  Ca2+  Ca6  1  0.66507317  0.07351565  0.17030166  1
  Ca2+  Ca7  1  0.67239582  0.07584514  0.51007431  1
  Ca2+  Ca8  1  0.66785730  0.07283651  0.83375510  1
  Ca2+  Ca9  1  0.67160825  0.57614391  0.17433200  1
  Ca2+  Ca10  1  0.66995255  0.57314270  0.51105446  1
  Ca2+  Ca11  1  0.66887855  0.58434271  0.82881698  1
  Ca2+  Ca12  1  0.07545640  0.33099234  0.15877418  1
  Ca2+  Ca13  1  0.07771516  0.31753564  0.49248749  1
  Ca2+  Ca14  1  0.07993830  0.33287981  0.82792959  1
  Ca2+  Ca15  1  0.08760120  0.83138892  0.16009186  1
  Ca2+  Ca16  1  0.09066843  0.83099939  0.50019033  1
  Ca2+  Ca17  1  0.09365911  0.82607121  0.82664559  1
  Ca2+  Ca18  1  0.57389522  0.33898733  0.16390726  1
  Ca2+  Ca19  1  0.58141130  0.33775416  0.49427907  1
  Ca2+  Ca20  1  0.57622274  0.33847890  0.82854469  1
  Ca2+  Ca21  1  0.58515630  0.83518214  0.16070275  1
  Ca2+  Ca22  1  0.58404190  0.83460035  0.50028804  1
  Ca2+  Ca23  1  0.57825600  0.83132864  0.82043521  1
  Ca2+  Ca24  1  0.33471570  0.41682743  0.16561628  1
  Ca2+  Ca25  1  0.33559052  0.42156416  0.50669145  1
  Ca2+  Ca26  1  0.32771880  0.42834123  0.84124919  1
  Ca2+  Ca27  1  0.32059306  0.91820440  0.17036463  1
  Ca2+  Ca28  1  0.32523931  0.92331814  0.51042215  1
  Ca2+  Ca29  1  0.32666393  0.91640582  0.83191357  1
  Ca2+  Ca30  1  0.83389922  0.41217573  0.17244219  1
  Ca2+  Ca31  1  0.82468756  0.41485310  0.50654258  1
  Ca2+  Ca32  1  0.83250234  0.41858087  0.83375360  1
  Ca2+  Ca33  1  0.82252490  0.91517436  0.17188739  1
  Ca2+  Ca34  1  0.82423680  0.92145551  0.50855911  1
  Ca2+  Ca35  1  0.82530429  0.91810664  0.83322729  1
  Ca2+  Ca36  1  0.41622583  0.17912577  0.16314533  1
  Ca2+  Ca37  1  0.41511403  0.17109745  0.49582625  1
  Ca2+  Ca38  1  0.41004687  0.17220646  0.82850149  1
  Ca2+  Ca39  1  0.41815640  0.66621536  0.16073933  1
  Ca2+  Ca40  1  0.41850016  0.67154785  0.50646591  1
  Ca2+  Ca41  1  0.41612703  0.67082697  0.82071402  1
  Ca2+  Ca42  1  0.91839220  0.17654985  0.16546017  1
  Ca2+  Ca43  1  0.92450530  0.16206655  0.49615155  1
  Ca2+  Ca44  1  0.91952565  0.16919121  0.82630001  1
  Ca2+  Ca45  1  0.92545102  0.66890450  0.15791534  1
  Ca2+  Ca46  1  0.91924947  0.66303371  0.50312099  1
  Ca2+  Ca47  1  0.92955377  0.66447168  0.82513529  1
  Al0+  Al48  1  -0.00268946  0.00116852  0.00468998  1
  Al0+  Al49  1  -0.00098938  -0.00369490  0.33203630  1
  Al0+  Al50  1  -0.00088894  -0.00088942  0.67080758  1
  Al0+  Al51  1  0.00125491  0.50075710  -0.00487897  1
  Al0+  Al52  1  0.00295338  0.50087801  0.33027105  1
  Al0+  Al53  1  -0.00208137  0.49896809  0.66215872  1
  Al0+  Al54  1  0.50008462  -0.00005404  0.00518490  1
  Al0+  Al55  1  0.49729256  -0.00088707  0.33491506  1
  Al0+  Al56  1  0.49745779  0.00308272  0.66881782  1
  Al0+  Al57  1  0.50110177  0.50044034  -0.00092382  1
  Al0+  Al58  1  0.50188572  0.50189354  0.33280313  1
  Al0+  Al59  1  0.49896500  0.50202745  0.66994240  1
  Al0+  Al60  1  0.24985583  0.25068542  -0.00151390  1
  Al0+  Al61  1  0.25039249  0.25042994  0.32327885  1
  Al0+  Al62  1  0.24787756  0.24964833  0.66433105  1
  Al0+  Al63  1  0.25261332  0.75096914  0.00573624  1
  Al0+  Al64  1  0.25202251  0.75032542  0.33587672  1
  Al0+  Al65  1  0.25123919  0.74966767  0.66250434  1
  Al0+  Al66  1  0.75048092  0.24904887  -0.00390774  1
  Al0+  Al67  1  0.74970139  0.24865546  0.33320976  1
  Al0+  Al68  1  0.74683311  0.25024006  0.67484557  1
  Al0+  Al69  1  0.75118078  0.74965119  0.00448374  1
  Al0+  Al70  1  0.75103950  0.74865977  0.33628299  1
  Al0+  Al71  1  0.75092774  0.74679669  0.66887427  1
  Al0+  Al72  1  0.67728335  0.42897307  0.68394735  1
  Al0+  Al73  1  0.32072717  0.07498276  0.68081126  1
  Al0+  Al74  1  0.07195411  0.67846219  0.65199381  1
  Al0+  Al75  1  0.07156088  0.68333592  0.98676971  1
  Al0+  Al76  1  0.31839531  0.56995682  0.67838179  1
  Al0+  Al77  1  0.92848768  0.32148992  0.31954465  1
  Al0+  Al78  1  0.67692784  0.92783665  0.34844348  1
  Al0+  Al79  1  0.92903019  0.32095131  0.98340473  1
  Al0+  Al80  1  0.82357976  0.57007521  0.68245423  1
  Al0+  Al81  1  0.43107971  0.32325620  0.31963676  1
  Al0+  Al82  1  0.17944367  0.93050736  0.01393586  1
  Al0+  Al83  1  0.07079538  0.17585082  0.31625849  1
  Al0+  Al84  1  0.17776072  0.42843403  0.01445148  1
  Al0+  Al85  1  0.32312967  0.57132890  0.01641949  1
  Al0+  Al86  1  0.17844420  0.92908195  0.34870176  1
  Al0+  Al87  1  0.06920779  0.17848107  0.65421703  1
  Al0+  Al88  1  0.82214228  0.07144844  0.68215996  1
  Al0+  Al89  1  0.17942343  0.92863552  0.68109099  1
  Al0+  Al90  1  0.68014419  0.42912556  0.34524831  1
  Al0+  Al91  1  0.57243711  0.67878853  0.65096540  1
  Al0+  Al92  1  0.67965211  0.92871653  0.01456359  1
  Al0+  Al93  1  0.67750624  0.92791182  0.68078178  1
  Al0+  Al94  1  0.42920402  0.82409989  0.65073650  1
  Al0+  Al95  1  0.42916888  0.32146885  0.98348942  1
  Si0+  Si96  1  0.07443461  0.67960771  0.31693897  1
  Si0+  Si97  1  0.92496125  0.32100389  0.64955432  1
  Si0+  Si98  1  0.17884662  0.42831005  0.34732074  1
  Si0+  Si99  1  0.92775594  0.82150712  0.65042748  1
  Si0+  Si100  1  0.82542621  0.57154301  0.34888630  1
  Si0+  Si101  1  0.43116415  0.82087173  0.98725297  1
  Si0+  Si102  1  0.82105922  0.07395828  0.01983968  1
  Si0+  Si103  1  0.42910719  0.32141158  0.65261373  1
  Si0+  Si104  1  0.57369179  0.67916724  0.98646055  1
  Si0+  Si105  1  0.92775897  0.81808479  0.31824209  1
  Si0+  Si106  1  0.31997996  0.07419221  0.34827472  1
  Si0+  Si107  1  0.07157746  0.17559262  0.98213938  1
  Si0+  Si108  1  0.32174245  0.57018756  0.34950443  1
  Si0+  Si109  1  0.42885723  0.82111983  0.31659697  1
  Si0+  Si110  1  0.82046919  0.07052648  0.34899811  1
  Si0+  Si111  1  0.92597804  0.82319031  0.98403257  1
  Si0+  Si112  1  0.32271583  0.07352610  0.01872826  1
  Si0+  Si113  1  0.57127432  0.17983751  0.65248852  1
  Si0+  Si114  1  0.67991503  0.42832544  0.01540141  1
  Si0+  Si115  1  0.17707057  0.42703362  0.67939018  1
  Si0+  Si116  1  0.57175507  0.68095638  0.31762219  1
  Si0+  Si117  1  0.82184684  0.56994538  0.01551447  1
  Si0+  Si118  1  0.57071827  0.17658064  0.98263420  1
  Si0+  Si119  1  0.57157461  0.17541229  0.31758154  1
  O2-  O120  1  0.25013423  0.00843827  0.06256586  1
  O2-  O121  1  0.24854211  0.00882546  0.39253225  1
  O2-  O122  1  0.25118536  0.00094359  0.73077923  1
  O2-  O123  1  0.25276962  0.49728285  0.06638200  1
  O2-  O124  1  0.25128944  0.49775642  0.39029723  1
  O2-  O125  1  0.24063717  0.49939314  0.72473431  1
  O2-  O126  1  0.75362884  0.00309810  0.06319053  1
  O2-  O127  1  0.74902404  0.00476301  0.39330490  1
  O2-  O128  1  0.75018278  -0.00130751  0.73141818  1
  O2-  O129  1  0.75234128  0.49765124  0.05842922  1
  O2-  O130  1  0.76001431  0.49861943  0.39044307  1
  O2-  O131  1  0.75114549  0.49921667  0.73371105  1
  O2-  O132  1  0.00124794  0.25120501  0.26745418  1
  O2-  O133  1  -0.00791069  0.25041707  0.60633912  1
  O2-  O134  1  0.00535671  0.24712938  0.93851769  1
  O2-  O135  1  0.00119985  0.74921563  0.27597260  1
  O2-  O136  1  -0.00287932  0.75341562  0.60500314  1
  O2-  O137  1  -0.00060575  0.76026486  0.93972778  1
  O2-  O138  1  0.50592584  0.24748519  0.27351109  1
  O2-  O139  1  0.50043043  0.25108945  0.60982045  1
  O2-  O140  1  0.50274400  0.24541991  0.93726435  1
  O2-  O141  1  0.50367863  0.75403889  0.27355972  1
  O2-  O142  1  0.50531661  0.75549243  0.60031946  1
  O2-  O143  1  0.50325096  0.75092542  0.94582938  1
  O2-  O144  1  0.06816197  0.17448464  0.08786654  1
  O2-  O145  1  0.06956527  0.17589887  0.42993165  1
  O2-  O146  1  0.06995631  0.18213958  0.76721840  1
  O2-  O147  1  0.06861738  0.68387519  0.10078859  1
  O2-  O148  1  0.07520124  0.67852347  0.42176179  1
  O2-  O149  1  0.07281952  0.67965950  0.76503862  1
  O2-  O150  1  0.56962815  0.17702704  0.08874766  1
  O2-  O151  1  0.56980247  0.17412862  0.42305411  1
  O2-  O152  1  0.57090540  0.18010396  0.75752812  1
  O2-  O153  1  0.57422243  0.67992545  0.09241924  1
  O2-  O154  1  0.57101178  0.67941344  0.42184086  1
  O2-  O155  1  0.56852007  0.67860007  0.76506062  1
  O2-  O156  1  0.17728831  0.43165522  0.24251754  1
  O2-  O157  1  0.18141987  0.42624758  0.57311989  1
  O2-  O158  1  0.17809875  0.43117924  0.90088921  1
  O2-  O159  1  0.18128332  0.92695699  0.23521519  1
  O2-  O160  1  0.18026220  0.93050815  0.56725150  1
  O2-  O161  1  0.18260431  0.92864377  0.90173774  1
  O2-  O162  1  0.67823777  0.43400235  0.23167036  1
  O2-  O163  1  0.67716448  0.42803717  0.56991323  1
  O2-  O164  1  0.67877259  0.43044519  0.91094411  1
  O2-  O165  1  0.67956037  0.92766860  0.23489923  1
  O2-  O166  1  0.67960894  0.93160067  0.56687992  1
  O2-  O167  1  0.67936391  0.92819798  0.90239009  1
  O2-  O168  1  0.43351060  0.32186120  0.09699019  1
  O2-  O169  1  0.43188706  0.32412142  0.43291528  1
  O2-  O170  1  0.42941669  0.32074513  0.75758627  1
  O2-  O171  1  0.43250300  0.81989523  0.09311583  1
  O2-  O172  1  0.42730629  0.81982996  0.42088404  1
  O2-  O173  1  0.42838303  0.82104738  0.76493537  1
  O2-  O174  1  0.92725224  0.31928577  0.09666427  1
  O2-  O175  1  0.92947710  0.32062144  0.43277921  1
  O2-  O176  1  0.92801660  0.32200723  0.75530530  1
  O2-  O177  1  0.92332765  0.81845393  0.09031333  1
  O2-  O178  1  0.92513474  0.81692680  0.42281036  1
  O2-  O179  1  0.92768121  0.82058676  0.75607550  1
  O2-  O180  1  0.32256796  0.07066463  0.24252182  1
  O2-  O181  1  0.31870534  0.07818918  0.56692284  1
  O2-  O182  1  0.32569459  0.07110026  0.91363254  1
  O2-  O183  1  0.32210080  0.57162512  0.24449809  1
  O2-  O184  1  0.31907470  0.56644308  0.56447476  1
  O2-  O185  1  0.32261533  0.57303702  0.90330635  1
  O2-  O186  1  0.81910325  0.06865108  0.24313311  1
  O2-  O187  1  0.82028473  0.07078163  0.56797003  1
  O2-  O188  1  0.82078973  0.07388971  0.91472994  1
  O2-  O189  1  0.82312729  0.57494737  0.24274716  1
  O2-  O190  1  0.82420168  0.56579314  0.56834117  1
  O2-  O191  1  0.81988274  0.57212359  0.91122903  1
  O2-  O192  1  0.03901936  0.07748445  0.26391836  1
  O2-  O193  1  0.03993853  0.08065779  0.60139744  1
  O2-  O194  1  0.04188915  0.08249035  0.93686826  1
  O2-  O195  1  0.04825558  0.58780579  0.26846555  1
  O2-  O196  1  0.04079613  0.58179524  0.59596210  1
  O2-  O197  1  0.03967927  0.58787129  0.93280807  1
  O2-  O198  1  0.54167806  0.08317471  0.26919116  1
  O2-  O199  1  0.54387347  0.08896004  0.60332797  1
  O2-  O200  1  0.54401478  0.08234882  0.93833221  1
  O2-  O201  1  0.54066829  0.59094208  0.26787184  1
  O2-  O202  1  0.53695112  0.58179075  0.59763882  1
  O2-  O203  1  0.54778038  0.58734063  0.93960569  1
  O2-  O204  1  0.16928481  0.20135787  0.26218313  1
  O2-  O205  1  0.16420582  0.21185129  0.59711797  1
  O2-  O206  1  0.16726044  0.19624664  0.93933058  1
  O2-  O207  1  0.16574407  0.71012933  0.26990085  1
  O2-  O208  1  0.16700896  0.70887997  0.59501211  1
  O2-  O209  1  0.17024261  0.71317450  0.93684823  1
  O2-  O210  1  0.66609813  0.19667368  0.27173093  1
  O2-  O211  1  0.66311491  0.20794118  0.60479957  1
  O2-  O212  1  0.66465055  0.20053670  0.93757197  1
  O2-  O213  1  0.66516018  0.70573379  0.27036799  1
  O2-  O214  1  0.67346178  0.69918587  0.59958931  1
  O2-  O215  1  0.66616019  0.70650564  0.94070472  1
  O2-  O216  1  0.08034938  0.46194766  0.06787862  1
  O2-  O217  1  0.08807511  0.45795955  0.39592336  1
  O2-  O218  1  0.08124935  0.44687424  0.72101483  1
  O2-  O219  1  0.08026250  0.95583334  0.06741535  1
  O2-  O220  1  0.07869834  0.95184708  0.39933531  1
  O2-  O221  1  0.08118198  0.95355662  0.73454484  1
  O2-  O222  1  0.58925889  0.45924509  0.06345961  1
  O2-  O223  1  0.58559903  0.46554922  0.39992437  1
  O2-  O224  1  0.58050706  0.46117974  0.73746142  1
  O2-  O225  1  0.58353618  0.95980854  0.07102704  1
  O2-  O226  1  0.57835941  0.95483757  0.39933207  1
  O2-  O227  1  0.57995389  0.95873443  0.73308422  1
  O2-  O228  1  0.20284842  0.32846624  0.06628353  1
  O2-  O229  1  0.20564610  0.33458824  0.39087840  1
  O2-  O230  1  0.20628784  0.33616364  0.72741745  1
  O2-  O231  1  0.21508892  0.83684391  0.07126026  1
  O2-  O232  1  0.21418237  0.83344477  0.40152382  1
  O2-  O233  1  0.21129757  0.83070401  0.73163869  1
  O2-  O234  1  0.70528869  0.33483523  0.06054365  1
  O2-  O235  1  0.70304177  0.32983201  0.39763664  1
  O2-  O236  1  0.70096869  0.33101812  0.73923066  1
  O2-  O237  1  0.71129355  0.83245485  0.07098225  1
  O2-  O238  1  0.71014749  0.83142630  0.40052900  1
  O2-  O239  1  0.70362825  0.82870232  0.73169442  1
  O2-  O240  1  0.46460045  0.41909675  0.26445490  1
  O2-  O241  1  0.45763687  0.41301337  0.60557161  1
  O2-  O242  1  0.46274857  0.41806282  0.93077496  1
  O2-  O243  1  0.45240324  0.91422524  0.26900904  1
  O2-  O244  1  0.45239428  0.92477259  0.59920287  1
  O2-  O245  1  0.45770399  0.91368082  0.94195251  1
  O2-  O246  1  0.95592064  0.42114290  0.26649336  1
  O2-  O247  1  0.95019467  0.41337881  0.60130746  1
  O2-  O248  1  0.95820378  0.41782973  0.92977509  1
  O2-  O249  1  0.95260899  0.90966625  0.26899339  1
  O2-  O250  1  0.95212717  0.91535039  0.60442620  1
  O2-  O251  1  0.94395724  0.92002408  0.94326169  1
  O2-  O252  1  0.33567581  0.29440392  0.26221774  1
  O2-  O253  1  0.33769409  0.29403769  0.60388284  1
  O2-  O254  1  0.33138791  0.29344157  0.93076591  1
  O2-  O255  1  0.33879352  0.78752964  0.26803348  1
  O2-  O256  1  0.33429567  0.78913459  0.59436783  1
  O2-  O257  1  0.33984286  0.79214900  0.94092152  1
  O2-  O258  1  0.82948666  0.29276792  0.26569394  1
  O2-  O259  1  0.82902028  0.29673534  0.60809836  1
  O2-  O260  1  0.83207984  0.29013929  0.92967119  1
  O2-  O261  1  0.83697527  0.78746066  0.26833956  1
  O2-  O262  1  0.83493793  0.79431503  0.60313205  1
  O2-  O263  1  0.83408870  0.79188823  0.93780074  1
  O2-  O264  1  0.41432423  0.04424383  0.06777741  1
  O2-  O265  1  0.41244675  0.04596616  0.39538732  1
  O2-  O266  1  0.41926624  0.05178652  0.73495303  1
  O2-  O267  1  0.42261159  0.54297050  0.06927090  1
  O2-  O268  1  0.41379241  0.54266263  0.39580169  1
  O2-  O269  1  0.41290667  0.53864484  0.73411631  1
  O2-  O270  1  0.91420809  0.05027627  0.06759898  1
  O2-  O271  1  0.91256040  0.03973238  0.39439056  1
  O2-  O272  1  0.91866446  0.04322701  0.73785771  1
  O2-  O273  1  0.91388950  0.54325103  0.06250723  1
  O2-  O274  1  0.92113108  0.55138093  0.39271484  1
  O2-  O275  1  0.92199962  0.54034675  0.73533571  1
  O2-  O276  1  0.30097631  0.16872050  0.06269888  1
  O2-  O277  1  0.29952664  0.17047808  0.39073056  1
  O2-  O278  1  0.28920008  0.17202701  0.73526695  1
  O2-  O279  1  0.29361581  0.66815522  0.07257987  1
  O2-  O280  1  0.29224511  0.66130740  0.39666492  1
  O2-  O281  1  0.29062947  0.66706988  0.73082079  1
  O2-  O282  1  0.79142507  0.16669914  0.06633769  1
  O2-  O283  1  0.79878053  0.16468228  0.39485041  1
  O2-  O284  1  0.79271265  0.16817634  0.73686627  1
  O2-  O285  1  0.79285702  0.66055073  0.06616639  1
  O2-  O286  1  0.79589042  0.66283641  0.39665599  1
  O2-  O287  1  0.79849422  0.66841955  0.73624954  1
