# generated using pymatgen
data_Ca2Al2SiO7
_symmetry_space_group_name_H-M   'P 1'
_cell_length_a   15.45357191
_cell_length_b   15.45389520
_cell_length_c   15.28042803
_cell_angle_alpha   90.00046168
_cell_angle_beta   90.01359134
_cell_angle_gamma   90.01161366
_symmetry_Int_Tables_number   1
_chemical_formula_structural   Ca2Al2SiO7
_chemical_formula_sum   'Ca48 Al48 Si24 O168'
_cell_volume   3649.23926060
_cell_formula_units_Z   24
loop_
 _symmetry_equiv_pos_site_id
 _symmetry_equiv_pos_as_xyz
  1  'x, y, z'
loop_
 _atom_type_symbol
 _atom_type_oxidation_number
  Ca2+  2.0
  Al0+  0.0
  Si0+  0.0
  O2-  -2.0
loop_
 _atom_site_type_symbol
 _atom_site_label
 _atom_site_symmetry_multiplicity
 _atom_site_fract_x
 _atom_site_fract_y
 _atom_site_fract_z
 _atom_site_occupancy
  Ca2+  Ca0  1  0.17061644  0.09093018  0.17491310  1
  Ca2+  Ca1  1  0.16856732  0.08288923  0.50010564  1
  Ca2+  Ca2  1  0.15836848  0.07837651  0.83546889  1
  Ca2+  Ca3  1  0.16953838  0.57233186  0.17368844  1
  Ca2+  Ca4  1  0.16510978  0.57893521  0.50956912  1
  Ca2+  Ca5  1  0.17186368  0.57677713  0.83753743  1
  Ca2+  Ca6  1  0.66764939  0.07359094  0.17935328  1
  Ca2+  Ca7  1  0.66846985  0.07578970  0.50188104  1
  Ca2+  Ca8  1  0.66895589  0.07079955  0.83780759  1
  Ca2+  Ca9  1  0.65934642  0.58151847  0.16662152  1
  Ca2+  Ca10  1  0.67161559  0.58008033  0.50874425  1
  Ca2+  Ca11  1  0.67192682  0.57729079  0.83791265  1
  Ca2+  Ca12  1  0.09244305  0.32492403  0.16285268  1
  Ca2+  Ca13  1  0.07821687  0.33934533  0.49488795  1
  Ca2+  Ca14  1  0.08511439  0.33271353  0.82764748  1
  Ca2+  Ca15  1  0.08350235  0.82713937  0.16424927  1
  Ca2+  Ca16  1  0.08482140  0.82343083  0.49982775  1
  Ca2+  Ca17  1  0.07626811  0.82787108  0.81753093  1
  Ca2+  Ca18  1  0.57785053  0.32874011  0.15780849  1
  Ca2+  Ca19  1  0.58312094  0.32889215  0.49354884  1
  Ca2+  Ca20  1  0.57968239  0.34530032  0.83115591  1
  Ca2+  Ca21  1  0.59087418  0.82581679  0.16314620  1
  Ca2+  Ca22  1  0.58783734  0.83073478  0.49362824  1
  Ca2+  Ca23  1  0.58763481  0.82949064  0.83060321  1
  Ca2+  Ca24  1  0.32708342  0.41396736  0.16520780  1
  Ca2+  Ca25  1  0.31959856  0.42272480  0.50631486  1
  Ca2+  Ca26  1  0.32657727  0.42555411  0.83942658  1
  Ca2+  Ca27  1  0.33259805  0.92545766  0.17299557  1
  Ca2+  Ca28  1  0.32941999  0.92350439  0.50349614  1
  Ca2+  Ca29  1  0.32498356  0.91606026  0.83258200  1
  Ca2+  Ca30  1  0.82689602  0.41546721  0.16764888  1
  Ca2+  Ca31  1  0.82974540  0.42148883  0.51202107  1
  Ca2+  Ca32  1  0.82816031  0.41724349  0.83093783  1
  Ca2+  Ca33  1  0.82371102  0.92243853  0.17330743  1
  Ca2+  Ca34  1  0.82813141  0.91773286  0.50323026  1
  Ca2+  Ca35  1  0.82428084  0.90685162  0.83482805  1
  Ca2+  Ca36  1  0.41860110  0.17003643  0.16367141  1
  Ca2+  Ca37  1  0.42153285  0.16601691  0.49146625  1
  Ca2+  Ca38  1  0.41819935  0.17643200  0.83245486  1
  Ca2+  Ca39  1  0.42707027  0.66243596  0.16032883  1
  Ca2+  Ca40  1  0.42075538  0.66657819  0.49586830  1
  Ca2+  Ca41  1  0.41991262  0.65486855  0.83237718  1
  Ca2+  Ca42  1  0.92696044  0.16070374  0.16480031  1
  Ca2+  Ca43  1  0.91918080  0.17241620  0.49388076  1
  Ca2+  Ca44  1  0.92088792  0.17450890  0.82823352  1
  Ca2+  Ca45  1  0.92287918  0.66518462  0.16738998  1
  Ca2+  Ca46  1  0.92429569  0.66558819  0.50125365  1
  Ca2+  Ca47  1  0.92193319  0.66845115  0.82040561  1
  Al0+  Al48  1  -0.00079509  -0.00084229  -0.00443381  1
  Al0+  Al49  1  -0.00127304  0.00081547  0.33305563  1
  Al0+  Al50  1  -0.00021560  0.00102708  0.66485661  1
  Al0+  Al51  1  -0.00011697  0.49874678  0.00382016  1
  Al0+  Al52  1  -0.00205092  0.50042050  0.33029426  1
  Al0+  Al53  1  -0.00069874  0.49836122  0.66691789  1
  Al0+  Al54  1  0.49910289  -0.00183617  0.00259127  1
  Al0+  Al55  1  0.49838830  0.00032814  0.33732878  1
  Al0+  Al56  1  0.50130057  -0.00021354  0.67159924  1
  Al0+  Al57  1  0.50106299  0.50035676  -0.00083006  1
  Al0+  Al58  1  0.49783256  0.50103204  0.32971346  1
  Al0+  Al59  1  0.49827435  0.49915941  0.66784118  1
  Al0+  Al60  1  0.25090543  0.24890860  -0.00850399  1
  Al0+  Al61  1  0.24838506  0.25152889  0.34051092  1
  Al0+  Al62  1  0.25314608  0.25037957  0.66814353  1
  Al0+  Al63  1  0.25168725  0.75040679  0.00482352  1
  Al0+  Al64  1  0.25054814  0.74952875  0.32687093  1
  Al0+  Al65  1  0.25279296  0.75283006  0.66974996  1
  Al0+  Al66  1  0.75251703  0.24902042  0.00372064  1
  Al0+  Al67  1  0.74882850  0.24913302  0.33136655  1
  Al0+  Al68  1  0.75030054  0.24800974  0.66667634  1
  Al0+  Al69  1  0.75005153  0.74976209  0.00135913  1
  Al0+  Al70  1  0.75005663  0.74901091  0.33148166  1
  Al0+  Al71  1  0.75062289  0.75032417  0.66922658  1
  Al0+  Al72  1  0.43150932  0.31964132  0.98522635  1
  Al0+  Al73  1  0.17735387  0.42833415  0.68196177  1
  Al0+  Al74  1  0.17861961  0.42723526  0.01602518  1
  Al0+  Al75  1  0.67972800  0.42878339  0.01474909  1
  Al0+  Al76  1  0.17864415  0.43077094  0.34774781  1
  Al0+  Al77  1  0.07155853  0.67790957  0.31812499  1
  Al0+  Al78  1  0.67899662  0.92912001  0.01546122  1
  Al0+  Al79  1  0.57107463  0.67940959  0.32047954  1
  Al0+  Al80  1  0.07072628  0.17956947  0.98489958  1
  Al0+  Al81  1  0.57064754  0.17841333  0.32035401  1
  Al0+  Al82  1  0.92646490  0.82246931  0.64999717  1
  Al0+  Al83  1  0.32152821  0.57180979  0.01829223  1
  Al0+  Al84  1  0.31941901  0.07156333  0.34625030  1
  Al0+  Al85  1  0.92922232  0.31968925  0.65311869  1
  Al0+  Al86  1  0.82103783  0.57117634  0.68053739  1
  Al0+  Al87  1  0.67949779  0.92769413  0.34939938  1
  Al0+  Al88  1  0.32096474  0.57318364  0.68038560  1
  Al0+  Al89  1  0.67827125  0.42640220  0.67948729  1
  Al0+  Al90  1  0.68000673  0.92931135  0.68147729  1
  Al0+  Al91  1  0.82270904  0.07281099  0.34945297  1
  Al0+  Al92  1  0.57021157  0.68105959  0.98375348  1
  Al0+  Al93  1  0.07334127  0.67910078  0.65376808  1
  Al0+  Al94  1  0.17915116  0.93194288  0.67806008  1
  Al0+  Al95  1  0.07003723  0.18072097  0.32183876  1
  Si0+  Si96  1  0.92835405  0.82181179  0.31532325  1
  Si0+  Si97  1  0.82277058  0.07265664  0.68440580  1
  Si0+  Si98  1  0.67651363  0.42949769  0.34600532  1
  Si0+  Si99  1  0.93098907  0.81916868  0.98553689  1
  Si0+  Si100  1  0.82220477  0.57280563  0.01867135  1
  Si0+  Si101  1  0.42775762  0.32132714  0.31764037  1
  Si0+  Si102  1  0.57412389  0.17547523  0.98396126  1
  Si0+  Si103  1  0.17707363  0.92537323  0.34813410  1
  Si0+  Si104  1  0.42740231  0.82309695  0.31661829  1
  Si0+  Si105  1  0.32403482  0.07240839  0.68549289  1
  Si0+  Si106  1  0.82034701  0.56995232  0.34759866  1
  Si0+  Si107  1  0.92620710  0.32350081  0.98289446  1
  Si0+  Si108  1  0.56976903  0.67922677  0.65295402  1
  Si0+  Si109  1  0.42957871  0.32187992  0.64945968  1
  Si0+  Si110  1  0.43024379  0.82416663  0.65164460  1
  Si0+  Si111  1  0.31923867  0.07036307  0.01322465  1
  Si0+  Si112  1  0.42622722  0.82449827  0.98175027  1
  Si0+  Si113  1  0.07252397  0.67820621  0.98618200  1
  Si0+  Si114  1  0.07432286  0.17822563  0.64834297  1
  Si0+  Si115  1  0.32244733  0.57321839  0.34953760  1
  Si0+  Si116  1  0.56957299  0.17713883  0.65262918  1
  Si0+  Si117  1  0.17655141  0.92926469  0.01495153  1
  Si0+  Si118  1  0.82324518  0.07123012  0.01649621  1
  Si0+  Si119  1  0.92619681  0.32311921  0.31491157  1
  O2-  O120  1  0.24748408  0.00038903  0.05650998  1
  O2-  O121  1  0.24490055  -0.00435036  0.39112784  1
  O2-  O122  1  0.24989352  0.00900450  0.72852369  1
  O2-  O123  1  0.24795158  0.50107887  0.06766991  1
  O2-  O124  1  0.24976160  0.50944238  0.39347894  1
  O2-  O125  1  0.24695817  0.50335153  0.73019989  1
  O2-  O126  1  0.74934371  0.00830017  0.06056873  1
  O2-  O127  1  0.75048301  0.00079483  0.39913275  1
  O2-  O128  1  0.75820232  0.00001515  0.72889276  1
  O2-  O129  1  0.75444770  0.50285455  0.06284472  1
  O2-  O130  1  0.74787284  0.49955078  0.38848735  1
  O2-  O131  1  0.74913461  0.49896140  0.73001507  1
  O2-  O132  1  -0.00521778  0.25336018  0.27204977  1
  O2-  O133  1  0.00792631  0.24937775  0.60528907  1
  O2-  O134  1  -0.00232302  0.25658127  0.94017893  1
  O2-  O135  1  -0.00054052  0.75532575  0.27049741  1
  O2-  O136  1  0.00042119  0.75069956  0.60271909  1
  O2-  O137  1  0.00207910  0.74882978  0.94314277  1
  O2-  O138  1  0.49768282  0.25408430  0.27273263  1
  O2-  O139  1  0.50108132  0.25032012  0.60911944  1
  O2-  O140  1  0.51037503  0.24782459  0.93792290  1
  O2-  O141  1  0.49722221  0.75512274  0.27346490  1
  O2-  O142  1  0.49999686  0.75146509  0.61035943  1
  O2-  O143  1  0.49397947  0.75494546  0.93735505  1
  O2-  O144  1  0.07078113  0.17731558  0.09814786  1
  O2-  O145  1  0.07037614  0.18278559  0.43448509  1
  O2-  O146  1  0.07177742  0.17706910  0.75430339  1
  O2-  O147  1  0.07010746  0.68079342  0.09161058  1
  O2-  O148  1  0.07097604  0.67807964  0.43070621  1
  O2-  O149  1  0.07275557  0.68241943  0.76796829  1
  O2-  O150  1  0.56983471  0.17463572  0.08950629  1
  O2-  O151  1  0.56905386  0.18088154  0.43394388  1
  O2-  O152  1  0.56645350  0.17434909  0.75780039  1
  O2-  O153  1  0.57042002  0.68355584  0.09708826  1
  O2-  O154  1  0.56961508  0.67754075  0.43395836  1
  O2-  O155  1  0.56890588  0.67987043  0.75796358  1
  O2-  O156  1  0.18234379  0.42798910  0.23482419  1
  O2-  O157  1  0.17980546  0.42840041  0.56805985  1
  O2-  O158  1  0.17846676  0.42893367  0.90292046  1
  O2-  O159  1  0.17891983  0.92519148  0.24190719  1
  O2-  O160  1  0.18352679  0.93196954  0.56499585  1
  O2-  O161  1  0.17597340  0.92932584  0.90990738  1
  O2-  O162  1  0.67682337  0.43073685  0.24085207  1
  O2-  O163  1  0.67757411  0.42792283  0.56508218  1
  O2-  O164  1  0.68189018  0.43067890  0.90207277  1
  O2-  O165  1  0.68190495  0.92781478  0.23558126  1
  O2-  O166  1  0.67605886  0.93188816  0.56902066  1
  O2-  O167  1  0.68127527  0.92883434  0.90216616  1
  O2-  O168  1  0.43052827  0.31455266  0.09862308  1
  O2-  O169  1  0.43060931  0.32193388  0.42348686  1
  O2-  O170  1  0.42969216  0.32114667  0.75453885  1
  O2-  O171  1  0.42613044  0.82787283  0.08718562  1
  O2-  O172  1  0.42494206  0.82177277  0.42242894  1
  O2-  O173  1  0.43143247  0.82834971  0.75654826  1
  O2-  O174  1  0.92345720  0.32207781  0.08845115  1
  O2-  O175  1  0.92633220  0.32478100  0.42046786  1
  O2-  O176  1  0.92674131  0.31546789  0.76621757  1
  O2-  O177  1  0.93318004  0.82064791  0.09081430  1
  O2-  O178  1  0.92718513  0.82011476  0.42033449  1
  O2-  O179  1  0.92808003  0.82055893  0.76446848  1
  O2-  O180  1  0.31814607  0.07136749  0.23257994  1
  O2-  O181  1  0.32698002  0.07069069  0.57995593  1
  O2-  O182  1  0.31980503  0.06791096  0.90814974  1
  O2-  O183  1  0.32436220  0.57084916  0.24426898  1
  O2-  O184  1  0.32413098  0.57055074  0.56635697  1
  O2-  O185  1  0.31863382  0.57151627  0.90491367  1
  O2-  O186  1  0.82306686  0.06965778  0.23542468  1
  O2-  O187  1  0.81929319  0.07511033  0.57920662  1
  O2-  O188  1  0.82422848  0.06939985  0.91086875  1
  O2-  O189  1  0.82144640  0.56873747  0.24220131  1
  O2-  O190  1  0.81754514  0.57074962  0.56629147  1
  O2-  O191  1  0.82262633  0.57472063  0.91357333  1
  O2-  O192  1  0.04379991  0.08235044  0.26694679  1
  O2-  O193  1  0.04741405  0.08542775  0.60190481  1
  O2-  O194  1  0.03705343  0.08318422  0.93000264  1
  O2-  O195  1  0.03512000  0.58389148  0.26179120  1
  O2-  O196  1  0.04449603  0.58075937  0.60173658  1
  O2-  O197  1  0.04481741  0.58537329  0.94149401  1
  O2-  O198  1  0.53769060  0.08190959  0.26745492  1
  O2-  O199  1  0.53753531  0.08666334  0.60450904  1
  O2-  O200  1  0.54285237  0.08316311  0.93750932  1
  O2-  O201  1  0.53848455  0.58370086  0.26419293  1
  O2-  O202  1  0.54098075  0.58771203  0.60488459  1
  O2-  O203  1  0.54126050  0.58392300  0.93065786  1
  O2-  O204  1  0.16731224  0.21340391  0.26882955  1
  O2-  O205  1  0.17111307  0.19903859  0.60650088  1
  O2-  O206  1  0.16685060  0.20490770  0.92790003  1
  O2-  O207  1  0.16824706  0.70631117  0.26208015  1
  O2-  O208  1  0.17182985  0.71095818  0.60148524  1
  O2-  O209  1  0.16541897  0.70629761  0.94219176  1
  O2-  O210  1  0.66706734  0.20670813  0.26465667  1
  O2-  O211  1  0.66223721  0.20167160  0.60618446  1
  O2-  O212  1  0.67079168  0.19506498  0.94220485  1
  O2-  O213  1  0.66781788  0.70751841  0.26468302  1
  O2-  O214  1  0.66186439  0.70661393  0.60660999  1
  O2-  O215  1  0.66782732  0.71292038  0.93170341  1
  O2-  O216  1  0.07870073  0.45143109  0.06884464  1
  O2-  O217  1  0.07955993  0.45982513  0.39715152  1
  O2-  O218  1  0.07809782  0.45081774  0.73382401  1
  O2-  O219  1  0.08437234  0.95645313  0.06170425  1
  O2-  O220  1  0.08326589  0.94937158  0.39261028  1
  O2-  O221  1  0.08181098  0.95997611  0.73315642  1
  O2-  O222  1  0.58383248  0.45994502  0.06868564  1
  O2-  O223  1  0.58429666  0.45732129  0.39277147  1
  O2-  O224  1  0.58038305  0.45592616  0.73123611  1
  O2-  O225  1  0.58035818  0.95496289  0.06784447  1
  O2-  O226  1  0.58007896  0.95397813  0.40055492  1
  O2-  O227  1  0.58523109  0.96343090  0.73794171  1
  O2-  O228  1  0.21222657  0.32758078  0.06432532  1
  O2-  O229  1  0.21123238  0.33710594  0.40522299  1
  O2-  O230  1  0.20944507  0.32992135  0.73349654  1
  O2-  O231  1  0.20451430  0.83845341  0.06423195  1
  O2-  O232  1  0.20559040  0.83217322  0.39342564  1
  O2-  O233  1  0.21343387  0.83835600  0.73558611  1
  O2-  O234  1  0.70855363  0.33083313  0.06896966  1
  O2-  O235  1  0.70220404  0.33681400  0.39189542  1
  O2-  O236  1  0.70512967  0.32791821  0.73279389  1
  O2-  O237  1  0.71488681  0.83410959  0.06910201  1
  O2-  O238  1  0.70922806  0.82865789  0.40055669  1
  O2-  O239  1  0.70820815  0.83269464  0.73617295  1
  O2-  O240  1  0.45193449  0.41460807  0.27025036  1
  O2-  O241  1  0.45720843  0.41288050  0.60039760  1
  O2-  O242  1  0.46152358  0.41618326  0.93151730  1
  O2-  O243  1  0.45156505  0.91730502  0.27135933  1
  O2-  O244  1  0.46040635  0.91537730  0.60344366  1
  O2-  O245  1  0.45224875  0.91783609  0.93433915  1
  O2-  O246  1  0.95095387  0.41601090  0.26722029  1
  O2-  O247  1  0.95498114  0.41703609  0.59819514  1
  O2-  O248  1  0.94888343  0.41872631  0.93887233  1
  O2-  O249  1  0.95233523  0.91572048  0.26869627  1
  O2-  O250  1  0.95360832  0.92191022  0.59880491  1
  O2-  O251  1  0.95726981  0.91030480  0.93610680  1
  O2-  O252  1  0.33475749  0.29188303  0.27375667  1
  O2-  O253  1  0.33825055  0.29245102  0.60134255  1
  O2-  O254  1  0.33833550  0.28464022  0.92719792  1
  O2-  O255  1  0.33477712  0.79938142  0.26690052  1
  O2-  O256  1  0.33873538  0.79846376  0.60317388  1
  O2-  O257  1  0.33091019  0.80024957  0.93744961  1
  O2-  O258  1  0.83232294  0.29820936  0.26872854  1
  O2-  O259  1  0.83282276  0.28659285  0.59807019  1
  O2-  O260  1  0.83363387  0.29443953  0.93551482  1
  O2-  O261  1  0.83673772  0.79149286  0.26717504  1
  O2-  O262  1  0.82795786  0.79322461  0.59767738  1
  O2-  O263  1  0.83913117  0.79029395  0.93942173  1
  O2-  O264  1  0.41050643  0.04243187  0.06229142  1
  O2-  O265  1  0.41417451  0.04046442  0.40348033  1
  O2-  O266  1  0.41414539  0.04077504  0.73477096  1
  O2-  O267  1  0.42010015  0.54123331  0.06856914  1
  O2-  O268  1  0.41488421  0.54376902  0.39675814  1
  O2-  O269  1  0.41728142  0.53937131  0.73438012  1
  O2-  O270  1  0.91482024  0.03773997  0.06302790  1
  O2-  O271  1  0.92132016  0.04526687  0.40250738  1
  O2-  O272  1  0.91825363  0.05249484  0.72838709  1
  O2-  O273  1  0.91562267  0.54738145  0.06606843  1
  O2-  O274  1  0.91124591  0.54131908  0.39543982  1
  O2-  O275  1  0.91851588  0.54316489  0.73418448  1
  O2-  O276  1  0.29152428  0.16206540  0.05931401  1
  O2-  O277  1  0.28890673  0.16576622  0.40447950  1
  O2-  O278  1  0.30392734  0.16766061  0.72983227  1
  O2-  O279  1  0.29742523  0.67205956  0.07102666  1
  O2-  O280  1  0.30186515  0.66973116  0.39148608  1
  O2-  O281  1  0.30131769  0.67310683  0.73348469  1
  O2-  O282  1  0.80637087  0.16641871  0.06218009  1
  O2-  O283  1  0.79393827  0.17215761  0.40073355  1
  O2-  O284  1  0.79162490  0.16307349  0.73376106  1
  O2-  O285  1  0.79484721  0.66517538  0.06650161  1
  O2-  O286  1  0.79352874  0.66189738  0.39378013  1
  O2-  O287  1  0.79286655  0.66852160  0.73519902  1
