# generated using pymatgen
data_Ca2Al2SiO7
_symmetry_space_group_name_H-M   'P 1'
_cell_length_a   15.46122172
_cell_length_b   15.46100958
_cell_length_c   15.28639913
_cell_angle_alpha   90.01170246
_cell_angle_beta   89.99707938
_cell_angle_gamma   90.02311358
_symmetry_Int_Tables_number   1
_chemical_formula_structural   Ca2Al2SiO7
_chemical_formula_sum   'Ca48 Al48 Si24 O168'
_cell_volume   3654.15367306
_cell_formula_units_Z   24
loop_
 _symmetry_equiv_pos_site_id
 _symmetry_equiv_pos_as_xyz
  1  'x, y, z'
loop_
 _atom_type_symbol
 _atom_type_oxidation_number
  Ca2+  2.0
  Al0+  0.0
  Si0+  0.0
  O2-  -2.0
loop_
 _atom_site_type_symbol
 _atom_site_label
 _atom_site_symmetry_multiplicity
 _atom_site_fract_x
 _atom_site_fract_y
 _atom_site_fract_z
 _atom_site_occupancy
  Ca2+  Ca0  1  0.18008763  0.07782037  0.17327298  1
  Ca2+  Ca1  1  0.17630643  0.07820259  0.50580384  1
  Ca2+  Ca2  1  0.18172935  0.08800564  0.83603255  1
  Ca2+  Ca3  1  0.17567641  0.57751576  0.16937396  1
  Ca2+  Ca4  1  0.17843369  0.58138969  0.50886581  1
  Ca2+  Ca5  1  0.16947395  0.57539812  0.82986874  1
  Ca2+  Ca6  1  0.65873707  0.06944675  0.16940971  1
  Ca2+  Ca7  1  0.66095950  0.08208578  0.50384800  1
  Ca2+  Ca8  1  0.66101503  0.08141065  0.83619504  1
  Ca2+  Ca9  1  0.66104940  0.57447889  0.16576049  1
  Ca2+  Ca10  1  0.66644710  0.56556225  0.50472293  1
  Ca2+  Ca11  1  0.66870989  0.57225067  0.84151886  1
  Ca2+  Ca12  1  0.07953814  0.33808840  0.16157508  1
  Ca2+  Ca13  1  0.07138358  0.34571639  0.49780549  1
  Ca2+  Ca14  1  0.07800342  0.34396821  0.82569587  1
  Ca2+  Ca15  1  0.08555895  0.83442334  0.16403775  1
  Ca2+  Ca16  1  0.09699570  0.83047160  0.49880653  1
  Ca2+  Ca17  1  0.08581888  0.82636347  0.82188048  1
  Ca2+  Ca18  1  0.57213877  0.33985030  0.16270490  1
  Ca2+  Ca19  1  0.57578060  0.33172193  0.49739328  1
  Ca2+  Ca20  1  0.57504324  0.33404128  0.82451279  1
  Ca2+  Ca21  1  0.58189048  0.82890778  0.15331933  1
  Ca2+  Ca22  1  0.58150407  0.83006330  0.49450154  1
  Ca2+  Ca23  1  0.58167234  0.82942736  0.83641058  1
  Ca2+  Ca24  1  0.33349775  0.41587430  0.17181524  1
  Ca2+  Ca25  1  0.33720619  0.42418980  0.50873507  1
  Ca2+  Ca26  1  0.32723517  0.41062829  0.83683046  1
  Ca2+  Ca27  1  0.33950722  0.92903204  0.17245959  1
  Ca2+  Ca28  1  0.32709589  0.92940927  0.50573805  1
  Ca2+  Ca29  1  0.33724879  0.92830034  0.83599692  1
  Ca2+  Ca30  1  0.82103439  0.41868257  0.16946152  1
  Ca2+  Ca31  1  0.82352295  0.40195746  0.50345467  1
  Ca2+  Ca32  1  0.82144968  0.41548589  0.83809631  1
  Ca2+  Ca33  1  0.81915607  0.91342606  0.16982569  1
  Ca2+  Ca34  1  0.82602100  0.91682515  0.50072260  1
  Ca2+  Ca35  1  0.82704425  0.91895070  0.83982474  1
  Ca2+  Ca36  1  0.40947399  0.17420226  0.16230477  1
  Ca2+  Ca37  1  0.40981367  0.17653189  0.49966494  1
  Ca2+  Ca38  1  0.41802871  0.17395969  0.82790614  1
  Ca2+  Ca39  1  0.42120291  0.67380537  0.15829552  1
  Ca2+  Ca40  1  0.41173591  0.66244450  0.49521650  1
  Ca2+  Ca41  1  0.41668660  0.66959386  0.83131647  1
  Ca2+  Ca42  1  0.91824678  0.17171326  0.16672125  1
  Ca2+  Ca43  1  0.91963295  0.17748704  0.49574000  1
  Ca2+  Ca44  1  0.92096527  0.17394252  0.82332250  1
  Ca2+  Ca45  1  0.91623597  0.66396493  0.15963199  1
  Ca2+  Ca46  1  0.92720437  0.66513441  0.49871407  1
  Ca2+  Ca47  1  0.92127995  0.66206850  0.82870622  1
  Al0+  Al48  1  0.00138743  0.00089204  -0.00159742  1
  Al0+  Al49  1  -0.00140310  -0.00186707  0.33413310  1
  Al0+  Al50  1  -0.00339534  -0.00051690  0.66781068  1
  Al0+  Al51  1  0.00020928  0.50021677  0.00708216  1
  Al0+  Al52  1  -0.00086514  0.50223633  0.32479855  1
  Al0+  Al53  1  0.00054218  0.50374383  0.65802930  1
  Al0+  Al54  1  0.49963830  0.00115268  0.00437199  1
  Al0+  Al55  1  0.49950749  0.00024568  0.34351553  1
  Al0+  Al56  1  0.50027748  -0.00208272  0.66673760  1
  Al0+  Al57  1  0.49885156  0.50140819  -0.00544389  1
  Al0+  Al58  1  0.50191763  0.49910580  0.33655857  1
  Al0+  Al59  1  0.50207179  0.50141098  0.67141025  1
  Al0+  Al60  1  0.24860872  0.24915587  0.00559601  1
  Al0+  Al61  1  0.24720897  0.25048083  0.33354203  1
  Al0+  Al62  1  0.24899268  0.24979372  0.66933470  1
  Al0+  Al63  1  0.24838817  0.75026300  -0.00627425  1
  Al0+  Al64  1  0.25156258  0.74864836  0.33520458  1
  Al0+  Al65  1  0.25029607  0.74993637  0.66930123  1
  Al0+  Al66  1  0.75065042  0.25050853  0.00461392  1
  Al0+  Al67  1  0.75008361  0.24821522  0.32871296  1
  Al0+  Al68  1  0.74964503  0.24752269  0.66411170  1
  Al0+  Al69  1  0.75188894  0.75038597  0.00095679  1
  Al0+  Al70  1  0.75194409  0.74874053  0.33810942  1
  Al0+  Al71  1  0.74997918  0.74967050  0.66466377  1
  Al0+  Al72  1  0.92801381  0.32108760  0.31527794  1
  Al0+  Al73  1  0.57292846  0.67921345  0.98400161  1
  Al0+  Al74  1  0.17843185  0.92809746  0.34676054  1
  Al0+  Al75  1  0.32114540  0.07474103  0.35091295  1
  Al0+  Al76  1  0.68088137  0.42829196  0.34780285  1
  Al0+  Al77  1  0.17759631  0.92957782  0.68294252  1
  Al0+  Al78  1  0.18034229  0.42982040  0.01468802  1
  Al0+  Al79  1  0.57056370  0.17721061  0.65194565  1
  Al0+  Al80  1  0.32363902  0.57128432  0.68398744  1
  Al0+  Al81  1  0.82103049  0.57010499  0.01387760  1
  Al0+  Al82  1  0.42814821  0.82377747  0.98491175  1
  Al0+  Al83  1  0.67507928  0.42758507  0.01558724  1
  Al0+  Al84  1  0.67881980  0.92740636  0.34860732  1
  Al0+  Al85  1  0.32062090  0.06984549  0.01515244  1
  Al0+  Al86  1  0.68127820  0.93169037  0.01157163  1
  Al0+  Al87  1  0.32205420  0.07182799  0.68414890  1
  Al0+  Al88  1  0.42757904  0.32065448  0.98707104  1
  Al0+  Al89  1  0.42892551  0.32127807  0.32004932  1
  Al0+  Al90  1  0.93041883  0.32121561  0.65445625  1
  Al0+  Al91  1  0.68128022  0.42644550  0.68016988  1
  Al0+  Al92  1  0.07145365  0.68176606  0.65146510  1
  Al0+  Al93  1  0.42761671  0.32232686  0.65221400  1
  Al0+  Al94  1  0.32147875  0.56811591  0.34418455  1
  Al0+  Al95  1  0.17737282  0.42967581  0.67857478  1
  Si0+  Si96  1  0.57323002  0.67937349  0.64989818  1
  Si0+  Si97  1  0.17530018  0.42912449  0.34836018  1
  Si0+  Si98  1  0.43025699  0.81947565  0.65022343  1
  Si0+  Si99  1  0.17658533  0.92654146  0.01506314  1
  Si0+  Si100  1  0.07154334  0.17562335  0.65053552  1
  Si0+  Si101  1  0.57306205  0.17853102  0.98663969  1
  Si0+  Si102  1  0.32149936  0.57467969  0.01543533  1
  Si0+  Si103  1  0.06995351  0.67778436  0.98442146  1
  Si0+  Si104  1  0.81928583  0.07045703  0.68127314  1
  Si0+  Si105  1  0.07012623  0.17888111  0.98507736  1
  Si0+  Si106  1  0.92576283  0.82356586  0.64810374  1
  Si0+  Si107  1  0.43040158  0.82053176  0.32099873  1
  Si0+  Si108  1  0.92994837  0.32117808  0.98545093  1
  Si0+  Si109  1  0.82132938  0.57322594  0.68036667  1
  Si0+  Si110  1  0.07263746  0.68136449  0.31502740  1
  Si0+  Si111  1  0.82423777  0.57172618  0.35182215  1
  Si0+  Si112  1  0.82640936  0.07319198  0.01711120  1
  Si0+  Si113  1  0.57120811  0.17595528  0.31571575  1
  Si0+  Si114  1  0.07046517  0.17574209  0.31557828  1
  Si0+  Si115  1  0.57277489  0.67952869  0.32019681  1
  Si0+  Si116  1  0.82162723  0.07086210  0.35008727  1
  Si0+  Si117  1  0.92985966  0.82202696  0.98521042  1
  Si0+  Si118  1  0.67925638  0.92630975  0.68261279  1
  Si0+  Si119  1  0.92728950  0.82065313  0.31674167  1
  O2-  O120  1  0.24912547  -0.00976616  0.05940385  1
  O2-  O121  1  0.24726925  0.00221650  0.39676109  1
  O2-  O122  1  0.24716989  0.00222082  0.73440256  1
  O2-  O123  1  0.25785754  0.50190465  0.06078508  1
  O2-  O124  1  0.24897218  0.49189636  0.39163503  1
  O2-  O125  1  0.25478052  0.49441997  0.73107400  1
  O2-  O126  1  0.75532227  0.00645650  0.06011911  1
  O2-  O127  1  0.75121926  0.00433587  0.39527399  1
  O2-  O128  1  0.74858115  -0.00072529  0.72364695  1
  O2-  O129  1  0.74616435  0.50179182  0.06449686  1
  O2-  O130  1  0.75937977  0.49959023  0.39531302  1
  O2-  O131  1  0.75616120  0.50219744  0.72476097  1
  O2-  O132  1  0.00549904  0.24800189  0.26992539  1
  O2-  O133  1  0.00896113  0.25037889  0.60666965  1
  O2-  O134  1  -0.00180535  0.24855017  0.94210038  1
  O2-  O135  1  0.00065475  0.75242498  0.27361474  1
  O2-  O136  1  -0.00116947  0.75953769  0.60430525  1
  O2-  O137  1  0.00134473  0.75200130  0.94301542  1
  O2-  O138  1  0.50127507  0.24366937  0.27230558  1
  O2-  O139  1  0.49813069  0.24845259  0.60193360  1
  O2-  O140  1  0.50844586  0.25082049  0.94297160  1
  O2-  O141  1  0.50455260  0.75322755  0.27785232  1
  O2-  O142  1  0.49906704  0.74655856  0.60684934  1
  O2-  O143  1  0.49852022  0.74978635  0.93457768  1
  O2-  O144  1  0.06740848  0.17732273  0.09011771  1
  O2-  O145  1  0.06690819  0.17340092  0.42086928  1
  O2-  O146  1  0.06575533  0.17210143  0.75627939  1
  O2-  O147  1  0.07008328  0.67968602  0.08987426  1
  O2-  O148  1  0.07209742  0.68127003  0.41978702  1
  O2-  O149  1  0.06629708  0.68076711  0.76487643  1
  O2-  O150  1  0.57187139  0.17557443  0.09219804  1
  O2-  O151  1  0.57346162  0.17721796  0.42098772  1
  O2-  O152  1  0.57231754  0.17722595  0.76580041  1
  O2-  O153  1  0.57207744  0.68187480  0.09854764  1
  O2-  O154  1  0.57214272  0.68056875  0.42555739  1
  O2-  O155  1  0.57834517  0.68369710  0.75432274  1
  O2-  O156  1  0.17474568  0.43272318  0.24241608  1
  O2-  O157  1  0.17338860  0.43514547  0.56509794  1
  O2-  O158  1  0.17527029  0.43183703  0.90220148  1
  O2-  O159  1  0.17986962  0.92812273  0.23279342  1
  O2-  O160  1  0.18061843  0.93154636  0.56935000  1
  O2-  O161  1  0.17161247  0.92969308  0.91021576  1
  O2-  O162  1  0.67860976  0.43286739  0.23511718  1
  O2-  O163  1  0.68263292  0.42719498  0.56677059  1
  O2-  O164  1  0.68003659  0.42468549  0.90216013  1
  O2-  O165  1  0.68049465  0.92551284  0.23552135  1
  O2-  O166  1  0.68187163  0.92384895  0.57745408  1
  O2-  O167  1  0.68409093  0.93288578  0.89833380  1
  O2-  O168  1  0.42667656  0.31849493  0.10063311  1
  O2-  O169  1  0.43123019  0.32396161  0.43252771  1
  O2-  O170  1  0.42935395  0.32068739  0.76593598  1
  O2-  O171  1  0.43008633  0.82313076  0.09941384  1
  O2-  O172  1  0.43085363  0.81735271  0.42617487  1
  O2-  O173  1  0.43400329  0.82104584  0.75511752  1
  O2-  O174  1  0.93161192  0.31934168  0.09053152  1
  O2-  O175  1  0.92899330  0.31921751  0.42853846  1
  O2-  O176  1  0.92946438  0.31888051  0.76799046  1
  O2-  O177  1  0.93089120  0.82321613  0.09050086  1
  O2-  O178  1  0.92394390  0.81886830  0.42147403  1
  O2-  O179  1  0.92159811  0.82195145  0.75376293  1
  O2-  O180  1  0.32192924  0.07166218  0.23696770  1
  O2-  O181  1  0.32171854  0.06951699  0.57086446  1
  O2-  O182  1  0.31978290  0.07119985  0.90266006  1
  O2-  O183  1  0.31944339  0.57154360  0.23103816  1
  O2-  O184  1  0.32126847  0.57233792  0.56988806  1
  O2-  O185  1  0.31694782  0.57667224  0.91046593  1
  O2-  O186  1  0.82271978  0.06765376  0.24437272  1
  O2-  O187  1  0.82015901  0.06892929  0.57630220  1
  O2-  O188  1  0.82975913  0.07172581  0.91144287  1
  O2-  O189  1  0.82297324  0.57440830  0.24645953  1
  O2-  O190  1  0.81765753  0.57726346  0.57487544  1
  O2-  O191  1  0.82485167  0.56624993  0.90020020  1
  O2-  O192  1  0.04022114  0.08332917  0.26785126  1
  O2-  O193  1  0.03757586  0.08494240  0.60244101  1
  O2-  O194  1  0.04355636  0.08730632  0.93571315  1
  O2-  O195  1  0.04404148  0.59091780  0.26499990  1
  O2-  O196  1  0.03816494  0.58908578  0.59135518  1
  O2-  O197  1  0.03697583  0.58697947  0.93861642  1
  O2-  O198  1  0.54555094  0.08000967  0.27328520  1
  O2-  O199  1  0.54698231  0.07627196  0.60054524  1
  O2-  O200  1  0.54457300  0.08621754  0.93976234  1
  O2-  O201  1  0.54249093  0.58889919  0.27289334  1
  O2-  O202  1  0.54850215  0.58636187  0.60399277  1
  O2-  O203  1  0.54727479  0.58122466  0.92990569  1
  O2-  O204  1  0.16485502  0.19854940  0.27007975  1
  O2-  O205  1  0.16731347  0.19366513  0.60795662  1
  O2-  O206  1  0.16139997  0.20823799  0.93912577  1
  O2-  O207  1  0.16393042  0.71030753  0.26663762  1
  O2-  O208  1  0.16860977  0.71216002  0.59756884  1
  O2-  O209  1  0.16126677  0.70194708  0.93507847  1
  O2-  O210  1  0.66523028  0.19808280  0.26866564  1
  O2-  O211  1  0.66904768  0.20396764  0.59759321  1
  O2-  O212  1  0.66983283  0.19753355  0.94271780  1
  O2-  O213  1  0.66611632  0.70543790  0.27488863  1
  O2-  O214  1  0.66301709  0.71153124  0.59966215  1
  O2-  O215  1  0.67117149  0.71110927  0.93159382  1
  O2-  O216  1  0.08619382  0.46413356  0.07169995  1
  O2-  O217  1  0.08251635  0.46160139  0.39180114  1
  O2-  O218  1  0.07972933  0.46603487  0.73066791  1
  O2-  O219  1  0.08418470  0.95607387  0.06310897  1
  O2-  O220  1  0.07715198  0.94930481  0.39736087  1
  O2-  O221  1  0.07497027  0.95057231  0.73134355  1
  O2-  O222  1  0.57612348  0.45797917  0.06669335  1
  O2-  O223  1  0.58721577  0.46367619  0.40365971  1
  O2-  O224  1  0.58677797  0.45966924  0.73459049  1
  O2-  O225  1  0.58597614  0.96112054  0.06824830  1
  O2-  O226  1  0.58355425  0.95499849  0.40554474  1
  O2-  O227  1  0.58734536  0.95164225  0.72932183  1
  O2-  O228  1  0.20623858  0.33306790  0.07042675  1
  O2-  O229  1  0.18989363  0.33258164  0.39030680  1
  O2-  O230  1  0.19423171  0.32851385  0.73029518  1
  O2-  O231  1  0.19584021  0.83016009  0.05787703  1
  O2-  O232  1  0.20996670  0.83092589  0.39938902  1
  O2-  O233  1  0.20669105  0.83158176  0.73466933  1
  O2-  O234  1  0.70563930  0.33005634  0.06998551  1
  O2-  O235  1  0.71091436  0.32965351  0.39745061  1
  O2-  O236  1  0.71370629  0.33036734  0.73335122  1
  O2-  O237  1  0.71451171  0.83641750  0.06640879  1
  O2-  O238  1  0.71376905  0.83253421  0.40427325  1
  O2-  O239  1  0.71120779  0.83593395  0.73028116  1
  O2-  O240  1  0.46379355  0.41751033  0.26610855  1
  O2-  O241  1  0.45907697  0.42192598  0.60254767  1
  O2-  O242  1  0.45016713  0.41901097  0.93395641  1
  O2-  O243  1  0.45601416  0.91469731  0.27752855  1
  O2-  O244  1  0.46154493  0.90948833  0.60129787  1
  O2-  O245  1  0.46133806  0.92123796  0.93280500  1
  O2-  O246  1  0.95663309  0.41865329  0.26130271  1
  O2-  O247  1  0.95548345  0.41791376  0.59746387  1
  O2-  O248  1  0.96123095  0.41281195  0.94057781  1
  O2-  O249  1  0.95115825  0.91343656  0.26898301  1
  O2-  O250  1  0.94474407  0.91901450  0.60304380  1
  O2-  O251  1  0.95558129  0.91463794  0.93720472  1
  O2-  O252  1  0.32906432  0.29545385  0.26843996  1
  O2-  O253  1  0.32705867  0.29689360  0.60101559  1
  O2-  O254  1  0.33106404  0.28492951  0.93579681  1
  O2-  O255  1  0.34012262  0.79012014  0.27222060  1
  O2-  O256  1  0.33771308  0.79334838  0.60448190  1
  O2-  O257  1  0.32886374  0.79857190  0.93167188  1
  O2-  O258  1  0.83311924  0.28636318  0.25976009  1
  O2-  O259  1  0.83717421  0.28250536  0.59923201  1
  O2-  O260  1  0.83667756  0.29496757  0.93997062  1
  O2-  O261  1  0.83637231  0.78892798  0.26852693  1
  O2-  O262  1  0.83420425  0.79259667  0.59944026  1
  O2-  O263  1  0.83916609  0.79476166  0.93597739  1
  O2-  O264  1  0.41674085  0.04176859  0.07114391  1
  O2-  O265  1  0.41774890  0.04536202  0.40560116  1
  O2-  O266  1  0.41982460  0.03737970  0.73549579  1
  O2-  O267  1  0.41747320  0.55543737  0.05778287  1
  O2-  O268  1  0.41781106  0.54159116  0.40002447  1
  O2-  O269  1  0.42397279  0.55200324  0.73541977  1
  O2-  O270  1  0.91869073  0.04464946  0.06472745  1
  O2-  O271  1  0.91360711  0.04272708  0.39772551  1
  O2-  O272  1  0.91000619  0.04315145  0.73144097  1
  O2-  O273  1  0.91672545  0.53979183  0.07167061  1
  O2-  O274  1  0.92036302  0.54940159  0.39383424  1
  O2-  O275  1  0.91664260  0.55102702  0.72237797  1
  O2-  O276  1  0.28315024  0.16273078  0.07155885  1
  O2-  O277  1  0.29024408  0.17271946  0.40302140  1
  O2-  O278  1  0.29468413  0.17029926  0.73711763  1
  O2-  O279  1  0.29051004  0.66731105  0.06207036  1
  O2-  O280  1  0.28877936  0.66344628  0.39933662  1
  O2-  O281  1  0.29025165  0.66794973  0.73645347  1
  O2-  O282  1  0.80376430  0.16696489  0.06332985  1
  O2-  O283  1  0.79794804  0.16527867  0.39419765  1
  O2-  O284  1  0.79149951  0.16072919  0.73100911  1
  O2-  O285  1  0.79933752  0.67069742  0.06568931  1
  O2-  O286  1  0.79792471  0.66404145  0.39982749  1
  O2-  O287  1  0.79426195  0.66619297  0.72811287  1
