# generated using pymatgen
data_Ca2Al2SiO7
_symmetry_space_group_name_H-M   'P 1'
_cell_length_a   15.45626120
_cell_length_b   15.45707678
_cell_length_c   15.28210480
_cell_angle_alpha   90.00655917
_cell_angle_beta   89.98673757
_cell_angle_gamma   90.00488868
_symmetry_Int_Tables_number   1
_chemical_formula_structural   Ca2Al2SiO7
_chemical_formula_sum   'Ca48 Al48 Si24 O168'
_cell_volume   3651.02637267
_cell_formula_units_Z   24
loop_
 _symmetry_equiv_pos_site_id
 _symmetry_equiv_pos_as_xyz
  1  'x, y, z'
loop_
 _atom_type_symbol
 _atom_type_oxidation_number
  Ca2+  2.0
  Al0+  0.0
  Si0+  0.0
  O2-  -2.0
loop_
 _atom_site_type_symbol
 _atom_site_label
 _atom_site_symmetry_multiplicity
 _atom_site_fract_x
 _atom_site_fract_y
 _atom_site_fract_z
 _atom_site_occupancy
  Ca2+  Ca0  1  0.17820558  0.07886062  0.17579984  1
  Ca2+  Ca1  1  0.17487673  0.07376118  0.50445601  1
  Ca2+  Ca2  1  0.17778971  0.08217285  0.83453188  1
  Ca2+  Ca3  1  0.15944230  0.58028775  0.16538980  1
  Ca2+  Ca4  1  0.17586084  0.58330694  0.50646023  1
  Ca2+  Ca5  1  0.16853700  0.57925680  0.83708413  1
  Ca2+  Ca6  1  0.66398167  0.07519404  0.16838710  1
  Ca2+  Ca7  1  0.66266835  0.07822554  0.50106499  1
  Ca2+  Ca8  1  0.66220322  0.08108806  0.83988901  1
  Ca2+  Ca9  1  0.67518080  0.57645496  0.17891715  1
  Ca2+  Ca10  1  0.67493188  0.58078047  0.50437339  1
  Ca2+  Ca11  1  0.67174463  0.58711466  0.83146355  1
  Ca2+  Ca12  1  0.07912261  0.33712758  0.16374824  1
  Ca2+  Ca13  1  0.07264510  0.33669624  0.49581200  1
  Ca2+  Ca14  1  0.08180764  0.33531460  0.82939838  1
  Ca2+  Ca15  1  0.07373782  0.83256830  0.16093471  1
  Ca2+  Ca16  1  0.07732616  0.84000951  0.49372296  1
  Ca2+  Ca17  1  0.07362492  0.83674475  0.82738177  1
  Ca2+  Ca18  1  0.57946746  0.32886366  0.16446328  1
  Ca2+  Ca19  1  0.57381260  0.32974026  0.49473720  1
  Ca2+  Ca20  1  0.57764668  0.31820937  0.82170310  1
  Ca2+  Ca21  1  0.58095200  0.84455660  0.16658771  1
  Ca2+  Ca22  1  0.57996415  0.82804641  0.49385046  1
  Ca2+  Ca23  1  0.58363634  0.83003574  0.82803373  1
  Ca2+  Ca24  1  0.32823014  0.41451750  0.17141932  1
  Ca2+  Ca25  1  0.33929727  0.41774095  0.50750159  1
  Ca2+  Ca26  1  0.33459821  0.41973881  0.83447858  1
  Ca2+  Ca27  1  0.33233250  0.92722278  0.17887204  1
  Ca2+  Ca28  1  0.32605980  0.92085648  0.50489178  1
  Ca2+  Ca29  1  0.33147606  0.92677842  0.83551627  1
  Ca2+  Ca30  1  0.82743886  0.42234072  0.18062911  1
  Ca2+  Ca31  1  0.83502627  0.42441719  0.50472213  1
  Ca2+  Ca32  1  0.83921195  0.42305723  0.83372907  1
  Ca2+  Ca33  1  0.82555249  0.90846289  0.17222595  1
  Ca2+  Ca34  1  0.82999877  0.90799381  0.50301899  1
  Ca2+  Ca35  1  0.82917985  0.91132121  0.83736964  1
  Ca2+  Ca36  1  0.41699497  0.16483548  0.16349023  1
  Ca2+  Ca37  1  0.41319652  0.16969236  0.49772279  1
  Ca2+  Ca38  1  0.42217271  0.16350696  0.82684456  1
  Ca2+  Ca39  1  0.41705216  0.67696008  0.16670021  1
  Ca2+  Ca40  1  0.42168386  0.66699846  0.49524016  1
  Ca2+  Ca41  1  0.42373625  0.66453653  0.82251618  1
  Ca2+  Ca42  1  0.91474974  0.17300721  0.16700679  1
  Ca2+  Ca43  1  0.91590240  0.17806063  0.49587372  1
  Ca2+  Ca44  1  0.91917780  0.17414584  0.82346154  1
  Ca2+  Ca45  1  0.91817201  0.67455876  0.16336140  1
  Ca2+  Ca46  1  0.91218063  0.67262659  0.49641110  1
  Ca2+  Ca47  1  0.92084631  0.67534156  0.82837125  1
  Al0+  Al48  1  -0.00083436  0.00339601  -0.00431841  1
  Al0+  Al49  1  -0.00006438  0.00087100  0.33010485  1
  Al0+  Al50  1  -0.00270322  0.00023742  0.66635777  1
  Al0+  Al51  1  0.00090560  0.50246111  0.00073713  1
  Al0+  Al52  1  0.00013332  0.50069630  0.33322252  1
  Al0+  Al53  1  -0.00039400  0.50268135  0.66734669  1
  Al0+  Al54  1  0.50077154  0.00105154  0.00319226  1
  Al0+  Al55  1  0.50152347  -0.00001511  0.33896830  1
  Al0+  Al56  1  0.49969233  -0.00184927  0.66619716  1
  Al0+  Al57  1  0.49938220  0.50124484  0.00146379  1
  Al0+  Al58  1  0.50059768  0.49763087  0.32976318  1
  Al0+  Al59  1  0.50223918  0.49844133  0.66487922  1
  Al0+  Al60  1  0.24881476  0.25266411  0.00808411  1
  Al0+  Al61  1  0.25054960  0.25043034  0.33341451  1
  Al0+  Al62  1  0.24954119  0.24794280  0.66732432  1
  Al0+  Al63  1  0.25009040  0.74984513  -0.00412154  1
  Al0+  Al64  1  0.25063412  0.74931996  0.33072666  1
  Al0+  Al65  1  0.24845082  0.74871250  0.67754074  1
  Al0+  Al66  1  0.74874361  0.24982481  -0.00377846  1
  Al0+  Al67  1  0.74820166  0.24934761  0.33177519  1
  Al0+  Al68  1  0.74909917  0.24888838  0.65877514  1
  Al0+  Al69  1  0.74911237  0.75038617  0.00165493  1
  Al0+  Al70  1  0.75142600  0.74839578  0.33660084  1
  Al0+  Al71  1  0.75050927  0.74776236  0.66411902  1
  Al0+  Al72  1  0.17770873  0.92678319  0.34604154  1
  Al0+  Al73  1  0.82068533  0.57085669  0.68335298  1
  Al0+  Al74  1  0.93060020  0.32314608  0.65353990  1
  Al0+  Al75  1  0.42985739  0.82105471  0.32154105  1
  Al0+  Al76  1  0.92881543  0.82137066  0.31937095  1
  Al0+  Al77  1  0.93036874  0.82053268  0.65138074  1
  Al0+  Al78  1  0.32001388  0.06941176  0.01544769  1
  Al0+  Al79  1  0.92760636  0.82204789  0.98405836  1
  Al0+  Al80  1  0.32168970  0.07063454  0.68322961  1
  Al0+  Al81  1  0.07136568  0.67834346  0.98290215  1
  Al0+  Al82  1  0.68106834  0.92926396  0.34879334  1
  Al0+  Al83  1  0.42821429  0.32125245  0.31695095  1
  Al0+  Al84  1  0.57120398  0.67900653  0.65288135  1
  Al0+  Al85  1  0.92889744  0.32176107  0.31894209  1
  Al0+  Al86  1  0.17518297  0.92830455  0.68392554  1
  Al0+  Al87  1  0.57100300  0.17454082  0.64877471  1
  Al0+  Al88  1  0.32393592  0.56953574  0.67928119  1
  Al0+  Al89  1  0.56893913  0.17979543  0.98698840  1
  Al0+  Al90  1  0.32184308  0.07217132  0.35067676  1
  Al0+  Al91  1  0.82214244  0.56960630  0.34956808  1
  Al0+  Al92  1  0.67682140  0.42631239  0.34930307  1
  Al0+  Al93  1  0.42790737  0.31921889  0.65312293  1
  Al0+  Al94  1  0.68184384  0.92974694  0.01265677  1
  Al0+  Al95  1  0.17966648  0.43212532  0.01429745  1
  Si0+  Si96  1  0.82387885  0.07586535  0.01550680  1
  Si0+  Si97  1  0.81931784  0.07315661  0.68055219  1
  Si0+  Si98  1  0.68045929  0.92825361  0.68073115  1
  Si0+  Si99  1  0.17587724  0.92762081  0.01624882  1
  Si0+  Si100  1  0.32515212  0.57435687  0.01871091  1
  Si0+  Si101  1  0.92885705  0.32131541  0.98570845  1
  Si0+  Si102  1  0.57216293  0.67842134  0.31589675  1
  Si0+  Si103  1  0.43034014  0.82232076  0.98561141  1
  Si0+  Si104  1  0.42638221  0.32315313  0.98405674  1
  Si0+  Si105  1  0.67949789  0.42628057  0.68459772  1
  Si0+  Si106  1  0.32146496  0.57061332  0.34575640  1
  Si0+  Si107  1  0.42604798  0.82022646  0.65233287  1
  Si0+  Si108  1  0.07287684  0.18115556  0.98565936  1
  Si0+  Si109  1  0.82318351  0.07294341  0.34967551  1
  Si0+  Si110  1  0.17900659  0.42951689  0.34857506  1
  Si0+  Si111  1  0.07154278  0.17751796  0.64992765  1
  Si0+  Si112  1  0.07427329  0.67770470  0.31700426  1
  Si0+  Si113  1  0.57026581  0.67753911  0.98619399  1
  Si0+  Si114  1  0.81933224  0.56982787  0.01514167  1
  Si0+  Si115  1  0.07351148  0.67860237  0.64980140  1
  Si0+  Si116  1  0.57142734  0.17675090  0.31470810  1
  Si0+  Si117  1  0.67848501  0.42716148  0.01301590  1
  Si0+  Si118  1  0.07179109  0.17956953  0.31565077  1
  Si0+  Si119  1  0.17741772  0.42827349  0.68121835  1
  O2-  O120  1  0.24541802  -0.00585579  0.06175681  1
  O2-  O121  1  0.25068278  -0.00277569  0.39660171  1
  O2-  O122  1  0.24946106  -0.00145345  0.73332757  1
  O2-  O123  1  0.25449645  0.50693408  0.06178363  1
  O2-  O124  1  0.25199999  0.49868800  0.38931254  1
  O2-  O125  1  0.24995137  0.49326604  0.72503364  1
  O2-  O126  1  0.75955932  0.00259112  0.05820816  1
  O2-  O127  1  0.75830138  0.00151680  0.39517825  1
  O2-  O128  1  0.74796113  0.00263159  0.72302455  1
  O2-  O129  1  0.74870502  0.49809623  0.05656382  1
  O2-  O130  1  0.75121176  0.49586706  0.39876507  1
  O2-  O131  1  0.74871353  0.49361510  0.73148652  1
  O2-  O132  1  0.00259479  0.24759568  0.26971411  1
  O2-  O133  1  0.00607445  0.24971360  0.60626540  1
  O2-  O134  1  -0.00114207  0.24953884  0.94320951  1
  O2-  O135  1  0.00635116  0.74840789  0.27471507  1
  O2-  O136  1  0.00881553  0.74985988  0.60476333  1
  O2-  O137  1  0.00332800  0.75426410  0.93337530  1
  O2-  O138  1  0.50214954  0.24554940  0.27085768  1
  O2-  O139  1  0.49721299  0.24579318  0.60136651  1
  O2-  O140  1  0.49504411  0.25511522  0.94004430  1
  O2-  O141  1  0.50597611  0.74915608  0.27068596  1
  O2-  O142  1  0.49216974  0.74942158  0.60753478  1
  O2-  O143  1  0.49749111  0.74692822  0.94412519  1
  O2-  O144  1  0.07195106  0.18221532  0.09059785  1
  O2-  O145  1  0.07054784  0.18197531  0.42109880  1
  O2-  O146  1  0.06930731  0.17874556  0.75624984  1
  O2-  O147  1  0.06659595  0.67654294  0.09665075  1
  O2-  O148  1  0.07734126  0.67493407  0.42226500  1
  O2-  O149  1  0.07013521  0.67603828  0.75517721  1
  O2-  O150  1  0.57002155  0.18135439  0.09972646  1
  O2-  O151  1  0.57169705  0.17727626  0.41990337  1
  O2-  O152  1  0.57193069  0.17555193  0.76302584  1
  O2-  O153  1  0.56989117  0.67488500  0.09099480  1
  O2-  O154  1  0.56941763  0.67822159  0.42137587  1
  O2-  O155  1  0.57182624  0.68287925  0.76705858  1
  O2-  O156  1  0.17770886  0.43144162  0.24330351  1
  O2-  O157  1  0.17516766  0.43122071  0.57551297  1
  O2-  O158  1  0.18018051  0.43118149  0.90123905  1
  O2-  O159  1  0.17860481  0.92868518  0.23193583  1
  O2-  O160  1  0.17538992  0.92964747  0.57044661  1
  O2-  O161  1  0.17675691  0.93097685  0.91083838  1
  O2-  O162  1  0.67833387  0.42941209  0.23425375  1
  O2-  O163  1  0.68055981  0.42811385  0.57949691  1
  O2-  O164  1  0.67985268  0.42725722  0.90817288  1
  O2-  O165  1  0.68096848  0.93160168  0.23536069  1
  O2-  O166  1  0.68228086  0.92739616  0.57585368  1
  O2-  O167  1  0.68099821  0.92966453  0.89921025  1
  O2-  O168  1  0.42839134  0.32395915  0.08963683  1
  O2-  O169  1  0.42766759  0.32299456  0.42941125  1
  O2-  O170  1  0.43014488  0.32021847  0.76726392  1
  O2-  O171  1  0.43185201  0.82211462  0.09088717  1
  O2-  O172  1  0.42932451  0.81571926  0.43435040  1
  O2-  O173  1  0.43075734  0.82060048  0.75862636  1
  O2-  O174  1  0.92851464  0.32072368  0.09075910  1
  O2-  O175  1  0.93224030  0.32181210  0.43176940  1
  O2-  O176  1  0.93251693  0.32100660  0.76759079  1
  O2-  O177  1  0.92594919  0.81857227  0.09762107  1
  O2-  O178  1  0.92911087  0.81903603  0.43228835  1
  O2-  O179  1  0.92797724  0.81908174  0.76450021  1
  O2-  O180  1  0.32008893  0.07147920  0.23643291  1
  O2-  O181  1  0.31964453  0.06976057  0.57028239  1
  O2-  O182  1  0.31993974  0.06859649  0.90261828  1
  O2-  O183  1  0.31990537  0.57076208  0.24052327  1
  O2-  O184  1  0.32188080  0.57028394  0.56575381  1
  O2-  O185  1  0.33020292  0.57136635  0.91346600  1
  O2-  O186  1  0.82147746  0.07464272  0.24375519  1
  O2-  O187  1  0.82083048  0.07340716  0.57572584  1
  O2-  O188  1  0.82265771  0.08103192  0.91000856  1
  O2-  O189  1  0.82068650  0.56866437  0.23488897  1
  O2-  O190  1  0.82000631  0.57042321  0.57106066  1
  O2-  O191  1  0.81842753  0.56931332  0.90995779  1
  O2-  O192  1  0.04682698  0.08670919  0.26752361  1
  O2-  O193  1  0.04030685  0.08660256  0.60299160  1
  O2-  O194  1  0.04865521  0.08961156  0.93608955  1
  O2-  O195  1  0.04535759  0.58518148  0.26956743  1
  O2-  O196  1  0.04598419  0.58606103  0.60260175  1
  O2-  O197  1  0.03903577  0.58089369  0.92921248  1
  O2-  O198  1  0.54531126  0.08282539  0.26976430  1
  O2-  O199  1  0.54496703  0.07510977  0.59738924  1
  O2-  O200  1  0.53807592  0.08300182  0.93329566  1
  O2-  O201  1  0.54406179  0.58602612  0.26831174  1
  O2-  O202  1  0.54490141  0.58162880  0.59980836  1
  O2-  O203  1  0.54415627  0.58545808  0.93702615  1
  O2-  O204  1  0.16429982  0.20781217  0.26892613  1
  O2-  O205  1  0.16573353  0.19925845  0.60473510  1
  O2-  O206  1  0.16312134  0.21425432  0.93827439  1
  O2-  O207  1  0.16735489  0.69983785  0.26771304  1
  O2-  O208  1  0.16992129  0.69970824  0.60756530  1
  O2-  O209  1  0.17340884  0.69732945  0.93273640  1
  O2-  O210  1  0.66497714  0.20146109  0.26727597  1
  O2-  O211  1  0.66873578  0.20258514  0.59514402  1
  O2-  O212  1  0.66605232  0.20902117  0.93141171  1
  O2-  O213  1  0.66658983  0.70215595  0.27147202  1
  O2-  O214  1  0.66496693  0.71335437  0.59726027  1
  O2-  O215  1  0.66131153  0.70724049  0.93883804  1
  O2-  O216  1  0.08291344  0.46358469  0.06974343  1
  O2-  O217  1  0.08843256  0.45930613  0.39677799  1
  O2-  O218  1  0.08623468  0.45846895  0.73018087  1
  O2-  O219  1  0.08123426  0.95487582  0.05984838  1
  O2-  O220  1  0.07917539  0.95738586  0.39762313  1
  O2-  O221  1  0.07708842  0.96101465  0.73635691  1
  O2-  O222  1  0.58610985  0.45447613  0.06009938  1
  O2-  O223  1  0.57861270  0.45726824  0.40042535  1
  O2-  O224  1  0.58678295  0.45331031  0.73154773  1
  O2-  O225  1  0.58686019  0.96357410  0.06802712  1
  O2-  O226  1  0.58589448  0.95980824  0.40476880  1
  O2-  O227  1  0.58722001  0.95137651  0.72767454  1
  O2-  O228  1  0.20772631  0.33701259  0.07276335  1
  O2-  O229  1  0.20357289  0.33726013  0.39506341  1
  O2-  O230  1  0.19680250  0.33290110  0.72603448  1
  O2-  O231  1  0.19851227  0.83149096  0.05809557  1
  O2-  O232  1  0.20444903  0.82733973  0.39775084  1
  O2-  O233  1  0.19980595  0.82989030  0.73887601  1
  O2-  O234  1  0.70693552  0.33580344  0.06092788  1
  O2-  O235  1  0.70090998  0.32628251  0.39902218  1
  O2-  O236  1  0.70534728  0.33123011  0.72824965  1
  O2-  O237  1  0.70824447  0.83241686  0.06849669  1
  O2-  O238  1  0.70922026  0.83189771  0.40168449  1
  O2-  O239  1  0.71201216  0.83788966  0.72874111  1
  O2-  O240  1  0.45870406  0.41744701  0.26031023  1
  O2-  O241  1  0.45854768  0.41683490  0.59999641  1
  O2-  O242  1  0.45143946  0.41817844  0.93974106  1
  O2-  O243  1  0.46157762  0.91812386  0.26858267  1
  O2-  O244  1  0.45399879  0.91199591  0.60538858  1
  O2-  O245  1  0.46370339  0.91148879  0.93740369  1
  O2-  O246  1  0.96179071  0.41774600  0.26434577  1
  O2-  O247  1  0.96166415  0.41959567  0.59986661  1
  O2-  O248  1  0.95878063  0.41280298  0.93953705  1
  O2-  O249  1  0.95418243  0.91953285  0.26477008  1
  O2-  O250  1  0.95427012  0.91965117  0.59920533  1
  O2-  O251  1  0.94944274  0.92371749  0.93329807  1
  O2-  O252  1  0.33023493  0.29258421  0.26360257  1
  O2-  O253  1  0.32731100  0.29635219  0.60155291  1
  O2-  O254  1  0.33125903  0.29898362  0.94145796  1
  O2-  O255  1  0.33509790  0.78810459  0.26391890  1
  O2-  O256  1  0.33027424  0.79650624  0.61134596  1
  O2-  O257  1  0.33709923  0.80001648  0.93870845  1
  O2-  O258  1  0.83195604  0.29095686  0.26491858  1
  O2-  O259  1  0.83538087  0.29148281  0.59904475  1
  O2-  O260  1  0.83729851  0.29511183  0.93706647  1
  O2-  O261  1  0.83270886  0.78661111  0.26581817  1
  O2-  O262  1  0.83533834  0.78486462  0.59822888  1
  O2-  O263  1  0.82954172  0.78880014  0.93214336  1
  O2-  O264  1  0.41595320  0.03762699  0.06944274  1
  O2-  O265  1  0.42024521  0.04600642  0.40215131  1
  O2-  O266  1  0.42033805  0.03957588  0.73581730  1
  O2-  O267  1  0.41781555  0.54790663  0.06752167  1
  O2-  O268  1  0.41383406  0.54378745  0.39139587  1
  O2-  O269  1  0.42057087  0.53935476  0.73478414  1
  O2-  O270  1  0.91965924  0.05672922  0.06018327  1
  O2-  O271  1  0.91856006  0.05302696  0.39351895  1
  O2-  O272  1  0.91055039  0.04617993  0.72973761  1
  O2-  O273  1  0.91094971  0.54203849  0.06178882  1
  O2-  O274  1  0.92121988  0.54241248  0.40168814  1
  O2-  O275  1  0.91781506  0.54068229  0.73754012  1
  O2-  O276  1  0.28950535  0.16637811  0.06875141  1
  O2-  O277  1  0.28991374  0.17031943  0.40184416  1
  O2-  O278  1  0.29225043  0.16917689  0.73702917  1
  O2-  O279  1  0.30105714  0.66966932  0.06239431  1
  O2-  O280  1  0.29337596  0.66141776  0.39427886  1
  O2-  O281  1  0.29459475  0.66404127  0.73822471  1
  O2-  O282  1  0.79332826  0.16780410  0.06377384  1
  O2-  O283  1  0.79431809  0.16534771  0.39634508  1
  O2-  O284  1  0.79253610  0.16534365  0.72878824  1
  O2-  O285  1  0.78954518  0.66064851  0.06276580  1
  O2-  O286  1  0.79160925  0.66631402  0.40311076  1
  O2-  O287  1  0.78466378  0.66600163  0.73762607  1
