# generated using pymatgen
data_Ca2Al2SiO7
_symmetry_space_group_name_H-M   'P 1'
_cell_length_a   15.46123829
_cell_length_b   15.45944640
_cell_length_c   15.28443613
_cell_angle_alpha   90.00983589
_cell_angle_beta   89.97623672
_cell_angle_gamma   90.01047593
_symmetry_Int_Tables_number   1
_chemical_formula_structural   Ca2Al2SiO7
_chemical_formula_sum   'Ca48 Al48 Si24 O168'
_cell_volume   3653.31888682
_cell_formula_units_Z   24
loop_
 _symmetry_equiv_pos_site_id
 _symmetry_equiv_pos_as_xyz
  1  'x, y, z'
loop_
 _atom_type_symbol
 _atom_type_oxidation_number
  Ca2+  2.0
  Al0+  0.0
  Si0+  0.0
  O2-  -2.0
loop_
 _atom_site_type_symbol
 _atom_site_label
 _atom_site_symmetry_multiplicity
 _atom_site_fract_x
 _atom_site_fract_y
 _atom_site_fract_z
 _atom_site_occupancy
  Ca2+  Ca0  1  0.17198916  0.08249157  0.17214796  1
  Ca2+  Ca1  1  0.17504048  0.07780073  0.50403251  1
  Ca2+  Ca2  1  0.17133017  0.08049098  0.82960362  1
  Ca2+  Ca3  1  0.17279445  0.58531190  0.16440918  1
  Ca2+  Ca4  1  0.18102450  0.58366805  0.50488856  1
  Ca2+  Ca5  1  0.17459483  0.58078026  0.84342066  1
  Ca2+  Ca6  1  0.67695692  0.07003652  0.16962624  1
  Ca2+  Ca7  1  0.66929623  0.07197298  0.50104616  1
  Ca2+  Ca8  1  0.66957619  0.07325854  0.83967261  1
  Ca2+  Ca9  1  0.67162062  0.58895065  0.16978070  1
  Ca2+  Ca10  1  0.66493998  0.58484440  0.49940561  1
  Ca2+  Ca11  1  0.67445468  0.57935288  0.83917622  1
  Ca2+  Ca12  1  0.07665230  0.33348555  0.15954346  1
  Ca2+  Ca13  1  0.07372543  0.33209643  0.49547819  1
  Ca2+  Ca14  1  0.07603287  0.33928318  0.83373895  1
  Ca2+  Ca15  1  0.07131819  0.83027796  0.15774694  1
  Ca2+  Ca16  1  0.08084966  0.83753244  0.49648918  1
  Ca2+  Ca17  1  0.08251758  0.83092450  0.83229407  1
  Ca2+  Ca18  1  0.57643880  0.33187108  0.16606682  1
  Ca2+  Ca19  1  0.57133168  0.32959821  0.49438387  1
  Ca2+  Ca20  1  0.57836086  0.32915720  0.82577673  1
  Ca2+  Ca21  1  0.58173757  0.83497462  0.16317594  1
  Ca2+  Ca22  1  0.58355526  0.83206155  0.49656250  1
  Ca2+  Ca23  1  0.57546749  0.83974654  0.83108562  1
  Ca2+  Ca24  1  0.32845034  0.42575847  0.17363961  1
  Ca2+  Ca25  1  0.34490551  0.42602624  0.50408366  1
  Ca2+  Ca26  1  0.33180154  0.42806297  0.84098188  1
  Ca2+  Ca27  1  0.33405320  0.91918682  0.17119810  1
  Ca2+  Ca28  1  0.33286993  0.92654321  0.51195472  1
  Ca2+  Ca29  1  0.33362588  0.91376397  0.83491638  1
  Ca2+  Ca30  1  0.84188782  0.42145732  0.16708862  1
  Ca2+  Ca31  1  0.83580178  0.41358968  0.50376490  1
  Ca2+  Ca32  1  0.83883260  0.41882448  0.84284722  1
  Ca2+  Ca33  1  0.83101578  0.91782013  0.17581760  1
  Ca2+  Ca34  1  0.82350486  0.91247436  0.50183684  1
  Ca2+  Ca35  1  0.82102421  0.91764020  0.84603805  1
  Ca2+  Ca36  1  0.41288494  0.16929321  0.16475301  1
  Ca2+  Ca37  1  0.40595707  0.17390097  0.49480735  1
  Ca2+  Ca38  1  0.41502612  0.17280138  0.82354037  1
  Ca2+  Ca39  1  0.42076604  0.66648217  0.16165885  1
  Ca2+  Ca40  1  0.41870913  0.67041012  0.49480724  1
  Ca2+  Ca41  1  0.40743671  0.67623003  0.83044309  1
  Ca2+  Ca42  1  0.90354332  0.17380545  0.16240868  1
  Ca2+  Ca43  1  0.91320357  0.17404771  0.49203888  1
  Ca2+  Ca44  1  0.91025151  0.17572038  0.83106019  1
  Ca2+  Ca45  1  0.91851655  0.67702369  0.15632559  1
  Ca2+  Ca46  1  0.92261193  0.67484171  0.49134302  1
  Ca2+  Ca47  1  0.92188119  0.66527039  0.83735021  1
  Al0+  Al48  1  0.00106880  0.00337738  -0.00208968  1
  Al0+  Al49  1  0.00024356  0.00212026  0.33349187  1
  Al0+  Al50  1  0.00029054  0.00135034  0.66992665  1
  Al0+  Al51  1  0.00008601  0.49930790  0.00082393  1
  Al0+  Al52  1  0.00146926  0.49947238  0.33129683  1
  Al0+  Al53  1  0.00156307  0.50156365  0.66025087  1
  Al0+  Al54  1  0.50136360  0.00055649  0.00027941  1
  Al0+  Al55  1  0.50073998  0.00102437  0.34118810  1
  Al0+  Al56  1  0.50160807  0.00025644  0.66973158  1
  Al0+  Al57  1  0.49998262  0.50037170  0.00216087  1
  Al0+  Al58  1  0.50074160  0.50024224  0.32808839  1
  Al0+  Al59  1  0.50307391  0.50000877  0.66910053  1
  Al0+  Al60  1  0.24771290  0.25134287  0.00155695  1
  Al0+  Al61  1  0.24679332  0.25137244  0.33250281  1
  Al0+  Al62  1  0.24670887  0.25104303  0.66519186  1
  Al0+  Al63  1  0.25055064  0.75084296  -0.00156526  1
  Al0+  Al64  1  0.25088383  0.74819383  0.33753746  1
  Al0+  Al65  1  0.25041164  0.74997112  0.66795199  1
  Al0+  Al66  1  0.74707777  0.24802655  -0.00170976  1
  Al0+  Al67  1  0.74763025  0.24994893  0.33228791  1
  Al0+  Al68  1  0.74808816  0.25047095  0.66101846  1
  Al0+  Al69  1  0.74731477  0.74752051  0.00261126  1
  Al0+  Al70  1  0.75025453  0.74822226  0.33102950  1
  Al0+  Al71  1  0.75073236  0.74901651  0.67177562  1
  Al0+  Al72  1  0.82006697  0.56863246  0.01370261  1
  Al0+  Al73  1  0.56983558  0.67983347  0.31993033  1
  Al0+  Al74  1  0.82205670  0.07251700  0.34988644  1
  Al0+  Al75  1  0.17796784  0.92806039  0.68301655  1
  Al0+  Al76  1  0.32117052  0.07300060  0.68227606  1
  Al0+  Al77  1  0.82233376  0.07142864  0.01349847  1
  Al0+  Al78  1  0.32338281  0.56918843  0.68074876  1
  Al0+  Al79  1  0.68072230  0.92753222  0.68284079  1
  Al0+  Al80  1  0.92717907  0.32054715  0.31755001  1
  Al0+  Al81  1  0.92640744  0.82351253  0.98430094  1
  Al0+  Al82  1  0.32028762  0.07165542  0.34573360  1
  Al0+  Al83  1  0.68057639  0.92569041  0.35027604  1
  Al0+  Al84  1  0.42952929  0.82042307  0.65256882  1
  Al0+  Al85  1  0.32174583  0.57363154  0.01689333  1
  Al0+  Al86  1  0.42816835  0.32145939  0.65457079  1
  Al0+  Al87  1  0.42768256  0.31999938  0.31811047  1
  Al0+  Al88  1  0.17887790  0.42872626  0.01582620  1
  Al0+  Al89  1  0.43104761  0.82124263  0.98774028  1
  Al0+  Al90  1  0.93119194  0.82088798  0.32178496  1
  Al0+  Al91  1  0.92941747  0.31783243  0.98672477  1
  Al0+  Al92  1  0.07035047  0.67989397  0.98483364  1
  Al0+  Al93  1  0.67820280  0.92815136  0.01632941  1
  Al0+  Al94  1  0.92945174  0.32095630  0.65233719  1
  Al0+  Al95  1  0.32274248  0.56962949  0.34866011  1
  Si0+  Si96  1  0.68083732  0.42823745  0.68013759  1
  Si0+  Si97  1  0.32111492  0.07159588  0.01345459  1
  Si0+  Si98  1  0.42747210  0.82377529  0.31969598  1
  Si0+  Si99  1  0.17537607  0.42989558  0.68198159  1
  Si0+  Si100  1  0.07071858  0.17885861  0.31558704  1
  Si0+  Si101  1  0.56807565  0.18019685  0.98450717  1
  Si0+  Si102  1  0.92799220  0.82108330  0.65352007  1
  Si0+  Si103  1  0.57184781  0.67469729  0.98152415  1
  Si0+  Si104  1  0.07687965  0.17731212  0.98009908  1
  Si0+  Si105  1  0.67651743  0.42579547  0.01698835  1
  Si0+  Si106  1  0.67863817  0.42925287  0.34797901  1
  Si0+  Si107  1  0.17903739  0.92915042  0.01486165  1
  Si0+  Si108  1  0.07133571  0.67987241  0.65007921  1
  Si0+  Si109  1  0.17704871  0.42889911  0.35238612  1
  Si0+  Si110  1  0.07469825  0.67761149  0.31698891  1
  Si0+  Si111  1  0.42728036  0.32156076  0.98527858  1
  Si0+  Si112  1  0.57124469  0.17771849  0.64811762  1
  Si0+  Si113  1  0.17827388  0.92706281  0.34776705  1
  Si0+  Si114  1  0.82349501  0.56961215  0.67995730  1
  Si0+  Si115  1  0.57494941  0.67817776  0.65123010  1
  Si0+  Si116  1  0.82077038  0.07413573  0.68267223  1
  Si0+  Si117  1  0.07101969  0.17597191  0.64757333  1
  Si0+  Si118  1  0.82240131  0.56944513  0.34866332  1
  Si0+  Si119  1  0.57082546  0.17624814  0.31531336  1
  O2-  O120  1  0.25000538  0.00101838  0.05618903  1
  O2-  O121  1  0.25041086  -0.00773914  0.39154628  1
  O2-  O122  1  0.25312260  -0.00248310  0.73303668  1
  O2-  O123  1  0.25140434  0.49975921  0.06619177  1
  O2-  O124  1  0.24818928  0.49492717  0.39660533  1
  O2-  O125  1  0.24979481  0.49223748  0.72547948  1
  O2-  O126  1  0.76003494  -0.00919630  0.06371405  1
  O2-  O127  1  0.75362127  -0.00257440  0.40018543  1
  O2-  O128  1  0.75639326  0.00240244  0.72735267  1
  O2-  O129  1  0.74505184  0.49427226  0.06122697  1
  O2-  O130  1  0.75314457  0.49672869  0.39145139  1
  O2-  O131  1  0.75556205  0.49527248  0.72171214  1
  O2-  O132  1  -0.00149680  0.24326537  0.27090602  1
  O2-  O133  1  0.00085045  0.24418112  0.60448015  1
  O2-  O134  1  0.00275757  0.24236999  0.93893342  1
  O2-  O135  1  0.00758896  0.74827725  0.27485409  1
  O2-  O136  1  0.00201040  0.75373387  0.60953774  1
  O2-  O137  1  -0.00103449  0.75226451  0.93299019  1
  O2-  O138  1  0.49866215  0.24184371  0.27069714  1
  O2-  O139  1  0.49715560  0.24203015  0.60570081  1
  O2-  O140  1  0.49761711  0.25139185  0.94130517  1
  O2-  O141  1  0.49576642  0.75565946  0.27460645  1
  O2-  O142  1  0.50518372  0.74571951  0.60735296  1
  O2-  O143  1  0.50345486  0.74432576  0.93940617  1
  O2-  O144  1  0.08471337  0.17872167  0.08517979  1
  O2-  O145  1  0.07225040  0.18134959  0.42117122  1
  O2-  O146  1  0.07127694  0.17558856  0.75296219  1
  O2-  O147  1  0.06988655  0.68360746  0.09864159  1
  O2-  O148  1  0.07310796  0.67685449  0.42324605  1
  O2-  O149  1  0.06853450  0.67542380  0.75455632  1
  O2-  O150  1  0.56564576  0.18124913  0.08941126  1
  O2-  O151  1  0.57220381  0.17957615  0.42090649  1
  O2-  O152  1  0.57500473  0.18279765  0.75397418  1
  O2-  O153  1  0.57055031  0.67218797  0.08703840  1
  O2-  O154  1  0.56930422  0.67827684  0.43338870  1
  O2-  O155  1  0.57878558  0.67686414  0.75634017  1
  O2-  O156  1  0.17613711  0.42980568  0.24713684  1
  O2-  O157  1  0.17070359  0.43463346  0.57651157  1
  O2-  O158  1  0.18206693  0.42778713  0.90167527  1
  O2-  O159  1  0.17864113  0.92789939  0.24193533  1
  O2-  O160  1  0.17684704  0.93021992  0.56903369  1
  O2-  O161  1  0.18027186  0.92892815  0.91004598  1
  O2-  O162  1  0.67778394  0.43031053  0.24305686  1
  O2-  O163  1  0.67953584  0.42943820  0.57502218  1
  O2-  O164  1  0.67588981  0.42616411  0.91081781  1
  O2-  O165  1  0.68065414  0.92620761  0.23717992  1
  O2-  O166  1  0.68358544  0.92472722  0.57000058  1
  O2-  O167  1  0.67517452  0.93401478  0.90264772  1
  O2-  O168  1  0.42833635  0.31925632  0.09037428  1
  O2-  O169  1  0.43127840  0.32059352  0.43144743  1
  O2-  O170  1  0.43319531  0.32192936  0.76798297  1
  O2-  O171  1  0.43187155  0.82400219  0.10105235  1
  O2-  O172  1  0.42708606  0.82211133  0.42523722  1
  O2-  O173  1  0.43019111  0.81872428  0.76568719  1
  O2-  O174  1  0.92964114  0.31692749  0.09951463  1
  O2-  O175  1  0.93017706  0.32176655  0.43109112  1
  O2-  O176  1  0.92967551  0.32218005  0.76525852  1
  O2-  O177  1  0.92964361  0.82215856  0.09814214  1
  O2-  O178  1  0.93228895  0.81725398  0.43586186  1
  O2-  O179  1  0.92631753  0.81755929  0.75804596  1
  O2-  O180  1  0.31825669  0.07069221  0.23185332  1
  O2-  O181  1  0.31708767  0.07318040  0.56866607  1
  O2-  O182  1  0.32082273  0.07321703  0.90873982  1
  O2-  O183  1  0.32151303  0.56998549  0.23621644  1
  O2-  O184  1  0.32345993  0.56833528  0.56733126  1
  O2-  O185  1  0.32162650  0.57079727  0.90301596  1
  O2-  O186  1  0.81903794  0.07243769  0.23674820  1
  O2-  O187  1  0.81878020  0.07508054  0.57724008  1
  O2-  O188  1  0.81531485  0.07593046  0.89971820  1
  O2-  O189  1  0.82203404  0.56911465  0.24395026  1
  O2-  O190  1  0.82270737  0.57071560  0.57461089  1
  O2-  O191  1  0.81929304  0.56523437  0.89975339  1
  O2-  O192  1  0.05182454  0.08364778  0.27022516  1
  O2-  O193  1  0.04666057  0.08191704  0.60103746  1
  O2-  O194  1  0.05627483  0.08283825  0.93419420  1
  O2-  O195  1  0.04738692  0.58484991  0.27132762  1
  O2-  O196  1  0.04034606  0.59094578  0.59812439  1
  O2-  O197  1  0.04012763  0.58180518  0.93199707  1
  O2-  O198  1  0.54707342  0.08146193  0.27128692  1
  O2-  O199  1  0.55171685  0.08245172  0.60462327  1
  O2-  O200  1  0.53904617  0.08973059  0.93575197  1
  O2-  O201  1  0.54028108  0.58456406  0.26303285  1
  O2-  O202  1  0.55089789  0.58370760  0.60571246  1
  O2-  O203  1  0.54757857  0.58024318  0.93470085  1
  O2-  O204  1  0.16215907  0.20848737  0.26682384  1
  O2-  O205  1  0.16337658  0.20380888  0.59983419  1
  O2-  O206  1  0.16764237  0.20898263  0.93027951  1
  O2-  O207  1  0.16921991  0.70110614  0.27221269  1
  O2-  O208  1  0.16298893  0.70668823  0.60221351  1
  O2-  O209  1  0.16863910  0.70828904  0.93179547  1
  O2-  O210  1  0.66179509  0.20754034  0.26744972  1
  O2-  O211  1  0.66139849  0.20966882  0.59823422  1
  O2-  O212  1  0.65821084  0.20884751  0.93411322  1
  O2-  O213  1  0.66706033  0.70705177  0.26547048  1
  O2-  O214  1  0.66860631  0.70467485  0.60395403  1
  O2-  O215  1  0.66614345  0.69739416  0.93592061  1
  O2-  O216  1  0.08105656  0.45681567  0.06870729  1
  O2-  O217  1  0.08414631  0.45767416  0.39954823  1
  O2-  O218  1  0.08411405  0.46273785  0.72954349  1
  O2-  O219  1  0.08739721  0.95728793  0.06241163  1
  O2-  O220  1  0.08657870  0.95644367  0.39562704  1
  O2-  O221  1  0.07996691  0.95826282  0.73720152  1
  O2-  O222  1  0.58318813  0.45092971  0.06374622  1
  O2-  O223  1  0.58878713  0.46155211  0.39636856  1
  O2-  O224  1  0.59213779  0.45863286  0.73194410  1
  O2-  O225  1  0.58340666  0.96721774  0.07052872  1
  O2-  O226  1  0.58271929  0.95539459  0.40413517  1
  O2-  O227  1  0.58469077  0.95958295  0.73609420  1
  O2-  O228  1  0.20678141  0.33029094  0.07002372  1
  O2-  O229  1  0.19893222  0.33418628  0.39715802  1
  O2-  O230  1  0.19216620  0.33347383  0.72437829  1
  O2-  O231  1  0.20770845  0.83875920  0.06339071  1
  O2-  O232  1  0.19812247  0.83246496  0.39438267  1
  O2-  O233  1  0.20381314  0.82902856  0.73477540  1
  O2-  O234  1  0.70041366  0.33209713  0.06235478  1
  O2-  O235  1  0.70254904  0.33693498  0.39604468  1
  O2-  O236  1  0.70461627  0.33506141  0.72709990  1
  O2-  O237  1  0.69343929  0.82558451  0.06374728  1
  O2-  O238  1  0.71070155  0.82699332  0.40305962  1
  O2-  O239  1  0.71144572  0.83122257  0.73779311  1
  O2-  O240  1  0.46424451  0.41359897  0.26286360  1
  O2-  O241  1  0.46746203  0.41593795  0.60081538  1
  O2-  O242  1  0.45585843  0.41375535  0.93917232  1
  O2-  O243  1  0.45209115  0.91860000  0.27556210  1
  O2-  O244  1  0.45930349  0.91885366  0.60141539  1
  O2-  O245  1  0.46276282  0.91782272  0.93291925  1
  O2-  O246  1  0.96025223  0.41758237  0.26561859  1
  O2-  O247  1  0.96107014  0.41715564  0.59664818  1
  O2-  O248  1  0.96107968  0.41426016  0.93294405  1
  O2-  O249  1  0.95884086  0.91864512  0.26893228  1
  O2-  O250  1  0.95217109  0.91500296  0.60848147  1
  O2-  O251  1  0.95352816  0.92323689  0.93306349  1
  O2-  O252  1  0.32949662  0.29268666  0.26593233  1
  O2-  O253  1  0.32896294  0.29828138  0.60196330  1
  O2-  O254  1  0.33558696  0.29347262  0.93869980  1
  O2-  O255  1  0.33279877  0.79872979  0.27497352  1
  O2-  O256  1  0.33230474  0.79049420  0.59897989  1
  O2-  O257  1  0.33413199  0.79289917  0.93319207  1
  O2-  O258  1  0.82832261  0.29489778  0.26584050  1
  O2-  O259  1  0.83142544  0.29391305  0.59830987  1
  O2-  O260  1  0.83085432  0.28981686  0.93315552  1
  O2-  O261  1  0.83649489  0.78633781  0.26803539  1
  O2-  O262  1  0.83808307  0.78731603  0.60541849  1
  O2-  O263  1  0.82714262  0.79224424  0.93474458  1
  O2-  O264  1  0.41219934  0.04384473  0.06141456  1
  O2-  O265  1  0.41748534  0.04881650  0.40131673  1
  O2-  O266  1  0.42166672  0.05106642  0.73273233  1
  O2-  O267  1  0.42104546  0.54494937  0.06773151  1
  O2-  O268  1  0.41979557  0.53649457  0.40044214  1
  O2-  O269  1  0.42051281  0.54052296  0.73484436  1
  O2-  O270  1  0.92584937  0.05858196  0.06144070  1
  O2-  O271  1  0.92299362  0.05031088  0.40064707  1
  O2-  O272  1  0.91633948  0.05508453  0.72642480  1
  O2-  O273  1  0.91541812  0.53771022  0.06858399  1
  O2-  O274  1  0.91511801  0.54340680  0.39611918  1
  O2-  O275  1  0.91604755  0.54297172  0.72588887  1
  O2-  O276  1  0.29316104  0.16321980  0.06132936  1
  O2-  O277  1  0.28475657  0.16739666  0.39890283  1
  O2-  O278  1  0.28883970  0.17139055  0.73478909  1
  O2-  O279  1  0.29236972  0.67197607  0.06913878  1
  O2-  O280  1  0.29247753  0.66640429  0.40397683  1
  O2-  O281  1  0.28915108  0.66480030  0.73277446  1
  O2-  O282  1  0.78252342  0.16627225  0.06731013  1
  O2-  O283  1  0.78937110  0.17093822  0.40184092  1
  O2-  O284  1  0.79008072  0.16737378  0.72764241  1
  O2-  O285  1  0.78951037  0.66437553  0.06910874  1
  O2-  O286  1  0.79205081  0.65964506  0.39742107  1
  O2-  O287  1  0.79338688  0.65890048  0.73003798  1
