# generated using pymatgen
data_Ca2Al2SiO7
_symmetry_space_group_name_H-M   'P 1'
_cell_length_a   15.46201158
_cell_length_b   15.46206753
_cell_length_c   15.28710864
_cell_angle_alpha   89.99792305
_cell_angle_beta   90.00746337
_cell_angle_gamma   90.01891686
_symmetry_Int_Tables_number   1
_chemical_formula_structural   Ca2Al2SiO7
_chemical_formula_sum   'Ca48 Al48 Si24 O168'
_cell_volume   3654.76017733
_cell_formula_units_Z   24
loop_
 _symmetry_equiv_pos_site_id
 _symmetry_equiv_pos_as_xyz
  1  'x, y, z'
loop_
 _atom_type_symbol
 _atom_type_oxidation_number
  Ca2+  2.0
  Al0+  0.0
  Si0+  0.0
  O2-  -2.0
loop_
 _atom_site_type_symbol
 _atom_site_label
 _atom_site_symmetry_multiplicity
 _atom_site_fract_x
 _atom_site_fract_y
 _atom_site_fract_z
 _atom_site_occupancy
  Ca2+  Ca0  1  0.18000905  0.07133282  0.17338008  1
  Ca2+  Ca1  1  0.17131927  0.08085225  0.50087563  1
  Ca2+  Ca2  1  0.17669951  0.07738878  0.84675195  1
  Ca2+  Ca3  1  0.17411270  0.58931550  0.16721383  1
  Ca2+  Ca4  1  0.17082306  0.58133665  0.49961069  1
  Ca2+  Ca5  1  0.17031821  0.57249005  0.84234252  1
  Ca2+  Ca6  1  0.65957849  0.07582064  0.16822057  1
  Ca2+  Ca7  1  0.66283551  0.07800409  0.50383548  1
  Ca2+  Ca8  1  0.66661051  0.08124001  0.83885124  1
  Ca2+  Ca9  1  0.66737942  0.58043154  0.17078276  1
  Ca2+  Ca10  1  0.67505332  0.57617068  0.51207544  1
  Ca2+  Ca11  1  0.66832170  0.57830773  0.83251263  1
  Ca2+  Ca12  1  0.07748027  0.33754279  0.16259232  1
  Ca2+  Ca13  1  0.07746692  0.33580235  0.49611169  1
  Ca2+  Ca14  1  0.08755141  0.33567657  0.82861855  1
  Ca2+  Ca15  1  0.09753473  0.82582778  0.16126086  1
  Ca2+  Ca16  1  0.08175165  0.82723740  0.48869744  1
  Ca2+  Ca17  1  0.08973720  0.82721840  0.83290073  1
  Ca2+  Ca18  1  0.58079635  0.31779717  0.16035406  1
  Ca2+  Ca19  1  0.58857247  0.32253905  0.49768658  1
  Ca2+  Ca20  1  0.57720422  0.32301553  0.82328988  1
  Ca2+  Ca21  1  0.57335775  0.84228936  0.16290151  1
  Ca2+  Ca22  1  0.58117881  0.83841208  0.49263228  1
  Ca2+  Ca23  1  0.58034688  0.84200987  0.83273169  1
  Ca2+  Ca24  1  0.33065577  0.42879600  0.16958728  1
  Ca2+  Ca25  1  0.33246127  0.42030805  0.50765440  1
  Ca2+  Ca26  1  0.32597939  0.41577325  0.84021428  1
  Ca2+  Ca27  1  0.33389135  0.91923785  0.17046686  1
  Ca2+  Ca28  1  0.33448100  0.91923494  0.49211354  1
  Ca2+  Ca29  1  0.33236669  0.92251174  0.84600618  1
  Ca2+  Ca30  1  0.83451939  0.41455577  0.17047045  1
  Ca2+  Ca31  1  0.83046164  0.41964172  0.50675211  1
  Ca2+  Ca32  1  0.82760203  0.41872707  0.83067734  1
  Ca2+  Ca33  1  0.82159273  0.92041945  0.16872312  1
  Ca2+  Ca34  1  0.81984622  0.92136431  0.51006440  1
  Ca2+  Ca35  1  0.82108502  0.92882936  0.83938775  1
  Ca2+  Ca36  1  0.42435894  0.15254016  0.16295434  1
  Ca2+  Ca37  1  0.42593156  0.16982781  0.49632115  1
  Ca2+  Ca38  1  0.42598593  0.16556724  0.82748046  1
  Ca2+  Ca39  1  0.40605095  0.67679679  0.16229543  1
  Ca2+  Ca40  1  0.41696244  0.67244976  0.49090516  1
  Ca2+  Ca41  1  0.40972021  0.67353484  0.83527946  1
  Ca2+  Ca42  1  0.91308573  0.17140068  0.16188743  1
  Ca2+  Ca43  1  0.91308369  0.17149243  0.49560241  1
  Ca2+  Ca44  1  0.91568439  0.15979299  0.83020971  1
  Ca2+  Ca45  1  0.93136290  0.67059318  0.16040686  1
  Ca2+  Ca46  1  0.92205583  0.66365905  0.49253036  1
  Ca2+  Ca47  1  0.92074490  0.66552902  0.83020330  1
  Al0+  Al48  1  -0.00246046  0.00055721  0.00714994  1
  Al0+  Al49  1  -0.00115713  0.00056302  0.33556487  1
  Al0+  Al50  1  -0.00058086  -0.00254632  0.66710311  1
  Al0+  Al51  1  -0.00108564  0.50051571  -0.00312290  1
  Al0+  Al52  1  0.00004508  0.50070476  0.32407976  1
  Al0+  Al53  1  0.00320828  0.49996657  0.67232626  1
  Al0+  Al54  1  0.50103234  -0.00128608  -0.00431437  1
  Al0+  Al55  1  0.49981315  -0.00041927  0.33527216  1
  Al0+  Al56  1  0.49781692  0.00037028  0.66410427  1
  Al0+  Al57  1  0.50056894  0.49983153  0.00334219  1
  Al0+  Al58  1  0.50048137  0.49854533  0.33848238  1
  Al0+  Al59  1  0.49914383  0.50377407  0.66772770  1
  Al0+  Al60  1  0.24824833  0.25102892  0.01011835  1
  Al0+  Al61  1  0.24960118  0.25092667  0.33661693  1
  Al0+  Al62  1  0.25004188  0.24964154  0.66522416  1
  Al0+  Al63  1  0.25056919  0.74783161  -0.00729063  1
  Al0+  Al64  1  0.25080469  0.74891328  0.33557410  1
  Al0+  Al65  1  0.24959859  0.74897225  0.66278746  1
  Al0+  Al66  1  0.74983897  0.25106512  -0.00316710  1
  Al0+  Al67  1  0.74952795  0.24967218  0.32396984  1
  Al0+  Al68  1  0.75173324  0.25080979  0.66864524  1
  Al0+  Al69  1  0.75050490  0.74929427  0.00265494  1
  Al0+  Al70  1  0.75094411  0.74900945  0.33642321  1
  Al0+  Al71  1  0.75055395  0.75174118  0.67437180  1
  Al0+  Al72  1  0.43225155  0.81776407  0.32041857  1
  Al0+  Al73  1  0.67681266  0.42849097  0.68122486  1
  Al0+  Al74  1  0.56770192  0.18035638  0.31811319  1
  Al0+  Al75  1  0.32185427  0.56999620  0.01403837  1
  Al0+  Al76  1  0.57234528  0.17986950  0.65006570  1
  Al0+  Al77  1  0.32281852  0.07123531  0.01351751  1
  Al0+  Al78  1  0.32226131  0.07245242  0.35135845  1
  Al0+  Al79  1  0.56898391  0.17951467  0.98456982  1
  Al0+  Al80  1  0.17603833  0.42826485  0.01734930  1
  Al0+  Al81  1  0.42691281  0.32339070  0.65258655  1
  Al0+  Al82  1  0.67545446  0.93083151  0.68285132  1
  Al0+  Al83  1  0.82296925  0.07185471  0.67998505  1
  Al0+  Al84  1  0.67880147  0.92850364  0.01637192  1
  Al0+  Al85  1  0.18221970  0.42883230  0.67860449  1
  Al0+  Al86  1  0.06983167  0.68188132  0.31901538  1
  Al0+  Al87  1  0.82047803  0.07424428  0.01738564  1
  Al0+  Al88  1  0.17851744  0.92726473  0.01239765  1
  Al0+  Al89  1  0.43147280  0.81837937  0.98575136  1
  Al0+  Al90  1  0.32128976  0.57011776  0.34871938  1
  Al0+  Al91  1  0.17821129  0.92788277  0.34940184  1
  Al0+  Al92  1  0.93112974  0.31881833  0.32012340  1
  Al0+  Al93  1  0.68028954  0.92928958  0.34772579  1
  Al0+  Al94  1  0.82317072  0.57159885  0.68154352  1
  Al0+  Al95  1  0.07043908  0.68075635  0.98282832  1
  Si0+  Si96  1  0.67961868  0.42934388  0.01559030  1
  Si0+  Si97  1  0.92893299  0.82049964  0.65190409  1
  Si0+  Si98  1  0.68041478  0.42709975  0.34647004  1
  Si0+  Si99  1  0.57547433  0.67452760  0.98280996  1
  Si0+  Si100  1  0.17847980  0.92709412  0.68036833  1
  Si0+  Si101  1  0.17558841  0.42969477  0.34972832  1
  Si0+  Si102  1  0.82114360  0.57051008  0.01632671  1
  Si0+  Si103  1  0.32212715  0.57507645  0.68338846  1
  Si0+  Si104  1  0.92546979  0.82313451  0.98239754  1
  Si0+  Si105  1  0.92502628  0.82349104  0.31733770  1
  Si0+  Si106  1  0.82171831  0.56896713  0.34557742  1
  Si0+  Si107  1  0.93169087  0.32207236  0.65342053  1
  Si0+  Si108  1  0.31816353  0.06984273  0.68082228  1
  Si0+  Si109  1  0.06978416  0.67843768  0.64966005  1
  Si0+  Si110  1  0.42561340  0.32508634  0.31644548  1
  Si0+  Si111  1  0.57352545  0.68044923  0.65238684  1
  Si0+  Si112  1  0.07455618  0.17551891  0.31620835  1
  Si0+  Si113  1  0.42801133  0.82032900  0.64933773  1
  Si0+  Si114  1  0.42667968  0.32417454  0.98613345  1
  Si0+  Si115  1  0.07045058  0.17924226  0.98722654  1
  Si0+  Si116  1  0.07145569  0.17629928  0.65306462  1
  Si0+  Si117  1  0.57502506  0.67465494  0.31886753  1
  Si0+  Si118  1  0.82076101  0.07466768  0.34928410  1
  Si0+  Si119  1  0.92882667  0.32155380  0.98077348  1
  O2-  O120  1  0.25017083  -0.00090100  0.06182687  1
  O2-  O121  1  0.24613552  0.00332760  0.40072566  1
  O2-  O122  1  0.24789032  -0.00164681  0.72323531  1
  O2-  O123  1  0.24917311  0.49950177  0.06535061  1
  O2-  O124  1  0.24922284  0.49226635  0.39487076  1
  O2-  O125  1  0.26013446  0.49967873  0.72528811  1
  O2-  O126  1  0.74884623  0.00220304  0.06667463  1
  O2-  O127  1  0.75723087  0.00196840  0.39398191  1
  O2-  O128  1  0.74542067  0.00625553  0.72989210  1
  O2-  O129  1  0.74871945  0.50166491  0.05945271  1
  O2-  O130  1  0.74809614  0.50153995  0.38839597  1
  O2-  O131  1  0.74876074  0.50150563  0.73096960  1
  O2-  O132  1  0.00537480  0.24430238  0.27243987  1
  O2-  O133  1  -0.00090071  0.24712907  0.61171507  1
  O2-  O134  1  0.00055191  0.25004859  0.94093452  1
  O2-  O135  1  -0.00041113  0.76153684  0.27280441  1
  O2-  O136  1  -0.00213153  0.74823128  0.60734635  1
  O2-  O137  1  -0.00246053  0.75809859  0.93663436  1
  O2-  O138  1  0.48955310  0.25244164  0.27175161  1
  O2-  O139  1  0.50302550  0.25607138  0.60150101  1
  O2-  O140  1  0.49090351  0.25228317  0.94071002  1
  O2-  O141  1  0.50682403  0.74239051  0.27391723  1
  O2-  O142  1  0.50258265  0.75134664  0.60948415  1
  O2-  O143  1  0.50724092  0.74379921  0.93893406  1
  O2-  O144  1  0.06770432  0.18167422  0.09190791  1
  O2-  O145  1  0.07284645  0.17684784  0.42245816  1
  O2-  O146  1  0.07288017  0.17565687  0.75813589  1
  O2-  O147  1  0.06836599  0.68043844  0.09589372  1
  O2-  O148  1  0.06542786  0.67846625  0.43280940  1
  O2-  O149  1  0.07117563  0.67986061  0.75440634  1
  O2-  O150  1  0.56929099  0.18126949  0.09781734  1
  O2-  O151  1  0.57159210  0.18332472  0.43097206  1
  O2-  O152  1  0.56854879  0.17853962  0.76354105  1
  O2-  O153  1  0.57754425  0.67199137  0.08825817  1
  O2-  O154  1  0.57643126  0.67446152  0.42471588  1
  O2-  O155  1  0.57279486  0.67946696  0.75727544  1
  O2-  O156  1  0.17339357  0.43272887  0.24470353  1
  O2-  O157  1  0.17761999  0.43262501  0.56558174  1
  O2-  O158  1  0.17689720  0.42834349  0.90334987  1
  O2-  O159  1  0.18140153  0.92703104  0.23649601  1
  O2-  O160  1  0.17797759  0.92693074  0.57560852  1
  O2-  O161  1  0.18015333  0.93051017  0.89764870  1
  O2-  O162  1  0.68193345  0.42841866  0.24111076  1
  O2-  O163  1  0.68199047  0.42997395  0.56697305  1
  O2-  O164  1  0.68105920  0.43040370  0.91079686  1
  O2-  O165  1  0.68057627  0.92880854  0.23528374  1
  O2-  O166  1  0.67788644  0.92881433  0.56894495  1
  O2-  O167  1  0.68011454  0.92946045  0.90299036  1
  O2-  O168  1  0.43227038  0.32859459  0.09148457  1
  O2-  O169  1  0.42961573  0.32757693  0.42191641  1
  O2-  O170  1  0.42400898  0.31786005  0.76629254  1
  O2-  O171  1  0.43114980  0.81768747  0.09859108  1
  O2-  O172  1  0.43401554  0.81603467  0.43424877  1
  O2-  O173  1  0.42382954  0.81922915  0.75414877  1
  O2-  O174  1  0.92796397  0.32298299  0.08604404  1
  O2-  O175  1  0.93106900  0.32059041  0.43373609  1
  O2-  O176  1  0.93460011  0.32456973  0.75830282  1
  O2-  O177  1  0.92220639  0.81792572  0.08787697  1
  O2-  O178  1  0.92286530  0.81772877  0.42327389  1
  O2-  O179  1  0.93310074  0.82092537  0.75657445  1
  O2-  O180  1  0.32284777  0.06850354  0.23827344  1
  O2-  O181  1  0.31661106  0.06966010  0.57602352  1
  O2-  O182  1  0.32007495  0.07116218  0.89895733  1
  O2-  O183  1  0.32021154  0.57065729  0.23621459  1
  O2-  O184  1  0.31821965  0.57934151  0.57782460  1
  O2-  O185  1  0.32089327  0.56805268  0.90005228  1
  O2-  O186  1  0.81839926  0.07617679  0.24411230  1
  O2-  O187  1  0.82797656  0.06760025  0.56644506  1
  O2-  O188  1  0.82042088  0.07366932  0.90386542  1
  O2-  O189  1  0.82082328  0.56784807  0.24044313  1
  O2-  O190  1  0.82434148  0.56901072  0.56718460  1
  O2-  O191  1  0.82130554  0.56871306  0.91138932  1
  O2-  O192  1  0.04994313  0.08133106  0.27116514  1
  O2-  O193  1  0.04445841  0.08446108  0.60455376  1
  O2-  O194  1  0.04312370  0.08656537  0.94015665  1
  O2-  O195  1  0.03432710  0.58865479  0.26208796  1
  O2-  O196  1  0.04185156  0.58607139  0.60355868  1
  O2-  O197  1  0.03473088  0.58475483  0.92922185  1
  O2-  O198  1  0.53773794  0.08302086  0.26640581  1
  O2-  O199  1  0.53820969  0.08238599  0.59738118  1
  O2-  O200  1  0.54057070  0.08334032  0.92959417  1
  O2-  O201  1  0.55122808  0.57968893  0.27438895  1
  O2-  O202  1  0.54731274  0.58871036  0.60333600  1
  O2-  O203  1  0.54906810  0.58072511  0.93655724  1
  O2-  O204  1  0.16860362  0.20096215  0.27156338  1
  O2-  O205  1  0.16129298  0.20588405  0.60315447  1
  O2-  O206  1  0.16360837  0.20650891  0.94085879  1
  O2-  O207  1  0.16749656  0.70970272  0.26731198  1
  O2-  O208  1  0.16107827  0.70796539  0.60136280  1
  O2-  O209  1  0.16585649  0.70805390  0.92494386  1
  O2-  O210  1  0.66204656  0.21455033  0.26169570  1
  O2-  O211  1  0.67305539  0.20613341  0.59926424  1
  O2-  O212  1  0.66490315  0.21478685  0.93160274  1
  O2-  O213  1  0.66954090  0.69835270  0.27311746  1
  O2-  O214  1  0.66687351  0.70648076  0.60619822  1
  O2-  O215  1  0.66989324  0.69875423  0.93717587  1
  O2-  O216  1  0.07646035  0.45822780  0.06669772  1
  O2-  O217  1  0.08314086  0.46232130  0.39520387  1
  O2-  O218  1  0.08841916  0.46214735  0.73588785  1
  O2-  O219  1  0.07988605  0.95105670  0.06552522  1
  O2-  O220  1  0.07685847  0.95170951  0.40127082  1
  O2-  O221  1  0.08627298  0.95167790  0.72732229  1
  O2-  O222  1  0.58845666  0.45497007  0.06475338  1
  O2-  O223  1  0.58850948  0.44982029  0.39519416  1
  O2-  O224  1  0.57887620  0.45834482  0.73436894  1
  O2-  O225  1  0.58044562  0.95811753  0.06674125  1
  O2-  O226  1  0.58528118  0.96198679  0.40223103  1
  O2-  O227  1  0.57520495  0.95613347  0.73297355  1
  O2-  O228  1  0.19943136  0.33075191  0.07334152  1
  O2-  O229  1  0.19282264  0.33362557  0.39386024  1
  O2-  O230  1  0.20718537  0.33038669  0.73254409  1
  O2-  O231  1  0.20820122  0.82820801  0.06028774  1
  O2-  O232  1  0.21005245  0.83124855  0.40425616  1
  O2-  O233  1  0.20777701  0.83472927  0.72587330  1
  O2-  O234  1  0.71169748  0.33933546  0.06313371  1
  O2-  O235  1  0.71440427  0.33707891  0.39275292  1
  O2-  O236  1  0.70776381  0.33202810  0.73525907  1
  O2-  O237  1  0.70645500  0.82909875  0.06838535  1
  O2-  O238  1  0.70865165  0.83092302  0.40156930  1
  O2-  O239  1  0.70527858  0.83362131  0.73650511  1
  O2-  O240  1  0.45645305  0.41743062  0.26995312  1
  O2-  O241  1  0.44770022  0.42608141  0.60412453  1
  O2-  O242  1  0.45633724  0.41608824  0.93796255  1
  O2-  O243  1  0.46301822  0.91435938  0.26804649  1
  O2-  O244  1  0.45273601  0.91267393  0.60213204  1
  O2-  O245  1  0.46159025  0.91378674  0.92860283  1
  O2-  O246  1  0.96077935  0.41405746  0.26203701  1
  O2-  O247  1  0.96443788  0.41255777  0.60519868  1
  O2-  O248  1  0.95606384  0.41315948  0.93284859  1
  O2-  O249  1  0.94160358  0.92054481  0.27594060  1
  O2-  O250  1  0.95846633  0.91075064  0.60181711  1
  O2-  O251  1  0.94715465  0.91933342  0.94031817  1
  O2-  O252  1  0.32875668  0.30677519  0.27467548  1
  O2-  O253  1  0.32989763  0.29147337  0.59713689  1
  O2-  O254  1  0.32950025  0.30289929  0.94583943  1
  O2-  O255  1  0.33547772  0.78637823  0.26865086  1
  O2-  O256  1  0.33752914  0.78859018  0.60035103  1
  O2-  O257  1  0.33670384  0.78699444  0.92716365  1
  O2-  O258  1  0.83600835  0.28982432  0.26178317  1
  O2-  O259  1  0.83887330  0.29968418  0.60574570  1
  O2-  O260  1  0.83725817  0.29454548  0.93275099  1
  O2-  O261  1  0.83452216  0.79020786  0.26910921  1
  O2-  O262  1  0.83553601  0.79442217  0.60652645  1
  O2-  O263  1  0.83396890  0.79143800  0.93470383  1
  O2-  O264  1  0.41987853  0.03906388  0.06413552  1
  O2-  O265  1  0.41772988  0.03767933  0.40588621  1
  O2-  O266  1  0.40966922  0.04109610  0.72701195  1
  O2-  O267  1  0.42070213  0.54491398  0.06839301  1
  O2-  O268  1  0.41922745  0.54304989  0.40376677  1
  O2-  O269  1  0.41822001  0.56054343  0.72692541  1
  O2-  O270  1  0.91836877  0.04802978  0.07219585  1
  O2-  O271  1  0.91697710  0.05708868  0.39304321  1
  O2-  O272  1  0.91979229  0.03776879  0.73494287  1
  O2-  O273  1  0.91146119  0.53888167  0.06358243  1
  O2-  O274  1  0.91253915  0.53710115  0.39233882  1
  O2-  O275  1  0.91938382  0.54005302  0.73632751  1
  O2-  O276  1  0.29738605  0.16868654  0.06855686  1
  O2-  O277  1  0.29711430  0.17294971  0.40319732  1
  O2-  O278  1  0.28961571  0.16092453  0.72807133  1
  O2-  O279  1  0.29012141  0.66812401  0.06379613  1
  O2-  O280  1  0.28709774  0.66411818  0.40495402  1
  O2-  O281  1  0.28768717  0.66582885  0.73061905  1
  O2-  O282  1  0.79391367  0.17470276  0.06700622  1
  O2-  O283  1  0.79026988  0.16763284  0.39453486  1
  O2-  O284  1  0.80584846  0.17319102  0.72991107  1
  O2-  O285  1  0.79656890  0.66226540  0.06459611  1
  O2-  O286  1  0.79846840  0.66089287  0.39485051  1
  O2-  O287  1  0.79726603  0.66928685  0.73600544  1
