# generated using pymatgen
data_Ca2Al2SiO7
_symmetry_space_group_name_H-M   'P 1'
_cell_length_a   15.45245625
_cell_length_b   15.45215270
_cell_length_c   15.27985235
_cell_angle_alpha   90.00205165
_cell_angle_beta   89.99264384
_cell_angle_gamma   89.98268367
_symmetry_Int_Tables_number   1
_chemical_formula_structural   Ca2Al2SiO7
_chemical_formula_sum   'Ca48 Al48 Si24 O168'
_cell_volume   3648.42689055
_cell_formula_units_Z   24
loop_
 _symmetry_equiv_pos_site_id
 _symmetry_equiv_pos_as_xyz
  1  'x, y, z'
loop_
 _atom_type_symbol
 _atom_type_oxidation_number
  Ca2+  2.0
  Al0+  0.0
  Si0+  0.0
  O2-  -2.0
loop_
 _atom_site_type_symbol
 _atom_site_label
 _atom_site_symmetry_multiplicity
 _atom_site_fract_x
 _atom_site_fract_y
 _atom_site_fract_z
 _atom_site_occupancy
  Ca2+  Ca0  1  0.17251178  0.08499106  0.16970932  1
  Ca2+  Ca1  1  0.16970223  0.08925706  0.50704159  1
  Ca2+  Ca2  1  0.17701455  0.09345754  0.83436431  1
  Ca2+  Ca3  1  0.16913697  0.57741122  0.18104420  1
  Ca2+  Ca4  1  0.16565948  0.57614519  0.50054873  1
  Ca2+  Ca5  1  0.16663018  0.57571714  0.83407356  1
  Ca2+  Ca6  1  0.67521579  0.08782231  0.16972562  1
  Ca2+  Ca7  1  0.66194897  0.07892932  0.50734740  1
  Ca2+  Ca8  1  0.66971822  0.08117305  0.83696577  1
  Ca2+  Ca9  1  0.66679095  0.58022639  0.16801935  1
  Ca2+  Ca10  1  0.67535097  0.58554867  0.50178483  1
  Ca2+  Ca11  1  0.66533832  0.57590774  0.84232896  1
  Ca2+  Ca12  1  0.08152127  0.33259780  0.16533524  1
  Ca2+  Ca13  1  0.09142422  0.32723026  0.50004904  1
  Ca2+  Ca14  1  0.07247639  0.33010340  0.82343813  1
  Ca2+  Ca15  1  0.07583021  0.82512327  0.16457081  1
  Ca2+  Ca16  1  0.07047534  0.83025996  0.48973532  1
  Ca2+  Ca17  1  0.07074972  0.83777396  0.83014140  1
  Ca2+  Ca18  1  0.57975850  0.33301302  0.15919797  1
  Ca2+  Ca19  1  0.57980063  0.31973129  0.49836762  1
  Ca2+  Ca20  1  0.57356206  0.32873954  0.82750307  1
  Ca2+  Ca21  1  0.57204711  0.82423739  0.16108023  1
  Ca2+  Ca22  1  0.57770840  0.83706135  0.49476080  1
  Ca2+  Ca23  1  0.58514186  0.83245421  0.83310017  1
  Ca2+  Ca24  1  0.32965909  0.42294292  0.17543246  1
  Ca2+  Ca25  1  0.32256238  0.41398649  0.50443132  1
  Ca2+  Ca26  1  0.32849695  0.40468681  0.83672560  1
  Ca2+  Ca27  1  0.34104532  0.91852693  0.16986187  1
  Ca2+  Ca28  1  0.33184291  0.92128480  0.50694577  1
  Ca2+  Ca29  1  0.33569476  0.93129901  0.84080937  1
  Ca2+  Ca30  1  0.82847343  0.41866059  0.17006768  1
  Ca2+  Ca31  1  0.84160372  0.42412548  0.50327828  1
  Ca2+  Ca32  1  0.82748415  0.40884589  0.84295372  1
  Ca2+  Ca33  1  0.83858181  0.91692115  0.16813964  1
  Ca2+  Ca34  1  0.82853221  0.91282857  0.50833712  1
  Ca2+  Ca35  1  0.83280674  0.92063865  0.83849011  1
  Ca2+  Ca36  1  0.42333743  0.17116925  0.16048140  1
  Ca2+  Ca37  1  0.42329438  0.16489713  0.50053478  1
  Ca2+  Ca38  1  0.41441590  0.17281159  0.82582619  1
  Ca2+  Ca39  1  0.41287197  0.67491319  0.15999737  1
  Ca2+  Ca40  1  0.41383042  0.67284131  0.49111550  1
  Ca2+  Ca41  1  0.42357572  0.66967538  0.83528190  1
  Ca2+  Ca42  1  0.92343828  0.16878480  0.15979492  1
  Ca2+  Ca43  1  0.92958653  0.17227864  0.49623025  1
  Ca2+  Ca44  1  0.91652078  0.17532063  0.82747877  1
  Ca2+  Ca45  1  0.91493019  0.67153148  0.16714463  1
  Ca2+  Ca46  1  0.91884344  0.67485957  0.49118865  1
  Ca2+  Ca47  1  0.91176200  0.67967190  0.82967220  1
  Al0+  Al48  1  0.00237975  -0.00129523  0.00058900  1
  Al0+  Al49  1  0.00058838  0.00313150  0.32624430  1
  Al0+  Al50  1  -0.00131711  0.00000134  0.65875063  1
  Al0+  Al51  1  -0.00063822  0.49902801  -0.00281240  1
  Al0+  Al52  1  -0.00139123  0.49979809  0.33886680  1
  Al0+  Al53  1  0.00097175  0.50328338  0.67113562  1
  Al0+  Al54  1  0.50103197  -0.00071293  0.00322456  1
  Al0+  Al55  1  0.50219132  0.00067517  0.32423666  1
  Al0+  Al56  1  0.50019643  -0.00151204  0.67415699  1
  Al0+  Al57  1  0.49899602  0.49899964  -0.00303823  1
  Al0+  Al58  1  0.50072662  0.49939477  0.34097549  1
  Al0+  Al59  1  0.50110983  0.50146822  0.66093629  1
  Al0+  Al60  1  0.25101517  0.24856009  0.00494383  1
  Al0+  Al61  1  0.25154871  0.24966146  0.33244404  1
  Al0+  Al62  1  0.24937491  0.25216521  0.66870203  1
  Al0+  Al63  1  0.24954329  0.74990818  -0.00669520  1
  Al0+  Al64  1  0.24783605  0.75204806  0.33027854  1
  Al0+  Al65  1  0.25036323  0.74917949  0.67057554  1
  Al0+  Al66  1  0.75069041  0.24935329  0.00721023  1
  Al0+  Al67  1  0.75029239  0.24792480  0.33219036  1
  Al0+  Al68  1  0.74987532  0.25112725  0.65760563  1
  Al0+  Al69  1  0.75073452  0.74908992  -0.00626622  1
  Al0+  Al70  1  0.74708412  0.75042931  0.33348676  1
  Al0+  Al71  1  0.74885949  0.75029184  0.66809861  1
  Al0+  Al72  1  0.32168091  0.57474898  0.34797134  1
  Al0+  Al73  1  0.67760974  0.42927620  0.01251907  1
  Al0+  Al74  1  0.18055067  0.43108510  0.68366028  1
  Al0+  Al75  1  0.92854872  0.82003642  0.65214792  1
  Al0+  Al76  1  0.07076954  0.18043047  0.65320471  1
  Al0+  Al77  1  0.93075478  0.82082598  0.98527726  1
  Al0+  Al78  1  0.57038240  0.67839092  0.98529826  1
  Al0+  Al79  1  0.92887264  0.31992355  0.98887498  1
  Al0+  Al80  1  0.92696421  0.32450957  0.65102881  1
  Al0+  Al81  1  0.57147834  0.17893759  0.31709950  1
  Al0+  Al82  1  0.17928623  0.42764715  0.34910934  1
  Al0+  Al83  1  0.42778171  0.32248181  0.65014370  1
  Al0+  Al84  1  0.81808732  0.57090116  0.34668016  1
  Al0+  Al85  1  0.42892297  0.31954895  0.98852003  1
  Al0+  Al86  1  0.82186282  0.06984915  0.01348856  1
  Al0+  Al87  1  0.67954776  0.92904671  0.68109069  1
  Al0+  Al88  1  0.57019007  0.17622533  0.65391126  1
  Al0+  Al89  1  0.42772884  0.82319953  0.98192670  1
  Al0+  Al90  1  0.06943658  0.67740018  0.31972027  1
  Al0+  Al91  1  0.92560825  0.82157724  0.31748010  1
  Al0+  Al92  1  0.07335344  0.18081108  0.31710251  1
  Al0+  Al93  1  0.32160447  0.07064459  0.01692566  1
  Al0+  Al94  1  0.42833007  0.82001314  0.32191509  1
  Al0+  Al95  1  0.31901511  0.06941558  0.67882847  1
  Si0+  Si96  1  0.67941104  0.92534541  0.01929380  1
  Si0+  Si97  1  0.67952305  0.42870299  0.68014032  1
  Si0+  Si98  1  0.82293012  0.07304946  0.68031400  1
  Si0+  Si99  1  0.32283547  0.06881135  0.34762121  1
  Si0+  Si100  1  0.57384988  0.17840804  0.98482937  1
  Si0+  Si101  1  0.92784162  0.32240641  0.31636965  1
  Si0+  Si102  1  0.67964942  0.93170283  0.34630801  1
  Si0+  Si103  1  0.07375805  0.67909042  0.65040315  1
  Si0+  Si104  1  0.82255375  0.57272581  0.01567037  1
  Si0+  Si105  1  0.07289582  0.67571006  0.98137318  1
  Si0+  Si106  1  0.82337540  0.07149587  0.34971391  1
  Si0+  Si107  1  0.17746009  0.93097781  0.34720985  1
  Si0+  Si108  1  0.17859853  0.92602885  0.01768593  1
  Si0+  Si109  1  0.82002699  0.57146789  0.68347699  1
  Si0+  Si110  1  0.17523848  0.92583888  0.68195164  1
  Si0+  Si111  1  0.07276171  0.17843059  0.98405411  1
  Si0+  Si112  1  0.57131511  0.67899311  0.64969476  1
  Si0+  Si113  1  0.67742885  0.42436372  0.35332307  1
  Si0+  Si114  1  0.42948690  0.82026891  0.65367579  1
  Si0+  Si115  1  0.42974301  0.32233915  0.31713743  1
  Si0+  Si116  1  0.31964884  0.57117187  0.01296292  1
  Si0+  Si117  1  0.57153073  0.67600322  0.31887147  1
  Si0+  Si118  1  0.17769377  0.42941260  0.01537169  1
  Si0+  Si119  1  0.32534695  0.57415560  0.68613626  1
  O2-  O120  1  0.25022585  -0.00827442  0.06268939  1
  O2-  O121  1  0.24997281  0.00019816  0.39050416  1
  O2-  O122  1  0.24204880  -0.00353974  0.72598207  1
  O2-  O123  1  0.24734094  0.50214906  0.05634004  1
  O2-  O124  1  0.25110077  0.50128787  0.39794826  1
  O2-  O125  1  0.25890474  0.50300402  0.73046683  1
  O2-  O126  1  0.74798338  -0.00536159  0.06290823  1
  O2-  O127  1  0.75355495  -0.00136407  0.39062338  1
  O2-  O128  1  0.75389812  0.00517926  0.72574184  1
  O2-  O129  1  0.75331861  0.50384437  0.05862024  1
  O2-  O130  1  0.74579600  0.49450629  0.39618758  1
  O2-  O131  1  0.75387919  0.49547313  0.72452006  1
  O2-  O132  1  -0.00134706  0.25600840  0.27185378  1
  O2-  O133  1  -0.00032874  0.25293235  0.60194931  1
  O2-  O134  1  0.00219996  0.24530003  0.94063575  1
  O2-  O135  1  -0.00366759  0.74770431  0.26876007  1
  O2-  O136  1  0.00709093  0.74959828  0.60654233  1
  O2-  O137  1  0.00397712  0.74490037  0.93793751  1
  O2-  O138  1  0.50092047  0.25738128  0.27126922  1
  O2-  O139  1  0.49862973  0.24805251  0.60242821  1
  O2-  O140  1  0.50184573  0.24348129  0.94104479  1
  O2-  O141  1  0.49551596  0.73758328  0.27665509  1
  O2-  O142  1  0.49795824  0.74826928  0.60904823  1
  O2-  O143  1  0.50226776  0.75316402  0.93299833  1
  O2-  O144  1  0.07282448  0.18101639  0.08994760  1
  O2-  O145  1  0.07262635  0.17880032  0.42980401  1
  O2-  O146  1  0.06929073  0.18154890  0.76706594  1
  O2-  O147  1  0.07359001  0.67476303  0.08670958  1
  O2-  O148  1  0.06868257  0.68155130  0.43341954  1
  O2-  O149  1  0.07216856  0.67936928  0.75643569  1
  O2-  O150  1  0.57340631  0.18197265  0.09074347  1
  O2-  O151  1  0.56820603  0.17468042  0.42996361  1
  O2-  O152  1  0.57143087  0.17824773  0.76753460  1
  O2-  O153  1  0.56774032  0.67809144  0.09909987  1
  O2-  O154  1  0.57519702  0.68154109  0.42467683  1
  O2-  O155  1  0.57222776  0.67732844  0.75448475  1
  O2-  O156  1  0.18146428  0.42792427  0.23462251  1
  O2-  O157  1  0.18058182  0.43293354  0.57101096  1
  O2-  O158  1  0.17786754  0.42941721  0.91034983  1
  O2-  O159  1  0.17771302  0.93204766  0.24220257  1
  O2-  O160  1  0.17867296  0.92259394  0.57625731  1
  O2-  O161  1  0.17690014  0.92834091  0.91191160  1
  O2-  O162  1  0.67682811  0.42477401  0.24753011  1
  O2-  O163  1  0.67923121  0.43266954  0.57511570  1
  O2-  O164  1  0.67864543  0.42898829  0.89898652  1
  O2-  O165  1  0.67910208  0.93319260  0.24148377  1
  O2-  O166  1  0.67869389  0.92754636  0.56733589  1
  O2-  O167  1  0.68071589  0.92645321  0.91347452  1
  O2-  O168  1  0.42973201  0.32059014  0.10177392  1
  O2-  O169  1  0.42965810  0.31861507  0.42246232  1
  O2-  O170  1  0.43005558  0.32113860  0.76418846  1
  O2-  O171  1  0.42762768  0.81925374  0.09573666  1
  O2-  O172  1  0.43232132  0.82415110  0.43559599  1
  O2-  O173  1  0.43117421  0.81909413  0.75832104  1
  O2-  O174  1  0.93168793  0.32158210  0.10185435  1
  O2-  O175  1  0.92629594  0.31945585  0.42171178  1
  O2-  O176  1  0.92528734  0.32130353  0.76506905  1
  O2-  O177  1  0.93165590  0.81866912  0.09796279  1
  O2-  O178  1  0.92587766  0.82074171  0.43124378  1
  O2-  O179  1  0.92852535  0.81923662  0.76544733  1
  O2-  O180  1  0.32217731  0.06744202  0.24249231  1
  O2-  O181  1  0.32097627  0.06473787  0.56517729  1
  O2-  O182  1  0.31813874  0.07334396  0.90384223  1
  O2-  O183  1  0.32131038  0.57262395  0.23362744  1
  O2-  O184  1  0.32325294  0.57890672  0.58104900  1
  O2-  O185  1  0.31857417  0.57052092  0.90780909  1
  O2-  O186  1  0.82243242  0.07226295  0.24448778  1
  O2-  O187  1  0.82291068  0.07001957  0.57456345  1
  O2-  O188  1  0.82011049  0.07037423  0.90016516  1
  O2-  O189  1  0.81499253  0.57056102  0.23348561  1
  O2-  O190  1  0.81707012  0.57388362  0.57823880  1
  O2-  O191  1  0.82251759  0.57234654  0.90985497  1
  O2-  O192  1  0.04134627  0.08616132  0.26030440  1
  O2-  O193  1  0.04582851  0.08206150  0.59771955  1
  O2-  O194  1  0.05170559  0.08354799  0.94036070  1
  O2-  O195  1  0.04225873  0.57798233  0.26828253  1
  O2-  O196  1  0.04508175  0.58666225  0.60519640  1
  O2-  O197  1  0.04650163  0.58264820  0.93435721  1
  O2-  O198  1  0.53841216  0.08573167  0.25875721  1
  O2-  O199  1  0.53972279  0.07720339  0.60216935  1
  O2-  O200  1  0.55343820  0.08224688  0.94347028  1
  O2-  O201  1  0.55518020  0.57869460  0.27767587  1
  O2-  O202  1  0.54714272  0.58804497  0.59921527  1
  O2-  O203  1  0.53811081  0.58225796  0.92954985  1
  O2-  O204  1  0.17053774  0.20982850  0.26297610  1
  O2-  O205  1  0.16862854  0.20983151  0.60037275  1
  O2-  O206  1  0.16563289  0.20773305  0.93954029  1
  O2-  O207  1  0.16622095  0.70792659  0.26464234  1
  O2-  O208  1  0.16913733  0.70099436  0.60653935  1
  O2-  O209  1  0.16543974  0.70033818  0.93280371  1
  O2-  O210  1  0.66978124  0.20651145  0.26471279  1
  O2-  O211  1  0.66700009  0.20394515  0.59708531  1
  O2-  O212  1  0.66646456  0.20675645  0.93979803  1
  O2-  O213  1  0.66063386  0.70922209  0.26903563  1
  O2-  O214  1  0.66188335  0.71048356  0.60218797  1
  O2-  O215  1  0.66920413  0.70262715  0.93072789  1
  O2-  O216  1  0.08525601  0.45654974  0.06227369  1
  O2-  O217  1  0.08026346  0.45240337  0.40190611  1
  O2-  O218  1  0.08454135  0.46516648  0.73925758  1
  O2-  O219  1  0.08671665  0.95386199  0.06603615  1
  O2-  O220  1  0.08577685  0.96129785  0.39405651  1
  O2-  O221  1  0.07996706  0.95066008  0.72509800  1
  O2-  O222  1  0.58169854  0.46206032  0.06759990  1
  O2-  O223  1  0.58425914  0.44790392  0.40109592  1
  O2-  O224  1  0.58807857  0.46072077  0.72648655  1
  O2-  O225  1  0.58508544  0.94876439  0.06475036  1
  O2-  O226  1  0.58862594  0.96429956  0.39371192  1
  O2-  O227  1  0.58452347  0.95753402  0.73892264  1
  O2-  O228  1  0.20654230  0.33836928  0.06343488  1
  O2-  O229  1  0.21212232  0.32962761  0.40191961  1
  O2-  O230  1  0.20884622  0.33437793  0.73877746  1
  O2-  O231  1  0.20124394  0.83001058  0.06057771  1
  O2-  O232  1  0.20303877  0.83909053  0.39507596  1
  O2-  O233  1  0.20109961  0.83331512  0.73080298  1
  O2-  O234  1  0.70897259  0.33492905  0.07042385  1
  O2-  O235  1  0.70480150  0.33045477  0.39811139  1
  O2-  O236  1  0.70354958  0.33478344  0.72526976  1
  O2-  O237  1  0.70654610  0.83105724  0.06303383  1
  O2-  O238  1  0.70173969  0.83869416  0.39438604  1
  O2-  O239  1  0.71159399  0.83295343  0.73604586  1
  O2-  O240  1  0.45301486  0.41830871  0.27459071  1
  O2-  O241  1  0.45659567  0.42065289  0.59698392  1
  O2-  O242  1  0.45778564  0.41481847  0.93226389  1
  O2-  O243  1  0.46696901  0.91168889  0.26377535  1
  O2-  O244  1  0.45940111  0.91127955  0.60679663  1
  O2-  O245  1  0.45632418  0.92304305  0.93235691  1
  O2-  O246  1  0.95017089  0.41722771  0.27258559  1
  O2-  O247  1  0.95524781  0.42525060  0.60369912  1
  O2-  O248  1  0.95686597  0.41651382  0.93307312  1
  O2-  O249  1  0.95619816  0.91926002  0.26533434  1
  O2-  O250  1  0.95368057  0.91670723  0.59631994  1
  O2-  O251  1  0.96374379  0.91697718  0.93098379  1
  O2-  O252  1  0.33753865  0.29440583  0.27010630  1
  O2-  O253  1  0.32950608  0.29401728  0.59930447  1
  O2-  O254  1  0.33196479  0.28727293  0.93580963  1
  O2-  O255  1  0.33068777  0.79804776  0.26677509  1
  O2-  O256  1  0.33589013  0.79498766  0.60793172  1
  O2-  O257  1  0.32993985  0.79459523  0.92804231  1
  O2-  O258  1  0.83490170  0.29412095  0.27033015  1
  O2-  O259  1  0.82990585  0.29948440  0.59445185  1
  O2-  O260  1  0.83174435  0.28804381  0.93680813  1
  O2-  O261  1  0.82658553  0.79366234  0.26573643  1
  O2-  O262  1  0.83256407  0.78464296  0.59980402  1
  O2-  O263  1  0.83454374  0.79170293  0.92992699  1
  O2-  O264  1  0.41992297  0.04314667  0.07023482  1
  O2-  O265  1  0.41478346  0.03736280  0.39246542  1
  O2-  O266  1  0.41312687  0.03689522  0.73638345  1
  O2-  O267  1  0.41076246  0.54231903  0.06023508  1
  O2-  O268  1  0.42153207  0.55122497  0.40168795  1
  O2-  O269  1  0.42143771  0.55117884  0.72833026  1
  O2-  O270  1  0.91942302  0.03972234  0.06694520  1
  O2-  O271  1  0.91654158  0.04554616  0.39509264  1
  O2-  O272  1  0.91649404  0.04634115  0.72615891  1
  O2-  O273  1  0.91635707  0.54633158  0.06132947  1
  O2-  O274  1  0.91408277  0.54287105  0.40358209  1
  O2-  O275  1  0.91369562  0.55255997  0.73055694  1
  O2-  O276  1  0.28755150  0.16540698  0.07389143  1
  O2-  O277  1  0.29713155  0.16153006  0.39341695  1
  O2-  O278  1  0.28932450  0.16603944  0.73332693  1
  O2-  O279  1  0.29364667  0.66471708  0.05813513  1
  O2-  O280  1  0.29259258  0.67395354  0.40018355  1
  O2-  O281  1  0.29718999  0.66649715  0.73530169  1
  O2-  O282  1  0.79050791  0.16419704  0.07232542  1
  O2-  O283  1  0.79395938  0.16270276  0.39711896  1
  O2-  O284  1  0.79723097  0.16816755  0.72368976  1
  O2-  O285  1  0.79611525  0.66636100  0.06100992  1
  O2-  O286  1  0.78410987  0.66697262  0.40230702  1
  O2-  O287  1  0.78523156  0.66055026  0.73217688  1
