# generated using pymatgen
data_Ca2Al2SiO7
_symmetry_space_group_name_H-M   'P 1'
_cell_length_a   15.45836772
_cell_length_b   15.45768235
_cell_length_c   15.28314293
_cell_angle_alpha   89.99502821
_cell_angle_beta   89.99552005
_cell_angle_gamma   90.00572136
_symmetry_Int_Tables_number   1
_chemical_formula_structural   Ca2Al2SiO7
_chemical_formula_sum   'Ca48 Al48 Si24 O168'
_cell_volume   3651.91517857
_cell_formula_units_Z   24
loop_
 _symmetry_equiv_pos_site_id
 _symmetry_equiv_pos_as_xyz
  1  'x, y, z'
loop_
 _atom_type_symbol
 _atom_type_oxidation_number
  Ca2+  2.0
  Al0+  0.0
  Si0+  0.0
  O2-  -2.0
loop_
 _atom_site_type_symbol
 _atom_site_label
 _atom_site_symmetry_multiplicity
 _atom_site_fract_x
 _atom_site_fract_y
 _atom_site_fract_z
 _atom_site_occupancy
  Ca2+  Ca0  1  0.16295504  0.06962128  0.17007972  1
  Ca2+  Ca1  1  0.16574662  0.08083036  0.50750860  1
  Ca2+  Ca2  1  0.16469518  0.08190539  0.83442240  1
  Ca2+  Ca3  1  0.17776043  0.59536720  0.17215009  1
  Ca2+  Ca4  1  0.16905365  0.58777775  0.49760228  1
  Ca2+  Ca5  1  0.17255130  0.58586135  0.84368940  1
  Ca2+  Ca6  1  0.66823889  0.07103571  0.17324530  1
  Ca2+  Ca7  1  0.67775519  0.07807592  0.50132903  1
  Ca2+  Ca8  1  0.67349502  0.07563945  0.83911368  1
  Ca2+  Ca9  1  0.67685566  0.58511198  0.16833003  1
  Ca2+  Ca10  1  0.67649238  0.59025722  0.50302758  1
  Ca2+  Ca11  1  0.67717114  0.58454899  0.84118715  1
  Ca2+  Ca12  1  0.06907955  0.33495992  0.16188815  1
  Ca2+  Ca13  1  0.07215858  0.32616398  0.49791119  1
  Ca2+  Ca14  1  0.06890931  0.33118265  0.82690585  1
  Ca2+  Ca15  1  0.08748420  0.82684234  0.16235670  1
  Ca2+  Ca16  1  0.07639640  0.83240869  0.49467471  1
  Ca2+  Ca17  1  0.08067503  0.82896183  0.83249618  1
  Ca2+  Ca18  1  0.58084228  0.33631756  0.15692892  1
  Ca2+  Ca19  1  0.58355177  0.33089154  0.49604516  1
  Ca2+  Ca20  1  0.57816605  0.34363599  0.83607077  1
  Ca2+  Ca21  1  0.59067255  0.82499561  0.16236357  1
  Ca2+  Ca22  1  0.58643637  0.82402236  0.49435070  1
  Ca2+  Ca23  1  0.59465505  0.82078735  0.83224865  1
  Ca2+  Ca24  1  0.33706878  0.42771700  0.16777492  1
  Ca2+  Ca25  1  0.33174176  0.42293425  0.50154860  1
  Ca2+  Ca26  1  0.33022078  0.42058408  0.84290859  1
  Ca2+  Ca27  1  0.32025622  0.90791954  0.16981488  1
  Ca2+  Ca28  1  0.32424674  0.91942556  0.50334045  1
  Ca2+  Ca29  1  0.32730227  0.92232472  0.83921523  1
  Ca2+  Ca30  1  0.83692819  0.42392258  0.16869307  1
  Ca2+  Ca31  1  0.84346785  0.42686783  0.50245028  1
  Ca2+  Ca32  1  0.83363198  0.42398921  0.84036165  1
  Ca2+  Ca33  1  0.82155405  0.91935620  0.17398182  1
  Ca2+  Ca34  1  0.83379680  0.92180206  0.50501155  1
  Ca2+  Ca35  1  0.83582026  0.91973505  0.83516385  1
  Ca2+  Ca36  1  0.41881104  0.17473146  0.15901243  1
  Ca2+  Ca37  1  0.41477445  0.16414463  0.49822230  1
  Ca2+  Ca38  1  0.41457959  0.17053286  0.82899521  1
  Ca2+  Ca39  1  0.42816531  0.65876154  0.16103857  1
  Ca2+  Ca40  1  0.42955660  0.66285983  0.49240394  1
  Ca2+  Ca41  1  0.43051033  0.66139003  0.83304439  1
  Ca2+  Ca42  1  0.90637855  0.17715971  0.16469321  1
  Ca2+  Ca43  1  0.90593927  0.17489971  0.49651076  1
  Ca2+  Ca44  1  0.91655684  0.17726995  0.82320547  1
  Ca2+  Ca45  1  0.92729152  0.65788765  0.16195453  1
  Ca2+  Ca46  1  0.91522292  0.67079496  0.49402824  1
  Ca2+  Ca47  1  0.91549429  0.66863487  0.82861244  1
  Al0+  Al48  1  0.00106982  0.00036079  0.00525219  1
  Al0+  Al49  1  -0.00035336  0.00139528  0.34014887  1
  Al0+  Al50  1  -0.00038265  -0.00178535  0.66539436  1
  Al0+  Al51  1  0.00223788  0.49925098  -0.00684775  1
  Al0+  Al52  1  0.00127413  0.49902021  0.32961203  1
  Al0+  Al53  1  0.00180944  0.49956675  0.66728357  1
  Al0+  Al54  1  0.50007793  0.00043377  0.00357215  1
  Al0+  Al55  1  0.49855937  -0.00087426  0.33582847  1
  Al0+  Al56  1  0.49729515  -0.00071658  0.67108546  1
  Al0+  Al57  1  0.50054466  0.49978102  -0.00258514  1
  Al0+  Al58  1  0.49990791  0.50036280  0.33435869  1
  Al0+  Al59  1  0.50016639  0.49990685  0.66089912  1
  Al0+  Al60  1  0.25004835  0.25022821  -0.00296466  1
  Al0+  Al61  1  0.24811905  0.25074730  0.33053851  1
  Al0+  Al62  1  0.24903073  0.25055352  0.66653171  1
  Al0+  Al63  1  0.25128938  0.75090849  0.00148171  1
  Al0+  Al64  1  0.25111705  0.75084211  0.34249828  1
  Al0+  Al65  1  0.25218994  0.75022403  0.66818797  1
  Al0+  Al66  1  0.74830458  0.25089286  -0.00357926  1
  Al0+  Al67  1  0.74687950  0.24983214  0.33035842  1
  Al0+  Al68  1  0.74634378  0.25027634  0.66691139  1
  Al0+  Al69  1  0.75266021  0.75094163  0.00402616  1
  Al0+  Al70  1  0.74966634  0.74906550  0.33555359  1
  Al0+  Al71  1  0.75126995  0.74822390  0.66189032  1
  Al0+  Al72  1  0.56985972  0.67955802  0.65196561  1
  Al0+  Al73  1  0.82447254  0.57102990  0.01504777  1
  Al0+  Al74  1  0.07104207  0.68156380  0.32097529  1
  Al0+  Al75  1  0.17968858  0.93018915  0.01331257  1
  Al0+  Al76  1  0.17886537  0.92890197  0.34952896  1
  Al0+  Al77  1  0.42946004  0.32060604  0.98591129  1
  Al0+  Al78  1  0.92765638  0.32041195  0.98445809  1
  Al0+  Al79  1  0.32041176  0.56986016  0.01227931  1
  Al0+  Al80  1  0.31992823  0.07156605  0.68117910  1
  Al0+  Al81  1  0.57262298  0.68062097  0.98670305  1
  Al0+  Al82  1  0.82152978  0.57038916  0.67982884  1
  Al0+  Al83  1  0.67932846  0.92866669  0.01291308  1
  Al0+  Al84  1  0.57190121  0.67923670  0.31719646  1
  Al0+  Al85  1  0.07045559  0.17920513  0.65222551  1
  Al0+  Al86  1  0.93032031  0.81899854  0.65355744  1
  Al0+  Al87  1  0.67924338  0.42962928  0.01367830  1
  Al0+  Al88  1  0.07301114  0.68024426  0.98658139  1
  Al0+  Al89  1  0.92832095  0.31966253  0.31794983  1
  Al0+  Al90  1  0.82307299  0.56854684  0.34690107  1
  Al0+  Al91  1  0.81901104  0.07266450  0.34807171  1
  Al0+  Al92  1  0.92544162  0.32167228  0.65002676  1
  Al0+  Al93  1  0.67731745  0.92687580  0.35068840  1
  Al0+  Al94  1  0.82092507  0.07183434  0.68148199  1
  Al0+  Al95  1  0.32179231  0.56978543  0.34880995  1
  Si0+  Si96  1  0.42863992  0.32023625  0.65009241  1
  Si0+  Si97  1  0.07328134  0.17653359  0.31501152  1
  Si0+  Si98  1  0.42836290  0.82240699  0.31753736  1
  Si0+  Si99  1  0.42651820  0.82334992  0.65002409  1
  Si0+  Si100  1  0.42793840  0.82341936  0.98371767  1
  Si0+  Si101  1  0.92902846  0.82353998  0.98579178  1
  Si0+  Si102  1  0.67839690  0.92762286  0.68315291  1
  Si0+  Si103  1  0.18074412  0.42970754  0.68175330  1
  Si0+  Si104  1  0.07595138  0.67723715  0.65040999  1
  Si0+  Si105  1  0.67708744  0.42813664  0.34974980  1
  Si0+  Si106  1  0.67514214  0.42795602  0.68228379  1
  Si0+  Si107  1  0.17787941  0.42638237  0.35016888  1
  Si0+  Si108  1  0.56899220  0.17578663  0.65166497  1
  Si0+  Si109  1  0.92786348  0.82416477  0.31645203  1
  Si0+  Si110  1  0.56863715  0.17811197  0.31823988  1
  Si0+  Si111  1  0.07118599  0.17601690  0.98431001  1
  Si0+  Si112  1  0.32223222  0.07406020  0.01759003  1
  Si0+  Si113  1  0.57095153  0.17562564  0.98174710  1
  Si0+  Si114  1  0.32280900  0.57039913  0.68197291  1
  Si0+  Si115  1  0.17803879  0.42635276  0.01619655  1
  Si0+  Si116  1  0.32047901  0.07474842  0.34845090  1
  Si0+  Si117  1  0.82198144  0.07303083  0.01535161  1
  Si0+  Si118  1  0.17736828  0.92662112  0.68525377  1
  Si0+  Si119  1  0.42759742  0.32118425  0.31864547  1
  O2-  O120  1  0.25466353  0.00465547  0.06132888  1
  O2-  O121  1  0.25086296  0.00793424  0.39329680  1
  O2-  O122  1  0.24506851  -0.00255092  0.72801638  1
  O2-  O123  1  0.24476429  0.49669170  0.06071991  1
  O2-  O124  1  0.24635481  0.49537184  0.39527045  1
  O2-  O125  1  0.24865303  0.50371818  0.72439381  1
  O2-  O126  1  0.75301956  0.00454296  0.05894645  1
  O2-  O127  1  0.75222195  -0.00361562  0.39940268  1
  O2-  O128  1  0.74648957  -0.00339458  0.72801353  1
  O2-  O129  1  0.75279887  0.49836025  0.06516324  1
  O2-  O130  1  0.74707224  0.49473646  0.39410334  1
  O2-  O131  1  0.74792082  0.49317632  0.72420151  1
  O2-  O132  1  0.00170128  0.24249298  0.27162928  1
  O2-  O133  1  -0.00657120  0.24487962  0.60072694  1
  O2-  O134  1  0.00191956  0.24373523  0.94021491  1
  O2-  O135  1  -0.00330028  0.75568570  0.27204553  1
  O2-  O136  1  0.00578677  0.74440753  0.60739934  1
  O2-  O137  1  -0.00380679  0.75316075  0.94130717  1
  O2-  O138  1  0.49666475  0.24854709  0.27682049  1
  O2-  O139  1  0.49867298  0.24802807  0.60855660  1
  O2-  O140  1  0.50252550  0.24494316  0.93743098  1
  O2-  O141  1  0.49845241  0.75636091  0.27192155  1
  O2-  O142  1  0.49489538  0.75474735  0.60590530  1
  O2-  O143  1  0.49992954  0.75819375  0.93943157  1
  O2-  O144  1  0.07150523  0.17571081  0.08989551  1
  O2-  O145  1  0.07927286  0.18002695  0.42011652  1
  O2-  O146  1  0.07173589  0.18424538  0.76600728  1
  O2-  O147  1  0.07567096  0.68293319  0.09962037  1
  O2-  O148  1  0.06989658  0.68289998  0.43437309  1
  O2-  O149  1  0.07953684  0.67914600  0.75596839  1
  O2-  O150  1  0.56852100  0.17446761  0.08755101  1
  O2-  O151  1  0.56735658  0.17929057  0.42373133  1
  O2-  O152  1  0.56710356  0.17448452  0.75648536  1
  O2-  O153  1  0.57131127  0.68081051  0.09952406  1
  O2-  O154  1  0.56883283  0.67830109  0.43061574  1
  O2-  O155  1  0.56928300  0.67906743  0.76522891  1
  O2-  O156  1  0.18065300  0.42335004  0.24487299  1
  O2-  O157  1  0.18337613  0.42908634  0.57654692  1
  O2-  O158  1  0.18109089  0.42619849  0.91015343  1
  O2-  O159  1  0.18171989  0.92833853  0.23621601  1
  O2-  O160  1  0.18047899  0.92473418  0.57976387  1
  O2-  O161  1  0.18034586  0.93197100  0.90028630  1
  O2-  O162  1  0.67490831  0.42800625  0.24449253  1
  O2-  O163  1  0.66981007  0.42856767  0.57679207  1
  O2-  O164  1  0.67887146  0.43216782  0.89981598  1
  O2-  O165  1  0.67659632  0.93024710  0.23692599  1
  O2-  O166  1  0.67728252  0.92979802  0.57779482  1
  O2-  O167  1  0.68087499  0.92966017  0.89952699  1
  O2-  O168  1  0.43016444  0.31849785  0.09934845  1
  O2-  O169  1  0.42785984  0.32009912  0.42421166  1
  O2-  O170  1  0.42911115  0.32212700  0.75496832  1
  O2-  O171  1  0.42624389  0.82206510  0.08925581  1
  O2-  O172  1  0.42916566  0.82213906  0.42339312  1
  O2-  O173  1  0.42383337  0.82279602  0.75542566  1
  O2-  O174  1  0.92901028  0.31900026  0.09781023  1
  O2-  O175  1  0.93005557  0.31988142  0.43077578  1
  O2-  O176  1  0.92828867  0.32228368  0.76354171  1
  O2-  O177  1  0.93059481  0.82663927  0.09113226  1
  O2-  O178  1  0.92955434  0.82298211  0.42235204  1
  O2-  O179  1  0.93093466  0.81848208  0.76704186  1
  O2-  O180  1  0.32079562  0.07705435  0.24307223  1
  O2-  O181  1  0.31991496  0.07027099  0.56787998  1
  O2-  O182  1  0.32175003  0.07421778  0.91193240  1
  O2-  O183  1  0.32307410  0.56803407  0.23587691  1
  O2-  O184  1  0.32362772  0.56758392  0.57680315  1
  O2-  O185  1  0.31970403  0.56769721  0.89851805  1
  O2-  O186  1  0.81378314  0.07366313  0.23420899  1
  O2-  O187  1  0.81669179  0.07183598  0.56887809  1
  O2-  O188  1  0.82228757  0.07109057  0.90953309  1
  O2-  O189  1  0.82477577  0.56683063  0.23427484  1
  O2-  O190  1  0.82050448  0.57073551  0.56657944  1
  O2-  O191  1  0.82245908  0.57194213  0.90115824  1
  O2-  O192  1  0.04977675  0.08106520  0.27215034  1
  O2-  O193  1  0.05181694  0.07753309  0.60374572  1
  O2-  O194  1  0.04695861  0.08191082  0.93824350  1
  O2-  O195  1  0.04519755  0.58376009  0.26712960  1
  O2-  O196  1  0.05388780  0.58243579  0.60618364  1
  O2-  O197  1  0.04814020  0.58313488  0.93103467  1
  O2-  O198  1  0.54020933  0.08623373  0.27084263  1
  O2-  O199  1  0.53850274  0.08488263  0.60368916  1
  O2-  O200  1  0.54379444  0.08247151  0.93481246  1
  O2-  O201  1  0.53718591  0.58239557  0.26590880  1
  O2-  O202  1  0.53676931  0.58417806  0.59600744  1
  O2-  O203  1  0.53791704  0.58603403  0.93155337  1
  O2-  O204  1  0.16585644  0.20388821  0.26614266  1
  O2-  O205  1  0.16754869  0.21309432  0.59790957  1
  O2-  O206  1  0.16531643  0.20065931  0.93853829  1
  O2-  O207  1  0.16977907  0.71378533  0.27135116  1
  O2-  O208  1  0.16994213  0.70369221  0.60420603  1
  O2-  O209  1  0.16871397  0.71413176  0.93130751  1
  O2-  O210  1  0.65820341  0.20670304  0.26799927  1
  O2-  O211  1  0.65945837  0.20453827  0.60263436  1
  O2-  O212  1  0.66441066  0.19955738  0.93522745  1
  O2-  O213  1  0.66953732  0.70839109  0.26477528  1
  O2-  O214  1  0.66527300  0.71072817  0.59713587  1
  O2-  O215  1  0.67003973  0.71242857  0.93389666  1
  O2-  O216  1  0.08380251  0.45018453  0.05965581  1
  O2-  O217  1  0.08546216  0.45344506  0.39651702  1
  O2-  O218  1  0.08880201  0.45448846  0.72998193  1
  O2-  O219  1  0.08433539  0.96018446  0.07082608  1
  O2-  O220  1  0.08235322  0.95686691  0.40421112  1
  O2-  O221  1  0.08371208  0.95000321  0.73089531  1
  O2-  O222  1  0.58063742  0.45728941  0.06597566  1
  O2-  O223  1  0.58385320  0.45321826  0.39745434  1
  O2-  O224  1  0.58201648  0.45773627  0.72855751  1
  O2-  O225  1  0.58232566  0.95793000  0.06773312  1
  O2-  O226  1  0.57885210  0.95767754  0.40300039  1
  O2-  O227  1  0.58436349  0.95211605  0.72911461  1
  O2-  O228  1  0.20450257  0.33287845  0.06223859  1
  O2-  O229  1  0.20565084  0.33340152  0.39760450  1
  O2-  O230  1  0.21297107  0.34024130  0.73052375  1
  O2-  O231  1  0.21325647  0.83521183  0.06848094  1
  O2-  O232  1  0.21384210  0.83645382  0.40830684  1
  O2-  O233  1  0.20658715  0.83369613  0.73199273  1
  O2-  O234  1  0.70066131  0.32786983  0.06380974  1
  O2-  O235  1  0.69926015  0.33312246  0.39441077  1
  O2-  O236  1  0.69307247  0.33254138  0.72752806  1
  O2-  O237  1  0.71171076  0.83467205  0.06962578  1
  O2-  O238  1  0.70403850  0.82843713  0.40286318  1
  O2-  O239  1  0.70735854  0.83424845  0.72694772  1
  O2-  O240  1  0.45767232  0.41198411  0.27160262  1
  O2-  O241  1  0.45766447  0.41062383  0.60003921  1
  O2-  O242  1  0.46092391  0.41540628  0.92874802  1
  O2-  O243  1  0.44844421  0.91783844  0.27179724  1
  O2-  O244  1  0.45088831  0.91766883  0.60444185  1
  O2-  O245  1  0.44932899  0.91939552  0.93992775  1
  O2-  O246  1  0.96376754  0.41403043  0.26276114  1
  O2-  O247  1  0.96225970  0.41864037  0.59846547  1
  O2-  O248  1  0.96180524  0.41476491  0.92822090  1
  O2-  O249  1  0.95234859  0.91934839  0.27307895  1
  O2-  O250  1  0.96000661  0.91503145  0.59805552  1
  O2-  O251  1  0.95728008  0.91695064  0.93921600  1
  O2-  O252  1  0.33553541  0.29590717  0.27041109  1
  O2-  O253  1  0.33743035  0.29252837  0.60194142  1
  O2-  O254  1  0.33251828  0.29108193  0.93044570  1
  O2-  O255  1  0.33476305  0.79354587  0.27400197  1
  O2-  O256  1  0.33308833  0.79733745  0.60284566  1
  O2-  O257  1  0.33618359  0.79526038  0.93554681  1
  O2-  O258  1  0.83050092  0.28998339  0.26483971  1
  O2-  O259  1  0.82439638  0.29791725  0.59983850  1
  O2-  O260  1  0.83062378  0.29182906  0.93005720  1
  O2-  O261  1  0.83352045  0.79901941  0.27279357  1
  O2-  O262  1  0.83524409  0.78879253  0.59673292  1
  O2-  O263  1  0.83570252  0.79959373  0.93892585  1
  O2-  O264  1  0.41621065  0.05120528  0.06372925  1
  O2-  O265  1  0.41336107  0.04829793  0.39572733  1
  O2-  O266  1  0.41579088  0.04150658  0.73791108  1
  O2-  O267  1  0.41558980  0.53560932  0.06577718  1
  O2-  O268  1  0.41641671  0.53414741  0.40454512  1
  O2-  O269  1  0.41356797  0.53748199  0.72812261  1
  O2-  O270  1  0.91526759  0.04982632  0.06265991  1
  O2-  O271  1  0.91938547  0.05304220  0.39975963  1
  O2-  O272  1  0.91809655  0.04094507  0.73416373  1
  O2-  O273  1  0.92423861  0.54083937  0.06426222  1
  O2-  O274  1  0.91974810  0.53658951  0.40050248  1
  O2-  O275  1  0.92033498  0.54400435  0.73221561  1
  O2-  O276  1  0.29618038  0.16787006  0.06329357  1
  O2-  O277  1  0.29715646  0.16933590  0.39467416  1
  O2-  O278  1  0.29077669  0.16922887  0.73441554  1
  O2-  O279  1  0.29218184  0.66665076  0.06631125  1
  O2-  O280  1  0.29241369  0.66486206  0.40577775  1
  O2-  O281  1  0.30010791  0.66407739  0.72776873  1
  O2-  O282  1  0.79436294  0.16640914  0.05966721  1
  O2-  O283  1  0.78234455  0.16898938  0.40111471  1
  O2-  O284  1  0.78748421  0.16833952  0.73480611  1
  O2-  O285  1  0.79833790  0.66949564  0.06791215  1
  O2-  O286  1  0.79286354  0.66553247  0.39978945  1
  O2-  O287  1  0.78821510  0.66678212  0.73296403  1
