# generated using pymatgen
data_Ca2Al2SiO7
_symmetry_space_group_name_H-M   'P 1'
_cell_length_a   15.47275221
_cell_length_b   15.46845054
_cell_length_c   15.29431113
_cell_angle_alpha   89.99249757
_cell_angle_beta   90.00024337
_cell_angle_gamma   89.99056451
_symmetry_Int_Tables_number   1
_chemical_formula_structural   Ca2Al2SiO7
_chemical_formula_sum   'Ca48 Al48 Si24 O168'
_cell_volume   3660.53273158
_cell_formula_units_Z   24
loop_
 _symmetry_equiv_pos_site_id
 _symmetry_equiv_pos_as_xyz
  1  'x, y, z'
loop_
 _atom_type_symbol
 _atom_type_oxidation_number
  Ca2+  2.0
  Al0+  0.0
  Si0+  0.0
  O2-  -2.0
loop_
 _atom_site_type_symbol
 _atom_site_label
 _atom_site_symmetry_multiplicity
 _atom_site_fract_x
 _atom_site_fract_y
 _atom_site_fract_z
 _atom_site_occupancy
  Ca2+  Ca0  1  0.17042285  0.08404411  0.17449943  1
  Ca2+  Ca1  1  0.17348851  0.07740208  0.50299863  1
  Ca2+  Ca2  1  0.17473991  0.07304409  0.83949510  1
  Ca2+  Ca3  1  0.17836788  0.57535345  0.17642945  1
  Ca2+  Ca4  1  0.16286453  0.58039112  0.49756803  1
  Ca2+  Ca5  1  0.17164324  0.58361162  0.83936013  1
  Ca2+  Ca6  1  0.66102889  0.08680547  0.16684024  1
  Ca2+  Ca7  1  0.67542077  0.09256347  0.50433635  1
  Ca2+  Ca8  1  0.67027527  0.08115442  0.84078119  1
  Ca2+  Ca9  1  0.66758748  0.58181144  0.17582929  1
  Ca2+  Ca10  1  0.66215885  0.58526868  0.50042325  1
  Ca2+  Ca11  1  0.66925938  0.58022649  0.83966936  1
  Ca2+  Ca12  1  0.09002976  0.32226717  0.16449991  1
  Ca2+  Ca13  1  0.08543044  0.32609562  0.49034692  1
  Ca2+  Ca14  1  0.08537247  0.32313261  0.83627574  1
  Ca2+  Ca15  1  0.09859572  0.83097706  0.16666244  1
  Ca2+  Ca16  1  0.08998446  0.83075298  0.49614043  1
  Ca2+  Ca17  1  0.08904574  0.83058123  0.82210955  1
  Ca2+  Ca18  1  0.57095527  0.31976845  0.16415196  1
  Ca2+  Ca19  1  0.56979536  0.32646750  0.49261886  1
  Ca2+  Ca20  1  0.57028981  0.32562234  0.83271534  1
  Ca2+  Ca21  1  0.58327064  0.82948740  0.16279877  1
  Ca2+  Ca22  1  0.57241043  0.83215950  0.49627522  1
  Ca2+  Ca23  1  0.57660697  0.83792417  0.83045271  1
  Ca2+  Ca24  1  0.33964153  0.42186882  0.17402634  1
  Ca2+  Ca25  1  0.33454379  0.41650529  0.49779296  1
  Ca2+  Ca26  1  0.34158728  0.42260255  0.83845436  1
  Ca2+  Ca27  1  0.32307583  0.93264330  0.16993656  1
  Ca2+  Ca28  1  0.32773105  0.92631764  0.50596340  1
  Ca2+  Ca29  1  0.32649717  0.92106307  0.83898036  1
  Ca2+  Ca30  1  0.83469209  0.41095045  0.16957410  1
  Ca2+  Ca31  1  0.82910177  0.41848806  0.50638699  1
  Ca2+  Ca32  1  0.83444239  0.41627514  0.84167228  1
  Ca2+  Ca33  1  0.82413031  0.91521748  0.16760858  1
  Ca2+  Ca34  1  0.83177282  0.91997115  0.50771362  1
  Ca2+  Ca35  1  0.83031146  0.91859631  0.83471097  1
  Ca2+  Ca36  1  0.41196546  0.17247014  0.15915998  1
  Ca2+  Ca37  1  0.40774185  0.17346525  0.49246993  1
  Ca2+  Ca38  1  0.40873102  0.16937038  0.82983381  1
  Ca2+  Ca39  1  0.41424947  0.66229214  0.16542378  1
  Ca2+  Ca40  1  0.41403126  0.67483853  0.49299754  1
  Ca2+  Ca41  1  0.41269276  0.67521345  0.82705892  1
  Ca2+  Ca42  1  0.93265538  0.17025003  0.16006360  1
  Ca2+  Ca43  1  0.92392342  0.16042654  0.49454348  1
  Ca2+  Ca44  1  0.92052784  0.16372451  0.83392962  1
  Ca2+  Ca45  1  0.92687221  0.66762315  0.16614417  1
  Ca2+  Ca46  1  0.93071914  0.67466948  0.49862373  1
  Ca2+  Ca47  1  0.92716388  0.67737278  0.82317921  1
  Al0+  Al48  1  -0.00295999  -0.00282212  0.00034408  1
  Al0+  Al49  1  -0.00384480  0.00062623  0.33092680  1
  Al0+  Al50  1  -0.00164572  0.00023555  0.67144576  1
  Al0+  Al51  1  0.00073235  0.50286352  -0.00304212  1
  Al0+  Al52  1  -0.00147074  0.50475331  0.33440741  1
  Al0+  Al53  1  -0.00044797  0.50016006  0.66561934  1
  Al0+  Al54  1  0.50011555  -0.00294066  0.00510984  1
  Al0+  Al55  1  0.50114663  -0.00120000  0.33444813  1
  Al0+  Al56  1  0.50274033  0.00078858  0.66368032  1
  Al0+  Al57  1  0.50433372  0.49844461  0.00081150  1
  Al0+  Al58  1  0.50206090  0.50056076  0.33183711  1
  Al0+  Al59  1  0.50036016  0.49597650  0.66439995  1
  Al0+  Al60  1  0.24807176  0.25193804  -0.00893442  1
  Al0+  Al61  1  0.24773042  0.25274968  0.33151302  1
  Al0+  Al62  1  0.24823119  0.25191627  0.66615337  1
  Al0+  Al63  1  0.25269778  0.74850402  0.00683782  1
  Al0+  Al64  1  0.24970200  0.74977131  0.33343163  1
  Al0+  Al65  1  0.25298223  0.74709812  0.65941185  1
  Al0+  Al66  1  0.74910834  0.25039218  -0.00498548  1
  Al0+  Al67  1  0.74680765  0.25143947  0.33254341  1
  Al0+  Al68  1  0.74906697  0.25095380  0.67372817  1
  Al0+  Al69  1  0.75192946  0.74881856  0.00339353  1
  Al0+  Al70  1  0.74955156  0.75083488  0.33192601  1
  Al0+  Al71  1  0.75297352  0.74811224  0.66456640  1
  Al0+  Al72  1  0.32225684  0.07330214  0.68113806  1
  Al0+  Al73  1  0.57009697  0.68152879  0.31998265  1
  Al0+  Al74  1  0.07182197  0.68064930  0.31652999  1
  Al0+  Al75  1  0.92940408  0.82362443  0.65174313  1
  Al0+  Al76  1  0.06899305  0.17948663  0.32215643  1
  Al0+  Al77  1  0.57279899  0.17670531  0.31929228  1
  Al0+  Al78  1  0.67939285  0.92845677  0.01355218  1
  Al0+  Al79  1  0.43042300  0.82261732  0.65358129  1
  Al0+  Al80  1  0.17611829  0.92770694  0.01425921  1
  Al0+  Al81  1  0.31883355  0.07322598  0.01350236  1
  Al0+  Al82  1  0.32385001  0.56998643  0.35054220  1
  Al0+  Al83  1  0.32346472  0.56873995  0.01198727  1
  Al0+  Al84  1  0.07200035  0.17492961  0.98242803  1
  Al0+  Al85  1  0.42819059  0.32163487  0.98363861  1
  Al0+  Al86  1  0.32208945  0.07300427  0.34727661  1
  Al0+  Al87  1  0.17703241  0.43002538  0.34792995  1
  Al0+  Al88  1  0.56865786  0.17466723  0.98322991  1
  Al0+  Al89  1  0.07362848  0.67819910  0.65090085  1
  Al0+  Al90  1  0.17630806  0.93057873  0.34861655  1
  Al0+  Al91  1  0.82086738  0.07188552  0.68140580  1
  Al0+  Al92  1  0.18144518  0.92663620  0.67989976  1
  Al0+  Al93  1  0.93040256  0.32205876  0.98582682  1
  Al0+  Al94  1  0.42788968  0.31965594  0.65034826  1
  Al0+  Al95  1  0.42775480  0.31898087  0.31818834  1
  Si0+  Si96  1  0.82063100  0.07364753  0.01891096  1
  Si0+  Si97  1  0.68133408  0.43012775  0.34982686  1
  Si0+  Si98  1  0.82192751  0.56988295  0.68331203  1
  Si0+  Si99  1  0.57244076  0.67609461  0.65317391  1
  Si0+  Si100  1  0.67894285  0.92519809  0.68167752  1
  Si0+  Si101  1  0.17595171  0.42940020  0.68299546  1
  Si0+  Si102  1  0.67868867  0.43020927  0.68451005  1
  Si0+  Si103  1  0.92507552  0.81885662  0.98538515  1
  Si0+  Si104  1  0.17607809  0.43049075  0.01387627  1
  Si0+  Si105  1  0.32268678  0.56795832  0.68008004  1
  Si0+  Si106  1  0.06841685  0.18048828  0.65193195  1
  Si0+  Si107  1  0.92582713  0.32421368  0.32147596  1
  Si0+  Si108  1  0.82176918  0.57024401  0.01650054  1
  Si0+  Si109  1  0.57379040  0.17889717  0.65090028  1
  Si0+  Si110  1  0.07228700  0.68316575  0.98605208  1
  Si0+  Si111  1  0.81721660  0.07149235  0.34586073  1
  Si0+  Si112  1  0.92658256  0.32142813  0.65254985  1
  Si0+  Si113  1  0.43036088  0.81680586  0.98690453  1
  Si0+  Si114  1  0.42663673  0.82295793  0.31359628  1
  Si0+  Si115  1  0.57473872  0.67812450  0.98536600  1
  Si0+  Si116  1  0.68108071  0.42832104  0.01732840  1
  Si0+  Si117  1  0.67911009  0.92598260  0.34966404  1
  Si0+  Si118  1  0.82072543  0.57419690  0.35108886  1
  Si0+  Si119  1  0.92730169  0.82242593  0.31431674  1
  O2-  O120  1  0.23946385  0.00823973  0.06230737  1
  O2-  O121  1  0.25048207  0.00049892  0.39751330  1
  O2-  O122  1  0.25450730  -0.00311927  0.73050185  1
  O2-  O123  1  0.25244233  0.49049301  0.05721992  1
  O2-  O124  1  0.25029486  0.49958749  0.40068149  1
  O2-  O125  1  0.24886972  0.50007711  0.72290759  1
  O2-  O126  1  0.75050404  0.00575444  0.06238874  1
  O2-  O127  1  0.74469181  0.00273524  0.38975920  1
  O2-  O128  1  0.74668348  -0.00499074  0.72531111  1
  O2-  O129  1  0.75497202  0.49649810  0.06021402  1
  O2-  O130  1  0.75205274  0.50102701  0.39371360  1
  O2-  O131  1  0.74975342  0.50126541  0.72747969  1
  O2-  O132  1  -0.00262965  0.25920745  0.27814624  1
  O2-  O133  1  -0.00465189  0.25020345  0.60911565  1
  O2-  O134  1  -0.00140487  0.24805092  0.93394641  1
  O2-  O135  1  0.00100402  0.75948034  0.26957894  1
  O2-  O136  1  0.00637937  0.75638582  0.60292655  1
  O2-  O137  1  0.00510330  0.75772922  0.94410570  1
  O2-  O138  1  0.49296759  0.23972436  0.27014067  1
  O2-  O139  1  0.49825122  0.23943711  0.60669421  1
  O2-  O140  1  0.49289375  0.24268910  0.93287767  1
  O2-  O141  1  0.49468556  0.75247883  0.26976419  1
  O2-  O142  1  0.50696368  0.74730266  0.60959315  1
  O2-  O143  1  0.50224007  0.74636238  0.94271982  1
  O2-  O144  1  0.07021173  0.17722765  0.09613502  1
  O2-  O145  1  0.06452490  0.17779689  0.43558889  1
  O2-  O146  1  0.06733616  0.18301043  0.75662328  1
  O2-  O147  1  0.06948182  0.68105558  0.09077748  1
  O2-  O148  1  0.06639335  0.67799474  0.42905204  1
  O2-  O149  1  0.07061842  0.67536644  0.76532641  1
  O2-  O150  1  0.56959392  0.17921142  0.09640681  1
  O2-  O151  1  0.58371842  0.18527043  0.43213207  1
  O2-  O152  1  0.57793443  0.18243300  0.75600326  1
  O2-  O153  1  0.57767251  0.67919746  0.09009349  1
  O2-  O154  1  0.57302875  0.68559784  0.43323029  1
  O2-  O155  1  0.57197914  0.67415862  0.75910436  1
  O2-  O156  1  0.17404651  0.43201580  0.23452360  1
  O2-  O157  1  0.17222922  0.42866312  0.57841866  1
  O2-  O158  1  0.17140621  0.43722694  0.90800843  1
  O2-  O159  1  0.17720642  0.93413584  0.23512794  1
  O2-  O160  1  0.18122579  0.92942219  0.56679114  1
  O2-  O161  1  0.18150570  0.92164693  0.90087677  1
  O2-  O162  1  0.68514641  0.43076791  0.24492056  1
  O2-  O163  1  0.68077879  0.43117340  0.57935745  1
  O2-  O164  1  0.68089400  0.43359771  0.91197230  1
  O2-  O165  1  0.68374401  0.92009440  0.24489933  1
  O2-  O166  1  0.68039770  0.92345885  0.57606920  1
  O2-  O167  1  0.68400413  0.92391039  0.90053963  1
  O2-  O168  1  0.43321176  0.32693357  0.09633980  1
  O2-  O169  1  0.43189667  0.32025081  0.43205043  1
  O2-  O170  1  0.43240255  0.32646596  0.76279426  1
  O2-  O171  1  0.43203483  0.81323360  0.09150492  1
  O2-  O172  1  0.43040577  0.82265997  0.41951278  1
  O2-  O173  1  0.43112142  0.81935229  0.76727673  1
  O2-  O174  1  0.93145082  0.32284133  0.09958646  1
  O2-  O175  1  0.92248639  0.32124944  0.42748088  1
  O2-  O176  1  0.92744340  0.32326024  0.75714377  1
  O2-  O177  1  0.91684540  0.81192782  0.08979448  1
  O2-  O178  1  0.92316492  0.82027821  0.41953047  1
  O2-  O179  1  0.92495971  0.81759898  0.76547690  1
  O2-  O180  1  0.32052831  0.07278850  0.23379861  1
  O2-  O181  1  0.31795747  0.07497468  0.56789494  1
  O2-  O182  1  0.32098474  0.06707886  0.89996553  1
  O2-  O183  1  0.32405553  0.56670026  0.23673570  1
  O2-  O184  1  0.32649376  0.56575262  0.57575438  1
  O2-  O185  1  0.32052773  0.57296467  0.89817181  1
  O2-  O186  1  0.81698053  0.07096950  0.24119143  1
  O2-  O187  1  0.81818692  0.07553926  0.56778097  1
  O2-  O188  1  0.81999173  0.07175907  0.91324145  1
  O2-  O189  1  0.81992772  0.57443346  0.24576113  1
  O2-  O190  1  0.82130147  0.56751445  0.57840377  1
  O2-  O191  1  0.81912911  0.57137521  0.91126500  1
  O2-  O192  1  0.03201603  0.08624825  0.26562305  1
  O2-  O193  1  0.03993836  0.08844573  0.60670884  1
  O2-  O194  1  0.04051209  0.07605600  0.93130463  1
  O2-  O195  1  0.03327706  0.58610463  0.26235872  1
  O2-  O196  1  0.03514437  0.58224780  0.59816091  1
  O2-  O197  1  0.04020511  0.59348039  0.93691649  1
  O2-  O198  1  0.55884496  0.07321361  0.27283658  1
  O2-  O199  1  0.56142685  0.08232739  0.60705464  1
  O2-  O200  1  0.54949184  0.07217027  0.93476987  1
  O2-  O201  1  0.54612893  0.58340148  0.26628520  1
  O2-  O202  1  0.54552077  0.58363389  0.60593897  1
  O2-  O203  1  0.55092861  0.58549784  0.93844209  1
  O2-  O204  1  0.16373228  0.20998738  0.26620957  1
  O2-  O205  1  0.15846072  0.21181863  0.60426158  1
  O2-  O206  1  0.16728786  0.20554941  0.92493852  1
  O2-  O207  1  0.16985004  0.70599563  0.26302754  1
  O2-  O208  1  0.17282846  0.69680915  0.59742068  1
  O2-  O209  1  0.16575801  0.70740807  0.94028904  1
  O2-  O210  1  0.66726821  0.21475310  0.26264316  1
  O2-  O211  1  0.66499770  0.21469883  0.60472841  1
  O2-  O212  1  0.66643966  0.20791266  0.93092701  1
  O2-  O213  1  0.66671925  0.71293225  0.26486333  1
  O2-  O214  1  0.66752618  0.69679765  0.60818799  1
  O2-  O215  1  0.66603680  0.70758236  0.93709836  1
  O2-  O216  1  0.08598393  0.46414425  0.06212803  1
  O2-  O217  1  0.07800529  0.46042359  0.40149387  1
  O2-  O218  1  0.08473352  0.45865326  0.73140229  1
  O2-  O219  1  0.07249450  0.94095218  0.06214446  1
  O2-  O220  1  0.07559427  0.95761799  0.39837004  1
  O2-  O221  1  0.08193064  0.95345686  0.73158931  1
  O2-  O222  1  0.59226107  0.46071461  0.06646351  1
  O2-  O223  1  0.59107824  0.46026491  0.39785231  1
  O2-  O224  1  0.58771562  0.45994710  0.73236318  1
  O2-  O225  1  0.58288866  0.95150115  0.07037398  1
  O2-  O226  1  0.58554817  0.94605425  0.39579207  1
  O2-  O227  1  0.58539331  0.94989400  0.72758306  1
  O2-  O228  1  0.19218665  0.33285204  0.05251242  1
  O2-  O229  1  0.20201788  0.33137080  0.40137244  1
  O2-  O230  1  0.20335905  0.33808640  0.73063584  1
  O2-  O231  1  0.21483461  0.83346252  0.06961880  1
  O2-  O232  1  0.20193820  0.82997693  0.39693939  1
  O2-  O233  1  0.20901027  0.82539891  0.72887594  1
  O2-  O234  1  0.70744061  0.33587153  0.06317994  1
  O2-  O235  1  0.71027861  0.33961259  0.39957429  1
  O2-  O236  1  0.70743546  0.34026028  0.73408483  1
  O2-  O237  1  0.71534207  0.83290546  0.06910963  1
  O2-  O238  1  0.71368881  0.83738865  0.39953547  1
  O2-  O239  1  0.70486399  0.83111727  0.72785408  1
  O2-  O240  1  0.46630619  0.41509849  0.26716865  1
  O2-  O241  1  0.46615660  0.41377265  0.59555055  1
  O2-  O242  1  0.46805125  0.41802483  0.93014882  1
  O2-  O243  1  0.45570499  0.91547251  0.26813631  1
  O2-  O244  1  0.46240603  0.91762297  0.59660906  1
  O2-  O245  1  0.45895653  0.90798817  0.94012148  1
  O2-  O246  1  0.94439405  0.42010790  0.27815372  1
  O2-  O247  1  0.95329300  0.41334063  0.60482854  1
  O2-  O248  1  0.95790045  0.42150635  0.93183232  1
  O2-  O249  1  0.94433109  0.91766664  0.26887016  1
  O2-  O250  1  0.94845716  0.92497149  0.60179869  1
  O2-  O251  1  0.94014412  0.91435586  0.94205028  1
  O2-  O252  1  0.32739368  0.30146652  0.26642972  1
  O2-  O253  1  0.32861745  0.29572579  0.59888902  1
  O2-  O254  1  0.32754599  0.30607063  0.93053017  1
  O2-  O255  1  0.33339052  0.79779266  0.26852672  1
  O2-  O256  1  0.33779499  0.78846714  0.59565225  1
  O2-  O257  1  0.33974445  0.78548799  0.93884573  1
  O2-  O258  1  0.83421135  0.29581156  0.27340710  1
  O2-  O259  1  0.83280582  0.29650249  0.60738617  1
  O2-  O260  1  0.83077341  0.29811260  0.93289247  1
  O2-  O261  1  0.83650315  0.78833990  0.26694211  1
  O2-  O262  1  0.83290289  0.78887742  0.59675089  1
  O2-  O263  1  0.83839859  0.78059869  0.93411058  1
  O2-  O264  1  0.41498717  0.03853404  0.06696702  1
  O2-  O265  1  0.42222832  0.04642421  0.39947894  1
  O2-  O266  1  0.42499899  0.05105939  0.72775568  1
  O2-  O267  1  0.42241770  0.54336559  0.06407444  1
  O2-  O268  1  0.42364795  0.54330180  0.40228906  1
  O2-  O269  1  0.41382068  0.53780165  0.72883131  1
  O2-  O270  1  0.91329165  0.04561431  0.06515160  1
  O2-  O271  1  0.90740183  0.04183778  0.39503373  1
  O2-  O272  1  0.91581599  0.04263610  0.73858579  1
  O2-  O273  1  0.91489820  0.54553995  0.06287063  1
  O2-  O274  1  0.91175198  0.54858371  0.39991636  1
  O2-  O275  1  0.91251471  0.53982202  0.73200876  1
  O2-  O276  1  0.29701873  0.17620157  0.05936160  1
  O2-  O277  1  0.29201695  0.17156961  0.39777337  1
  O2-  O278  1  0.28920706  0.17115687  0.73311414  1
  O2-  O279  1  0.29055043  0.66223173  0.06936033  1
  O2-  O280  1  0.29639127  0.66991179  0.39948109  1
  O2-  O281  1  0.29781173  0.66103009  0.72599804  1
  O2-  O282  1  0.79598439  0.16838473  0.06250355  1
  O2-  O283  1  0.79123835  0.16389997  0.39420181  1
  O2-  O284  1  0.78975471  0.16770918  0.73778444  1
  O2-  O285  1  0.79008510  0.65935560  0.06611821  1
  O2-  O286  1  0.78780263  0.66417990  0.39860592  1
  O2-  O287  1  0.79558795  0.66221216  0.73087499  1
