# generated using pymatgen
data_Ca2Al2SiO7
_symmetry_space_group_name_H-M   'P 1'
_cell_length_a   15.46029482
_cell_length_b   15.45989059
_cell_length_c   15.28478151
_cell_angle_alpha   89.99378431
_cell_angle_beta   90.01418538
_cell_angle_gamma   89.99935030
_symmetry_Int_Tables_number   1
_chemical_formula_structural   Ca2Al2SiO7
_chemical_formula_sum   'Ca48 Al48 Si24 O168'
_cell_volume   3653.28376215
_cell_formula_units_Z   24
loop_
 _symmetry_equiv_pos_site_id
 _symmetry_equiv_pos_as_xyz
  1  'x, y, z'
loop_
 _atom_type_symbol
 _atom_type_oxidation_number
  Ca2+  2.0
  Al0+  0.0
  Si0+  0.0
  O2-  -2.0
loop_
 _atom_site_type_symbol
 _atom_site_label
 _atom_site_symmetry_multiplicity
 _atom_site_fract_x
 _atom_site_fract_y
 _atom_site_fract_z
 _atom_site_occupancy
  Ca2+  Ca0  1  0.16572066  0.08271982  0.16331978  1
  Ca2+  Ca1  1  0.16733115  0.08230909  0.50477922  1
  Ca2+  Ca2  1  0.17169944  0.07704613  0.84699788  1
  Ca2+  Ca3  1  0.16674522  0.58301961  0.17756706  1
  Ca2+  Ca4  1  0.15808067  0.57684002  0.50181442  1
  Ca2+  Ca5  1  0.15918361  0.58023225  0.83644119  1
  Ca2+  Ca6  1  0.66808521  0.07469319  0.17365652  1
  Ca2+  Ca7  1  0.67260115  0.07438237  0.50368162  1
  Ca2+  Ca8  1  0.65893709  0.07401991  0.83843364  1
  Ca2+  Ca9  1  0.67840001  0.58321445  0.17302519  1
  Ca2+  Ca10  1  0.67188826  0.58327821  0.50158153  1
  Ca2+  Ca11  1  0.67184041  0.59110244  0.84158210  1
  Ca2+  Ca12  1  0.07836941  0.33365793  0.16623977  1
  Ca2+  Ca13  1  0.08185656  0.33666778  0.49320472  1
  Ca2+  Ca14  1  0.08677914  0.32900593  0.83058872  1
  Ca2+  Ca15  1  0.07777318  0.82444087  0.16029583  1
  Ca2+  Ca16  1  0.07039076  0.82499272  0.49033301  1
  Ca2+  Ca17  1  0.08098760  0.82374114  0.82585778  1
  Ca2+  Ca18  1  0.58680696  0.32903346  0.16095360  1
  Ca2+  Ca19  1  0.58480513  0.33118040  0.49483713  1
  Ca2+  Ca20  1  0.57599203  0.31921659  0.82388100  1
  Ca2+  Ca21  1  0.58815436  0.83271794  0.16122007  1
  Ca2+  Ca22  1  0.58961481  0.83223710  0.50019270  1
  Ca2+  Ca23  1  0.59222885  0.82718514  0.83001116  1
  Ca2+  Ca24  1  0.32564720  0.42576943  0.17729653  1
  Ca2+  Ca25  1  0.32409946  0.42095842  0.50387978  1
  Ca2+  Ca26  1  0.33128986  0.41257561  0.83109536  1
  Ca2+  Ca27  1  0.32795689  0.92024839  0.16408249  1
  Ca2+  Ca28  1  0.33145787  0.91729497  0.50257502  1
  Ca2+  Ca29  1  0.32666147  0.92254420  0.84396948  1
  Ca2+  Ca30  1  0.83199852  0.42656937  0.17646600  1
  Ca2+  Ca31  1  0.83546179  0.42075490  0.49577361  1
  Ca2+  Ca32  1  0.83076354  0.42773117  0.84008819  1
  Ca2+  Ca33  1  0.82364944  0.91867651  0.17575950  1
  Ca2+  Ca34  1  0.82878231  0.90980128  0.50210107  1
  Ca2+  Ca35  1  0.82481400  0.91020949  0.83564178  1
  Ca2+  Ca36  1  0.42175875  0.16791420  0.15705301  1
  Ca2+  Ca37  1  0.42277467  0.17234666  0.50134521  1
  Ca2+  Ca38  1  0.42419309  0.16442689  0.82850230  1
  Ca2+  Ca39  1  0.42266541  0.66505270  0.16236895  1
  Ca2+  Ca40  1  0.42269141  0.65980269  0.49652263  1
  Ca2+  Ca41  1  0.43061949  0.66816253  0.82922467  1
  Ca2+  Ca42  1  0.91233817  0.17385188  0.16561288  1
  Ca2+  Ca43  1  0.91342565  0.17252186  0.48926189  1
  Ca2+  Ca44  1  0.92335223  0.16536294  0.83325611  1
  Ca2+  Ca45  1  0.92129807  0.66286991  0.16543956  1
  Ca2+  Ca46  1  0.92219315  0.67297565  0.49359287  1
  Ca2+  Ca47  1  0.92339641  0.67099791  0.82927905  1
  Al0+  Al48  1  -0.00205074  0.00127893  -0.00012882  1
  Al0+  Al49  1  0.00085271  -0.00034391  0.33195340  1
  Al0+  Al50  1  -0.00064470  0.00046851  0.66441849  1
  Al0+  Al51  1  -0.00122975  0.50175074  -0.00017445  1
  Al0+  Al52  1  -0.00060941  0.49771911  0.33280928  1
  Al0+  Al53  1  0.00040574  0.49828682  0.67068264  1
  Al0+  Al54  1  0.49793212  0.00039444  0.00436631  1
  Al0+  Al55  1  0.49972171  -0.00063869  0.33699347  1
  Al0+  Al56  1  0.50134575  -0.00019838  0.66609904  1
  Al0+  Al57  1  0.49920300  0.49978032  -0.00528498  1
  Al0+  Al58  1  0.49842858  0.49884639  0.33800023  1
  Al0+  Al59  1  0.49867274  0.49917128  0.66071885  1
  Al0+  Al60  1  0.24826677  0.25115726  0.00112739  1
  Al0+  Al61  1  0.25248890  0.25057638  0.33586731  1
  Al0+  Al62  1  0.25059087  0.25123486  0.66721741  1
  Al0+  Al63  1  0.24972205  0.74916050  -0.00125132  1
  Al0+  Al64  1  0.25336961  0.75176768  0.33346100  1
  Al0+  Al65  1  0.25207080  0.74741921  0.66498131  1
  Al0+  Al66  1  0.74821174  0.25073098  -0.00847634  1
  Al0+  Al67  1  0.75061413  0.24806284  0.33402086  1
  Al0+  Al68  1  0.75137416  0.24918589  0.66569637  1
  Al0+  Al69  1  0.75134788  0.75010248  0.00600924  1
  Al0+  Al70  1  0.74971367  0.74925462  0.33686591  1
  Al0+  Al71  1  0.75034273  0.75065970  0.66393683  1
  Al0+  Al72  1  0.92879072  0.31888099  0.31968942  1
  Al0+  Al73  1  0.67844936  0.42763224  0.34692581  1
  Al0+  Al74  1  0.68004942  0.93039614  0.01355732  1
  Al0+  Al75  1  0.06998028  0.17993646  0.98707051  1
  Al0+  Al76  1  0.82178300  0.57087388  0.35046357  1
  Al0+  Al77  1  0.07191760  0.67904209  0.98558893  1
  Al0+  Al78  1  0.92658961  0.82198511  0.31496116  1
  Al0+  Al79  1  0.31983625  0.07250276  0.01518177  1
  Al0+  Al80  1  0.82059426  0.57036620  0.01362161  1
  Al0+  Al81  1  0.82288362  0.07040694  0.34700854  1
  Al0+  Al82  1  0.57003288  0.17777897  0.98715060  1
  Al0+  Al83  1  0.07133712  0.67942936  0.31799381  1
  Al0+  Al84  1  0.17918751  0.42923212  0.34769492  1
  Al0+  Al85  1  0.17596345  0.92650727  0.01451194  1
  Al0+  Al86  1  0.57215005  0.68056287  0.98934717  1
  Al0+  Al87  1  0.57264276  0.17698263  0.64866975  1
  Al0+  Al88  1  0.42791647  0.31987405  0.64912077  1
  Al0+  Al89  1  0.17943771  0.43046093  0.68346295  1
  Al0+  Al90  1  0.57138666  0.67954933  0.65224104  1
  Al0+  Al91  1  0.68116842  0.93027321  0.68275260  1
  Al0+  Al92  1  0.67810219  0.92858020  0.35050841  1
  Al0+  Al93  1  0.07227658  0.67634994  0.65146646  1
  Al0+  Al94  1  0.32142614  0.57423303  0.34863496  1
  Al0+  Al95  1  0.93000132  0.82168325  0.65185821  1
  Si0+  Si96  1  0.17787115  0.92792845  0.67951184  1
  Si0+  Si97  1  0.67679202  0.42700262  0.68228115  1
  Si0+  Si98  1  0.32476427  0.57272813  0.68667009  1
  Si0+  Si99  1  0.31924607  0.06975849  0.68076509  1
  Si0+  Si100  1  0.32159473  0.07152273  0.35003096  1
  Si0+  Si101  1  0.92770201  0.82263528  0.98447104  1
  Si0+  Si102  1  0.56934921  0.17875073  0.31805820  1
  Si0+  Si103  1  0.17995607  0.92953188  0.34834438  1
  Si0+  Si104  1  0.67652120  0.42747958  0.01236835  1
  Si0+  Si105  1  0.82191563  0.07580639  0.01529002  1
  Si0+  Si106  1  0.81862761  0.56924747  0.68240948  1
  Si0+  Si107  1  0.92794329  0.32331117  0.98147427  1
  Si0+  Si108  1  0.42974358  0.82412504  0.31687884  1
  Si0+  Si109  1  0.17864546  0.43032427  0.01523645  1
  Si0+  Si110  1  0.42891792  0.32089484  0.31682788  1
  Si0+  Si111  1  0.42772579  0.82175106  0.98424665  1
  Si0+  Si112  1  0.07622902  0.17701331  0.31712517  1
  Si0+  Si113  1  0.07123250  0.17953530  0.65285420  1
  Si0+  Si114  1  0.92950121  0.32071349  0.65290745  1
  Si0+  Si115  1  0.56924851  0.67771275  0.31884087  1
  Si0+  Si116  1  0.42766497  0.82232308  0.65064477  1
  Si0+  Si117  1  0.42665183  0.32286625  0.98376819  1
  Si0+  Si118  1  0.32310591  0.57046610  0.01280543  1
  Si0+  Si119  1  0.82426474  0.07497281  0.68587456  1
  O2-  O120  1  0.24657425  0.00096730  0.06442150  1
  O2-  O121  1  0.24769739  0.00359159  0.39221576  1
  O2-  O122  1  0.24954814  -0.00238468  0.72278877  1
  O2-  O123  1  0.24930712  0.50248461  0.05525977  1
  O2-  O124  1  0.24586971  0.50594021  0.39812302  1
  O2-  O125  1  0.25295952  0.50665139  0.73084365  1
  O2-  O126  1  0.75246612  0.00787695  0.05865850  1
  O2-  O127  1  0.75526776  -0.00418838  0.39916273  1
  O2-  O128  1  0.75494463  0.00651104  0.72937916  1
  O2-  O129  1  0.74453376  0.49542240  0.05730723  1
  O2-  O130  1  0.74834837  0.49964285  0.40015137  1
  O2-  O131  1  0.74482947  0.50055002  0.72555060  1
  O2-  O132  1  0.00477062  0.24387065  0.27484532  1
  O2-  O133  1  -0.00192537  0.24731627  0.61078075  1
  O2-  O134  1  -0.00426651  0.25350311  0.93721778  1
  O2-  O135  1  -0.00160101  0.74925129  0.26564979  1
  O2-  O136  1  0.00460280  0.75219522  0.60272460  1
  O2-  O137  1  0.00064759  0.75789552  0.94056751  1
  O2-  O138  1  0.50119976  0.25185128  0.27393622  1
  O2-  O139  1  0.50454192  0.25287178  0.59851631  1
  O2-  O140  1  0.49463070  0.25255211  0.94124191  1
  O2-  O141  1  0.50045718  0.75159685  0.27679938  1
  O2-  O142  1  0.49469222  0.75257988  0.60596128  1
  O2-  O143  1  0.49888386  0.75567054  0.94035885  1
  O2-  O144  1  0.07050760  0.18389809  0.09972832  1
  O2-  O145  1  0.07888887  0.17813309  0.42322050  1
  O2-  O146  1  0.07180817  0.17979384  0.75801043  1
  O2-  O147  1  0.07219191  0.67614676  0.09799185  1
  O2-  O148  1  0.07138161  0.68249935  0.43143008  1
  O2-  O149  1  0.06873442  0.67747286  0.76558217  1
  O2-  O150  1  0.57010933  0.18085772  0.10058634  1
  O2-  O151  1  0.56611177  0.17843827  0.42282765  1
  O2-  O152  1  0.56815914  0.17630538  0.76258389  1
  O2-  O153  1  0.56885729  0.67903734  0.10228625  1
  O2-  O154  1  0.56688008  0.67754899  0.42394185  1
  O2-  O155  1  0.57202411  0.68155389  0.76584431  1
  O2-  O156  1  0.18331940  0.42594976  0.23360700  1
  O2-  O157  1  0.17862591  0.42836256  0.57114464  1
  O2-  O158  1  0.17919676  0.42941350  0.90992388  1
  O2-  O159  1  0.18249215  0.92967085  0.24362608  1
  O2-  O160  1  0.17932199  0.93183872  0.57414523  1
  O2-  O161  1  0.17973504  0.92753635  0.90008703  1
  O2-  O162  1  0.67800140  0.42909229  0.23267220  1
  O2-  O163  1  0.67999848  0.42633590  0.57768833  1
  O2-  O164  1  0.67792272  0.42803624  0.90645471  1
  O2-  O165  1  0.67389636  0.93283133  0.23678096  1
  O2-  O166  1  0.68154287  0.93080133  0.57032402  1
  O2-  O167  1  0.68194823  0.92908340  0.90027379  1
  O2-  O168  1  0.42791603  0.32501321  0.08948000  1
  O2-  O169  1  0.42714014  0.31753431  0.42132408  1
  O2-  O170  1  0.42749008  0.31550947  0.76329948  1
  O2-  O171  1  0.42629845  0.81984311  0.08994134  1
  O2-  O172  1  0.42901746  0.82789444  0.42186148  1
  O2-  O173  1  0.42622235  0.82292460  0.75621438  1
  O2-  O174  1  0.92760248  0.32320727  0.08672264  1
  O2-  O175  1  0.93013593  0.31715970  0.43324107  1
  O2-  O176  1  0.93069380  0.32069483  0.75833380  1
  O2-  O177  1  0.92712987  0.82084743  0.08957149  1
  O2-  O178  1  0.93030562  0.82212139  0.42850355  1
  O2-  O179  1  0.93064972  0.82061185  0.76602027  1
  O2-  O180  1  0.32334141  0.07157619  0.24532097  1
  O2-  O181  1  0.31695566  0.06910871  0.57513250  1
  O2-  O182  1  0.31922618  0.07054917  0.90103810  1
  O2-  O183  1  0.32415180  0.57027643  0.23417600  1
  O2-  O184  1  0.32625826  0.57191738  0.58164736  1
  O2-  O185  1  0.32581306  0.56825523  0.90796422  1
  O2-  O186  1  0.81709192  0.07345613  0.23318908  1
  O2-  O187  1  0.82576048  0.07726688  0.58088300  1
  O2-  O188  1  0.82257181  0.07581355  0.90957504  1
  O2-  O189  1  0.81962898  0.56927955  0.23661552  1
  O2-  O190  1  0.81940535  0.56682180  0.57794567  1
  O2-  O191  1  0.81985379  0.56981490  0.89969989  1
  O2-  O192  1  0.05488974  0.08260103  0.27196086  1
  O2-  O193  1  0.04768845  0.08705559  0.60478190  1
  O2-  O194  1  0.04098687  0.08296540  0.93150527  1
  O2-  O195  1  0.04565064  0.57921461  0.26780147  1
  O2-  O196  1  0.03884722  0.57833811  0.60182213  1
  O2-  O197  1  0.03698373  0.58351522  0.93101283  1
  O2-  O198  1  0.53644703  0.08766782  0.27189276  1
  O2-  O199  1  0.53874035  0.08042044  0.59572937  1
  O2-  O200  1  0.53648254  0.08153286  0.93385068  1
  O2-  O201  1  0.53847466  0.58644284  0.27174961  1
  O2-  O202  1  0.54313386  0.58271360  0.59827107  1
  O2-  O203  1  0.54143574  0.58449944  0.93283549  1
  O2-  O204  1  0.16928925  0.20548157  0.27078942  1
  O2-  O205  1  0.16201141  0.20878602  0.60491357  1
  O2-  O206  1  0.16648232  0.21159799  0.93214122  1
  O2-  O207  1  0.17170747  0.70913800  0.26804169  1
  O2-  O208  1  0.17395694  0.69696487  0.60290297  1
  O2-  O209  1  0.16994570  0.70492808  0.93111803  1
  O2-  O210  1  0.66164318  0.20389795  0.27142022  1
  O2-  O211  1  0.67304547  0.20289067  0.59951546  1
  O2-  O212  1  0.66515815  0.20673099  0.92872981  1
  O2-  O213  1  0.66215803  0.70321954  0.27347178  1
  O2-  O214  1  0.66622674  0.71173343  0.59745710  1
  O2-  O215  1  0.66887633  0.71197422  0.93589239  1
  O2-  O216  1  0.08641836  0.45750809  0.06103495  1
  O2-  O217  1  0.07969364  0.45164503  0.39943313  1
  O2-  O218  1  0.08238901  0.45822149  0.73984648  1
  O2-  O219  1  0.07747869  0.95532034  0.06624665  1
  O2-  O220  1  0.08800018  0.95501814  0.39614689  1
  O2-  O221  1  0.08661508  0.95685168  0.72699543  1
  O2-  O222  1  0.58181287  0.45068460  0.05712215  1
  O2-  O223  1  0.58015638  0.45367242  0.40063704  1
  O2-  O224  1  0.58273431  0.45119624  0.72652014  1
  O2-  O225  1  0.58217924  0.95691993  0.06667007  1
  O2-  O226  1  0.58081814  0.96112021  0.40425664  1
  O2-  O227  1  0.58236876  0.95903256  0.73493666  1
  O2-  O228  1  0.20597714  0.33921733  0.06329014  1
  O2-  O229  1  0.21203239  0.33185678  0.40167961  1
  O2-  O230  1  0.21293785  0.33333628  0.73721726  1
  O2-  O231  1  0.20855409  0.82927675  0.06775129  1
  O2-  O232  1  0.21317888  0.84061792  0.39740401  1
  O2-  O233  1  0.20468591  0.83499945  0.72510665  1
  O2-  O234  1  0.70194222  0.33305317  0.05682030  1
  O2-  O235  1  0.70702616  0.32965022  0.39962490  1
  O2-  O236  1  0.70757975  0.33569623  0.73021076  1
  O2-  O237  1  0.71196919  0.83563942  0.06968689  1
  O2-  O238  1  0.70092839  0.82869534  0.40129822  1
  O2-  O239  1  0.71364502  0.83275030  0.73549651  1
  O2-  O240  1  0.45460435  0.41373948  0.27027211  1
  O2-  O241  1  0.44989595  0.41956778  0.59781384  1
  O2-  O242  1  0.45268208  0.41453157  0.93362495  1
  O2-  O243  1  0.45872942  0.91543778  0.26833148  1
  O2-  O244  1  0.45405567  0.91510044  0.60335892  1
  O2-  O245  1  0.44988350  0.91662006  0.94004510  1
  O2-  O246  1  0.95930137  0.41422293  0.26367465  1
  O2-  O247  1  0.96024843  0.41115078  0.60607180  1
  O2-  O248  1  0.95688556  0.41550854  0.93448303  1
  O2-  O249  1  0.95572291  0.92142962  0.26384048  1
  O2-  O250  1  0.95513861  0.92140385  0.59910326  1
  O2-  O251  1  0.94585806  0.91817056  0.93924319  1
  O2-  O252  1  0.33817713  0.29012252  0.26832091  1
  O2-  O253  1  0.33119880  0.28547485  0.59582425  1
  O2-  O254  1  0.33255035  0.29838865  0.93860630  1
  O2-  O255  1  0.33854680  0.79773326  0.26772904  1
  O2-  O256  1  0.33391563  0.79926364  0.60298795  1
  O2-  O257  1  0.33585855  0.79410529  0.93559424  1
  O2-  O258  1  0.83289981  0.28686818  0.26363623  1
  O2-  O259  1  0.83725583  0.29649043  0.60546200  1
  O2-  O260  1  0.83457354  0.30000183  0.93301623  1
  O2-  O261  1  0.82599879  0.79486434  0.26595260  1
  O2-  O262  1  0.83349738  0.78994706  0.59896665  1
  O2-  O263  1  0.83631514  0.78999951  0.93791236  1
  O2-  O264  1  0.41603446  0.04249364  0.07130765  1
  O2-  O265  1  0.41065441  0.03926837  0.39974103  1
  O2-  O266  1  0.41147404  0.04244882  0.72700467  1
  O2-  O267  1  0.41382820  0.53979246  0.06181125  1
  O2-  O268  1  0.41665945  0.53989967  0.40369539  1
  O2-  O269  1  0.41796098  0.54309433  0.73291426  1
  O2-  O270  1  0.91555768  0.05300268  0.06170945  1
  O2-  O271  1  0.92478512  0.05123813  0.39761294  1
  O2-  O272  1  0.91890485  0.04866222  0.73132184  1
  O2-  O273  1  0.91603933  0.53713016  0.06806003  1
  O2-  O274  1  0.91871903  0.53877502  0.40278766  1
  O2-  O275  1  0.90875599  0.53725275  0.73142385  1
  O2-  O276  1  0.29215335  0.17131126  0.06840642  1
  O2-  O277  1  0.29614065  0.16329070  0.39849284  1
  O2-  O278  1  0.29001342  0.16055770  0.72818171  1
  O2-  O279  1  0.29979966  0.66353753  0.05890794  1
  O2-  O280  1  0.30336193  0.67548615  0.39983908  1
  O2-  O281  1  0.30410460  0.66838923  0.73167829  1
  O2-  O282  1  0.79623464  0.17103605  0.05836224  1
  O2-  O283  1  0.79061463  0.16653558  0.40204583  1
  O2-  O284  1  0.80081213  0.16925011  0.73269880  1
  O2-  O285  1  0.78977876  0.66473016  0.07006989  1
  O2-  O286  1  0.79299704  0.66832401  0.40374156  1
  O2-  O287  1  0.79132267  0.66160191  0.72858921  1
