# generated using pymatgen
data_Ca2Al2SiO7
_symmetry_space_group_name_H-M   'P 1'
_cell_length_a   15.45619954
_cell_length_b   15.45616512
_cell_length_c   15.28277576
_cell_angle_alpha   89.99522847
_cell_angle_beta   89.99304673
_cell_angle_gamma   90.00099150
_symmetry_Int_Tables_number   1
_chemical_formula_structural   Ca2Al2SiO7
_chemical_formula_sum   'Ca48 Al48 Si24 O168'
_cell_volume   3650.95685534
_cell_formula_units_Z   24
loop_
 _symmetry_equiv_pos_site_id
 _symmetry_equiv_pos_as_xyz
  1  'x, y, z'
loop_
 _atom_type_symbol
 _atom_type_oxidation_number
  Ca2+  2.0
  Al0+  0.0
  Si0+  0.0
  O2-  -2.0
loop_
 _atom_site_type_symbol
 _atom_site_label
 _atom_site_symmetry_multiplicity
 _atom_site_fract_x
 _atom_site_fract_y
 _atom_site_fract_z
 _atom_site_occupancy
  Ca2+  Ca0  1  0.16761382  0.07081890  0.16985280  1
  Ca2+  Ca1  1  0.17408184  0.08025374  0.50511193  1
  Ca2+  Ca2  1  0.16592762  0.08417645  0.83815244  1
  Ca2+  Ca3  1  0.17597038  0.59072362  0.16587835  1
  Ca2+  Ca4  1  0.18060406  0.58470622  0.50483996  1
  Ca2+  Ca5  1  0.17431159  0.57892867  0.84320995  1
  Ca2+  Ca6  1  0.66565441  0.07378827  0.16644282  1
  Ca2+  Ca7  1  0.67101605  0.08409626  0.51146288  1
  Ca2+  Ca8  1  0.67318355  0.08247408  0.83601848  1
  Ca2+  Ca9  1  0.67847292  0.59745693  0.16430276  1
  Ca2+  Ca10  1  0.67187850  0.57728868  0.50604107  1
  Ca2+  Ca11  1  0.66992557  0.58009979  0.83994552  1
  Ca2+  Ca12  1  0.09065893  0.32682153  0.15685223  1
  Ca2+  Ca13  1  0.08388970  0.32760514  0.50257574  1
  Ca2+  Ca14  1  0.08426024  0.32492835  0.82752943  1
  Ca2+  Ca15  1  0.08202864  0.83032567  0.15440370  1
  Ca2+  Ca16  1  0.07901427  0.83827026  0.49879461  1
  Ca2+  Ca17  1  0.07721128  0.83248572  0.83402609  1
  Ca2+  Ca18  1  0.58040469  0.33057976  0.16349655  1
  Ca2+  Ca19  1  0.58357832  0.33067459  0.50678431  1
  Ca2+  Ca20  1  0.57940374  0.33069168  0.82061220  1
  Ca2+  Ca21  1  0.56961577  0.83084906  0.15547483  1
  Ca2+  Ca22  1  0.57318900  0.83272606  0.49407210  1
  Ca2+  Ca23  1  0.58308875  0.82892126  0.83760601  1
  Ca2+  Ca24  1  0.32802699  0.42883396  0.16498056  1
  Ca2+  Ca25  1  0.34029678  0.42701407  0.50840060  1
  Ca2+  Ca26  1  0.33352383  0.42462301  0.83853835  1
  Ca2+  Ca27  1  0.32273480  0.91010762  0.17232627  1
  Ca2+  Ca28  1  0.33000143  0.92263123  0.50166802  1
  Ca2+  Ca29  1  0.32899255  0.92350774  0.84104878  1
  Ca2+  Ca30  1  0.83741647  0.43382106  0.16890012  1
  Ca2+  Ca31  1  0.83028734  0.41843497  0.50864382  1
  Ca2+  Ca32  1  0.82854200  0.41377809  0.83630913  1
  Ca2+  Ca33  1  0.82556750  0.90489682  0.16311710  1
  Ca2+  Ca34  1  0.83223537  0.92197865  0.51083990  1
  Ca2+  Ca35  1  0.83415809  0.91591265  0.83804925  1
  Ca2+  Ca36  1  0.41119975  0.16548953  0.16429931  1
  Ca2+  Ca37  1  0.41431320  0.16539553  0.50027596  1
  Ca2+  Ca38  1  0.42013335  0.17410131  0.81986403  1
  Ca2+  Ca39  1  0.41518916  0.67380934  0.15744653  1
  Ca2+  Ca40  1  0.41377467  0.66849455  0.49300211  1
  Ca2+  Ca41  1  0.41252900  0.66829348  0.83295037  1
  Ca2+  Ca42  1  0.92620145  0.17111782  0.15738587  1
  Ca2+  Ca43  1  0.91762889  0.16893873  0.50505053  1
  Ca2+  Ca44  1  0.92837750  0.16742072  0.82260564  1
  Ca2+  Ca45  1  0.92263427  0.66809859  0.15323194  1
  Ca2+  Ca46  1  0.91569421  0.67060896  0.49684809  1
  Ca2+  Ca47  1  0.91730520  0.67388493  0.83369817  1
  Al0+  Al48  1  0.00135420  0.00281843  -0.00283205  1
  Al0+  Al49  1  -0.00164317  0.00072288  0.33455252  1
  Al0+  Al50  1  -0.00112028  -0.00114787  0.66169571  1
  Al0+  Al51  1  -0.00095243  0.49804567  0.00260924  1
  Al0+  Al52  1  -0.00113818  0.50061872  0.33870022  1
  Al0+  Al53  1  0.00205403  0.50196665  0.66190540  1
  Al0+  Al54  1  0.50215182  0.00083562  -0.00004663  1
  Al0+  Al55  1  0.49975605  -0.00037603  0.33147185  1
  Al0+  Al56  1  0.49890544  -0.00194041  0.66760352  1
  Al0+  Al57  1  0.50053635  0.49937073  0.00265809  1
  Al0+  Al58  1  0.50228702  0.49753970  0.33383531  1
  Al0+  Al59  1  0.50281803  0.50070254  0.67089635  1
  Al0+  Al60  1  0.25152551  0.25131731  -0.00112942  1
  Al0+  Al61  1  0.25027724  0.24932028  0.33403098  1
  Al0+  Al62  1  0.25077522  0.25085085  0.66030590  1
  Al0+  Al63  1  0.24943197  0.75214503  -0.00237594  1
  Al0+  Al64  1  0.24724412  0.74968395  0.33916889  1
  Al0+  Al65  1  0.24971942  0.75025314  0.67037157  1
  Al0+  Al66  1  0.75006589  0.24962763  0.00372056  1
  Al0+  Al67  1  0.74977557  0.25023214  0.32909887  1
  Al0+  Al68  1  0.75058428  0.24913920  0.66833881  1
  Al0+  Al69  1  0.74753339  0.75103252  -0.00021127  1
  Al0+  Al70  1  0.74943066  0.75007489  0.34012142  1
  Al0+  Al71  1  0.74960757  0.74958270  0.66102094  1
  Al0+  Al72  1  0.32142527  0.57229945  0.01516279  1
  Al0+  Al73  1  0.92872622  0.32259622  0.65247919  1
  Al0+  Al74  1  0.32069035  0.07145799  0.68082320  1
  Al0+  Al75  1  0.32168502  0.07126928  0.34831456  1
  Al0+  Al76  1  0.07263639  0.17756835  0.64881884  1
  Al0+  Al77  1  0.57047167  0.17675943  0.65272317  1
  Al0+  Al78  1  0.17608579  0.92784629  0.34967376  1
  Al0+  Al79  1  0.17851097  0.93099172  0.01131300  1
  Al0+  Al80  1  0.57005472  0.67814560  0.98498397  1
  Al0+  Al81  1  0.42803056  0.81965644  0.32056664  1
  Al0+  Al82  1  0.32121048  0.56937593  0.34643717  1
  Al0+  Al83  1  0.92818165  0.82128808  0.98625868  1
  Al0+  Al84  1  0.82067059  0.06948950  0.68041166  1
  Al0+  Al85  1  0.17857140  0.42732183  0.01283151  1
  Al0+  Al86  1  0.42686155  0.82284261  0.98345090  1
  Al0+  Al87  1  0.07194801  0.18093645  0.98719021  1
  Al0+  Al88  1  0.67940515  0.92993666  0.01351664  1
  Al0+  Al89  1  0.92886469  0.81881980  0.65166864  1
  Al0+  Al90  1  0.68244963  0.42993994  0.68054297  1
  Al0+  Al91  1  0.42985718  0.32307167  0.65135874  1
  Al0+  Al92  1  0.82081325  0.57173354  0.34927027  1
  Al0+  Al93  1  0.07226526  0.67601440  0.98533628  1
  Al0+  Al94  1  0.81959547  0.57030116  0.01061027  1
  Al0+  Al95  1  0.32201988  0.57134998  0.68179821  1
  Si0+  Si96  1  0.67946380  0.42483306  0.35090263  1
  Si0+  Si97  1  0.67728097  0.42549941  0.01883360  1
  Si0+  Si98  1  0.82387858  0.57402927  0.68331912  1
  Si0+  Si99  1  0.92598515  0.32221854  0.98501931  1
  Si0+  Si100  1  0.32335647  0.07249014  0.01486626  1
  Si0+  Si101  1  0.17790232  0.42658057  0.35122456  1
  Si0+  Si102  1  0.82263679  0.07282129  0.01787013  1
  Si0+  Si103  1  0.67686219  0.92530617  0.68320784  1
  Si0+  Si104  1  0.57199295  0.17872751  0.31653711  1
  Si0+  Si105  1  0.43108726  0.31981225  0.98614150  1
  Si0+  Si106  1  0.42844616  0.32183308  0.31655247  1
  Si0+  Si107  1  0.92720734  0.82212402  0.31851284  1
  Si0+  Si108  1  0.67895920  0.93009706  0.34911988  1
  Si0+  Si109  1  0.07061686  0.17994153  0.31698190  1
  Si0+  Si110  1  0.57259937  0.67695064  0.31803781  1
  Si0+  Si111  1  0.17736923  0.92915824  0.68498097  1
  Si0+  Si112  1  0.06843718  0.67894783  0.31971465  1
  Si0+  Si113  1  0.07425680  0.67876726  0.64792315  1
  Si0+  Si114  1  0.81945666  0.07264991  0.34743049  1
  Si0+  Si115  1  0.57323511  0.17876844  0.98551053  1
  Si0+  Si116  1  0.92830073  0.32180906  0.31705145  1
  Si0+  Si117  1  0.17720587  0.42860627  0.68156772  1
  Si0+  Si118  1  0.42742835  0.82017903  0.65127933  1
  Si0+  Si119  1  0.57084752  0.67905887  0.65054473  1
  O2-  O120  1  0.25704148  0.00173488  0.05876870  1
  O2-  O121  1  0.24969131  -0.00074892  0.39798010  1
  O2-  O122  1  0.24388174  0.00015224  0.72864769  1
  O2-  O123  1  0.24451823  0.50427941  0.06433705  1
  O2-  O124  1  0.24872348  0.49322723  0.39493841  1
  O2-  O125  1  0.24765321  0.49531527  0.72542576  1
  O2-  O126  1  0.75576054  0.00248950  0.06285731  1
  O2-  O127  1  0.75002072  0.00078520  0.39080871  1
  O2-  O128  1  0.74529926  -0.00508796  0.72589810  1
  O2-  O129  1  0.74511062  0.49593889  0.06103517  1
  O2-  O130  1  0.74626486  0.49597053  0.39365030  1
  O2-  O131  1  0.76012043  0.50127482  0.72722116  1
  O2-  O132  1  0.00172517  0.25348571  0.27438283  1
  O2-  O133  1  0.00062395  0.25135275  0.60006282  1
  O2-  O134  1  -0.00342567  0.25555039  0.94222030  1
  O2-  O135  1  -0.00232417  0.75065460  0.27729209  1
  O2-  O136  1  0.00312208  0.74487065  0.60288159  1
  O2-  O137  1  -0.00009428  0.74875844  0.93663749  1
  O2-  O138  1  0.49800543  0.24778555  0.27529352  1
  O2-  O139  1  0.49728075  0.24649580  0.60031925  1
  O2-  O140  1  0.50349628  0.25038025  0.94432136  1
  O2-  O141  1  0.50060571  0.74206831  0.27462681  1
  O2-  O142  1  0.49811880  0.74855296  0.60865282  1
  O2-  O143  1  0.49552522  0.74690922  0.93372428  1
  O2-  O144  1  0.07032957  0.18130774  0.10120499  1
  O2-  O145  1  0.06894218  0.18018362  0.42148277  1
  O2-  O146  1  0.07147729  0.17844341  0.76241859  1
  O2-  O147  1  0.07044663  0.67813523  0.09989384  1
  O2-  O148  1  0.06668603  0.67876803  0.42486652  1
  O2-  O149  1  0.07494014  0.67888110  0.75287060  1
  O2-  O150  1  0.57355816  0.17970867  0.09137329  1
  O2-  O151  1  0.57691673  0.17924693  0.42077510  1
  O2-  O152  1  0.56983633  0.17879187  0.76655428  1
  O2-  O153  1  0.57099039  0.68188685  0.09912303  1
  O2-  O154  1  0.57353120  0.67889924  0.42408925  1
  O2-  O155  1  0.57402435  0.68032082  0.75495464  1
  O2-  O156  1  0.17786659  0.42591460  0.24578371  1
  O2-  O157  1  0.17665165  0.43223599  0.57547790  1
  O2-  O158  1  0.18393241  0.42342940  0.89966030  1
  O2-  O159  1  0.17331165  0.92882374  0.23611681  1
  O2-  O160  1  0.18001259  0.92765565  0.57906587  1
  O2-  O161  1  0.17693531  0.93517964  0.89855531  1
  O2-  O162  1  0.68079901  0.42024342  0.24544333  1
  O2-  O163  1  0.68177717  0.43349908  0.56696670  1
  O2-  O164  1  0.67856544  0.42107427  0.91367974  1
  O2-  O165  1  0.67964708  0.92962887  0.24418193  1
  O2-  O166  1  0.67774379  0.92497543  0.57676642  1
  O2-  O167  1  0.67902182  0.93344721  0.90085025  1
  O2-  O168  1  0.43160261  0.31761657  0.09198196  1
  O2-  O169  1  0.43002406  0.32463638  0.42090511  1
  O2-  O170  1  0.43286786  0.32318556  0.76524939  1
  O2-  O171  1  0.42839083  0.82341349  0.09756870  1
  O2-  O172  1  0.43218841  0.81940325  0.43423361  1
  O2-  O173  1  0.42761053  0.82043664  0.75573376  1
  O2-  O174  1  0.92346651  0.31932861  0.09134211  1
  O2-  O175  1  0.92566198  0.31941615  0.42154911  1
  O2-  O176  1  0.93031087  0.32157023  0.76597361  1
  O2-  O177  1  0.92853990  0.81877322  0.10080030  1
  O2-  O178  1  0.92670207  0.82186900  0.42360423  1
  O2-  O179  1  0.92761395  0.81737858  0.76410808  1
  O2-  O180  1  0.31895456  0.07310498  0.23456154  1
  O2-  O181  1  0.32180784  0.06625752  0.56786069  1
  O2-  O182  1  0.32294839  0.07403489  0.90940162  1
  O2-  O183  1  0.32017175  0.56963453  0.23393979  1
  O2-  O184  1  0.32138225  0.57199981  0.56793029  1
  O2-  O185  1  0.32334317  0.56698806  0.90191511  1
  O2-  O186  1  0.81794148  0.07392518  0.24240466  1
  O2-  O187  1  0.81810584  0.06745602  0.56628094  1
  O2-  O188  1  0.81964298  0.07601044  0.91280705  1
  O2-  O189  1  0.82090358  0.57299878  0.23622634  1
  O2-  O190  1  0.81921736  0.57486687  0.57724006  1
  O2-  O191  1  0.81739560  0.56834735  0.89788849  1
  O2-  O192  1  0.03853535  0.08869404  0.27014974  1
  O2-  O193  1  0.04127955  0.08060692  0.59479150  1
  O2-  O194  1  0.04038021  0.08662540  0.93100612  1
  O2-  O195  1  0.04072556  0.58623947  0.27364838  1
  O2-  O196  1  0.05228500  0.58522341  0.59975614  1
  O2-  O197  1  0.04410047  0.57666895  0.93424403  1
  O2-  O198  1  0.54590962  0.08666852  0.26828947  1
  O2-  O199  1  0.54533699  0.07679039  0.60008465  1
  O2-  O200  1  0.54786675  0.08737734  0.93817820  1
  O2-  O201  1  0.55473910  0.58080830  0.27432626  1
  O2-  O202  1  0.54387742  0.58739560  0.60295716  1
  O2-  O203  1  0.54797533  0.57663424  0.93540231  1
  O2-  O204  1  0.16334052  0.20584907  0.27014142  1
  O2-  O205  1  0.16972389  0.20653558  0.59333026  1
  O2-  O206  1  0.16844254  0.21157510  0.93309140  1
  O2-  O207  1  0.16069940  0.70639409  0.27379595  1
  O2-  O208  1  0.16695041  0.70895914  0.60104173  1
  O2-  O209  1  0.16967644  0.70400526  0.93194403  1
  O2-  O210  1  0.66187598  0.20965926  0.26542427  1
  O2-  O211  1  0.66797935  0.20813056  0.59951858  1
  O2-  O212  1  0.66603838  0.20583859  0.93985996  1
  O2-  O213  1  0.66577739  0.70850425  0.27376246  1
  O2-  O214  1  0.66104385  0.70775141  0.59933037  1
  O2-  O215  1  0.66610266  0.71095223  0.93047699  1
  O2-  O216  1  0.07757676  0.44468077  0.06506371  1
  O2-  O217  1  0.08471226  0.45299662  0.39757856  1
  O2-  O218  1  0.08387799  0.45554026  0.72764502  1
  O2-  O219  1  0.08318734  0.96485017  0.06733072  1
  O2-  O220  1  0.07761123  0.95908501  0.40230660  1
  O2-  O221  1  0.08220796  0.95245091  0.72703984  1
  O2-  O222  1  0.58385631  0.44904098  0.06583816  1
  O2-  O223  1  0.58536153  0.44840741  0.39634327  1
  O2-  O224  1  0.58823177  0.46347240  0.73662879  1
  O2-  O225  1  0.58477028  0.96490200  0.07070725  1
  O2-  O226  1  0.58767992  0.95904685  0.39626958  1
  O2-  O227  1  0.58304230  0.94806227  0.72861027  1
  O2-  O228  1  0.21551232  0.33226170  0.06991278  1
  O2-  O229  1  0.20186338  0.33245012  0.39631014  1
  O2-  O230  1  0.19977977  0.33320286  0.72368714  1
  O2-  O231  1  0.20532169  0.83365812  0.06556435  1
  O2-  O232  1  0.20207154  0.83030472  0.40508820  1
  O2-  O233  1  0.20517072  0.83633563  0.73074529  1
  O2-  O234  1  0.70379831  0.33254535  0.06774414  1
  O2-  O235  1  0.70843756  0.33208213  0.39725577  1
  O2-  O236  1  0.70936715  0.33298089  0.73508127  1
  O2-  O237  1  0.70845756  0.83424761  0.07025219  1
  O2-  O238  1  0.70534667  0.83898060  0.39886352  1
  O2-  O239  1  0.70551152  0.83190348  0.72745360  1
  O2-  O240  1  0.46060603  0.41158223  0.26659492  1
  O2-  O241  1  0.46619407  0.41999184  0.59865162  1
  O2-  O242  1  0.45797419  0.41180140  0.94004722  1
  O2-  O243  1  0.46119944  0.91552392  0.26625098  1
  O2-  O244  1  0.45721787  0.91073406  0.60245163  1
  O2-  O245  1  0.46084302  0.92075805  0.93200416  1
  O2-  O246  1  0.95443626  0.41571917  0.27261727  1
  O2-  O247  1  0.95495395  0.42175800  0.59765604  1
  O2-  O248  1  0.94600339  0.41640360  0.93996283  1
  O2-  O249  1  0.95138560  0.91523737  0.27193739  1
  O2-  O250  1  0.95869573  0.91446345  0.59523416  1
  O2-  O251  1  0.95548474  0.92025532  0.93487658  1
  O2-  O252  1  0.33607047  0.29493542  0.26921830  1
  O2-  O253  1  0.33093780  0.30159109  0.59730257  1
  O2-  O254  1  0.34090438  0.29121667  0.93734693  1
  O2-  O255  1  0.32896770  0.79072076  0.27090679  1
  O2-  O256  1  0.33531577  0.79229325  0.60435692  1
  O2-  O257  1  0.32829492  0.79972129  0.93001690  1
  O2-  O258  1  0.83793196  0.29171515  0.26740575  1
  O2-  O259  1  0.83124711  0.29181914  0.59860242  1
  O2-  O260  1  0.83232900  0.29414550  0.93983488  1
  O2-  O261  1  0.83357794  0.79385305  0.27442962  1
  O2-  O262  1  0.83240034  0.78910069  0.59443322  1
  O2-  O263  1  0.82969467  0.79426747  0.93409401  1
  O2-  O264  1  0.41826978  0.05149450  0.06038219  1
  O2-  O265  1  0.42175066  0.04458290  0.39902027  1
  O2-  O266  1  0.41707170  0.03915123  0.73489371  1
  O2-  O267  1  0.41818634  0.53878749  0.06984761  1
  O2-  O268  1  0.41987196  0.54032948  0.39847244  1
  O2-  O269  1  0.41877923  0.54243349  0.73476982  1
  O2-  O270  1  0.91676877  0.04977267  0.06305279  1
  O2-  O271  1  0.91115986  0.04620976  0.39475367  1
  O2-  O272  1  0.91764268  0.03777825  0.73224343  1
  O2-  O273  1  0.91477623  0.53983891  0.06862378  1
  O2-  O274  1  0.91650262  0.54103097  0.40498140  1
  O2-  O275  1  0.92086966  0.55551417  0.72363691  1
  O2-  O276  1  0.29577459  0.16521864  0.06164007  1
  O2-  O277  1  0.29425007  0.17048737  0.40049938  1
  O2-  O278  1  0.29493234  0.17152665  0.73019689  1
  O2-  O279  1  0.29547633  0.67212015  0.06568072  1
  O2-  O280  1  0.28798977  0.66390970  0.40281374  1
  O2-  O281  1  0.29030036  0.66763247  0.73513951  1
  O2-  O282  1  0.79390340  0.16496734  0.06741760  1
  O2-  O283  1  0.78981974  0.16438975  0.39383973  1
  O2-  O284  1  0.79129796  0.16526745  0.73537481  1
  O2-  O285  1  0.78766586  0.66610541  0.06632540  1
  O2-  O286  1  0.78923187  0.66727866  0.40579325  1
  O2-  O287  1  0.79157160  0.66613821  0.72770149  1
