# generated using pymatgen
data_Ca2Al2SiO7
_symmetry_space_group_name_H-M   'P 1'
_cell_length_a   15.46719665
_cell_length_b   15.46555668
_cell_length_c   15.28976358
_cell_angle_alpha   89.99749706
_cell_angle_beta   89.99343020
_cell_angle_gamma   90.02011067
_symmetry_Int_Tables_number   1
_chemical_formula_structural   Ca2Al2SiO7
_chemical_formula_sum   'Ca48 Al48 Si24 O168'
_cell_volume   3657.44584402
_cell_formula_units_Z   24
loop_
 _symmetry_equiv_pos_site_id
 _symmetry_equiv_pos_as_xyz
  1  'x, y, z'
loop_
 _atom_type_symbol
 _atom_type_oxidation_number
  Ca2+  2.0
  Al0+  0.0
  Si0+  0.0
  O2-  -2.0
loop_
 _atom_site_type_symbol
 _atom_site_label
 _atom_site_symmetry_multiplicity
 _atom_site_fract_x
 _atom_site_fract_y
 _atom_site_fract_z
 _atom_site_occupancy
  Ca2+  Ca0  1  0.16446910  0.07084823  0.17110945  1
  Ca2+  Ca1  1  0.17587010  0.07720304  0.50523372  1
  Ca2+  Ca2  1  0.16590918  0.08039402  0.83764555  1
  Ca2+  Ca3  1  0.16051667  0.57676733  0.17741115  1
  Ca2+  Ca4  1  0.15248327  0.57596338  0.50328617  1
  Ca2+  Ca5  1  0.15473672  0.57838578  0.82962248  1
  Ca2+  Ca6  1  0.67026893  0.08088955  0.16846377  1
  Ca2+  Ca7  1  0.67401436  0.08565323  0.50494015  1
  Ca2+  Ca8  1  0.68313307  0.07543853  0.83769115  1
  Ca2+  Ca9  1  0.67981642  0.58082373  0.17466195  1
  Ca2+  Ca10  1  0.67607036  0.57791225  0.50628042  1
  Ca2+  Ca11  1  0.68053892  0.58723829  0.83616705  1
  Ca2+  Ca12  1  0.08575233  0.32695037  0.16276358  1
  Ca2+  Ca13  1  0.09181685  0.32927904  0.49782095  1
  Ca2+  Ca14  1  0.08406384  0.32066799  0.82519244  1
  Ca2+  Ca15  1  0.07458320  0.83746670  0.16391699  1
  Ca2+  Ca16  1  0.07261853  0.82339356  0.49165703  1
  Ca2+  Ca17  1  0.07292359  0.83175607  0.82605755  1
  Ca2+  Ca18  1  0.59030589  0.32815013  0.16800758  1
  Ca2+  Ca19  1  0.59136820  0.32931938  0.49159444  1
  Ca2+  Ca20  1  0.58425184  0.33459892  0.82631124  1
  Ca2+  Ca21  1  0.57685138  0.84038677  0.16373468  1
  Ca2+  Ca22  1  0.57030169  0.84032446  0.49560628  1
  Ca2+  Ca23  1  0.57946164  0.83953907  0.82920298  1
  Ca2+  Ca24  1  0.32611276  0.42005569  0.17377019  1
  Ca2+  Ca25  1  0.32155999  0.41734072  0.50327502  1
  Ca2+  Ca26  1  0.32625228  0.41762187  0.83158136  1
  Ca2+  Ca27  1  0.31932814  0.91786665  0.17772105  1
  Ca2+  Ca28  1  0.33470405  0.92152492  0.50342306  1
  Ca2+  Ca29  1  0.32678398  0.91866104  0.83561562  1
  Ca2+  Ca30  1  0.83515710  0.43093880  0.17590872  1
  Ca2+  Ca31  1  0.82759571  0.42883406  0.50439306  1
  Ca2+  Ca32  1  0.83501891  0.42998115  0.83270511  1
  Ca2+  Ca33  1  0.83537126  0.91596527  0.16568830  1
  Ca2+  Ca34  1  0.83912082  0.91766021  0.50568573  1
  Ca2+  Ca35  1  0.84058416  0.92096860  0.84083830  1
  Ca2+  Ca36  1  0.42004636  0.16068883  0.17052466  1
  Ca2+  Ca37  1  0.42027075  0.16208293  0.49173004  1
  Ca2+  Ca38  1  0.41791007  0.16538889  0.82533635  1
  Ca2+  Ca39  1  0.41515213  0.67366256  0.16713310  1
  Ca2+  Ca40  1  0.41525563  0.67941523  0.49590587  1
  Ca2+  Ca41  1  0.42127815  0.67557734  0.82390460  1
  Ca2+  Ca42  1  0.92218276  0.16773258  0.15699926  1
  Ca2+  Ca43  1  0.92228053  0.16464612  0.50022060  1
  Ca2+  Ca44  1  0.92687015  0.15627738  0.82795533  1
  Ca2+  Ca45  1  0.91539252  0.67258746  0.16585137  1
  Ca2+  Ca46  1  0.91819656  0.66925684  0.49474358  1
  Ca2+  Ca47  1  0.91408989  0.67589272  0.82647638  1
  Al0+  Al48  1  0.00197286  0.00015917  0.00025749  1
  Al0+  Al49  1  0.00093908  -0.00063088  0.33411412  1
  Al0+  Al50  1  0.00265502  0.00008907  0.66018727  1
  Al0+  Al51  1  -0.00022459  0.49844153  0.00455524  1
  Al0+  Al52  1  -0.00115569  0.49895252  0.33826637  1
  Al0+  Al53  1  -0.00247172  0.49718045  0.67454500  1
  Al0+  Al54  1  0.50045324  0.00233955  -0.00004255  1
  Al0+  Al55  1  0.50134005  0.00181699  0.32586125  1
  Al0+  Al56  1  0.49997522  0.00292017  0.66707962  1
  Al0+  Al57  1  0.49901446  0.50075179  -0.00089341  1
  Al0+  Al58  1  0.49838551  0.49850418  0.33509168  1
  Al0+  Al59  1  0.49704296  0.49911044  0.66838363  1
  Al0+  Al60  1  0.25183350  0.25139692  -0.00389728  1
  Al0+  Al61  1  0.25268753  0.24990587  0.33753270  1
  Al0+  Al62  1  0.25178027  0.24967598  0.67032948  1
  Al0+  Al63  1  0.25024757  0.74914242  0.00214889  1
  Al0+  Al64  1  0.24834738  0.74860109  0.32873831  1
  Al0+  Al65  1  0.24982569  0.74957118  0.65869384  1
  Al0+  Al66  1  0.74959332  0.25109402  -0.00083587  1
  Al0+  Al67  1  0.75100238  0.24916705  0.32959139  1
  Al0+  Al68  1  0.75122344  0.24783147  0.67608441  1
  Al0+  Al69  1  0.74867177  0.74982374  0.00478856  1
  Al0+  Al70  1  0.74937314  0.75198367  0.33449402  1
  Al0+  Al71  1  0.74660582  0.74975246  0.66576167  1
  Al0+  Al72  1  0.67908124  0.42701223  0.34611261  1
  Al0+  Al73  1  0.32173037  0.06995771  0.68139965  1
  Al0+  Al74  1  0.17879981  0.42912426  0.68209808  1
  Al0+  Al75  1  0.06845757  0.67626383  0.31739112  1
  Al0+  Al76  1  0.32166895  0.06806652  0.34736799  1
  Al0+  Al77  1  0.07052045  0.18024538  0.98697181  1
  Al0+  Al78  1  0.17639052  0.92618832  0.35117270  1
  Al0+  Al79  1  0.81998309  0.57369475  0.35035298  1
  Al0+  Al80  1  0.07353720  0.17973169  0.65064865  1
  Al0+  Al81  1  0.57288280  0.18068690  0.31861189  1
  Al0+  Al82  1  0.17948882  0.42950674  0.34639437  1
  Al0+  Al83  1  0.92726665  0.82319627  0.31539413  1
  Al0+  Al84  1  0.42928746  0.82130509  0.31754552  1
  Al0+  Al85  1  0.43051814  0.82292187  0.65380815  1
  Al0+  Al86  1  0.18036134  0.92857768  0.01206409  1
  Al0+  Al87  1  0.92663651  0.82143666  0.65210315  1
  Al0+  Al88  1  0.81986411  0.57325425  0.68377269  1
  Al0+  Al89  1  0.82388633  0.06768458  0.67886701  1
  Al0+  Al90  1  0.82130695  0.57050050  0.01596925  1
  Al0+  Al91  1  0.67763984  0.92951887  0.01579393  1
  Al0+  Al92  1  0.06911682  0.67607891  0.65275648  1
  Al0+  Al93  1  0.92985409  0.81832317  0.98682155  1
  Al0+  Al94  1  0.67728740  0.42771018  0.68237981  1
  Al0+  Al95  1  0.82285862  0.07126710  0.01577313  1
  Si0+  Si96  1  0.82172549  0.07152133  0.34726200  1
  Si0+  Si97  1  0.32291402  0.57081122  0.01466577  1
  Si0+  Si98  1  0.57134062  0.18248365  0.65312926  1
  Si0+  Si99  1  0.07389364  0.67488664  0.98413078  1
  Si0+  Si100  1  0.42752023  0.82189693  0.98500792  1
  Si0+  Si101  1  0.57082853  0.67652164  0.31732974  1
  Si0+  Si102  1  0.42838142  0.32204259  0.65073927  1
  Si0+  Si103  1  0.32304732  0.57314692  0.35013186  1
  Si0+  Si104  1  0.18130377  0.42900667  0.01467167  1
  Si0+  Si105  1  0.17981831  0.92679420  0.68203620  1
  Si0+  Si106  1  0.67667166  0.92925363  0.67990603  1
  Si0+  Si107  1  0.42668384  0.32224445  0.31617961  1
  Si0+  Si108  1  0.32117899  0.57410716  0.68317595  1
  Si0+  Si109  1  0.43035121  0.32251351  0.98303100  1
  Si0+  Si110  1  0.07380475  0.17998781  0.31915900  1
  Si0+  Si111  1  0.92977619  0.31870042  0.31962377  1
  Si0+  Si112  1  0.92725005  0.31939233  0.65108270  1
  Si0+  Si113  1  0.56898183  0.67928176  0.98610729  1
  Si0+  Si114  1  0.92735329  0.32395311  0.98290863  1
  Si0+  Si115  1  0.67823278  0.93084008  0.34778646  1
  Si0+  Si116  1  0.67497014  0.42949873  0.01684573  1
  Si0+  Si117  1  0.57052271  0.67578282  0.64994262  1
  Si0+  Si118  1  0.57187344  0.17911141  0.98136668  1
  Si0+  Si119  1  0.32243366  0.07444695  0.01649748  1
  O2-  O120  1  0.25533689  0.00401699  0.05853817  1
  O2-  O121  1  0.25198244  -0.00424422  0.39952603  1
  O2-  O122  1  0.24749576  -0.00417562  0.72843151  1
  O2-  O123  1  0.24774800  0.50413608  0.05661162  1
  O2-  O124  1  0.25109997  0.50722936  0.39272925  1
  O2-  O125  1  0.24973551  0.50839087  0.72846369  1
  O2-  O126  1  0.75026223  0.00048551  0.06685393  1
  O2-  O127  1  0.75366091  -0.00264496  0.38907168  1
  O2-  O128  1  0.75431944  -0.01278057  0.72392494  1
  O2-  O129  1  0.74802362  0.49277795  0.06058094  1
  O2-  O130  1  0.74477267  0.50295715  0.39708498  1
  O2-  O131  1  0.74555035  0.50222590  0.73317773  1
  O2-  O132  1  0.00216406  0.24968327  0.27613028  1
  O2-  O133  1  -0.00130667  0.25479142  0.60421679  1
  O2-  O134  1  -0.00743377  0.25164258  0.93940611  1
  O2-  O135  1  -0.00001782  0.75089186  0.26629107  1
  O2-  O136  1  -0.00476681  0.74585000  0.60304964  1
  O2-  O137  1  0.00491625  0.74324365  0.94089703  1
  O2-  O138  1  0.49859212  0.25674429  0.27196713  1
  O2-  O139  1  0.50423954  0.25626743  0.60978439  1
  O2-  O140  1  0.50122654  0.25151162  0.94028596  1
  O2-  O141  1  0.50288461  0.74499918  0.27064310  1
  O2-  O142  1  0.50443603  0.74745426  0.60673824  1
  O2-  O143  1  0.50068808  0.75303764  0.94299941  1
  O2-  O144  1  0.07258675  0.18446343  0.10048462  1
  O2-  O145  1  0.07345748  0.18181085  0.42408457  1
  O2-  O146  1  0.07307802  0.17971368  0.76402155  1
  O2-  O147  1  0.07516514  0.67290463  0.08915570  1
  O2-  O148  1  0.06418991  0.67381960  0.43054745  1
  O2-  O149  1  0.06976309  0.67992281  0.76704388  1
  O2-  O150  1  0.57152845  0.17948226  0.08633307  1
  O2-  O151  1  0.57456766  0.18100386  0.43184736  1
  O2-  O152  1  0.56807825  0.18232222  0.75842078  1
  O2-  O153  1  0.56402683  0.67579471  0.09079197  1
  O2-  O154  1  0.56775745  0.67729506  0.42277040  1
  O2-  O155  1  0.56835762  0.67556812  0.75611709  1
  O2-  O156  1  0.18263445  0.42738606  0.23250901  1
  O2-  O157  1  0.18321377  0.42705443  0.56941921  1
  O2-  O158  1  0.18353082  0.42790409  0.90979955  1
  O2-  O159  1  0.17604736  0.93103563  0.23694350  1
  O2-  O160  1  0.18256281  0.92884972  0.57701934  1
  O2-  O161  1  0.18343429  0.92754102  0.89887736  1
  O2-  O162  1  0.68375675  0.42709682  0.23218567  1
  O2-  O163  1  0.67904299  0.42719864  0.56910247  1
  O2-  O164  1  0.67064568  0.43340076  0.91161228  1
  O2-  O165  1  0.67602676  0.93338146  0.24284394  1
  O2-  O166  1  0.67162658  0.93557854  0.57445110  1
  O2-  O167  1  0.67327167  0.93249978  0.90217813  1
  O2-  O168  1  0.42891415  0.32435026  0.08771661  1
  O2-  O169  1  0.42413292  0.32085727  0.42140319  1
  O2-  O170  1  0.42762851  0.32061123  0.75650269  1
  O2-  O171  1  0.42691643  0.81983069  0.08977278  1
  O2-  O172  1  0.43333760  0.82263840  0.43065511  1
  O2-  O173  1  0.43249875  0.82176726  0.76770747  1
  O2-  O174  1  0.93107127  0.32580310  0.08884578  1
  O2-  O175  1  0.92782752  0.31560961  0.42442160  1
  O2-  O176  1  0.92942365  0.31721207  0.75694624  1
  O2-  O177  1  0.93058988  0.81777670  0.09934604  1
  O2-  O178  1  0.92684601  0.82439358  0.42854922  1
  O2-  O179  1  0.92894233  0.82249295  0.76614407  1
  O2-  O180  1  0.31928919  0.06877329  0.23332344  1
  O2-  O181  1  0.32503318  0.06924298  0.56894492  1
  O2-  O182  1  0.32336463  0.07460788  0.91072021  1
  O2-  O183  1  0.32576296  0.56932491  0.24382932  1
  O2-  O184  1  0.32573728  0.57130016  0.57824348  1
  O2-  O185  1  0.32700134  0.56907446  0.90985380  1
  O2-  O186  1  0.82052738  0.07447027  0.24232851  1
  O2-  O187  1  0.81916691  0.07221586  0.56547921  1
  O2-  O188  1  0.82221157  0.06866189  0.90220026  1
  O2-  O189  1  0.81974459  0.57098038  0.23637290  1
  O2-  O190  1  0.81863745  0.57186635  0.57079986  1
  O2-  O191  1  0.81983913  0.57067309  0.90322290  1
  O2-  O192  1  0.04533879  0.08827228  0.27285462  1
  O2-  O193  1  0.04371331  0.08449322  0.59489377  1
  O2-  O194  1  0.04301081  0.08349668  0.93239575  1
  O2-  O195  1  0.03855667  0.57669336  0.26516815  1
  O2-  O196  1  0.04360055  0.57423086  0.60591851  1
  O2-  O197  1  0.04827661  0.57994578  0.94010340  1
  O2-  O198  1  0.54040882  0.08698390  0.26003556  1
  O2-  O199  1  0.54093170  0.09208492  0.60504329  1
  O2-  O200  1  0.54172813  0.08825008  0.93329290  1
  O2-  O201  1  0.54485084  0.58258124  0.27079317  1
  O2-  O202  1  0.54117552  0.58315795  0.60406335  1
  O2-  O203  1  0.53743896  0.58925819  0.93642335  1
  O2-  O204  1  0.16495715  0.21034972  0.27206128  1
  O2-  O205  1  0.17045645  0.21323632  0.59907225  1
  O2-  O206  1  0.16673609  0.21404665  0.93250771  1
  O2-  O207  1  0.16999891  0.69567078  0.26634709  1
  O2-  O208  1  0.16824884  0.70037574  0.59922132  1
  O2-  O209  1  0.16894873  0.69831310  0.93900774  1
  O2-  O210  1  0.66806660  0.21184332  0.26050535  1
  O2-  O211  1  0.66495780  0.20726026  0.60809301  1
  O2-  O212  1  0.66425124  0.20555999  0.93397602  1
  O2-  O213  1  0.66439114  0.70271589  0.27235797  1
  O2-  O214  1  0.66410791  0.69789968  0.60390840  1
  O2-  O215  1  0.66092457  0.70579027  0.93931857  1
  O2-  O216  1  0.08844546  0.45082706  0.06224123  1
  O2-  O217  1  0.08276826  0.45458315  0.40147494  1
  O2-  O218  1  0.08212000  0.45303287  0.73914243  1
  O2-  O219  1  0.08619576  0.96220133  0.06760534  1
  O2-  O220  1  0.07960297  0.95894591  0.40402982  1
  O2-  O221  1  0.08629616  0.95432430  0.72636502  1
  O2-  O222  1  0.58256354  0.45835959  0.06422663  1
  O2-  O223  1  0.57701390  0.44614660  0.39520447  1
  O2-  O224  1  0.57568886  0.45092228  0.73253488  1
  O2-  O225  1  0.57913999  0.96122764  0.06865863  1
  O2-  O226  1  0.58846778  0.96471398  0.39486930  1
  O2-  O227  1  0.58837085  0.96517041  0.73049953  1
  O2-  O228  1  0.21523874  0.33911347  0.06241573  1
  O2-  O229  1  0.21464033  0.33524556  0.40171184  1
  O2-  O230  1  0.21717718  0.33574725  0.73792814  1
  O2-  O231  1  0.21093308  0.83212632  0.06706668  1
  O2-  O232  1  0.20180674  0.82514957  0.39793422  1
  O2-  O233  1  0.20654777  0.83291526  0.72685392  1
  O2-  O234  1  0.69507292  0.33287439  0.05797021  1
  O2-  O235  1  0.71197726  0.32958923  0.39820730  1
  O2-  O236  1  0.70736043  0.33116482  0.73876156  1
  O2-  O237  1  0.70026036  0.83043892  0.06869507  1
  O2-  O238  1  0.69814514  0.83753842  0.39481129  1
  O2-  O239  1  0.68794296  0.83177544  0.72191630  1
  O2-  O240  1  0.44754617  0.41719652  0.26979775  1
  O2-  O241  1  0.44853643  0.41600735  0.60439852  1
  O2-  O242  1  0.45790857  0.41424049  0.93429855  1
  O2-  O243  1  0.46294014  0.91573901  0.26129031  1
  O2-  O244  1  0.46466470  0.91868935  0.59967735  1
  O2-  O245  1  0.45356122  0.91521249  0.93926129  1
  O2-  O246  1  0.95775768  0.41050132  0.27280943  1
  O2-  O247  1  0.94897322  0.41472949  0.60841459  1
  O2-  O248  1  0.95832649  0.41580245  0.93609438  1
  O2-  O249  1  0.95672518  0.92281794  0.26352602  1
  O2-  O250  1  0.95767425  0.91797600  0.59735459  1
  O2-  O251  1  0.96228229  0.91529090  0.93455834  1
  O2-  O252  1  0.33526952  0.29191178  0.26676672  1
  O2-  O253  1  0.33902116  0.28906453  0.60325313  1
  O2-  O254  1  0.33929694  0.29472848  0.93362793  1
  O2-  O255  1  0.33311321  0.79051273  0.26274597  1
  O2-  O256  1  0.33542957  0.79297264  0.59773666  1
  O2-  O257  1  0.33728077  0.79045680  0.93650460  1
  O2-  O258  1  0.84060081  0.28932158  0.26806857  1
  O2-  O259  1  0.83439214  0.28867632  0.60680705  1
  O2-  O260  1  0.83125226  0.30523010  0.93929898  1
  O2-  O261  1  0.82648544  0.79722731  0.26510471  1
  O2-  O262  1  0.82455431  0.80059447  0.60267697  1
  O2-  O263  1  0.83066473  0.78990716  0.93589544  1
  O2-  O264  1  0.41682635  0.05089732  0.06083809  1
  O2-  O265  1  0.42252769  0.04209347  0.39666866  1
  O2-  O266  1  0.41817123  0.03954748  0.73708636  1
  O2-  O267  1  0.41192673  0.53798033  0.06485316  1
  O2-  O268  1  0.41475740  0.54509429  0.39842796  1
  O2-  O269  1  0.41258795  0.54459202  0.73289615  1
  O2-  O270  1  0.92128842  0.04481577  0.06813379  1
  O2-  O271  1  0.91423070  0.04776078  0.39435620  1
  O2-  O272  1  0.92250301  0.04110311  0.73061559  1
  O2-  O273  1  0.91785434  0.53923592  0.07045718  1
  O2-  O274  1  0.91520182  0.53804762  0.40338622  1
  O2-  O275  1  0.91569722  0.54147469  0.73993185  1
  O2-  O276  1  0.29735446  0.16889250  0.06094867  1
  O2-  O277  1  0.29555364  0.16695844  0.39986758  1
  O2-  O278  1  0.29289045  0.16633137  0.73641772  1
  O2-  O279  1  0.30013204  0.66355281  0.06195075  1
  O2-  O280  1  0.30207522  0.66813741  0.39317990  1
  O2-  O281  1  0.29919461  0.66917027  0.72801900  1
  O2-  O282  1  0.79488625  0.17207118  0.06545784  1
  O2-  O283  1  0.78973302  0.16152583  0.39504321  1
  O2-  O284  1  0.78899229  0.16039259  0.73745386  1
  O2-  O285  1  0.78605279  0.66447132  0.07054727  1
  O2-  O286  1  0.79235470  0.67251786  0.40201784  1
  O2-  O287  1  0.78865093  0.67179215  0.73680789  1
