# generated using pymatgen
data_Ca2Al2SiO7
_symmetry_space_group_name_H-M   'P 1'
_cell_length_a   15.45433079
_cell_length_b   15.45401752
_cell_length_c   15.28105950
_cell_angle_alpha   90.00343004
_cell_angle_beta   89.99060167
_cell_angle_gamma   89.99404328
_symmetry_Int_Tables_number   1
_chemical_formula_structural   Ca2Al2SiO7
_chemical_formula_sum   'Ca48 Al48 Si24 O168'
_cell_volume   3649.59826801
_cell_formula_units_Z   24
loop_
 _symmetry_equiv_pos_site_id
 _symmetry_equiv_pos_as_xyz
  1  'x, y, z'
loop_
 _atom_type_symbol
 _atom_type_oxidation_number
  Ca2+  2.0
  Al0+  0.0
  Si0+  0.0
  O2-  -2.0
loop_
 _atom_site_type_symbol
 _atom_site_label
 _atom_site_symmetry_multiplicity
 _atom_site_fract_x
 _atom_site_fract_y
 _atom_site_fract_z
 _atom_site_occupancy
  Ca2+  Ca0  1  0.16924379  0.08271487  0.17480431  1
  Ca2+  Ca1  1  0.16402688  0.07572231  0.49896755  1
  Ca2+  Ca2  1  0.16182843  0.07717000  0.83780965  1
  Ca2+  Ca3  1  0.16648894  0.57901595  0.16817481  1
  Ca2+  Ca4  1  0.17967857  0.58682394  0.50397594  1
  Ca2+  Ca5  1  0.17021412  0.57845020  0.84045631  1
  Ca2+  Ca6  1  0.67112908  0.07895659  0.16529225  1
  Ca2+  Ca7  1  0.67324167  0.08296287  0.51002223  1
  Ca2+  Ca8  1  0.67622983  0.08503683  0.83967055  1
  Ca2+  Ca9  1  0.66383948  0.58485105  0.16657144  1
  Ca2+  Ca10  1  0.67356342  0.57501791  0.51116821  1
  Ca2+  Ca11  1  0.67023057  0.58323002  0.83435020  1
  Ca2+  Ca12  1  0.08097289  0.32422784  0.15622580  1
  Ca2+  Ca13  1  0.07561132  0.32562678  0.48994555  1
  Ca2+  Ca14  1  0.08286773  0.32914101  0.83615727  1
  Ca2+  Ca15  1  0.08289655  0.83123306  0.16493366  1
  Ca2+  Ca16  1  0.07592728  0.84209826  0.49698641  1
  Ca2+  Ca17  1  0.08138333  0.82916675  0.82694653  1
  Ca2+  Ca18  1  0.57354780  0.33102415  0.15952296  1
  Ca2+  Ca19  1  0.58502446  0.33114675  0.50537435  1
  Ca2+  Ca20  1  0.57528487  0.33363699  0.82361173  1
  Ca2+  Ca21  1  0.57149439  0.83162942  0.15601818  1
  Ca2+  Ca22  1  0.57519846  0.83030696  0.49202027  1
  Ca2+  Ca23  1  0.58331758  0.83395473  0.83580436  1
  Ca2+  Ca24  1  0.32800599  0.41918637  0.16942004  1
  Ca2+  Ca25  1  0.33779167  0.42761748  0.50705700  1
  Ca2+  Ca26  1  0.33443197  0.41755542  0.83895711  1
  Ca2+  Ca27  1  0.32956710  0.91809914  0.17835686  1
  Ca2+  Ca28  1  0.32177810  0.91644840  0.50016810  1
  Ca2+  Ca29  1  0.32990710  0.91610362  0.83721572  1
  Ca2+  Ca30  1  0.83867009  0.41253684  0.16844272  1
  Ca2+  Ca31  1  0.83021161  0.41983591  0.50938345  1
  Ca2+  Ca32  1  0.82884367  0.41570535  0.83815714  1
  Ca2+  Ca33  1  0.83202583  0.91815873  0.16740688  1
  Ca2+  Ca34  1  0.83956874  0.92103951  0.50969599  1
  Ca2+  Ca35  1  0.83210789  0.92743506  0.83990279  1
  Ca2+  Ca36  1  0.41319820  0.16865664  0.15918711  1
  Ca2+  Ca37  1  0.41986459  0.16705044  0.49889406  1
  Ca2+  Ca38  1  0.42165726  0.18009338  0.82579348  1
  Ca2+  Ca39  1  0.41466189  0.67722447  0.16068202  1
  Ca2+  Ca40  1  0.41219966  0.66778009  0.49457060  1
  Ca2+  Ca41  1  0.41997168  0.66798994  0.83257658  1
  Ca2+  Ca42  1  0.92772724  0.17314650  0.16085370  1
  Ca2+  Ca43  1  0.92026024  0.16944823  0.49205184  1
  Ca2+  Ca44  1  0.91468235  0.16404577  0.83324003  1
  Ca2+  Ca45  1  0.92371791  0.67324969  0.16043519  1
  Ca2+  Ca46  1  0.91163981  0.67833337  0.49705654  1
  Ca2+  Ca47  1  0.92147980  0.67022537  0.82703660  1
  Al0+  Al48  1  0.00056465  0.00098132  0.00340439  1
  Al0+  Al49  1  -0.00111547  0.00062406  0.32733070  1
  Al0+  Al50  1  -0.00001278  -0.00149455  0.67212206  1
  Al0+  Al51  1  0.00067270  0.49931212  -0.00281435  1
  Al0+  Al52  1  -0.00216377  0.50144861  0.33365062  1
  Al0+  Al53  1  0.00341559  0.50052542  0.66721836  1
  Al0+  Al54  1  0.50016094  0.00002108  -0.00123408  1
  Al0+  Al55  1  0.50034916  -0.00028550  0.33379782  1
  Al0+  Al56  1  0.49852559  0.00017268  0.66194863  1
  Al0+  Al57  1  0.50086061  0.50262304  -0.00509478  1
  Al0+  Al58  1  0.50186693  0.49789179  0.33776656  1
  Al0+  Al59  1  0.49986372  0.50119800  0.67009776  1
  Al0+  Al60  1  0.24828984  0.25017326  -0.00497821  1
  Al0+  Al61  1  0.25152392  0.24978761  0.33606015  1
  Al0+  Al62  1  0.25054626  0.25021602  0.65920736  1
  Al0+  Al63  1  0.25018882  0.75001750  -0.00725212  1
  Al0+  Al64  1  0.24924721  0.74972973  0.33759862  1
  Al0+  Al65  1  0.24979337  0.74898002  0.67544962  1
  Al0+  Al66  1  0.75113804  0.25096278  0.00490867  1
  Al0+  Al67  1  0.74836710  0.24933894  0.32935844  1
  Al0+  Al68  1  0.74951343  0.24943150  0.67081598  1
  Al0+  Al69  1  0.74865828  0.74992125  0.00146618  1
  Al0+  Al70  1  0.74955878  0.74915890  0.32904012  1
  Al0+  Al71  1  0.74992446  0.75022699  0.66540194  1
  Al0+  Al72  1  0.57222738  0.67956737  0.98359851  1
  Al0+  Al73  1  0.68149554  0.42964200  0.68339793  1
  Al0+  Al74  1  0.42855168  0.32075475  0.98831238  1
  Al0+  Al75  1  0.92759672  0.82155058  0.31839984  1
  Al0+  Al76  1  0.07272400  0.18009460  0.31849702  1
  Al0+  Al77  1  0.32048342  0.56908141  0.34499294  1
  Al0+  Al78  1  0.93056559  0.81949075  0.65519948  1
  Al0+  Al79  1  0.92817815  0.32080116  0.98279525  1
  Al0+  Al80  1  0.07100257  0.17732260  0.98259437  1
  Al0+  Al81  1  0.42804377  0.82354233  0.98323801  1
  Al0+  Al82  1  0.42862416  0.32316932  0.64854667  1
  Al0+  Al83  1  0.82364978  0.57346058  0.68183537  1
  Al0+  Al84  1  0.17698399  0.92934723  0.34744904  1
  Al0+  Al85  1  0.67833627  0.92810651  0.01610963  1
  Al0+  Al86  1  0.32063831  0.57023862  0.68359359  1
  Al0+  Al87  1  0.07066669  0.67880562  0.98644743  1
  Al0+  Al88  1  0.82033812  0.06968557  0.67897609  1
  Al0+  Al89  1  0.82273931  0.07279358  0.01999681  1
  Al0+  Al90  1  0.42849142  0.81948692  0.32210014  1
  Al0+  Al91  1  0.92718265  0.32249496  0.31952701  1
  Al0+  Al92  1  0.17996824  0.93164862  0.68230723  1
  Al0+  Al93  1  0.32400431  0.07333663  0.34929689  1
  Al0+  Al94  1  0.17958711  0.42894509  0.01340106  1
  Al0+  Al95  1  0.57236926  0.17861789  0.65190396  1
  Si0+  Si96  1  0.81805133  0.06970926  0.34776428  1
  Si0+  Si97  1  0.92951815  0.32156355  0.65316148  1
  Si0+  Si98  1  0.67896748  0.92731626  0.34863353  1
  Si0+  Si99  1  0.42655954  0.82059229  0.65027177  1
  Si0+  Si100  1  0.31977368  0.07081046  0.01137919  1
  Si0+  Si101  1  0.57150837  0.67595802  0.31815939  1
  Si0+  Si102  1  0.32315957  0.07316630  0.68348720  1
  Si0+  Si103  1  0.17611736  0.42766229  0.34980095  1
  Si0+  Si104  1  0.57226802  0.17853548  0.98540847  1
  Si0+  Si105  1  0.32266348  0.57219055  0.01701885  1
  Si0+  Si106  1  0.92817280  0.82174625  0.98402841  1
  Si0+  Si107  1  0.67424717  0.92701735  0.68066094  1
  Si0+  Si108  1  0.07407387  0.67714313  0.64902766  1
  Si0+  Si109  1  0.82096394  0.57257768  0.34721852  1
  Si0+  Si110  1  0.57076990  0.68026337  0.65023355  1
  Si0+  Si111  1  0.07235091  0.67810300  0.31838070  1
  Si0+  Si112  1  0.67967663  0.42769163  0.34832433  1
  Si0+  Si113  1  0.43111472  0.32254148  0.31922300  1
  Si0+  Si114  1  0.17814460  0.42477632  0.68259092  1
  Si0+  Si115  1  0.67745173  0.43027767  0.01652385  1
  Si0+  Si116  1  0.07020758  0.17711419  0.65104101  1
  Si0+  Si117  1  0.18001939  0.92676790  0.01519199  1
  Si0+  Si118  1  0.82176160  0.57070321  0.01608706  1
  Si0+  Si119  1  0.57116525  0.17799462  0.31686959  1
  O2-  O120  1  0.25193631  -0.00242153  0.05551296  1
  O2-  O121  1  0.24950559  0.00199791  0.39683607  1
  O2-  O122  1  0.25465037  0.00590302  0.72991256  1
  O2-  O123  1  0.25440386  0.50332697  0.06147833  1
  O2-  O124  1  0.24570016  0.49532072  0.39423254  1
  O2-  O125  1  0.24802871  0.49231894  0.72671493  1
  O2-  O126  1  0.75100855  -0.00132705  0.06804487  1
  O2-  O127  1  0.75105500  -0.00391639  0.39265442  1
  O2-  O128  1  0.74215137  -0.00290736  0.72314158  1
  O2-  O129  1  0.75005630  0.49987386  0.05922555  1
  O2-  O130  1  0.75304100  0.49775517  0.38814726  1
  O2-  O131  1  0.75492204  0.49986832  0.73409102  1
  O2-  O132  1  0.00424062  0.25629014  0.26998978  1
  O2-  O133  1  0.00062068  0.25074180  0.61040042  1
  O2-  O134  1  -0.00357939  0.24616713  0.93165272  1
  O2-  O135  1  0.00353954  0.74690768  0.27418262  1
  O2-  O136  1  0.00234938  0.74296355  0.60521473  1
  O2-  O137  1  -0.00270314  0.75434608  0.93922320  1
  O2-  O138  1  0.49608454  0.24605093  0.27636240  1
  O2-  O139  1  0.49995291  0.24942480  0.59950082  1
  O2-  O140  1  0.50526870  0.24848322  0.94162239  1
  O2-  O141  1  0.50192898  0.74381422  0.27507779  1
  O2-  O142  1  0.49985097  0.75149271  0.60797924  1
  O2-  O143  1  0.50111515  0.75229653  0.93348163  1
  O2-  O144  1  0.07453378  0.17916080  0.09584434  1
  O2-  O145  1  0.06705034  0.17943570  0.43290411  1
  O2-  O146  1  0.07047386  0.17691400  0.75583221  1
  O2-  O147  1  0.06958649  0.68044196  0.10014335  1
  O2-  O148  1  0.07082384  0.67619052  0.42389894  1
  O2-  O149  1  0.07389841  0.67862769  0.75461242  1
  O2-  O150  1  0.56895002  0.17954675  0.09180825  1
  O2-  O151  1  0.57614970  0.17961105  0.42143603  1
  O2-  O152  1  0.57063279  0.17956470  0.76538481  1
  O2-  O153  1  0.56871236  0.67779230  0.09775191  1
  O2-  O154  1  0.57341923  0.67693925  0.42398352  1
  O2-  O155  1  0.57171273  0.68162682  0.75488797  1
  O2-  O156  1  0.17739588  0.42899289  0.24419274  1
  O2-  O157  1  0.17630318  0.42656251  0.57672922  1
  O2-  O158  1  0.18195413  0.42987142  0.90038423  1
  O2-  O159  1  0.18011991  0.92755760  0.23360960  1
  O2-  O160  1  0.17865993  0.93286888  0.56935664  1
  O2-  O161  1  0.17983666  0.92752367  0.90995180  1
  O2-  O162  1  0.67534882  0.42870347  0.24325503  1
  O2-  O163  1  0.68419954  0.43063110  0.56877206  1
  O2-  O164  1  0.67722600  0.43035780  0.91205985  1
  O2-  O165  1  0.67836012  0.92884107  0.24406406  1
  O2-  O166  1  0.67504803  0.92651362  0.57436930  1
  O2-  O167  1  0.68015979  0.93010954  0.90226954  1
  O2-  O168  1  0.42967493  0.31926585  0.10237674  1
  O2-  O169  1  0.43632126  0.32651236  0.42357313  1
  O2-  O170  1  0.42887624  0.32154547  0.76223731  1
  O2-  O171  1  0.42568715  0.82214387  0.09724267  1
  O2-  O172  1  0.43057499  0.81714637  0.43559461  1
  O2-  O173  1  0.42781582  0.82087994  0.75511137  1
  O2-  O174  1  0.93128034  0.32127976  0.09640139  1
  O2-  O175  1  0.92511262  0.32008495  0.43389603  1
  O2-  O176  1  0.93018515  0.32193953  0.75769686  1
  O2-  O177  1  0.92952513  0.81890877  0.09008457  1
  O2-  O178  1  0.92500623  0.82064728  0.43164913  1
  O2-  O179  1  0.93310668  0.81980215  0.76797951  1
  O2-  O180  1  0.32588135  0.07224250  0.23513744  1
  O2-  O181  1  0.32280189  0.07068807  0.57812963  1
  O2-  O182  1  0.31851539  0.07006129  0.90621702  1
  O2-  O183  1  0.32154582  0.56716184  0.23212661  1
  O2-  O184  1  0.31938238  0.57184353  0.56976187  1
  O2-  O185  1  0.32199829  0.57078608  0.91153936  1
  O2-  O186  1  0.81403903  0.06982893  0.24334503  1
  O2-  O187  1  0.82189066  0.06866649  0.56501059  1
  O2-  O188  1  0.82055661  0.07136549  0.90608585  1
  O2-  O189  1  0.81974499  0.57458114  0.24223645  1
  O2-  O190  1  0.81954062  0.57275201  0.56740755  1
  O2-  O191  1  0.82086620  0.57087699  0.91134225  1
  O2-  O192  1  0.04181865  0.08376474  0.26410625  1
  O2-  O193  1  0.03804608  0.08639085  0.60475857  1
  O2-  O194  1  0.04414316  0.07720227  0.93198649  1
  O2-  O195  1  0.04562920  0.58499207  0.27138619  1
  O2-  O196  1  0.05442877  0.58202799  0.60300929  1
  O2-  O197  1  0.03947100  0.58383711  0.93110374  1
  O2-  O198  1  0.54667039  0.08533945  0.26987858  1
  O2-  O199  1  0.54532366  0.07979437  0.59674344  1
  O2-  O200  1  0.54776577  0.08573570  0.93885884  1
  O2-  O201  1  0.54760797  0.58121594  0.27361678  1
  O2-  O202  1  0.54234562  0.58849614  0.60343400  1
  O2-  O203  1  0.54413225  0.58252227  0.92820119  1
  O2-  O204  1  0.17375782  0.20415477  0.26824654  1
  O2-  O205  1  0.16214988  0.20175167  0.60231585  1
  O2-  O206  1  0.16718060  0.20862120  0.92695917  1
  O2-  O207  1  0.16550205  0.70332366  0.27195208  1
  O2-  O208  1  0.16741773  0.70749554  0.60495185  1
  O2-  O209  1  0.16608132  0.70765843  0.93017947  1
  O2-  O210  1  0.65984427  0.21048695  0.26601784  1
  O2-  O211  1  0.67085429  0.20910559  0.59803118  1
  O2-  O212  1  0.66677900  0.20359469  0.94301408  1
  O2-  O213  1  0.66401098  0.70151435  0.27010834  1
  O2-  O214  1  0.66232169  0.70687601  0.60080537  1
  O2-  O215  1  0.67143686  0.70623710  0.93121548  1
  O2-  O216  1  0.08320570  0.46128842  0.06744788  1
  O2-  O217  1  0.08201227  0.45346283  0.39580945  1
  O2-  O218  1  0.08545791  0.45114952  0.72996592  1
  O2-  O219  1  0.08812588  0.95305744  0.06267597  1
  O2-  O220  1  0.07756934  0.95952796  0.39905671  1
  O2-  O221  1  0.08526207  0.96301140  0.73887076  1
  O2-  O222  1  0.58621611  0.46129828  0.06475481  1
  O2-  O223  1  0.59033742  0.45710719  0.39976887  1
  O2-  O224  1  0.58361066  0.46026108  0.73447357  1
  O2-  O225  1  0.57928794  0.95835406  0.06890455  1
  O2-  O226  1  0.58818883  0.95641624  0.39716924  1
  O2-  O227  1  0.57972743  0.95023730  0.72566076  1
  O2-  O228  1  0.21191673  0.33217886  0.06679070  1
  O2-  O229  1  0.20010380  0.33405495  0.39595300  1
  O2-  O230  1  0.20222687  0.32983425  0.72642059  1
  O2-  O231  1  0.20775119  0.83421367  0.06111305  1
  O2-  O232  1  0.20476525  0.83162885  0.40259976  1
  O2-  O233  1  0.21018580  0.83549985  0.73682706  1
  O2-  O234  1  0.70211837  0.33835995  0.06579611  1
  O2-  O235  1  0.70670662  0.33519996  0.39509414  1
  O2-  O236  1  0.70686514  0.33132403  0.73665678  1
  O2-  O237  1  0.70433494  0.82884706  0.06984412  1
  O2-  O238  1  0.70383986  0.83335874  0.39395381  1
  O2-  O239  1  0.70045379  0.83397288  0.72618323  1
  O2-  O240  1  0.46528823  0.41161208  0.26959693  1
  O2-  O241  1  0.46047651  0.42201841  0.59778296  1
  O2-  O242  1  0.45802385  0.41718912  0.93495716  1
  O2-  O243  1  0.46050508  0.91590154  0.26860791  1
  O2-  O244  1  0.45066056  0.91296732  0.60232075  1
  O2-  O245  1  0.45609315  0.92194108  0.92957190  1
  O2-  O246  1  0.94758968  0.42427583  0.27003092  1
  O2-  O247  1  0.95704002  0.41378434  0.60495554  1
  O2-  O248  1  0.95725910  0.41858728  0.93020158  1
  O2-  O249  1  0.95621869  0.91698265  0.26258224  1
  O2-  O250  1  0.96480500  0.91569463  0.60113093  1
  O2-  O251  1  0.95323527  0.91623564  0.94117384  1
  O2-  O252  1  0.33650930  0.30120259  0.27519820  1
  O2-  O253  1  0.33006748  0.29695618  0.59385331  1
  O2-  O254  1  0.33482786  0.28844999  0.93162207  1
  O2-  O255  1  0.33150023  0.78936571  0.26899673  1
  O2-  O256  1  0.33495840  0.78802381  0.60562933  1
  O2-  O257  1  0.33151712  0.79377388  0.92802814  1
  O2-  O258  1  0.82999229  0.29136357  0.26524852  1
  O2-  O259  1  0.83739632  0.29379635  0.60684905  1
  O2-  O260  1  0.82692385  0.29573563  0.93407281  1
  O2-  O261  1  0.83213737  0.78825203  0.26286815  1
  O2-  O262  1  0.83271928  0.79268457  0.59956812  1
  O2-  O263  1  0.83454293  0.79592827  0.94002263  1
  O2-  O264  1  0.41311290  0.04824263  0.05832001  1
  O2-  O265  1  0.42233401  0.04350270  0.40268718  1
  O2-  O266  1  0.41695732  0.04672568  0.72875971  1
  O2-  O267  1  0.41709984  0.54751556  0.06168069  1
  O2-  O268  1  0.41713062  0.53798056  0.40060934  1
  O2-  O269  1  0.41774660  0.54288248  0.73684792  1
  O2-  O270  1  0.92143506  0.04360566  0.07236311  1
  O2-  O271  1  0.91159667  0.04484304  0.39229262  1
  O2-  O272  1  0.91383495  0.03580764  0.73600523  1
  O2-  O273  1  0.91303543  0.54209965  0.06402688  1
  O2-  O274  1  0.91341469  0.55019669  0.39629663  1
  O2-  O275  1  0.92476693  0.55008587  0.73046349  1
  O2-  O276  1  0.28999521  0.16173060  0.05936023  1
  O2-  O277  1  0.29946217  0.17262894  0.40327818  1
  O2-  O278  1  0.29840840  0.16867694  0.72549097  1
  O2-  O279  1  0.29423719  0.66652850  0.06033032  1
  O2-  O280  1  0.28983322  0.66430783  0.40196284  1
  O2-  O281  1  0.28863261  0.66465363  0.74020528  1
  O2-  O282  1  0.79235519  0.17074415  0.07373053  1
  O2-  O283  1  0.78680763  0.16142246  0.39441037  1
  O2-  O284  1  0.79199914  0.16553173  0.73449223  1
  O2-  O285  1  0.79384732  0.66217205  0.06462812  1
  O2-  O286  1  0.78897890  0.66311802  0.39575083  1
  O2-  O287  1  0.79198330  0.67104328  0.73447553  1
