# generated using pymatgen
data_Ca2Al2SiO7
_symmetry_space_group_name_H-M   'P 1'
_cell_length_a   15.45679762
_cell_length_b   15.45675955
_cell_length_c   15.28272818
_cell_angle_alpha   90.00741700
_cell_angle_beta   89.99305256
_cell_angle_gamma   89.98858431
_symmetry_Int_Tables_number   1
_chemical_formula_structural   Ca2Al2SiO7
_chemical_formula_sum   'Ca48 Al48 Si24 O168'
_cell_volume   3651.22708978
_cell_formula_units_Z   24
loop_
 _symmetry_equiv_pos_site_id
 _symmetry_equiv_pos_as_xyz
  1  'x, y, z'
loop_
 _atom_type_symbol
 _atom_type_oxidation_number
  Ca2+  2.0
  Al0+  0.0
  Si0+  0.0
  O2-  -2.0
loop_
 _atom_site_type_symbol
 _atom_site_label
 _atom_site_symmetry_multiplicity
 _atom_site_fract_x
 _atom_site_fract_y
 _atom_site_fract_z
 _atom_site_occupancy
  Ca2+  Ca0  1  0.15788538  0.07603209  0.16576861  1
  Ca2+  Ca1  1  0.17556702  0.07996010  0.50812499  1
  Ca2+  Ca2  1  0.16948264  0.08018309  0.84049289  1
  Ca2+  Ca3  1  0.16235351  0.57985134  0.17220024  1
  Ca2+  Ca4  1  0.16546215  0.57618909  0.50742950  1
  Ca2+  Ca5  1  0.16544575  0.58415343  0.83049574  1
  Ca2+  Ca6  1  0.67730500  0.09117985  0.16734365  1
  Ca2+  Ca7  1  0.67135099  0.08417873  0.50137061  1
  Ca2+  Ca8  1  0.67288731  0.08538339  0.84157057  1
  Ca2+  Ca9  1  0.66868792  0.57726683  0.16691785  1
  Ca2+  Ca10  1  0.67594555  0.57638814  0.51242307  1
  Ca2+  Ca11  1  0.67042595  0.57261759  0.83499045  1
  Ca2+  Ca12  1  0.07808909  0.32927089  0.16414878  1
  Ca2+  Ca13  1  0.07433534  0.34609217  0.49752269  1
  Ca2+  Ca14  1  0.08256707  0.32800021  0.82544022  1
  Ca2+  Ca15  1  0.08358085  0.82325029  0.15541278  1
  Ca2+  Ca16  1  0.08169292  0.81834584  0.49999173  1
  Ca2+  Ca17  1  0.07699675  0.82729490  0.83055701  1
  Ca2+  Ca18  1  0.57354904  0.33281314  0.15633186  1
  Ca2+  Ca19  1  0.57018100  0.34345932  0.49986561  1
  Ca2+  Ca20  1  0.57974310  0.33505264  0.83158212  1
  Ca2+  Ca21  1  0.57704071  0.83557963  0.16666474  1
  Ca2+  Ca22  1  0.57205064  0.83241204  0.49862506  1
  Ca2+  Ca23  1  0.57830484  0.83200321  0.82521887  1
  Ca2+  Ca24  1  0.32825111  0.41280238  0.17306618  1
  Ca2+  Ca25  1  0.32285173  0.41690722  0.51045887  1
  Ca2+  Ca26  1  0.33419016  0.41799557  0.83306691  1
  Ca2+  Ca27  1  0.32778987  0.91576423  0.17024551  1
  Ca2+  Ca28  1  0.33847902  0.92071071  0.50935794  1
  Ca2+  Ca29  1  0.32967024  0.92113356  0.83635425  1
  Ca2+  Ca30  1  0.82639364  0.40865021  0.17084414  1
  Ca2+  Ca31  1  0.83211238  0.41818763  0.51280588  1
  Ca2+  Ca32  1  0.82649106  0.41463191  0.83249211  1
  Ca2+  Ca33  1  0.84342626  0.92893223  0.16728425  1
  Ca2+  Ca34  1  0.83843457  0.92229545  0.50488687  1
  Ca2+  Ca35  1  0.84148834  0.91877354  0.84215378  1
  Ca2+  Ca36  1  0.42183677  0.17979291  0.15829805  1
  Ca2+  Ca37  1  0.41260087  0.17794212  0.49927535  1
  Ca2+  Ca38  1  0.41847200  0.17680894  0.82729908  1
  Ca2+  Ca39  1  0.41488954  0.67203626  0.16544606  1
  Ca2+  Ca40  1  0.40517153  0.67618408  0.50062361  1
  Ca2+  Ca41  1  0.41406403  0.67056023  0.82426538  1
  Ca2+  Ca42  1  0.91630249  0.16688613  0.16155632  1
  Ca2+  Ca43  1  0.91444087  0.17937121  0.49599954  1
  Ca2+  Ca44  1  0.92150594  0.16731492  0.83212613  1
  Ca2+  Ca45  1  0.93021303  0.67111646  0.15828814  1
  Ca2+  Ca46  1  0.92870245  0.65633952  0.50012418  1
  Ca2+  Ca47  1  0.92441300  0.67203969  0.82331271  1
  Al0+  Al48  1  0.00155245  0.00045981  0.00182219  1
  Al0+  Al49  1  0.00017973  0.00008137  0.34317822  1
  Al0+  Al50  1  0.00163073  -0.00083235  0.66213863  1
  Al0+  Al51  1  0.00094963  0.50091563  -0.00302821  1
  Al0+  Al52  1  -0.00079573  0.49863651  0.32543928  1
  Al0+  Al53  1  -0.00032491  0.49879980  0.66955969  1
  Al0+  Al54  1  0.50084921  0.00228912  -0.00104895  1
  Al0+  Al55  1  0.50091272  -0.00060389  0.32833288  1
  Al0+  Al56  1  0.50181527  0.00099931  0.66756462  1
  Al0+  Al57  1  0.49941309  0.50238196  0.00274876  1
  Al0+  Al58  1  0.49916174  0.50249616  0.32989336  1
  Al0+  Al59  1  0.49994972  0.49918611  0.66926935  1
  Al0+  Al60  1  0.24974965  0.25182311  -0.00587121  1
  Al0+  Al61  1  0.24838658  0.24872366  0.33316693  1
  Al0+  Al62  1  0.25263526  0.24805916  0.67077628  1
  Al0+  Al63  1  0.25000983  0.74969110  0.00098798  1
  Al0+  Al64  1  0.24965257  0.74962458  0.32505649  1
  Al0+  Al65  1  0.24812304  0.75015682  0.66244225  1
  Al0+  Al66  1  0.74772764  0.25026062  0.00546796  1
  Al0+  Al67  1  0.74955148  0.24954358  0.33666334  1
  Al0+  Al68  1  0.75102414  0.24698954  0.66721306  1
  Al0+  Al69  1  0.74861594  0.75031481  0.00031709  1
  Al0+  Al70  1  0.74934526  0.75073201  0.33380570  1
  Al0+  Al71  1  0.74954623  0.75197090  0.66568655  1
  Al0+  Al72  1  0.82222251  0.57280720  0.68184910  1
  Al0+  Al73  1  0.07320716  0.67696806  0.98180237  1
  Al0+  Al74  1  0.42956888  0.82095865  0.65555947  1
  Al0+  Al75  1  0.32335985  0.07026106  0.68100058  1
  Al0+  Al76  1  0.18194805  0.93028683  0.01345774  1
  Al0+  Al77  1  0.42973499  0.32164246  0.65200263  1
  Al0+  Al78  1  0.92647093  0.82302923  0.64957431  1
  Al0+  Al79  1  0.06954914  0.67803705  0.65022684  1
  Al0+  Al80  1  0.17821531  0.42801582  0.68321425  1
  Al0+  Al81  1  0.42860995  0.32375003  0.98289882  1
  Al0+  Al82  1  0.82079090  0.07104746  0.35051881  1
  Al0+  Al83  1  0.31990194  0.57264315  0.68033040  1
  Al0+  Al84  1  0.93017648  0.31782196  0.65559006  1
  Al0+  Al85  1  0.42704417  0.32174118  0.32074114  1
  Al0+  Al86  1  0.92933836  0.82087773  0.98760177  1
  Al0+  Al87  1  0.82040385  0.06910575  0.01280789  1
  Al0+  Al88  1  0.06890884  0.67919899  0.31764164  1
  Al0+  Al89  1  0.67864138  0.42643221  0.68147978  1
  Al0+  Al90  1  0.67997771  0.43103144  0.01591285  1
  Al0+  Al91  1  0.57231109  0.17974690  0.98477504  1
  Al0+  Al92  1  0.92833809  0.31972093  0.31940929  1
  Al0+  Al93  1  0.06967647  0.17954882  0.98758980  1
  Al0+  Al94  1  0.42966119  0.82122658  0.31802787  1
  Al0+  Al95  1  0.17905104  0.42849342  0.34495759  1
  Si0+  Si96  1  0.17817166  0.92861430  0.68284034  1
  Si0+  Si97  1  0.57136093  0.17880861  0.31695185  1
  Si0+  Si98  1  0.17787390  0.42742535  0.01555650  1
  Si0+  Si99  1  0.32315351  0.07420729  0.01783280  1
  Si0+  Si100  1  0.57478257  0.67817637  0.31560206  1
  Si0+  Si101  1  0.92741244  0.82417341  0.31741471  1
  Si0+  Si102  1  0.82305172  0.57340336  0.01770774  1
  Si0+  Si103  1  0.32220441  0.06938417  0.34645516  1
  Si0+  Si104  1  0.67713724  0.42986252  0.34846158  1
  Si0+  Si105  1  0.42922809  0.82144820  0.98543906  1
  Si0+  Si106  1  0.67626145  0.92743429  0.35138887  1
  Si0+  Si107  1  0.67485850  0.92533139  0.01773239  1
  Si0+  Si108  1  0.67896423  0.92993852  0.68095096  1
  Si0+  Si109  1  0.57283869  0.17771227  0.64854811  1
  Si0+  Si110  1  0.57068408  0.67971128  0.98527284  1
  Si0+  Si111  1  0.82037940  0.57040982  0.34565729  1
  Si0+  Si112  1  0.82249851  0.06903018  0.68213868  1
  Si0+  Si113  1  0.32033573  0.57124983  0.01687208  1
  Si0+  Si114  1  0.07177159  0.17508455  0.31857763  1
  Si0+  Si115  1  0.07452516  0.17732210  0.64940474  1
  Si0+  Si116  1  0.92623459  0.32195018  0.98430980  1
  Si0+  Si117  1  0.57206536  0.67710773  0.65101003  1
  Si0+  Si118  1  0.18035144  0.92658520  0.34955590  1
  Si0+  Si119  1  0.32220684  0.57283586  0.34869653  1
  O2-  O120  1  0.25545192  0.00531110  0.06377789  1
  O2-  O121  1  0.25249574  -0.00263271  0.39027301  1
  O2-  O122  1  0.24735121  -0.00315107  0.72690964  1
  O2-  O123  1  0.24871764  0.49967422  0.05730528  1
  O2-  O124  1  0.25659079  0.50103035  0.39113785  1
  O2-  O125  1  0.25059539  0.50006072  0.73327582  1
  O2-  O126  1  0.74541452  -0.00667202  0.05986887  1
  O2-  O127  1  0.74708189  -0.00620467  0.39583864  1
  O2-  O128  1  0.75551236  -0.00582949  0.72334652  1
  O2-  O129  1  0.75778761  0.50219837  0.06423584  1
  O2-  O130  1  0.74842803  0.50090690  0.38907775  1
  O2-  O131  1  0.75021599  0.49978841  0.73057265  1
  O2-  O132  1  0.00197229  0.24293310  0.27495909  1
  O2-  O133  1  0.00789465  0.24776770  0.60533691  1
  O2-  O134  1  -0.00300507  0.25560237  0.94041434  1
  O2-  O135  1  -0.00476980  0.75594735  0.27242169  1
  O2-  O136  1  -0.00622924  0.74677788  0.59983504  1
  O2-  O137  1  -0.00345979  0.74598851  0.93597230  1
  O2-  O138  1  0.50349245  0.24880618  0.27398327  1
  O2-  O139  1  0.50603020  0.24819506  0.60449866  1
  O2-  O140  1  0.49955185  0.24988036  0.93434352  1
  O2-  O141  1  0.50479640  0.74642580  0.27205330  1
  O2-  O142  1  0.50022376  0.74306255  0.60688830  1
  O2-  O143  1  0.50394721  0.75480994  0.94362979  1
  O2-  O144  1  0.06806888  0.18008511  0.10118035  1
  O2-  O145  1  0.07313421  0.17326986  0.42386289  1
  O2-  O146  1  0.07101673  0.17464029  0.75509444  1
  O2-  O147  1  0.07357777  0.67801175  0.09600303  1
  O2-  O148  1  0.06941600  0.67806399  0.43017494  1
  O2-  O149  1  0.07116103  0.68240273  0.76320834  1
  O2-  O150  1  0.57098181  0.18196220  0.09893789  1
  O2-  O151  1  0.57006344  0.17674106  0.42254052  1
  O2-  O152  1  0.57293875  0.17546118  0.75372254  1
  O2-  O153  1  0.56868646  0.67938508  0.09076673  1
  O2-  O154  1  0.57760752  0.67772714  0.42065977  1
  O2-  O155  1  0.57285509  0.68102632  0.75686004  1
  O2-  O156  1  0.17975363  0.42915809  0.23134791  1
  O2-  O157  1  0.17852977  0.42903999  0.56907297  1
  O2-  O158  1  0.17778650  0.42604992  0.91111646  1
  O2-  O159  1  0.17976768  0.92795052  0.24429856  1
  O2-  O160  1  0.17965463  0.93051576  0.57658118  1
  O2-  O161  1  0.18521248  0.93105026  0.90069987  1
  O2-  O162  1  0.67719608  0.43079178  0.24321201  1
  O2-  O163  1  0.67933369  0.42856940  0.56694780  1
  O2-  O164  1  0.67978627  0.43271202  0.90349407  1
  O2-  O165  1  0.67412408  0.92788216  0.24608406  1
  O2-  O166  1  0.67494985  0.93362175  0.57584854  1
  O2-  O167  1  0.67208248  0.92399105  0.91220796  1
  O2-  O168  1  0.42876970  0.32285815  0.09736798  1
  O2-  O169  1  0.42749181  0.32102558  0.43368296  1
  O2-  O170  1  0.43073134  0.32019993  0.76439830  1
  O2-  O171  1  0.42940784  0.81930035  0.09085762  1
  O2-  O172  1  0.43042251  0.82212076  0.43098523  1
  O2-  O173  1  0.43316395  0.82169256  0.76883376  1
  O2-  O174  1  0.92726439  0.32020214  0.09046353  1
  O2-  O175  1  0.92774254  0.32130965  0.43235793  1
  O2-  O176  1  0.92782088  0.31213735  0.76849167  1
  O2-  O177  1  0.93252336  0.82036061  0.10177058  1
  O2-  O178  1  0.92833741  0.82323581  0.42266178  1
  O2-  O179  1  0.92995949  0.82659024  0.76278737  1
  O2-  O180  1  0.32163935  0.06833660  0.24148122  1
  O2-  O181  1  0.32262053  0.06840575  0.56684488  1
  O2-  O182  1  0.32327925  0.07081626  0.91247868  1
  O2-  O183  1  0.32229390  0.57342935  0.24265255  1
  O2-  O184  1  0.31812867  0.57303331  0.56639852  1
  O2-  O185  1  0.32283489  0.57387604  0.91239158  1
  O2-  O186  1  0.82088454  0.07030551  0.23746387  1
  O2-  O187  1  0.81956355  0.07045412  0.57691287  1
  O2-  O188  1  0.81969473  0.06772395  0.89955473  1
  O2-  O189  1  0.81773593  0.57041242  0.24055208  1
  O2-  O190  1  0.82034396  0.56985455  0.56708518  1
  O2-  O191  1  0.81931280  0.57471335  0.91275411  1
  O2-  O192  1  0.04485771  0.08053715  0.27405858  1
  O2-  O193  1  0.04799844  0.08473699  0.60150398  1
  O2-  O194  1  0.03845821  0.08416210  0.93268487  1
  O2-  O195  1  0.03569130  0.58495791  0.26062143  1
  O2-  O196  1  0.04213176  0.57856713  0.59878337  1
  O2-  O197  1  0.04896286  0.57726418  0.93067749  1
  O2-  O198  1  0.54697289  0.08564959  0.26933946  1
  O2-  O199  1  0.54463421  0.08528026  0.60085998  1
  O2-  O200  1  0.54864745  0.07927703  0.93297429  1
  O2-  O201  1  0.54800245  0.58587941  0.26691571  1
  O2-  O202  1  0.55087106  0.58271713  0.60590475  1
  O2-  O203  1  0.53828751  0.59038840  0.93755393  1
  O2-  O204  1  0.16448865  0.19987577  0.27059576  1
  O2-  O205  1  0.16965162  0.19898876  0.60576322  1
  O2-  O206  1  0.16610739  0.20709406  0.93244527  1
  O2-  O207  1  0.16507655  0.70916574  0.26228609  1
  O2-  O208  1  0.16587146  0.71045486  0.59470659  1
  O2-  O209  1  0.17119246  0.70966614  0.93159891  1
  O2-  O210  1  0.66530004  0.20482588  0.27255879  1
  O2-  O211  1  0.66712349  0.20051252  0.60262300  1
  O2-  O212  1  0.67076474  0.20872909  0.93296730  1
  O2-  O213  1  0.66724106  0.70533653  0.26666255  1
  O2-  O214  1  0.66341200  0.70671677  0.60240418  1
  O2-  O215  1  0.66326036  0.70326598  0.93802786  1
  O2-  O216  1  0.08493552  0.45422747  0.06264635  1
  O2-  O217  1  0.08146404  0.46218799  0.39563117  1
  O2-  O218  1  0.08005881  0.45374531  0.73667680  1
  O2-  O219  1  0.08658026  0.96181746  0.06977351  1
  O2-  O220  1  0.08980102  0.95367699  0.39947875  1
  O2-  O221  1  0.08488502  0.95631675  0.72833065  1
  O2-  O222  1  0.58456309  0.46738591  0.07079751  1
  O2-  O223  1  0.58512854  0.46019763  0.39475296  1
  O2-  O224  1  0.58118539  0.45502688  0.73506891  1
  O2-  O225  1  0.58158716  0.95284996  0.06506214  1
  O2-  O226  1  0.58310943  0.95662069  0.39772274  1
  O2-  O227  1  0.59043950  0.96258329  0.73201497  1
  O2-  O228  1  0.20663279  0.33571222  0.06345909  1
  O2-  O229  1  0.20538097  0.33048813  0.39876000  1
  O2-  O230  1  0.20658959  0.32911217  0.73458194  1
  O2-  O231  1  0.21519801  0.83440546  0.06922203  1
  O2-  O232  1  0.21007642  0.83439877  0.39429739  1
  O2-  O233  1  0.20392071  0.83536012  0.72740215  1
  O2-  O234  1  0.70774120  0.33463799  0.07224793  1
  O2-  O235  1  0.70241249  0.33767657  0.39490299  1
  O2-  O236  1  0.70903012  0.32803784  0.73352697  1
  O2-  O237  1  0.69672786  0.83104707  0.06512489  1
  O2-  O238  1  0.69804318  0.83232609  0.39690931  1
  O2-  O239  1  0.69821392  0.83604382  0.72749734  1
  O2-  O240  1  0.45545300  0.41951936  0.26722924  1
  O2-  O241  1  0.45917353  0.41892403  0.59794901  1
  O2-  O242  1  0.45901215  0.42301787  0.93407373  1
  O2-  O243  1  0.46156337  0.91650306  0.26135402  1
  O2-  O244  1  0.46609090  0.91573986  0.60049715  1
  O2-  O245  1  0.45258471  0.91512702  0.94043598  1
  O2-  O246  1  0.95849331  0.41368312  0.26074151  1
  O2-  O247  1  0.95613684  0.41583237  0.60246524  1
  O2-  O248  1  0.94845356  0.41671888  0.94041173  1
  O2-  O249  1  0.95483962  0.91910895  0.27518458  1
  O2-  O250  1  0.95981257  0.91977021  0.59443663  1
  O2-  O251  1  0.96126708  0.91785582  0.93520597  1
  O2-  O252  1  0.33156617  0.28792262  0.26597149  1
  O2-  O253  1  0.33359265  0.28642920  0.59913409  1
  O2-  O254  1  0.33040387  0.29722920  0.93040836  1
  O2-  O255  1  0.33500281  0.78979022  0.26092916  1
  O2-  O256  1  0.33307022  0.79499222  0.59929682  1
  O2-  O257  1  0.33958625  0.78933513  0.93843780  1
  O2-  O258  1  0.83073573  0.28820821  0.26710230  1
  O2-  O259  1  0.83490910  0.28343536  0.59959928  1
  O2-  O260  1  0.83301965  0.29401737  0.94078143  1
  O2-  O261  1  0.83186182  0.80198500  0.27351238  1
  O2-  O262  1  0.82467772  0.80395179  0.59922209  1
  O2-  O263  1  0.82725927  0.80020785  0.93834753  1
  O2-  O264  1  0.41731394  0.04863033  0.06375963  1
  O2-  O265  1  0.41479905  0.04176471  0.39262210  1
  O2-  O266  1  0.41912608  0.03799433  0.73550980  1
  O2-  O267  1  0.41169156  0.54503558  0.06691453  1
  O2-  O268  1  0.41831205  0.55392457  0.39272030  1
  O2-  O269  1  0.41960418  0.54831577  0.73262936  1
  O2-  O270  1  0.91610590  0.03857443  0.06930949  1
  O2-  O271  1  0.91699910  0.04279697  0.40728389  1
  O2-  O272  1  0.91660198  0.04449006  0.72635614  1
  O2-  O273  1  0.91865569  0.55056390  0.06133699  1
  O2-  O274  1  0.91165851  0.53968780  0.39093507  1
  O2-  O275  1  0.91909042  0.54476291  0.73567108  1
  O2-  O276  1  0.29672632  0.16877984  0.06121944  1
  O2-  O277  1  0.29272863  0.16021521  0.39486942  1
  O2-  O278  1  0.29394120  0.16514710  0.73710606  1
  O2-  O279  1  0.29241827  0.66269131  0.06604913  1
  O2-  O280  1  0.29347904  0.66690442  0.39218695  1
  O2-  O281  1  0.29202051  0.67209025  0.73278354  1
  O2-  O282  1  0.78888181  0.16463010  0.06938971  1
  O2-  O283  1  0.78628219  0.16650410  0.40577359  1
  O2-  O284  1  0.79128754  0.15840738  0.73116341  1
  O2-  O285  1  0.79303808  0.66571820  0.06560584  1
  O2-  O286  1  0.79501261  0.66336528  0.39286724  1
  O2-  O287  1  0.79296550  0.67215402  0.73264539  1
