# generated using pymatgen
data_Ca2Al2SiO7
_symmetry_space_group_name_H-M   'P 1'
_cell_length_a   15.46588581
_cell_length_b   15.46911058
_cell_length_c   15.29115158
_cell_angle_alpha   90.00663723
_cell_angle_beta   89.99715418
_cell_angle_gamma   89.98105499
_symmetry_Int_Tables_number   1
_chemical_formula_structural   Ca2Al2SiO7
_chemical_formula_sum   'Ca48 Al48 Si24 O168'
_cell_volume   3658.30835997
_cell_formula_units_Z   24
loop_
 _symmetry_equiv_pos_site_id
 _symmetry_equiv_pos_as_xyz
  1  'x, y, z'
loop_
 _atom_type_symbol
 _atom_type_oxidation_number
  Ca2+  2.0
  Al0+  0.0
  Si0+  0.0
  O2-  -2.0
loop_
 _atom_site_type_symbol
 _atom_site_label
 _atom_site_symmetry_multiplicity
 _atom_site_fract_x
 _atom_site_fract_y
 _atom_site_fract_z
 _atom_site_occupancy
  Ca2+  Ca0  1  0.16757123  0.08046268  0.17121518  1
  Ca2+  Ca1  1  0.16753227  0.08078363  0.50310414  1
  Ca2+  Ca2  1  0.16486240  0.08025644  0.83819797  1
  Ca2+  Ca3  1  0.16997985  0.57989886  0.17133049  1
  Ca2+  Ca4  1  0.16569676  0.58852052  0.49848377  1
  Ca2+  Ca5  1  0.17002940  0.58113780  0.84347992  1
  Ca2+  Ca6  1  0.67342416  0.07762854  0.17115330  1
  Ca2+  Ca7  1  0.66335397  0.07009693  0.50694410  1
  Ca2+  Ca8  1  0.66658739  0.07942721  0.83553565  1
  Ca2+  Ca9  1  0.66658280  0.58398764  0.16531845  1
  Ca2+  Ca10  1  0.67524741  0.58863652  0.50525508  1
  Ca2+  Ca11  1  0.68068433  0.58093570  0.84263304  1
  Ca2+  Ca12  1  0.07583671  0.34524509  0.16389884  1
  Ca2+  Ca13  1  0.07262878  0.33954466  0.49468190  1
  Ca2+  Ca14  1  0.07061817  0.34328482  0.83410021  1
  Ca2+  Ca15  1  0.08404000  0.81862460  0.16390389  1
  Ca2+  Ca16  1  0.07110581  0.82280956  0.49370710  1
  Ca2+  Ca17  1  0.07398171  0.81914400  0.82627173  1
  Ca2+  Ca18  1  0.57701057  0.33991429  0.15499587  1
  Ca2+  Ca19  1  0.58124820  0.32847986  0.49894823  1
  Ca2+  Ca20  1  0.57385797  0.33927324  0.82968227  1
  Ca2+  Ca21  1  0.58374585  0.82231374  0.16996451  1
  Ca2+  Ca22  1  0.58487612  0.83016013  0.48922271  1
  Ca2+  Ca23  1  0.58868441  0.82784009  0.83264254  1
  Ca2+  Ca24  1  0.32456866  0.42608999  0.17058735  1
  Ca2+  Ca25  1  0.32790898  0.42165283  0.50144241  1
  Ca2+  Ca26  1  0.32765223  0.41709018  0.84543614  1
  Ca2+  Ca27  1  0.33786134  0.91686588  0.17300053  1
  Ca2+  Ca28  1  0.33527031  0.91266442  0.50234576  1
  Ca2+  Ca29  1  0.33150956  0.91950989  0.83688544  1
  Ca2+  Ca30  1  0.83505534  0.41972668  0.16552898  1
  Ca2+  Ca31  1  0.83883844  0.42213219  0.50591576  1
  Ca2+  Ca32  1  0.83274991  0.42231858  0.84211160  1
  Ca2+  Ca33  1  0.83423130  0.92161229  0.17467512  1
  Ca2+  Ca34  1  0.82422354  0.90376683  0.50502772  1
  Ca2+  Ca35  1  0.83282295  0.92098211  0.83657455  1
  Ca2+  Ca36  1  0.41984893  0.17575787  0.15928156  1
  Ca2+  Ca37  1  0.42129420  0.17073723  0.50216586  1
  Ca2+  Ca38  1  0.42283860  0.18161505  0.82590087  1
  Ca2+  Ca39  1  0.42430795  0.65727423  0.16303503  1
  Ca2+  Ca40  1  0.42477706  0.67178736  0.48664568  1
  Ca2+  Ca41  1  0.42551697  0.65609579  0.83590515  1
  Ca2+  Ca42  1  0.91256972  0.17759743  0.16095014  1
  Ca2+  Ca43  1  0.91009495  0.18143561  0.49789818  1
  Ca2+  Ca44  1  0.90651507  0.17860880  0.83408150  1
  Ca2+  Ca45  1  0.92665371  0.66430878  0.16183601  1
  Ca2+  Ca46  1  0.92214806  0.67055865  0.49648492  1
  Ca2+  Ca47  1  0.92577053  0.65601824  0.82745601  1
  Al0+  Al48  1  -0.00000952  0.00003259  0.00539180  1
  Al0+  Al49  1  0.00082757  0.00437879  0.33441887  1
  Al0+  Al50  1  -0.00153702  -0.00062441  0.66508372  1
  Al0+  Al51  1  -0.00039674  0.50001640  -0.00141141  1
  Al0+  Al52  1  -0.00088775  0.49944207  0.32993456  1
  Al0+  Al53  1  0.00305915  0.49897349  0.66213140  1
  Al0+  Al54  1  0.49917196  -0.00079465  0.00045900  1
  Al0+  Al55  1  0.50251650  0.00057196  0.33350091  1
  Al0+  Al56  1  0.49957263  0.00058627  0.67089023  1
  Al0+  Al57  1  0.50047492  0.50100572  -0.00429657  1
  Al0+  Al58  1  0.49943264  0.49864354  0.33550537  1
  Al0+  Al59  1  0.49877771  0.50074679  0.66010236  1
  Al0+  Al60  1  0.24960486  0.24836485  0.00028047  1
  Al0+  Al61  1  0.25004660  0.25002857  0.33911411  1
  Al0+  Al62  1  0.25036718  0.25032540  0.66353845  1
  Al0+  Al63  1  0.24983022  0.75132822  -0.00175624  1
  Al0+  Al64  1  0.25028399  0.75275797  0.33186830  1
  Al0+  Al65  1  0.25074972  0.74913591  0.66632266  1
  Al0+  Al66  1  0.74935002  0.24679928  0.00394911  1
  Al0+  Al67  1  0.75038245  0.24970035  0.33021978  1
  Al0+  Al68  1  0.74758103  0.24807435  0.65813302  1
  Al0+  Al69  1  0.74880350  0.75151026  0.00035152  1
  Al0+  Al70  1  0.74931792  0.75069909  0.32905424  1
  Al0+  Al71  1  0.75068226  0.74915811  0.67568527  1
  Al0+  Al72  1  0.67934372  0.42893715  0.01220703  1
  Al0+  Al73  1  0.92893622  0.31919344  0.98677550  1
  Al0+  Al74  1  0.42716531  0.32352471  0.64837492  1
  Al0+  Al75  1  0.17828570  0.42739568  0.01403258  1
  Al0+  Al76  1  0.92699237  0.82139195  0.65340456  1
  Al0+  Al77  1  0.17777299  0.43023066  0.35118662  1
  Al0+  Al78  1  0.82079186  0.06922926  0.01439479  1
  Al0+  Al79  1  0.32174794  0.57307857  0.35003705  1
  Al0+  Al80  1  0.07304703  0.67809269  0.65067534  1
  Al0+  Al81  1  0.07017425  0.67929193  0.98506741  1
  Al0+  Al82  1  0.82227530  0.57237538  0.01605396  1
  Al0+  Al83  1  0.68280066  0.93039237  0.34664088  1
  Al0+  Al84  1  0.57007869  0.17737689  0.65096808  1
  Al0+  Al85  1  0.92741021  0.82325208  0.31794220  1
  Al0+  Al86  1  0.67838684  0.92836906  0.68258808  1
  Al0+  Al87  1  0.32140848  0.57250432  0.01354004  1
  Al0+  Al88  1  0.07040957  0.67975283  0.31646798  1
  Al0+  Al89  1  0.82194704  0.56788727  0.67893475  1
  Al0+  Al90  1  0.92950070  0.31993804  0.65418714  1
  Al0+  Al91  1  0.92898596  0.32031766  0.31728097  1
  Al0+  Al92  1  0.42897664  0.32083720  0.98799984  1
  Al0+  Al93  1  0.57148469  0.67972957  0.98394034  1
  Al0+  Al94  1  0.57104996  0.67590126  0.31843859  1
  Al0+  Al95  1  0.42959650  0.82304888  0.31970696  1
  Si0+  Si96  1  0.42856780  0.31946849  0.31815567  1
  Si0+  Si97  1  0.32133681  0.07031259  0.01491784  1
  Si0+  Si98  1  0.18106003  0.42798130  0.68198182  1
  Si0+  Si99  1  0.32214009  0.57203713  0.68169259  1
  Si0+  Si100  1  0.81912324  0.56969984  0.34703424  1
  Si0+  Si101  1  0.42936766  0.82117754  0.65459575  1
  Si0+  Si102  1  0.07208027  0.17491178  0.98426718  1
  Si0+  Si103  1  0.07294563  0.17590128  0.65071784  1
  Si0+  Si104  1  0.57033306  0.17937065  0.31702408  1
  Si0+  Si105  1  0.42794404  0.82400143  0.98133172  1
  Si0+  Si106  1  0.17781847  0.93008707  0.34968613  1
  Si0+  Si107  1  0.57144471  0.68046614  0.65336498  1
  Si0+  Si108  1  0.17844368  0.92841557  0.68148066  1
  Si0+  Si109  1  0.07505398  0.17939006  0.31700152  1
  Si0+  Si110  1  0.67520965  0.92794450  0.01957522  1
  Si0+  Si111  1  0.82194863  0.07419077  0.68263649  1
  Si0+  Si112  1  0.57126286  0.17574005  0.98425074  1
  Si0+  Si113  1  0.31957368  0.07142490  0.68309830  1
  Si0+  Si114  1  0.67773699  0.42603205  0.34862795  1
  Si0+  Si115  1  0.92845404  0.82446517  0.98460805  1
  Si0+  Si116  1  0.17957512  0.92964868  0.01544748  1
  Si0+  Si117  1  0.32235126  0.07087011  0.34973602  1
  Si0+  Si118  1  0.82312072  0.07429205  0.35280818  1
  Si0+  Si119  1  0.67654149  0.42653142  0.67978372  1
  O2-  O120  1  0.25151892  -0.00045997  0.05856012  1
  O2-  O121  1  0.25187101  -0.00095232  0.39181708  1
  O2-  O122  1  0.24688575  0.00186750  0.72532265  1
  O2-  O123  1  0.24874468  0.50128884  0.06300560  1
  O2-  O124  1  0.24788746  0.50381909  0.40218276  1
  O2-  O125  1  0.25299858  0.49877985  0.72296151  1
  O2-  O126  1  0.74743412  -0.00626888  0.06184171  1
  O2-  O127  1  0.76038098  0.00051218  0.39686210  1
  O2-  O128  1  0.75456023  0.00361559  0.72610969  1
  O2-  O129  1  0.75015291  0.49991251  0.06567629  1
  O2-  O130  1  0.74715554  0.49898542  0.38981322  1
  O2-  O131  1  0.74805830  0.49129129  0.72415963  1
  O2-  O132  1  0.00664797  0.24734136  0.27291823  1
  O2-  O133  1  0.00289134  0.24322360  0.60757347  1
  O2-  O134  1  0.00536874  0.24511700  0.94030664  1
  O2-  O135  1  -0.00103254  0.75250554  0.26630497  1
  O2-  O136  1  -0.00115130  0.74941935  0.60395493  1
  O2-  O137  1  -0.00950709  0.75014255  0.93977458  1
  O2-  O138  1  0.50257096  0.25261482  0.27421199  1
  O2-  O139  1  0.50138551  0.25240483  0.60009875  1
  O2-  O140  1  0.50619576  0.24817969  0.94121297  1
  O2-  O141  1  0.49441033  0.74486971  0.27023500  1
  O2-  O142  1  0.50112952  0.75224498  0.61181441  1
  O2-  O143  1  0.49547823  0.75450265  0.93728657  1
  O2-  O144  1  0.07246314  0.17074918  0.08946312  1
  O2-  O145  1  0.07613798  0.17799233  0.42270326  1
  O2-  O146  1  0.07607633  0.17458369  0.75603765  1
  O2-  O147  1  0.07297739  0.68225651  0.09759307  1
  O2-  O148  1  0.06827577  0.68175508  0.43003908  1
  O2-  O149  1  0.07518154  0.67939853  0.76438677  1
  O2-  O150  1  0.56663680  0.17225200  0.09004890  1
  O2-  O151  1  0.56798244  0.17886861  0.42190386  1
  O2-  O152  1  0.56675399  0.17602795  0.76445710  1
  O2-  O153  1  0.57017113  0.68072502  0.09647783  1
  O2-  O154  1  0.57356507  0.67940086  0.43291194  1
  O2-  O155  1  0.56941627  0.67944265  0.75821610  1
  O2-  O156  1  0.18100830  0.42729101  0.23815802  1
  O2-  O157  1  0.18109464  0.42674130  0.57721478  1
  O2-  O158  1  0.18007037  0.42666299  0.89974242  1
  O2-  O159  1  0.17721359  0.93406466  0.24453528  1
  O2-  O160  1  0.18177440  0.92975645  0.57651861  1
  O2-  O161  1  0.18031681  0.93262440  0.90999433  1
  O2-  O162  1  0.67721890  0.42304319  0.24402486  1
  O2-  O163  1  0.67610675  0.42960003  0.57377275  1
  O2-  O164  1  0.68006280  0.42928490  0.89818258  1
  O2-  O165  1  0.68100960  0.93547531  0.23394266  1
  O2-  O166  1  0.67615203  0.92829728  0.56954695  1
  O2-  O167  1  0.67261029  0.93094228  0.91379597  1
  O2-  O168  1  0.42905835  0.31634758  0.10134195  1
  O2-  O169  1  0.42961432  0.31637877  0.42311243  1
  O2-  O170  1  0.42568024  0.32195711  0.76200357  1
  O2-  O171  1  0.42929455  0.83005079  0.08613145  1
  O2-  O172  1  0.43386768  0.82576603  0.43400954  1
  O2-  O173  1  0.42707654  0.82094472  0.75954249  1
  O2-  O174  1  0.92962790  0.31695729  0.09948161  1
  O2-  O175  1  0.92756442  0.31866087  0.43078676  1
  O2-  O176  1  0.92970911  0.31932197  0.76707299  1
  O2-  O177  1  0.93419396  0.82794732  0.08980091  1
  O2-  O178  1  0.92751769  0.81949615  0.43154555  1
  O2-  O179  1  0.93114825  0.82531118  0.76685483  1
  O2-  O180  1  0.32128309  0.07220615  0.24440916  1
  O2-  O181  1  0.31961866  0.06960684  0.57783476  1
  O2-  O182  1  0.32077903  0.06877183  0.90973020  1
  O2-  O183  1  0.32427165  0.56812005  0.23706798  1
  O2-  O184  1  0.32251965  0.57434200  0.57708477  1
  O2-  O185  1  0.32000361  0.57044598  0.89904580  1
  O2-  O186  1  0.81992068  0.07584218  0.24723925  1
  O2-  O187  1  0.82169187  0.07627604  0.57736070  1
  O2-  O188  1  0.82020766  0.06844781  0.90103724  1
  O2-  O189  1  0.81927637  0.56816494  0.24236213  1
  O2-  O190  1  0.81921969  0.56888355  0.56522067  1
  O2-  O191  1  0.82286175  0.56897299  0.90208522  1
  O2-  O192  1  0.05070974  0.08578308  0.27049893  1
  O2-  O193  1  0.05007390  0.08197911  0.60380416  1
  O2-  O194  1  0.04484532  0.08180124  0.93699454  1
  O2-  O195  1  0.04117594  0.58177607  0.26485483  1
  O2-  O196  1  0.04722097  0.58015316  0.59742060  1
  O2-  O197  1  0.04209055  0.58234734  0.93083854  1
  O2-  O198  1  0.53896287  0.08969291  0.26847525  1
  O2-  O199  1  0.53409100  0.08040161  0.59817607  1
  O2-  O200  1  0.54033350  0.08413062  0.93650146  1
  O2-  O201  1  0.54609926  0.57566135  0.26742730  1
  O2-  O202  1  0.54484854  0.58971338  0.60363153  1
  O2-  O203  1  0.54064271  0.58462484  0.92704435  1
  O2-  O204  1  0.16988136  0.20233922  0.27171353  1
  O2-  O205  1  0.16587941  0.20160263  0.60319084  1
  O2-  O206  1  0.16689026  0.19631098  0.93844805  1
  O2-  O207  1  0.16900741  0.71005544  0.26562658  1
  O2-  O208  1  0.17071366  0.71083931  0.59820946  1
  O2-  O209  1  0.16581460  0.71488952  0.93086196  1
  O2-  O210  1  0.66306864  0.20374537  0.27066104  1
  O2-  O211  1  0.66768449  0.19984186  0.59411894  1
  O2-  O212  1  0.66636582  0.19554397  0.94083015  1
  O2-  O213  1  0.66652065  0.70883097  0.26383452  1
  O2-  O214  1  0.66367583  0.70867956  0.60855808  1
  O2-  O215  1  0.66792643  0.71241335  0.92922797  1
  O2-  O216  1  0.08016243  0.45584069  0.06509108  1
  O2-  O217  1  0.07736332  0.45705159  0.40142300  1
  O2-  O218  1  0.08934459  0.45670191  0.72850889  1
  O2-  O219  1  0.09004256  0.95906243  0.06541231  1
  O2-  O220  1  0.08812524  0.96247850  0.39944442  1
  O2-  O221  1  0.08629051  0.95495826  0.72884794  1
  O2-  O222  1  0.58104469  0.45859761  0.06433418  1
  O2-  O223  1  0.58539715  0.44960825  0.39687389  1
  O2-  O224  1  0.58257266  0.45516339  0.72398461  1
  O2-  O225  1  0.58264439  0.95781660  0.06577221  1
  O2-  O226  1  0.58673856  0.96542274  0.40089690  1
  O2-  O227  1  0.58212650  0.96068275  0.73791852  1
  O2-  O228  1  0.20525856  0.32781832  0.06609611  1
  O2-  O229  1  0.20816143  0.33137665  0.40450937  1
  O2-  O230  1  0.20754901  0.33516523  0.72844877  1
  O2-  O231  1  0.20812718  0.83884963  0.06288453  1
  O2-  O232  1  0.20339163  0.83881769  0.39801096  1
  O2-  O233  1  0.21091051  0.83854248  0.73012516  1
  O2-  O234  1  0.70193998  0.32916613  0.06528630  1
  O2-  O235  1  0.70796129  0.33452048  0.39625846  1
  O2-  O236  1  0.69635981  0.33003592  0.72137806  1
  O2-  O237  1  0.69687672  0.83332653  0.06318471  1
  O2-  O238  1  0.70897059  0.83177526  0.39990564  1
  O2-  O239  1  0.70870393  0.83370810  0.74013313  1
  O2-  O240  1  0.45377931  0.41210089  0.27302834  1
  O2-  O241  1  0.45408923  0.42144442  0.59377344  1
  O2-  O242  1  0.45792517  0.41589070  0.93122181  1
  O2-  O243  1  0.46252582  0.92004832  0.26530061  1
  O2-  O244  1  0.45317234  0.91446198  0.60914734  1
  O2-  O245  1  0.45511759  0.91740325  0.93325883  1
  O2-  O246  1  0.95773188  0.41648848  0.26354154  1
  O2-  O247  1  0.96414723  0.41345966  0.59743809  1
  O2-  O248  1  0.95923182  0.41506652  0.93166078  1
  O2-  O249  1  0.95458440  0.92483304  0.27066888  1
  O2-  O250  1  0.95334998  0.92029871  0.59960937  1
  O2-  O251  1  0.96136878  0.91585114  0.93749186  1
  O2-  O252  1  0.33775353  0.28615356  0.27293806  1
  O2-  O253  1  0.33080550  0.28893730  0.59476883  1
  O2-  O254  1  0.33377378  0.28507760  0.93335722  1
  O2-  O255  1  0.32791152  0.80735653  0.27009838  1
  O2-  O256  1  0.33834023  0.79334038  0.60584093  1
  O2-  O257  1  0.33338859  0.80228706  0.93554806  1
  O2-  O258  1  0.83308623  0.28687991  0.26336446  1
  O2-  O259  1  0.83313996  0.29224686  0.59786699  1
  O2-  O260  1  0.83229994  0.28468866  0.93436195  1
  O2-  O261  1  0.82945547  0.79777637  0.26454965  1
  O2-  O262  1  0.82792910  0.79048114  0.60388073  1
  O2-  O263  1  0.83120255  0.80873397  0.94354152  1
  O2-  O264  1  0.41275383  0.04247180  0.06350416  1
  O2-  O265  1  0.41385660  0.04290863  0.39722067  1
  O2-  O266  1  0.40912979  0.04134107  0.73295104  1
  O2-  O267  1  0.41972044  0.54276990  0.06371399  1
  O2-  O268  1  0.42001875  0.54174058  0.40391330  1
  O2-  O269  1  0.41573661  0.54536035  0.72680435  1
  O2-  O270  1  0.91752537  0.04111921  0.07057464  1
  O2-  O271  1  0.91996191  0.05883497  0.39589878  1
  O2-  O272  1  0.91673719  0.05099689  0.72821848  1
  O2-  O273  1  0.91974472  0.54218403  0.06825048  1
  O2-  O274  1  0.91015199  0.54005394  0.39458657  1
  O2-  O275  1  0.91991905  0.53677809  0.73004453  1
  O2-  O276  1  0.29357968  0.16071526  0.06437193  1
  O2-  O277  1  0.29315927  0.16064204  0.40039367  1
  O2-  O278  1  0.29205962  0.16373972  0.72966567  1
  O2-  O279  1  0.29727531  0.67321189  0.06348828  1
  O2-  O280  1  0.29751767  0.67457778  0.39999545  1
  O2-  O281  1  0.29450373  0.66352776  0.73026464  1
  O2-  O282  1  0.78867501  0.16350401  0.07177534  1
  O2-  O283  1  0.78988255  0.16596536  0.39883139  1
  O2-  O284  1  0.79228492  0.16717451  0.72865792  1
  O2-  O285  1  0.79502254  0.67220446  0.06609072  1
  O2-  O286  1  0.79078772  0.66176599  0.39351785  1
  O2-  O287  1  0.79076176  0.66216399  0.73651213  1
