# generated using pymatgen
data_Ca2Al2SiO7
_symmetry_space_group_name_H-M   'P 1'
_cell_length_a   15.46298766
_cell_length_b   15.46506511
_cell_length_c   15.28808860
_cell_angle_alpha   90.01247527
_cell_angle_beta   90.00178603
_cell_angle_gamma   90.00367655
_symmetry_Int_Tables_number   1
_chemical_formula_structural   Ca2Al2SiO7
_chemical_formula_sum   'Ca48 Al48 Si24 O168'
_cell_volume   3655.93395468
_cell_formula_units_Z   24
loop_
 _symmetry_equiv_pos_site_id
 _symmetry_equiv_pos_as_xyz
  1  'x, y, z'
loop_
 _atom_type_symbol
 _atom_type_oxidation_number
  Ca2+  2.0
  Al0+  0.0
  Si0+  0.0
  O2-  -2.0
loop_
 _atom_site_type_symbol
 _atom_site_label
 _atom_site_symmetry_multiplicity
 _atom_site_fract_x
 _atom_site_fract_y
 _atom_site_fract_z
 _atom_site_occupancy
  Ca2+  Ca0  1  0.17094588  0.08929059  0.16836513  1
  Ca2+  Ca1  1  0.17119715  0.07215710  0.51148703  1
  Ca2+  Ca2  1  0.17543624  0.08133527  0.84024441  1
  Ca2+  Ca3  1  0.16530349  0.57400699  0.16210525  1
  Ca2+  Ca4  1  0.16464201  0.57737284  0.49898816  1
  Ca2+  Ca5  1  0.17139275  0.58063894  0.84428582  1
  Ca2+  Ca6  1  0.66402361  0.08105404  0.16922343  1
  Ca2+  Ca7  1  0.66489787  0.08056769  0.50513274  1
  Ca2+  Ca8  1  0.66045085  0.08542641  0.83653848  1
  Ca2+  Ca9  1  0.67862686  0.56999205  0.17001909  1
  Ca2+  Ca10  1  0.66906513  0.57258504  0.50493724  1
  Ca2+  Ca11  1  0.66872279  0.57241086  0.84034616  1
  Ca2+  Ca12  1  0.07558163  0.34025267  0.15739574  1
  Ca2+  Ca13  1  0.07182364  0.33855702  0.49258465  1
  Ca2+  Ca14  1  0.07313957  0.33964578  0.83323514  1
  Ca2+  Ca15  1  0.08698468  0.82598816  0.16064535  1
  Ca2+  Ca16  1  0.08232349  0.83863085  0.49797885  1
  Ca2+  Ca17  1  0.08284726  0.82626030  0.82676628  1
  Ca2+  Ca18  1  0.58130102  0.33344270  0.15588500  1
  Ca2+  Ca19  1  0.58916993  0.33126652  0.49875416  1
  Ca2+  Ca20  1  0.58417632  0.32858053  0.82953570  1
  Ca2+  Ca21  1  0.58530726  0.83213326  0.16241076  1
  Ca2+  Ca22  1  0.57994960  0.83109537  0.49748083  1
  Ca2+  Ca23  1  0.57568808  0.82079079  0.82193443  1
  Ca2+  Ca24  1  0.32211847  0.41047191  0.16392644  1
  Ca2+  Ca25  1  0.32416126  0.41296427  0.50271255  1
  Ca2+  Ca26  1  0.33007285  0.42200919  0.84737300  1
  Ca2+  Ca27  1  0.32643005  0.92623674  0.17009399  1
  Ca2+  Ca28  1  0.32451262  0.91826911  0.51045987  1
  Ca2+  Ca29  1  0.33821658  0.92618668  0.83365449  1
  Ca2+  Ca30  1  0.83060687  0.41773065  0.17134314  1
  Ca2+  Ca31  1  0.82875608  0.41551996  0.50337664  1
  Ca2+  Ca32  1  0.82502193  0.41152678  0.83967534  1
  Ca2+  Ca33  1  0.82679549  0.92122489  0.17330262  1
  Ca2+  Ca34  1  0.82960050  0.91559410  0.50525367  1
  Ca2+  Ca35  1  0.83505163  0.91616587  0.83504394  1
  Ca2+  Ca36  1  0.42204571  0.17354048  0.15439814  1
  Ca2+  Ca37  1  0.42043912  0.16003017  0.50364192  1
  Ca2+  Ca38  1  0.42172108  0.16651540  0.83348232  1
  Ca2+  Ca39  1  0.41356492  0.66864100  0.15971673  1
  Ca2+  Ca40  1  0.42250836  0.66827109  0.50195990  1
  Ca2+  Ca41  1  0.41847730  0.66842766  0.82320193  1
  Ca2+  Ca42  1  0.92335975  0.18101696  0.15804298  1
  Ca2+  Ca43  1  0.91519023  0.18039049  0.49600490  1
  Ca2+  Ca44  1  0.92238788  0.17829349  0.83277364  1
  Ca2+  Ca45  1  0.91739875  0.66182265  0.15972732  1
  Ca2+  Ca46  1  0.91262987  0.67045467  0.49710324  1
  Ca2+  Ca47  1  0.91967470  0.66649531  0.83274120  1
  Al0+  Al48  1  -0.00248583  0.00027341  -0.00148890  1
  Al0+  Al49  1  0.00050521  0.00068060  0.33525468  1
  Al0+  Al50  1  -0.00054074  -0.00157369  0.66755049  1
  Al0+  Al51  1  0.00031665  0.50381802  -0.00477270  1
  Al0+  Al52  1  0.00137168  0.50289922  0.33681432  1
  Al0+  Al53  1  -0.00146514  0.50107897  0.66176199  1
  Al0+  Al54  1  0.49744085  -0.00060663  0.00210054  1
  Al0+  Al55  1  0.49959287  -0.00082195  0.33563277  1
  Al0+  Al56  1  0.49944775  -0.00080897  0.66255187  1
  Al0+  Al57  1  0.50123263  0.50180320  0.00483265  1
  Al0+  Al58  1  0.50161076  0.50134399  0.33441705  1
  Al0+  Al59  1  0.49959777  0.49713046  0.66452826  1
  Al0+  Al60  1  0.25140745  0.24880040  0.00153472  1
  Al0+  Al61  1  0.25252037  0.25104575  0.33989441  1
  Al0+  Al62  1  0.24972187  0.24800542  0.67102532  1
  Al0+  Al63  1  0.24841526  0.75148362  -0.00145452  1
  Al0+  Al64  1  0.25088855  0.75233190  0.33595954  1
  Al0+  Al65  1  0.24927006  0.74815683  0.66417819  1
  Al0+  Al66  1  0.75051701  0.24643674  -0.00227365  1
  Al0+  Al67  1  0.75059505  0.24952830  0.33040151  1
  Al0+  Al68  1  0.74973621  0.24914253  0.66226367  1
  Al0+  Al69  1  0.74793935  0.75007955  0.00263345  1
  Al0+  Al70  1  0.74930904  0.75074332  0.33890652  1
  Al0+  Al71  1  0.75188875  0.74788215  0.65996739  1
  Al0+  Al72  1  0.17709970  0.92655248  0.68461135  1
  Al0+  Al73  1  0.17921428  0.42881705  0.01189175  1
  Al0+  Al74  1  0.18076141  0.43005263  0.34731904  1
  Al0+  Al75  1  0.67861389  0.93037098  0.34794995  1
  Al0+  Al76  1  0.67997194  0.42777537  0.68149218  1
  Al0+  Al77  1  0.57064141  0.17729435  0.98602070  1
  Al0+  Al78  1  0.07308592  0.17666788  0.98562123  1
  Al0+  Al79  1  0.67859674  0.42689417  0.34943828  1
  Al0+  Al80  1  0.93005763  0.82175580  0.65243288  1
  Al0+  Al81  1  0.56980235  0.17990708  0.65184028  1
  Al0+  Al82  1  0.17913887  0.92962189  0.34665784  1
  Al0+  Al83  1  0.82250553  0.57084837  0.35007046  1
  Al0+  Al84  1  0.82052817  0.57278773  0.01277613  1
  Al0+  Al85  1  0.92993025  0.32319719  0.98483645  1
  Al0+  Al86  1  0.07062166  0.68099301  0.98675675  1
  Al0+  Al87  1  0.42983839  0.32400743  0.98638432  1
  Al0+  Al88  1  0.32071642  0.07058778  0.01558536  1
  Al0+  Al89  1  0.42898887  0.81982697  0.65048753  1
  Al0+  Al90  1  0.32291201  0.57476001  0.01334383  1
  Al0+  Al91  1  0.57188408  0.67479247  0.65061844  1
  Al0+  Al92  1  0.93069274  0.32229479  0.31840009  1
  Al0+  Al93  1  0.32246464  0.07026114  0.68469221  1
  Al0+  Al94  1  0.93015546  0.32029393  0.65127707  1
  Al0+  Al95  1  0.68030467  0.42523068  0.01429970  1
  Si0+  Si96  1  0.82258864  0.57257129  0.68443240  1
  Si0+  Si97  1  0.07374890  0.17832640  0.31954684  1
  Si0+  Si98  1  0.42534346  0.32177621  0.64928099  1
  Si0+  Si99  1  0.42840175  0.32269180  0.31931012  1
  Si0+  Si100  1  0.82260570  0.07007982  0.01513915  1
  Si0+  Si101  1  0.07296343  0.17802738  0.65044479  1
  Si0+  Si102  1  0.82198779  0.07168094  0.35024210  1
  Si0+  Si103  1  0.67837894  0.92963674  0.01261804  1
  Si0+  Si104  1  0.92458687  0.82217328  0.98561351  1
  Si0+  Si105  1  0.17637575  0.42914635  0.68091755  1
  Si0+  Si106  1  0.57173227  0.68063950  0.98728878  1
  Si0+  Si107  1  0.57204903  0.67978594  0.31586991  1
  Si0+  Si108  1  0.92766027  0.82236493  0.31797026  1
  Si0+  Si109  1  0.07217108  0.67802735  0.64685133  1
  Si0+  Si110  1  0.32309800  0.57424526  0.35067221  1
  Si0+  Si111  1  0.42838514  0.82043860  0.98643931  1
  Si0+  Si112  1  0.81981425  0.07061871  0.68169434  1
  Si0+  Si113  1  0.56926171  0.17793062  0.31871972  1
  Si0+  Si114  1  0.42939335  0.82087243  0.31620539  1
  Si0+  Si115  1  0.17548773  0.92926653  0.01615903  1
  Si0+  Si116  1  0.32214594  0.07234472  0.35160202  1
  Si0+  Si117  1  0.32017403  0.56798339  0.67902896  1
  Si0+  Si118  1  0.07238611  0.68176830  0.31767501  1
  Si0+  Si119  1  0.67971002  0.92703110  0.68117109  1
  O2-  O120  1  0.24043781  0.00096643  0.06141362  1
  O2-  O121  1  0.25003085  0.00689404  0.39402834  1
  O2-  O122  1  0.24928877  -0.00151534  0.73374768  1
  O2-  O123  1  0.25410931  0.49889759  0.06199590  1
  O2-  O124  1  0.25724956  0.50286077  0.39515336  1
  O2-  O125  1  0.25007526  0.49720944  0.72191728  1
  O2-  O126  1  0.74884227  0.00058857  0.05560863  1
  O2-  O127  1  0.75350229  0.00366256  0.39592194  1
  O2-  O128  1  0.74997612  -0.00214683  0.72475436  1
  O2-  O129  1  0.75582864  0.49449828  0.06298455  1
  O2-  O130  1  0.75226440  0.49705511  0.39959231  1
  O2-  O131  1  0.75331448  0.50423386  0.72724338  1
  O2-  O132  1  0.00793746  0.24869548  0.27414648  1
  O2-  O133  1  0.00751523  0.24833485  0.60388487  1
  O2-  O134  1  0.00556174  0.25332272  0.93608301  1
  O2-  O135  1  -0.00088113  0.75186242  0.27610785  1
  O2-  O136  1  0.00557511  0.74918642  0.60343443  1
  O2-  O137  1  -0.00541856  0.75527505  0.94186805  1
  O2-  O138  1  0.50150898  0.25266437  0.27841766  1
  O2-  O139  1  0.49423017  0.25337534  0.60435346  1
  O2-  O140  1  0.50340514  0.25356059  0.93611424  1
  O2-  O141  1  0.50003364  0.75021507  0.27258113  1
  O2-  O142  1  0.50254115  0.74954903  0.59958107  1
  O2-  O143  1  0.49478725  0.74509024  0.94496179  1
  O2-  O144  1  0.06731154  0.17339675  0.09962914  1
  O2-  O145  1  0.07117876  0.17780637  0.42521498  1
  O2-  O146  1  0.07128919  0.17914803  0.75553182  1
  O2-  O147  1  0.07243106  0.68402973  0.10026911  1
  O2-  O148  1  0.07417006  0.68351815  0.42277731  1
  O2-  O149  1  0.07175100  0.67639685  0.75214291  1
  O2-  O150  1  0.56790761  0.17297246  0.10012849  1
  O2-  O151  1  0.56755573  0.17526102  0.42367377  1
  O2-  O152  1  0.57052837  0.18004671  0.76422855  1
  O2-  O153  1  0.57453351  0.68701346  0.09241430  1
  O2-  O154  1  0.56982965  0.68060839  0.42056835  1
  O2-  O155  1  0.56915126  0.67674675  0.76483929  1
  O2-  O156  1  0.18072052  0.42984036  0.23494743  1
  O2-  O157  1  0.17702606  0.43119089  0.57527422  1
  O2-  O158  1  0.17917274  0.43314531  0.89796780  1
  O2-  O159  1  0.18218981  0.92741859  0.23361161  1
  O2-  O160  1  0.17792238  0.92979308  0.57051902  1
  O2-  O161  1  0.17702813  0.92792647  0.91118182  1
  O2-  O162  1  0.67687807  0.42753779  0.23627601  1
  O2-  O163  1  0.68203931  0.42790768  0.56842066  1
  O2-  O164  1  0.67972946  0.42766076  0.90053058  1
  O2-  O165  1  0.67884946  0.93186146  0.23419063  1
  O2-  O166  1  0.68098457  0.92919249  0.57610697  1
  O2-  O167  1  0.67934799  0.92735950  0.90764867  1
  O2-  O168  1  0.43037592  0.32046829  0.10081459  1
  O2-  O169  1  0.42580453  0.32107848  0.42443388  1
  O2-  O170  1  0.42526652  0.32483643  0.75406500  1
  O2-  O171  1  0.43089587  0.82184422  0.09210618  1
  O2-  O172  1  0.42989637  0.82046693  0.42071841  1
  O2-  O173  1  0.43137311  0.81747961  0.76461309  1
  O2-  O174  1  0.92986713  0.32116303  0.09870555  1
  O2-  O175  1  0.93076023  0.31913046  0.43179367  1
  O2-  O176  1  0.93058958  0.31963849  0.76386731  1
  O2-  O177  1  0.92299081  0.82303661  0.09149630  1
  O2-  O178  1  0.92879555  0.82273764  0.42279709  1
  O2-  O179  1  0.92812597  0.81965301  0.76555328  1
  O2-  O180  1  0.32361885  0.07146838  0.24602133  1
  O2-  O181  1  0.32004023  0.06948148  0.57042124  1
  O2-  O182  1  0.32633237  0.06461763  0.90351721  1
  O2-  O183  1  0.32142820  0.57702945  0.24572149  1
  O2-  O184  1  0.31893030  0.56666372  0.57351461  1
  O2-  O185  1  0.32043101  0.57727951  0.89933740  1
  O2-  O186  1  0.82142705  0.06909074  0.24445497  1
  O2-  O187  1  0.81793599  0.06953329  0.57639422  1
  O2-  O188  1  0.82493286  0.06756708  0.91013804  1
  O2-  O189  1  0.82103276  0.57166660  0.23664233  1
  O2-  O190  1  0.82379980  0.57151965  0.57885078  1
  O2-  O191  1  0.81387840  0.58022935  0.89976183  1
  O2-  O192  1  0.04767915  0.08474400  0.27302354  1
  O2-  O193  1  0.04451535  0.08467408  0.60533468  1
  O2-  O194  1  0.03878882  0.08009784  0.93135723  1
  O2-  O195  1  0.04588886  0.58953589  0.27157642  1
  O2-  O196  1  0.04325189  0.58616041  0.59835487  1
  O2-  O197  1  0.04288146  0.58675008  0.92782228  1
  O2-  O198  1  0.53865485  0.08656196  0.27095651  1
  O2-  O199  1  0.54047204  0.08311668  0.59648841  1
  O2-  O200  1  0.53792685  0.07922676  0.93347329  1
  O2-  O201  1  0.54490157  0.58754042  0.26885627  1
  O2-  O202  1  0.53833336  0.57873210  0.59554840  1
  O2-  O203  1  0.55107094  0.58691348  0.94236518  1
  O2-  O204  1  0.16996968  0.20151891  0.27767988  1
  O2-  O205  1  0.16800007  0.20004592  0.60537251  1
  O2-  O206  1  0.17409496  0.19640601  0.93662369  1
  O2-  O207  1  0.16378737  0.71273121  0.27083113  1
  O2-  O208  1  0.16608682  0.69980458  0.59977064  1
  O2-  O209  1  0.16588139  0.71395390  0.93019377  1
  O2-  O210  1  0.66295567  0.19954526  0.27246896  1
  O2-  O211  1  0.66564140  0.20947612  0.59539198  1
  O2-  O212  1  0.67115181  0.19627330  0.93437431  1
  O2-  O213  1  0.66329709  0.71195188  0.27004170  1
  O2-  O214  1  0.67023333  0.70133222  0.59786655  1
  O2-  O215  1  0.65960872  0.71592538  0.93690219  1
  O2-  O216  1  0.08227289  0.46310929  0.06419832  1
  O2-  O217  1  0.08684745  0.46492679  0.40346279  1
  O2-  O218  1  0.08533884  0.46116900  0.72647802  1
  O2-  O219  1  0.07967901  0.94902117  0.06085669  1
  O2-  O220  1  0.08099338  0.95606265  0.40022317  1
  O2-  O221  1  0.07721327  0.95247218  0.73546902  1
  O2-  O222  1  0.58372264  0.45742903  0.06863979  1
  O2-  O223  1  0.58003274  0.45725944  0.40206668  1
  O2-  O224  1  0.58086172  0.45589023  0.73179068  1
  O2-  O225  1  0.58757067  0.95671288  0.06237791  1
  O2-  O226  1  0.58226829  0.96099837  0.40225811  1
  O2-  O227  1  0.58738351  0.95422607  0.72684852  1
  O2-  O228  1  0.20365934  0.33028951  0.06637418  1
  O2-  O229  1  0.21084600  0.33425091  0.40475024  1
  O2-  O230  1  0.19901515  0.33579208  0.72578402  1
  O2-  O231  1  0.20658745  0.83775860  0.06339857  1
  O2-  O232  1  0.21281065  0.83491097  0.40250327  1
  O2-  O233  1  0.20405082  0.82564879  0.73264569  1
  O2-  O234  1  0.70427175  0.32474410  0.06519887  1
  O2-  O235  1  0.70496829  0.32640627  0.39932353  1
  O2-  O236  1  0.71302870  0.33070179  0.73274314  1
  O2-  O237  1  0.70690061  0.83970246  0.06360303  1
  O2-  O238  1  0.70808826  0.83487072  0.40300589  1
  O2-  O239  1  0.70808998  0.83428117  0.72658092  1
  O2-  O240  1  0.45283341  0.41591158  0.27361237  1
  O2-  O241  1  0.44982553  0.41435564  0.60047026  1
  O2-  O242  1  0.45387419  0.42490312  0.93600557  1
  O2-  O243  1  0.45803617  0.91321614  0.26934126  1
  O2-  O244  1  0.45702822  0.91722110  0.59625183  1
  O2-  O245  1  0.46208838  0.90946950  0.93840720  1
  O2-  O246  1  0.96175641  0.42048044  0.26869563  1
  O2-  O247  1  0.95974067  0.41726585  0.59681729  1
  O2-  O248  1  0.95432917  0.42168811  0.93085751  1
  O2-  O249  1  0.95369165  0.91535173  0.27109297  1
  O2-  O250  1  0.95700769  0.91929004  0.59708071  1
  O2-  O251  1  0.94740959  0.91580444  0.93922030  1
  O2-  O252  1  0.33680250  0.29242026  0.27218351  1
  O2-  O253  1  0.33125718  0.29445431  0.60317902  1
  O2-  O254  1  0.33144282  0.29555854  0.93484527  1
  O2-  O255  1  0.33742781  0.79252438  0.26892089  1
  O2-  O256  1  0.33116327  0.78887642  0.59712986  1
  O2-  O257  1  0.33577850  0.79849227  0.93930143  1
  O2-  O258  1  0.83455643  0.28869492  0.26473481  1
  O2-  O259  1  0.83595634  0.28454427  0.59621901  1
  O2-  O260  1  0.83361640  0.28747481  0.93228072  1
  O2-  O261  1  0.83460411  0.79573139  0.27210729  1
  O2-  O262  1  0.83451962  0.79164060  0.59535323  1
  O2-  O263  1  0.83152790  0.79550327  0.93835940  1
  O2-  O264  1  0.41434240  0.03249990  0.07271296  1
  O2-  O265  1  0.41380469  0.04122389  0.39792630  1
  O2-  O266  1  0.42145695  0.03877366  0.73492546  1
  O2-  O267  1  0.42228936  0.55434344  0.06723913  1
  O2-  O268  1  0.41763617  0.55123514  0.39547852  1
  O2-  O269  1  0.41211913  0.54203310  0.72630153  1
  O2-  O270  1  0.91171626  0.03953792  0.06676337  1
  O2-  O271  1  0.91528347  0.04676262  0.39688016  1
  O2-  O272  1  0.91132970  0.04312470  0.72915212  1
  O2-  O273  1  0.92218120  0.55357753  0.06101275  1
  O2-  O274  1  0.92186280  0.54849742  0.40332096  1
  O2-  O275  1  0.91722343  0.54658617  0.72832443  1
  O2-  O276  1  0.29540666  0.16741977  0.07125910  1
  O2-  O277  1  0.30249443  0.16646927  0.39876027  1
  O2-  O278  1  0.29631668  0.16970483  0.73676537  1
  O2-  O279  1  0.29026934  0.67208929  0.06765465  1
  O2-  O280  1  0.29390734  0.66610435  0.39855899  1
  O2-  O281  1  0.29312780  0.66015685  0.72525666  1
  O2-  O282  1  0.79561807  0.16082300  0.06413437  1
  O2-  O283  1  0.79502245  0.16472956  0.39571894  1
  O2-  O284  1  0.78944043  0.16111401  0.72884203  1
  O2-  O285  1  0.78681167  0.66904612  0.06965795  1
  O2-  O286  1  0.79222853  0.66900627  0.40269812  1
  O2-  O287  1  0.79894097  0.66766687  0.72799837  1
