# generated using pymatgen
data_Ca2Al2SiO7
_symmetry_space_group_name_H-M   'P 1'
_cell_length_a   15.46150725
_cell_length_b   15.45995814
_cell_length_c   15.28534922
_cell_angle_alpha   90.00873285
_cell_angle_beta   89.99649754
_cell_angle_gamma   89.98749223
_symmetry_Int_Tables_number   1
_chemical_formula_structural   Ca2Al2SiO7
_chemical_formula_sum   'Ca48 Al48 Si24 O168'
_cell_volume   3653.72192484
_cell_formula_units_Z   24
loop_
 _symmetry_equiv_pos_site_id
 _symmetry_equiv_pos_as_xyz
  1  'x, y, z'
loop_
 _atom_type_symbol
 _atom_type_oxidation_number
  Ca2+  2.0
  Al0+  0.0
  Si0+  0.0
  O2-  -2.0
loop_
 _atom_site_type_symbol
 _atom_site_label
 _atom_site_symmetry_multiplicity
 _atom_site_fract_x
 _atom_site_fract_y
 _atom_site_fract_z
 _atom_site_occupancy
  Ca2+  Ca0  1  0.17029143  0.07465386  0.17016818  1
  Ca2+  Ca1  1  0.17632051  0.07781780  0.50222752  1
  Ca2+  Ca2  1  0.17665592  0.07732040  0.84215807  1
  Ca2+  Ca3  1  0.16568818  0.57674541  0.17468921  1
  Ca2+  Ca4  1  0.15774001  0.57631442  0.50373825  1
  Ca2+  Ca5  1  0.15768149  0.57801431  0.83179287  1
  Ca2+  Ca6  1  0.67532857  0.08242646  0.17365098  1
  Ca2+  Ca7  1  0.67488532  0.08439741  0.50129244  1
  Ca2+  Ca8  1  0.66844889  0.08121343  0.83530536  1
  Ca2+  Ca9  1  0.67183861  0.58258371  0.16939558  1
  Ca2+  Ca10  1  0.66330853  0.57427317  0.50736448  1
  Ca2+  Ca11  1  0.66730329  0.58436785  0.83743208  1
  Ca2+  Ca12  1  0.08228471  0.32473819  0.15824214  1
  Ca2+  Ca13  1  0.08169185  0.33847038  0.49729090  1
  Ca2+  Ca14  1  0.07534170  0.33193319  0.82771704  1
  Ca2+  Ca15  1  0.08621813  0.83633992  0.16728174  1
  Ca2+  Ca16  1  0.08202046  0.82506212  0.49123287  1
  Ca2+  Ca17  1  0.08105358  0.82853597  0.82527060  1
  Ca2+  Ca18  1  0.57931494  0.33562300  0.16929475  1
  Ca2+  Ca19  1  0.57216722  0.34147173  0.49575432  1
  Ca2+  Ca20  1  0.57680902  0.33298997  0.82383900  1
  Ca2+  Ca21  1  0.57590448  0.82861110  0.15615910  1
  Ca2+  Ca22  1  0.57892786  0.82957520  0.50222389  1
  Ca2+  Ca23  1  0.57507534  0.82415893  0.82777606  1
  Ca2+  Ca24  1  0.32774057  0.41725511  0.17729068  1
  Ca2+  Ca25  1  0.32304025  0.41042215  0.50635813  1
  Ca2+  Ca26  1  0.32855532  0.41402116  0.83071201  1
  Ca2+  Ca27  1  0.32603505  0.92342468  0.17140581  1
  Ca2+  Ca28  1  0.33530898  0.92530629  0.50721134  1
  Ca2+  Ca29  1  0.33507572  0.92121496  0.84233501  1
  Ca2+  Ca30  1  0.83088841  0.42092916  0.17039783  1
  Ca2+  Ca31  1  0.82055138  0.41331194  0.50924476  1
  Ca2+  Ca32  1  0.83306516  0.41987445  0.83792824  1
  Ca2+  Ca33  1  0.83623750  0.92274181  0.17656438  1
  Ca2+  Ca34  1  0.84418800  0.91821908  0.50080282  1
  Ca2+  Ca35  1  0.83414743  0.91175894  0.83544481  1
  Ca2+  Ca36  1  0.40520980  0.16941619  0.16728082  1
  Ca2+  Ca37  1  0.40641301  0.17474866  0.49789051  1
  Ca2+  Ca38  1  0.41234490  0.16682490  0.82634831  1
  Ca2+  Ca39  1  0.42297863  0.67374199  0.15675365  1
  Ca2+  Ca40  1  0.41989082  0.66635157  0.50076169  1
  Ca2+  Ca41  1  0.42346344  0.67710763  0.82693840  1
  Ca2+  Ca42  1  0.92282607  0.17104440  0.15835205  1
  Ca2+  Ca43  1  0.91528024  0.17145954  0.49561770  1
  Ca2+  Ca44  1  0.92414288  0.17638984  0.83029879  1
  Ca2+  Ca45  1  0.92106701  0.66695338  0.16613840  1
  Ca2+  Ca46  1  0.92725618  0.67586894  0.49653060  1
  Ca2+  Ca47  1  0.91988775  0.66914921  0.82459098  1
  Al0+  Al48  1  0.00135776  0.00044736  -0.00217615  1
  Al0+  Al49  1  0.00072538  0.00123236  0.33846283  1
  Al0+  Al50  1  0.00196115  0.00269780  0.66666916  1
  Al0+  Al51  1  -0.00314829  0.50106278  0.00238141  1
  Al0+  Al52  1  -0.00146573  0.50211426  0.33317987  1
  Al0+  Al53  1  -0.00248954  0.49889758  0.66344090  1
  Al0+  Al54  1  0.50019527  0.00231700  0.00221575  1
  Al0+  Al55  1  0.50279679  0.00177032  0.33639800  1
  Al0+  Al56  1  0.50372139  0.00014916  0.66733759  1
  Al0+  Al57  1  0.50041975  0.49851550  -0.00251850  1
  Al0+  Al58  1  0.49979209  0.49937622  0.33019453  1
  Al0+  Al59  1  0.49827888  0.49828028  0.66537686  1
  Al0+  Al60  1  0.24912104  0.24855921  -0.00145075  1
  Al0+  Al61  1  0.24895544  0.25152834  0.33523075  1
  Al0+  Al62  1  0.24938486  0.24909298  0.67310098  1
  Al0+  Al63  1  0.24918679  0.74925736  -0.00053589  1
  Al0+  Al64  1  0.25117015  0.74857815  0.33118339  1
  Al0+  Al65  1  0.25071922  0.74923990  0.65893389  1
  Al0+  Al66  1  0.74751821  0.25152718  -0.00298474  1
  Al0+  Al67  1  0.74778651  0.24981093  0.33989715  1
  Al0+  Al68  1  0.75004252  0.24973274  0.66981336  1
  Al0+  Al69  1  0.75097675  0.74763701  0.00259036  1
  Al0+  Al70  1  0.75058589  0.75078924  0.33011240  1
  Al0+  Al71  1  0.75023009  0.75027938  0.65849483  1
  Al0+  Al72  1  0.92821175  0.31965783  0.65162377  1
  Al0+  Al73  1  0.82140439  0.07046428  0.34628556  1
  Al0+  Al74  1  0.17993485  0.92714826  0.35033257  1
  Al0+  Al75  1  0.42923676  0.82346389  0.65081604  1
  Al0+  Al76  1  0.67663082  0.42878324  0.68242097  1
  Al0+  Al77  1  0.93074980  0.82253556  0.31562973  1
  Al0+  Al78  1  0.42823808  0.31789307  0.65413933  1
  Al0+  Al79  1  0.57050737  0.67760405  0.65032124  1
  Al0+  Al80  1  0.17808557  0.43039321  0.34539280  1
  Al0+  Al81  1  0.32204779  0.07105470  0.35002207  1
  Al0+  Al82  1  0.92940663  0.82379654  0.65235937  1
  Al0+  Al83  1  0.32186884  0.06848326  0.68201829  1
  Al0+  Al84  1  0.07197097  0.17761243  0.98374927  1
  Al0+  Al85  1  0.42813773  0.82209314  0.98652921  1
  Al0+  Al86  1  0.82071543  0.57107704  0.01460112  1
  Al0+  Al87  1  0.57287587  0.67795249  0.98525818  1
  Al0+  Al88  1  0.42841802  0.31928702  0.31938132  1
  Al0+  Al89  1  0.17721583  0.43059845  0.68184883  1
  Al0+  Al90  1  0.32275212  0.07217740  0.01691887  1
  Al0+  Al91  1  0.92795024  0.32266749  0.98596239  1
  Al0+  Al92  1  0.07254805  0.67805329  0.31454308  1
  Al0+  Al93  1  0.17775499  0.92632490  0.01446096  1
  Al0+  Al94  1  0.07151078  0.67782076  0.65202953  1
  Al0+  Al95  1  0.67951524  0.43123304  0.34724625  1
  Si0+  Si96  1  0.32227480  0.56955916  0.01313184  1
  Si0+  Si97  1  0.82152407  0.57404106  0.35236682  1
  Si0+  Si98  1  0.42806436  0.32047358  0.98520838  1
  Si0+  Si99  1  0.67593897  0.42667019  0.01791156  1
  Si0+  Si100  1  0.57221290  0.17916785  0.98537874  1
  Si0+  Si101  1  0.67827719  0.92614800  0.35048180  1
  Si0+  Si102  1  0.07092332  0.67770382  0.98566005  1
  Si0+  Si103  1  0.92501962  0.32073621  0.31974618  1
  Si0+  Si104  1  0.92917673  0.82152640  0.98693698  1
  Si0+  Si105  1  0.82328003  0.07193428  0.68459692  1
  Si0+  Si106  1  0.57384410  0.17723442  0.64952661  1
  Si0+  Si107  1  0.07225709  0.18009289  0.64827335  1
  Si0+  Si108  1  0.68179116  0.92831263  0.68219937  1
  Si0+  Si109  1  0.32204779  0.57319964  0.68376673  1
  Si0+  Si110  1  0.57359383  0.17821443  0.31650182  1
  Si0+  Si111  1  0.81885022  0.57160728  0.68168459  1
  Si0+  Si112  1  0.43065536  0.82375213  0.31799315  1
  Si0+  Si113  1  0.17872555  0.43022962  0.01377731  1
  Si0+  Si114  1  0.82008891  0.07193846  0.01246030  1
  Si0+  Si115  1  0.68040203  0.92895389  0.01375825  1
  Si0+  Si116  1  0.57027615  0.67830425  0.31696001  1
  Si0+  Si117  1  0.17850688  0.92623948  0.68258142  1
  Si0+  Si118  1  0.07019017  0.18143509  0.31988484  1
  Si0+  Si119  1  0.32354900  0.57160357  0.34846394  1
  O2-  O120  1  0.25108128  -0.00188610  0.06334817  1
  O2-  O121  1  0.25530845  -0.00490216  0.40084003  1
  O2-  O122  1  0.25126820  -0.01030632  0.72797743  1
  O2-  O123  1  0.25118652  0.49920143  0.05671909  1
  O2-  O124  1  0.25120892  0.50671353  0.39181930  1
  O2-  O125  1  0.24992268  0.50777050  0.72876612  1
  O2-  O126  1  0.75193050  -0.00075377  0.05650344  1
  O2-  O127  1  0.74993837  -0.00749359  0.39346481  1
  O2-  O128  1  0.75526943  -0.00294016  0.72566322  1
  O2-  O129  1  0.74520277  0.49576455  0.06003398  1
  O2-  O130  1  0.75364336  0.50472760  0.39619007  1
  O2-  O131  1  0.74968056  0.50486874  0.72880564  1
  O2-  O132  1  -0.00166525  0.25242219  0.27730220  1
  O2-  O133  1  0.00288493  0.24696807  0.60206532  1
  O2-  O134  1  0.00074348  0.25176804  0.93568763  1
  O2-  O135  1  0.00253917  0.75183261  0.26323235  1
  O2-  O136  1  0.00472100  0.75538722  0.60356348  1
  O2-  O137  1  0.00200067  0.75205568  0.94590727  1
  O2-  O138  1  0.50138828  0.24282746  0.27162099  1
  O2-  O139  1  0.50418127  0.24480509  0.60643700  1
  O2-  O140  1  0.49827014  0.24766895  0.94477172  1
  O2-  O141  1  0.50132889  0.75181797  0.27563811  1
  O2-  O142  1  0.49741424  0.74819529  0.59963715  1
  O2-  O143  1  0.50022223  0.74976388  0.93711090  1
  O2-  O144  1  0.06968456  0.17916232  0.09813758  1
  O2-  O145  1  0.06973947  0.18346739  0.42496855  1
  O2-  O146  1  0.06901363  0.18040714  0.75378413  1
  O2-  O147  1  0.07036166  0.67391492  0.09018405  1
  O2-  O148  1  0.06881852  0.67567848  0.42747017  1
  O2-  O149  1  0.06748886  0.67766023  0.76663699  1
  O2-  O150  1  0.57880549  0.18020736  0.09001729  1
  O2-  O151  1  0.57775202  0.17956744  0.42154870  1
  O2-  O152  1  0.57460942  0.17709520  0.75573471  1
  O2-  O153  1  0.57094436  0.67970293  0.09951020  1
  O2-  O154  1  0.56878718  0.67685726  0.42169888  1
  O2-  O155  1  0.57152470  0.68088928  0.76382098  1
  O2-  O156  1  0.18070468  0.42879836  0.23145635  1
  O2-  O157  1  0.17871447  0.42991471  0.56889855  1
  O2-  O158  1  0.17860837  0.43215150  0.90872932  1
  O2-  O159  1  0.18039154  0.93064425  0.23669444  1
  O2-  O160  1  0.17700100  0.93043795  0.57743650  1
  O2-  O161  1  0.17678798  0.92575099  0.90078731  1
  O2-  O162  1  0.68079065  0.43205810  0.23375016  1
  O2-  O163  1  0.67788083  0.42873729  0.56922091  1
  O2-  O164  1  0.67428393  0.42481734  0.91268880  1
  O2-  O165  1  0.67676846  0.92812790  0.24439026  1
  O2-  O166  1  0.68046036  0.93104958  0.57727945  1
  O2-  O167  1  0.68202530  0.92989376  0.90854791  1
  O2-  O168  1  0.42872153  0.32267420  0.09035941  1
  O2-  O169  1  0.42870178  0.31978195  0.43196328  1
  O2-  O170  1  0.42933767  0.31590013  0.76789014  1
  O2-  O171  1  0.43134000  0.82000777  0.10075693  1
  O2-  O172  1  0.43343678  0.82372936  0.42282016  1
  O2-  O173  1  0.43260868  0.82427299  0.76435259  1
  O2-  O174  1  0.92829361  0.32007595  0.10029697  1
  O2-  O175  1  0.92412078  0.31781450  0.42478180  1
  O2-  O176  1  0.92848271  0.31826761  0.76463599  1
  O2-  O177  1  0.92714543  0.82281451  0.09149863  1
  O2-  O178  1  0.93117837  0.82037366  0.42872297  1
  O2-  O179  1  0.92839993  0.82132834  0.76696394  1
  O2-  O180  1  0.31941243  0.07063433  0.23664376  1
  O2-  O181  1  0.31937842  0.07002771  0.56921790  1
  O2-  O182  1  0.32346574  0.07165503  0.90331232  1
  O2-  O183  1  0.32577456  0.56846095  0.24214424  1
  O2-  O184  1  0.32418264  0.57010679  0.57825385  1
  O2-  O185  1  0.32269422  0.56796480  0.90836723  1
  O2-  O186  1  0.81858430  0.07228704  0.23242823  1
  O2-  O187  1  0.82128909  0.07414021  0.57967691  1
  O2-  O188  1  0.81704136  0.07101049  0.90733294  1
  O2-  O189  1  0.81986633  0.57270599  0.24631034  1
  O2-  O190  1  0.81698350  0.56916903  0.57632616  1
  O2-  O191  1  0.82182205  0.57221114  0.90168191  1
  O2-  O192  1  0.04163747  0.08973877  0.27352988  1
  O2-  O193  1  0.04719635  0.08632055  0.60274262  1
  O2-  O194  1  0.04108411  0.08080201  0.92892250  1
  O2-  O195  1  0.03966365  0.57967052  0.26108444  1
  O2-  O196  1  0.03744083  0.58199304  0.59808650  1
  O2-  O197  1  0.03868327  0.58763305  0.93761707  1
  O2-  O198  1  0.55402377  0.08251668  0.27124948  1
  O2-  O199  1  0.55234337  0.08312098  0.60370647  1
  O2-  O200  1  0.54800182  0.08658019  0.93769545  1
  O2-  O201  1  0.54051972  0.58831067  0.26713012  1
  O2-  O202  1  0.54108502  0.57942252  0.59807805  1
  O2-  O203  1  0.54580162  0.57873935  0.93393455  1
  O2-  O204  1  0.16025795  0.21150487  0.27089706  1
  O2-  O205  1  0.16536624  0.20786222  0.60438477  1
  O2-  O206  1  0.16997656  0.20620130  0.93059912  1
  O2-  O207  1  0.17365805  0.70052034  0.26311945  1
  O2-  O208  1  0.17137135  0.69668736  0.59896335  1
  O2-  O209  1  0.16324729  0.70089898  0.93758749  1
  O2-  O210  1  0.66535839  0.20946729  0.26824382  1
  O2-  O211  1  0.66751260  0.20317531  0.60449726  1
  O2-  O212  1  0.66161020  0.20813650  0.93313626  1
  O2-  O213  1  0.66297158  0.70444420  0.27030160  1
  O2-  O214  1  0.66694363  0.70783410  0.59491526  1
  O2-  O215  1  0.67124341  0.70780081  0.93345626  1
  O2-  O216  1  0.08758154  0.45881528  0.06153186  1
  O2-  O217  1  0.08012084  0.45826032  0.39844357  1
  O2-  O218  1  0.07949152  0.46080353  0.73524296  1
  O2-  O219  1  0.07902721  0.95719397  0.06718769  1
  O2-  O220  1  0.08308610  0.95899064  0.40336531  1
  O2-  O221  1  0.08598509  0.95643596  0.72980867  1
  O2-  O222  1  0.58231170  0.45276803  0.06467968  1
  O2-  O223  1  0.58222452  0.46311112  0.39896790  1
  O2-  O224  1  0.57903491  0.45703519  0.73561735  1
  O2-  O225  1  0.59002098  0.95858081  0.06266917  1
  O2-  O226  1  0.58716197  0.95505251  0.39934453  1
  O2-  O227  1  0.59244623  0.95953741  0.73259345  1
  O2-  O228  1  0.20556015  0.33753307  0.05932303  1
  O2-  O229  1  0.20988297  0.33568587  0.40112269  1
  O2-  O230  1  0.21073069  0.33570588  0.73786131  1
  O2-  O231  1  0.20365562  0.82689655  0.06765064  1
  O2-  O232  1  0.20396085  0.82570179  0.39829543  1
  O2-  O233  1  0.19784059  0.82928649  0.72417987  1
  O2-  O234  1  0.70189175  0.33292831  0.06448476  1
  O2-  O235  1  0.70756203  0.33488829  0.40218531  1
  O2-  O236  1  0.70799767  0.33178638  0.73606827  1
  O2-  O237  1  0.70691850  0.83754164  0.06212482  1
  O2-  O238  1  0.70068342  0.83144417  0.39521702  1
  O2-  O239  1  0.70897216  0.83573295  0.72848750  1
  O2-  O240  1  0.46169927  0.41497904  0.26323463  1
  O2-  O241  1  0.45595973  0.41470744  0.60044197  1
  O2-  O242  1  0.45694956  0.41112451  0.93634712  1
  O2-  O243  1  0.46067156  0.91552374  0.27132728  1
  O2-  O244  1  0.46573011  0.91953579  0.59756978  1
  O2-  O245  1  0.45873174  0.92101556  0.93631309  1
  O2-  O246  1  0.94876953  0.41444125  0.27505318  1
  O2-  O247  1  0.95555465  0.41595007  0.59724810  1
  O2-  O248  1  0.95657885  0.42110629  0.93371358  1
  O2-  O249  1  0.95675946  0.92382787  0.26649203  1
  O2-  O250  1  0.95277394  0.92496344  0.60310253  1
  O2-  O251  1  0.95283129  0.91353364  0.93803330  1
  O2-  O252  1  0.33139084  0.28980567  0.26452699  1
  O2-  O253  1  0.33129025  0.28557974  0.60200472  1
  O2-  O254  1  0.33614976  0.29483664  0.93776394  1
  O2-  O255  1  0.33911757  0.79612719  0.27095537  1
  O2-  O256  1  0.33063051  0.80000856  0.59730691  1
  O2-  O257  1  0.33015218  0.79271451  0.93371672  1
  O2-  O258  1  0.83413288  0.28962973  0.27246371  1
  O2-  O259  1  0.83161851  0.28561933  0.59940034  1
  O2-  O260  1  0.82911987  0.29448214  0.93356231  1
  O2-  O261  1  0.83012193  0.79591152  0.26393726  1
  O2-  O262  1  0.83257449  0.79613641  0.59692817  1
  O2-  O263  1  0.83788390  0.79164240  0.93968881  1
  O2-  O264  1  0.42295061  0.04894331  0.06995356  1
  O2-  O265  1  0.42379508  0.04991938  0.39978728  1
  O2-  O266  1  0.42202554  0.04358668  0.73285597  1
  O2-  O267  1  0.41386255  0.54094333  0.06170869  1
  O2-  O268  1  0.41555799  0.54251349  0.39514545  1
  O2-  O269  1  0.41342008  0.54277023  0.73169114  1
  O2-  O270  1  0.91260362  0.04639714  0.05848092  1
  O2-  O271  1  0.91701936  0.04470586  0.40350781  1
  O2-  O272  1  0.91613440  0.04791266  0.73195511  1
  O2-  O273  1  0.91571724  0.53916177  0.07230579  1
  O2-  O274  1  0.91525791  0.54940882  0.39676180  1
  O2-  O275  1  0.91177305  0.54388556  0.72782073  1
  O2-  O276  1  0.29188391  0.17117804  0.06847235  1
  O2-  O277  1  0.28790816  0.16825214  0.40140728  1
  O2-  O278  1  0.28773487  0.16325326  0.73750052  1
  O2-  O279  1  0.29535299  0.66119079  0.06095542  1
  O2-  O280  1  0.30425269  0.66678973  0.39268410  1
  O2-  O281  1  0.30059381  0.66911939  0.72737367  1
  O2-  O282  1  0.78922274  0.16318798  0.05968292  1
  O2-  O283  1  0.78599871  0.16397032  0.40385296  1
  O2-  O284  1  0.79014762  0.16083774  0.73453678  1
  O2-  O285  1  0.78989980  0.66658448  0.07211103  1
  O2-  O286  1  0.79490783  0.66817258  0.39605522  1
  O2-  O287  1  0.79488527  0.66701166  0.72570875  1
