# generated using pymatgen
data_Ca2Al2SiO7
_symmetry_space_group_name_H-M   'P 1'
_cell_length_a   15.46142568
_cell_length_b   15.46109188
_cell_length_c   15.28535055
_cell_angle_alpha   90.00500620
_cell_angle_beta   90.02422866
_cell_angle_gamma   89.97576450
_symmetry_Int_Tables_number   1
_chemical_formula_structural   Ca2Al2SiO7
_chemical_formula_sum   'Ca48 Al48 Si24 O168'
_cell_volume   3653.97037826
_cell_formula_units_Z   24
loop_
 _symmetry_equiv_pos_site_id
 _symmetry_equiv_pos_as_xyz
  1  'x, y, z'
loop_
 _atom_type_symbol
 _atom_type_oxidation_number
  Ca2+  2.0
  Al0+  0.0
  Si0+  0.0
  O2-  -2.0
loop_
 _atom_site_type_symbol
 _atom_site_label
 _atom_site_symmetry_multiplicity
 _atom_site_fract_x
 _atom_site_fract_y
 _atom_site_fract_z
 _atom_site_occupancy
  Ca2+  Ca0  1  0.16111614  0.07811869  0.16679900  1
  Ca2+  Ca1  1  0.17017310  0.07891483  0.50438348  1
  Ca2+  Ca2  1  0.16605118  0.07764536  0.84500132  1
  Ca2+  Ca3  1  0.16017337  0.57660988  0.17080766  1
  Ca2+  Ca4  1  0.16774714  0.57747502  0.50906328  1
  Ca2+  Ca5  1  0.16710939  0.57864033  0.83529351  1
  Ca2+  Ca6  1  0.66368974  0.08543347  0.17073815  1
  Ca2+  Ca7  1  0.66840617  0.08890337  0.50821463  1
  Ca2+  Ca8  1  0.67078205  0.09121940  0.83553248  1
  Ca2+  Ca9  1  0.66045806  0.57633561  0.17329395  1
  Ca2+  Ca10  1  0.66106047  0.57288267  0.50309242  1
  Ca2+  Ca11  1  0.66140739  0.57017729  0.84038669  1
  Ca2+  Ca12  1  0.08812379  0.33157696  0.15866018  1
  Ca2+  Ca13  1  0.07905281  0.34371666  0.49836761  1
  Ca2+  Ca14  1  0.08341703  0.33458324  0.82690502  1
  Ca2+  Ca15  1  0.07656251  0.82460032  0.15775764  1
  Ca2+  Ca16  1  0.07971257  0.81723785  0.49363529  1
  Ca2+  Ca17  1  0.08638527  0.82391138  0.83273487  1
  Ca2+  Ca18  1  0.58298055  0.33139987  0.16313093  1
  Ca2+  Ca19  1  0.57596468  0.33472826  0.49459336  1
  Ca2+  Ca20  1  0.58498057  0.32854541  0.82438477  1
  Ca2+  Ca21  1  0.58673191  0.81767139  0.16148327  1
  Ca2+  Ca22  1  0.57696313  0.82722674  0.49610218  1
  Ca2+  Ca23  1  0.57772335  0.82427231  0.82877246  1
  Ca2+  Ca24  1  0.32345474  0.41342250  0.17223631  1
  Ca2+  Ca25  1  0.32743292  0.41806577  0.50746277  1
  Ca2+  Ca26  1  0.32689959  0.41752663  0.83363603  1
  Ca2+  Ca27  1  0.32726612  0.91684629  0.16690727  1
  Ca2+  Ca28  1  0.33570252  0.91583868  0.50817996  1
  Ca2+  Ca29  1  0.33020081  0.91600144  0.83866373  1
  Ca2+  Ca30  1  0.82081096  0.41810973  0.17009095  1
  Ca2+  Ca31  1  0.82114356  0.41080878  0.50742689  1
  Ca2+  Ca32  1  0.82446684  0.41140050  0.83416697  1
  Ca2+  Ca33  1  0.83984250  0.91430692  0.17014645  1
  Ca2+  Ca34  1  0.83449817  0.92212853  0.50426085  1
  Ca2+  Ca35  1  0.83962616  0.92372593  0.83745906  1
  Ca2+  Ca36  1  0.42573312  0.17445513  0.16413009  1
  Ca2+  Ca37  1  0.42662184  0.18012113  0.49584227  1
  Ca2+  Ca38  1  0.42783545  0.17521332  0.82554060  1
  Ca2+  Ca39  1  0.42791333  0.65941351  0.16615131  1
  Ca2+  Ca40  1  0.41597997  0.66584433  0.50117178  1
  Ca2+  Ca41  1  0.41454134  0.66785336  0.82888137  1
  Ca2+  Ca42  1  0.92325031  0.17134230  0.16048481  1
  Ca2+  Ca43  1  0.91236974  0.17142158  0.50444308  1
  Ca2+  Ca44  1  0.92154781  0.17153392  0.82836322  1
  Ca2+  Ca45  1  0.92450468  0.67485772  0.16085302  1
  Ca2+  Ca46  1  0.92847149  0.66421217  0.49379977  1
  Ca2+  Ca47  1  0.92892526  0.66532968  0.83138752  1
  Al0+  Al48  1  0.00077918  0.00198614  -0.00134559  1
  Al0+  Al49  1  -0.00021696  0.00075167  0.33431568  1
  Al0+  Al50  1  -0.00076365  -0.00034607  0.67037376  1
  Al0+  Al51  1  -0.00262890  0.50155218  0.00143727  1
  Al0+  Al52  1  -0.00224502  0.49964746  0.33171381  1
  Al0+  Al53  1  -0.00154971  0.49854984  0.66162391  1
  Al0+  Al54  1  0.50214015  0.00197594  -0.00174464  1
  Al0+  Al55  1  0.50007634  0.00113859  0.33127203  1
  Al0+  Al56  1  0.50062442  -0.00222156  0.66109172  1
  Al0+  Al57  1  0.49816656  0.49932820  0.00092607  1
  Al0+  Al58  1  0.49638048  0.49969536  0.33065950  1
  Al0+  Al59  1  0.49816012  0.49975993  0.67244597  1
  Al0+  Al60  1  0.25181827  0.24986788  -0.00000156  1
  Al0+  Al61  1  0.25018255  0.24904295  0.33513742  1
  Al0+  Al62  1  0.25166027  0.24721733  0.66676523  1
  Al0+  Al63  1  0.25017150  0.75087551  0.00444730  1
  Al0+  Al64  1  0.24923706  0.74944545  0.32964422  1
  Al0+  Al65  1  0.25006684  0.74887700  0.66162156  1
  Al0+  Al66  1  0.75041000  0.24993773  0.00327050  1
  Al0+  Al67  1  0.75108477  0.24916968  0.33378476  1
  Al0+  Al68  1  0.75435112  0.24773683  0.66937112  1
  Al0+  Al69  1  0.74999934  0.75160672  -0.00976277  1
  Al0+  Al70  1  0.75000272  0.75169573  0.32921013  1
  Al0+  Al71  1  0.75062878  0.75040706  0.66726702  1
  Al0+  Al72  1  0.17934469  0.92996384  0.01465168  1
  Al0+  Al73  1  0.67981387  0.43002139  0.67976299  1
  Al0+  Al74  1  0.67842217  0.42944064  0.34759122  1
  Al0+  Al75  1  0.57211994  0.18030886  0.98508738  1
  Al0+  Al76  1  0.07260400  0.67730697  0.98328521  1
  Al0+  Al77  1  0.17808300  0.42967362  0.01302799  1
  Al0+  Al78  1  0.42696155  0.32171109  0.31674051  1
  Al0+  Al79  1  0.42780244  0.32295887  0.65188309  1
  Al0+  Al80  1  0.31987931  0.57238592  0.68220687  1
  Al0+  Al81  1  0.82032415  0.06885055  0.68227543  1
  Al0+  Al82  1  0.06954329  0.67923280  0.65252437  1
  Al0+  Al83  1  0.56904552  0.68000781  0.32211987  1
  Al0+  Al84  1  0.42932240  0.81911976  0.65447358  1
  Al0+  Al85  1  0.93025448  0.82270811  0.31952863  1
  Al0+  Al86  1  0.57297382  0.18007123  0.65218309  1
  Al0+  Al87  1  0.57028870  0.67681922  0.98524018  1
  Al0+  Al88  1  0.17774230  0.42838268  0.34742423  1
  Al0+  Al89  1  0.92934761  0.82271727  0.98206169  1
  Al0+  Al90  1  0.17718664  0.42732239  0.68145063  1
  Al0+  Al91  1  0.07162985  0.67642264  0.31629426  1
  Al0+  Al92  1  0.57304465  0.18005876  0.31749879  1
  Al0+  Al93  1  0.07228432  0.18151683  0.98782672  1
  Al0+  Al94  1  0.93177417  0.31942611  0.65357596  1
  Al0+  Al95  1  0.67895137  0.42927369  0.01488928  1
  Si0+  Si96  1  0.32462522  0.07218579  0.01756107  1
  Si0+  Si97  1  0.82272995  0.57383636  0.68257853  1
  Si0+  Si98  1  0.42684786  0.82470439  0.31518075  1
  Si0+  Si99  1  0.92773578  0.32202499  0.98532538  1
  Si0+  Si100  1  0.42743665  0.32193823  0.98214067  1
  Si0+  Si101  1  0.67845058  0.92870614  0.01470363  1
  Si0+  Si102  1  0.42936429  0.82266150  0.98574253  1
  Si0+  Si103  1  0.32131164  0.57313142  0.01918868  1
  Si0+  Si104  1  0.18041537  0.92957372  0.68030388  1
  Si0+  Si105  1  0.92802023  0.32039003  0.31807953  1
  Si0+  Si106  1  0.67614124  0.92617229  0.68405727  1
  Si0+  Si107  1  0.07107099  0.17916968  0.32022708  1
  Si0+  Si108  1  0.17917845  0.92931902  0.34912568  1
  Si0+  Si109  1  0.82057077  0.07019958  0.01731813  1
  Si0+  Si110  1  0.32205655  0.06981994  0.34953974  1
  Si0+  Si111  1  0.32337096  0.06954225  0.68138653  1
  Si0+  Si112  1  0.32098574  0.57317021  0.35006153  1
  Si0+  Si113  1  0.07341781  0.17477830  0.65027797  1
  Si0+  Si114  1  0.92783261  0.82396915  0.64975016  1
  Si0+  Si115  1  0.82026126  0.57496110  0.01652221  1
  Si0+  Si116  1  0.57362036  0.67663476  0.65124624  1
  Si0+  Si117  1  0.67804793  0.92794549  0.34741598  1
  Si0+  Si118  1  0.82168187  0.07039333  0.34871109  1
  Si0+  Si119  1  0.81992884  0.57370608  0.34927484  1
  O2-  O120  1  0.25422876  0.00487728  0.06234573  1
  O2-  O121  1  0.25370360  -0.00414378  0.39271250  1
  O2-  O122  1  0.24965399  0.00154155  0.72413528  1
  O2-  O123  1  0.24986208  0.50632029  0.06179082  1
  O2-  O124  1  0.24975723  0.50629770  0.39251988  1
  O2-  O125  1  0.24943601  0.49865395  0.73180462  1
  O2-  O126  1  0.75034598  -0.00183564  0.05908237  1
  O2-  O127  1  0.74798708  0.00070870  0.38895887  1
  O2-  O128  1  0.74510777  -0.00565580  0.72873331  1
  O2-  O129  1  0.74969471  0.50825840  0.06152447  1
  O2-  O130  1  0.75107108  0.50605880  0.39483686  1
  O2-  O131  1  0.75090102  0.50857960  0.72682423  1
  O2-  O132  1  0.00422665  0.25386470  0.27764212  1
  O2-  O133  1  0.01029901  0.24818182  0.60578305  1
  O2-  O134  1  0.00259469  0.26005616  0.94132904  1
  O2-  O135  1  0.00096683  0.75087830  0.26871342  1
  O2-  O136  1  -0.00812435  0.75173216  0.60599663  1
  O2-  O137  1  0.00115614  0.75029162  0.93330099  1
  O2-  O138  1  0.50331715  0.25364144  0.26711339  1
  O2-  O139  1  0.50377689  0.25437894  0.60245838  1
  O2-  O140  1  0.50003385  0.25676845  0.93907247  1
  O2-  O141  1  0.49522510  0.75526036  0.27300480  1
  O2-  O142  1  0.50513445  0.74592423  0.60763743  1
  O2-  O143  1  0.49505015  0.75202669  0.94076034  1
  O2-  O144  1  0.06856776  0.18045563  0.10162795  1
  O2-  O145  1  0.06948203  0.17436112  0.42509775  1
  O2-  O146  1  0.07113398  0.17110530  0.75566691  1
  O2-  O147  1  0.06996547  0.67801797  0.09663035  1
  O2-  O148  1  0.07113595  0.67824917  0.43013615  1
  O2-  O149  1  0.07054732  0.68158836  0.76525721  1
  O2-  O150  1  0.57079338  0.17934714  0.09799882  1
  O2-  O151  1  0.57220457  0.17866112  0.43055632  1
  O2-  O152  1  0.57063599  0.18039161  0.76602317  1
  O2-  O153  1  0.56965814  0.67840332  0.09870447  1
  O2-  O154  1  0.56828576  0.68263259  0.43516214  1
  O2-  O155  1  0.57422902  0.67913190  0.75675436  1
  O2-  O156  1  0.17919079  0.42662132  0.23406877  1
  O2-  O157  1  0.17744438  0.43031763  0.56768743  1
  O2-  O158  1  0.18040929  0.42766515  0.90054261  1
  O2-  O159  1  0.17840068  0.93302876  0.24421560  1
  O2-  O160  1  0.18120082  0.93211477  0.57468930  1
  O2-  O161  1  0.18252461  0.93111464  0.90115327  1
  O2-  O162  1  0.68157500  0.42933675  0.23436099  1
  O2-  O163  1  0.68039559  0.43100671  0.56641323  1
  O2-  O164  1  0.68220906  0.42730602  0.90187980  1
  O2-  O165  1  0.67805157  0.92748104  0.24221994  1
  O2-  O166  1  0.67710134  0.92493631  0.57818024  1
  O2-  O167  1  0.67657460  0.93069513  0.90990033  1
  O2-  O168  1  0.42586685  0.31947335  0.08780657  1
  O2-  O169  1  0.42623273  0.31965209  0.42995427  1
  O2-  O170  1  0.42712499  0.31895167  0.76556064  1
  O2-  O171  1  0.43242483  0.82458176  0.09141436  1
  O2-  O172  1  0.42757091  0.82669323  0.42076633  1
  O2-  O173  1  0.42979259  0.82042048  0.76758195  1
  O2-  O174  1  0.92585493  0.31753286  0.09142083  1
  O2-  O175  1  0.92576680  0.31742687  0.42300447  1
  O2-  O176  1  0.93061357  0.31647932  0.76667118  1
  O2-  O177  1  0.93030726  0.82243554  0.09577005  1
  O2-  O178  1  0.93303442  0.82520001  0.43317239  1
  O2-  O179  1  0.93064842  0.82637253  0.75483126  1
  O2-  O180  1  0.32059334  0.06879632  0.24447624  1
  O2-  O181  1  0.32167430  0.06696219  0.57598780  1
  O2-  O182  1  0.32491762  0.06962159  0.91190759  1
  O2-  O183  1  0.32208292  0.57349975  0.24445082  1
  O2-  O184  1  0.31760375  0.57478207  0.56855790  1
  O2-  O185  1  0.32236714  0.57399294  0.91390906  1
  O2-  O186  1  0.82482556  0.07037058  0.24363132  1
  O2-  O187  1  0.82238080  0.06614485  0.56867022  1
  O2-  O188  1  0.81994858  0.07110488  0.91248960  1
  O2-  O189  1  0.81885064  0.57223017  0.24363059  1
  O2-  O190  1  0.82173237  0.57429099  0.57681478  1
  O2-  O191  1  0.82103967  0.57236431  0.91094624  1
  O2-  O192  1  0.03843136  0.08938260  0.27123430  1
  O2-  O193  1  0.04126209  0.08316688  0.60242263  1
  O2-  O194  1  0.03808709  0.08717178  0.93274197  1
  O2-  O195  1  0.03990670  0.57895299  0.26367539  1
  O2-  O196  1  0.03879185  0.58361146  0.59745488  1
  O2-  O197  1  0.04090048  0.57921957  0.93124669  1
  O2-  O198  1  0.54288513  0.08109596  0.26525122  1
  O2-  O199  1  0.54384550  0.08150897  0.59988115  1
  O2-  O200  1  0.54217098  0.08333692  0.93126892  1
  O2-  O201  1  0.53712140  0.58509010  0.26611982  1
  O2-  O202  1  0.54624702  0.58360355  0.60669808  1
  O2-  O203  1  0.53868585  0.58051089  0.93228120  1
  O2-  O204  1  0.16358282  0.20195297  0.27297442  1
  O2-  O205  1  0.16927141  0.19208623  0.60625480  1
  O2-  O206  1  0.17099867  0.20388489  0.93481187  1
  O2-  O207  1  0.17054111  0.70391709  0.26437796  1
  O2-  O208  1  0.16339053  0.71414895  0.59642391  1
  O2-  O209  1  0.17231079  0.70783233  0.93448964  1
  O2-  O210  1  0.67308658  0.20442291  0.26581557  1
  O2-  O211  1  0.67365114  0.20315069  0.60327813  1
  O2-  O212  1  0.67043640  0.20936059  0.93427401  1
  O2-  O213  1  0.66471920  0.71089241  0.26637508  1
  O2-  O214  1  0.66751449  0.70185015  0.60481055  1
  O2-  O215  1  0.66484261  0.70816525  0.92906576  1
  O2-  O216  1  0.07898289  0.45520932  0.06607836  1
  O2-  O217  1  0.07831886  0.45582255  0.39815889  1
  O2-  O218  1  0.07720232  0.45525139  0.73125182  1
  O2-  O219  1  0.08376166  0.96499540  0.06875297  1
  O2-  O220  1  0.08955016  0.96268778  0.39768406  1
  O2-  O221  1  0.08862187  0.95587183  0.72793196  1
  O2-  O222  1  0.58048428  0.45684389  0.06683838  1
  O2-  O223  1  0.58011631  0.45991124  0.39804601  1
  O2-  O224  1  0.58330570  0.45689927  0.73534407  1
  O2-  O225  1  0.58741604  0.95755540  0.06370730  1
  O2-  O226  1  0.58502809  0.95360040  0.39424868  1
  O2-  O227  1  0.58202558  0.95129597  0.72914868  1
  O2-  O228  1  0.21092073  0.33239999  0.06673430  1
  O2-  O229  1  0.20680830  0.33060124  0.40071208  1
  O2-  O230  1  0.20276496  0.32603529  0.73108519  1
  O2-  O231  1  0.21061139  0.83480453  0.07161029  1
  O2-  O232  1  0.20400818  0.83562526  0.39422755  1
  O2-  O233  1  0.21081493  0.83861727  0.72617237  1
  O2-  O234  1  0.71458988  0.33434520  0.07031660  1
  O2-  O235  1  0.71369519  0.33322782  0.40007868  1
  O2-  O236  1  0.71657142  0.33503516  0.73288366  1
  O2-  O237  1  0.70578208  0.83550931  0.06012121  1
  O2-  O238  1  0.70684098  0.83732081  0.39689740  1
  O2-  O239  1  0.70046260  0.83198195  0.73044786  1
  O2-  O240  1  0.44971319  0.42078203  0.26379567  1
  O2-  O241  1  0.45256476  0.42332378  0.60188453  1
  O2-  O242  1  0.44850466  0.41696558  0.93881395  1
  O2-  O243  1  0.45200296  0.91777395  0.26846374  1
  O2-  O244  1  0.45948409  0.91401322  0.59605845  1
  O2-  O245  1  0.45645174  0.91529059  0.93843714  1
  O2-  O246  1  0.94894674  0.41338354  0.27101209  1
  O2-  O247  1  0.95524306  0.41562854  0.59552576  1
  O2-  O248  1  0.94414507  0.41793637  0.94229926  1
  O2-  O249  1  0.95983829  0.92130802  0.26645163  1
  O2-  O250  1  0.95760755  0.91632248  0.60300835  1
  O2-  O251  1  0.95937892  0.92134922  0.93126762  1
  O2-  O252  1  0.33021250  0.28555287  0.26384198  1
  O2-  O253  1  0.33074029  0.28937951  0.59826030  1
  O2-  O254  1  0.33630089  0.29149187  0.93455726  1
  O2-  O255  1  0.33285358  0.80058630  0.26950948  1
  O2-  O256  1  0.33452105  0.79003819  0.59611826  1
  O2-  O257  1  0.33465530  0.79945999  0.94182594  1
  O2-  O258  1  0.83976335  0.28617964  0.26795109  1
  O2-  O259  1  0.83819314  0.28174180  0.59797708  1
  O2-  O260  1  0.83765444  0.28751451  0.93825596  1
  O2-  O261  1  0.83110240  0.79845481  0.26645392  1
  O2-  O262  1  0.83148769  0.80413454  0.60631200  1
  O2-  O263  1  0.83068979  0.79930377  0.92766503  1
  O2-  O264  1  0.41730807  0.04352036  0.06488868  1
  O2-  O265  1  0.41441418  0.04344002  0.39701135  1
  O2-  O266  1  0.41415710  0.03775820  0.72834937  1
  O2-  O267  1  0.41362867  0.54333603  0.06631318  1
  O2-  O268  1  0.41352732  0.54629108  0.39729146  1
  O2-  O269  1  0.41855536  0.54855207  0.73694872  1
  O2-  O270  1  0.91271919  0.04331974  0.06488738  1
  O2-  O271  1  0.91234670  0.04102914  0.39868470  1
  O2-  O272  1  0.91692273  0.03783593  0.73798323  1
  O2-  O273  1  0.91239275  0.54783090  0.06527842  1
  O2-  O274  1  0.91318718  0.54602896  0.39485348  1
  O2-  O275  1  0.91451167  0.54328908  0.72854345  1
  O2-  O276  1  0.29969286  0.16549909  0.06372000  1
  O2-  O277  1  0.28978999  0.15913454  0.39853201  1
  O2-  O278  1  0.29913980  0.16134818  0.72964834  1
  O2-  O279  1  0.30137187  0.66775253  0.06600608  1
  O2-  O280  1  0.29926437  0.66928049  0.39442571  1
  O2-  O281  1  0.28957651  0.67127630  0.73457279  1
  O2-  O282  1  0.79229242  0.16100205  0.06670361  1
  O2-  O283  1  0.79528427  0.16201561  0.39694491  1
  O2-  O284  1  0.79246790  0.16438927  0.73910819  1
  O2-  O285  1  0.79591149  0.67054166  0.05909135  1
  O2-  O286  1  0.79664966  0.66853628  0.39442548  1
  O2-  O287  1  0.80289379  0.66935883  0.72823332  1
