# generated using pymatgen
data_Ca2Al2SiO7
_symmetry_space_group_name_H-M   'P 1'
_cell_length_a   15.46227531
_cell_length_b   15.46235853
_cell_length_c   15.28687728
_cell_angle_alpha   89.98855173
_cell_angle_beta   90.01002677
_cell_angle_gamma   89.99058831
_symmetry_Int_Tables_number   1
_chemical_formula_structural   Ca2Al2SiO7
_chemical_formula_sum   'Ca48 Al48 Si24 O168'
_cell_volume   3654.83604041
_cell_formula_units_Z   24
loop_
 _symmetry_equiv_pos_site_id
 _symmetry_equiv_pos_as_xyz
  1  'x, y, z'
loop_
 _atom_type_symbol
 _atom_type_oxidation_number
  Ca2+  2.0
  Al0+  0.0
  Si0+  0.0
  O2-  -2.0
loop_
 _atom_site_type_symbol
 _atom_site_label
 _atom_site_symmetry_multiplicity
 _atom_site_fract_x
 _atom_site_fract_y
 _atom_site_fract_z
 _atom_site_occupancy
  Ca2+  Ca0  1  0.16273436  0.08192028  0.17356056  1
  Ca2+  Ca1  1  0.15605163  0.07951915  0.50083665  1
  Ca2+  Ca2  1  0.16873463  0.08855162  0.84149051  1
  Ca2+  Ca3  1  0.17106002  0.58563292  0.17827118  1
  Ca2+  Ca4  1  0.16177340  0.58120255  0.49980357  1
  Ca2+  Ca5  1  0.16867243  0.58873459  0.83983455  1
  Ca2+  Ca6  1  0.67518013  0.07694189  0.18121292  1
  Ca2+  Ca7  1  0.67059003  0.07909546  0.49861497  1
  Ca2+  Ca8  1  0.66747612  0.07317695  0.83634151  1
  Ca2+  Ca9  1  0.67526967  0.57858282  0.17633697  1
  Ca2+  Ca10  1  0.67395934  0.58182477  0.50075157  1
  Ca2+  Ca11  1  0.66389745  0.58643094  0.83845197  1
  Ca2+  Ca12  1  0.07530002  0.33130999  0.16488125  1
  Ca2+  Ca13  1  0.07538155  0.32484094  0.49034554  1
  Ca2+  Ca14  1  0.07553639  0.32634754  0.82779715  1
  Ca2+  Ca15  1  0.08032762  0.82688982  0.16492269  1
  Ca2+  Ca16  1  0.08960170  0.82352812  0.49249372  1
  Ca2+  Ca17  1  0.08183474  0.82457698  0.83315259  1
  Ca2+  Ca18  1  0.59031962  0.32925963  0.17011498  1
  Ca2+  Ca19  1  0.58484408  0.32976946  0.48854887  1
  Ca2+  Ca20  1  0.57873300  0.33158076  0.82981926  1
  Ca2+  Ca21  1  0.58536265  0.82691642  0.16222320  1
  Ca2+  Ca22  1  0.57957406  0.84072091  0.49874712  1
  Ca2+  Ca23  1  0.57847092  0.82271615  0.82395064  1
  Ca2+  Ca24  1  0.32349166  0.42950020  0.17486994  1
  Ca2+  Ca25  1  0.32618421  0.42101415  0.49635224  1
  Ca2+  Ca26  1  0.32809329  0.42519386  0.84356354  1
  Ca2+  Ca27  1  0.32456541  0.92205929  0.17162239  1
  Ca2+  Ca28  1  0.32860510  0.91408753  0.50101840  1
  Ca2+  Ca29  1  0.33399636  0.92059507  0.83730928  1
  Ca2+  Ca30  1  0.83510155  0.41866415  0.17694318  1
  Ca2+  Ca31  1  0.83913296  0.41618829  0.49672650  1
  Ca2+  Ca32  1  0.83683050  0.41250816  0.83411850  1
  Ca2+  Ca33  1  0.83258810  0.92043816  0.17757154  1
  Ca2+  Ca34  1  0.82472675  0.92148399  0.50209968  1
  Ca2+  Ca35  1  0.82924621  0.90904735  0.83720186  1
  Ca2+  Ca36  1  0.42175314  0.16336533  0.16513236  1
  Ca2+  Ca37  1  0.42526516  0.16746892  0.49232678  1
  Ca2+  Ca38  1  0.41337892  0.16535342  0.83111868  1
  Ca2+  Ca39  1  0.41959762  0.66104407  0.16191263  1
  Ca2+  Ca40  1  0.42052636  0.66959439  0.49705159  1
  Ca2+  Ca41  1  0.42499055  0.66757202  0.82707440  1
  Ca2+  Ca42  1  0.92205306  0.17376432  0.16425838  1
  Ca2+  Ca43  1  0.91876066  0.17470453  0.48956195  1
  Ca2+  Ca44  1  0.92676904  0.17583723  0.82854285  1
  Ca2+  Ca45  1  0.92642835  0.66641587  0.16288808  1
  Ca2+  Ca46  1  0.92613807  0.66403168  0.49281593  1
  Ca2+  Ca47  1  0.92741124  0.66994792  0.83227047  1
  Al0+  Al48  1  -0.00195788  0.00020257  -0.00785341  1
  Al0+  Al49  1  0.00022020  -0.00057865  0.33990061  1
  Al0+  Al50  1  -0.00002506  -0.00077770  0.66885435  1
  Al0+  Al51  1  -0.00156411  0.49932163  -0.00726084  1
  Al0+  Al52  1  0.00220266  0.49970620  0.33265467  1
  Al0+  Al53  1  -0.00059006  0.49931230  0.66277311  1
  Al0+  Al54  1  0.49982827  -0.00110750  0.00458306  1
  Al0+  Al55  1  0.49849875  0.00009842  0.33032805  1
  Al0+  Al56  1  0.49993150  -0.00047304  0.66893325  1
  Al0+  Al57  1  0.49966065  0.49794811  0.00089868  1
  Al0+  Al58  1  0.49989289  0.50114548  0.34008735  1
  Al0+  Al59  1  0.50041166  0.50040594  0.66376881  1
  Al0+  Al60  1  0.25257962  0.25104405  0.00325622  1
  Al0+  Al61  1  0.25224734  0.25213023  0.33316509  1
  Al0+  Al62  1  0.24914506  0.25087277  0.66435889  1
  Al0+  Al63  1  0.25170689  0.75296182  0.00162895  1
  Al0+  Al64  1  0.25247112  0.75318985  0.33597378  1
  Al0+  Al65  1  0.25191346  0.75117495  0.66199649  1
  Al0+  Al66  1  0.74862934  0.24730811  -0.00504654  1
  Al0+  Al67  1  0.74921502  0.24920762  0.33188692  1
  Al0+  Al68  1  0.74966423  0.25087977  0.66713410  1
  Al0+  Al69  1  0.74832442  0.74697469  -0.00613618  1
  Al0+  Al70  1  0.74818362  0.74956912  0.34197513  1
  Al0+  Al71  1  0.75044440  0.74795052  0.66906787  1
  Al0+  Al72  1  0.67605291  0.92763934  0.34772290  1
  Al0+  Al73  1  0.07344773  0.17975962  0.98578403  1
  Al0+  Al74  1  0.07077513  0.68138856  0.65215874  1
  Al0+  Al75  1  0.32129782  0.57412328  0.35086080  1
  Al0+  Al76  1  0.32144776  0.07201585  0.01471793  1
  Al0+  Al77  1  0.07276538  0.17619310  0.31776084  1
  Al0+  Al78  1  0.56847599  0.67700378  0.98862470  1
  Al0+  Al79  1  0.57280079  0.67712801  0.64835415  1
  Al0+  Al80  1  0.17848730  0.42852662  0.34866522  1
  Al0+  Al81  1  0.07290223  0.17788490  0.65041655  1
  Al0+  Al82  1  0.67935537  0.92941989  0.68331262  1
  Al0+  Al83  1  0.92782988  0.31975561  0.64841888  1
  Al0+  Al84  1  0.82360934  0.57165379  0.34764070  1
  Al0+  Al85  1  0.92911802  0.32086612  0.31680584  1
  Al0+  Al86  1  0.07406339  0.67925839  0.98698205  1
  Al0+  Al87  1  0.17932585  0.93138926  0.34655436  1
  Al0+  Al88  1  0.92718333  0.82113154  0.98667764  1
  Al0+  Al89  1  0.92614666  0.32105095  0.98359574  1
  Al0+  Al90  1  0.43092282  0.82221388  0.65067919  1
  Al0+  Al91  1  0.68021228  0.42873964  0.34745137  1
  Al0+  Al92  1  0.56976256  0.17892227  0.31945614  1
  Al0+  Al93  1  0.82202786  0.07097144  0.34747071  1
  Al0+  Al94  1  0.32084334  0.57261638  0.01193883  1
  Al0+  Al95  1  0.07183081  0.68054960  0.32038224  1
  Si0+  Si96  1  0.31981395  0.07159693  0.68045594  1
  Si0+  Si97  1  0.57018872  0.17631645  0.98388425  1
  Si0+  Si98  1  0.17918006  0.42978772  0.68274472  1
  Si0+  Si99  1  0.82004113  0.56985290  0.01229080  1
  Si0+  Si100  1  0.17683053  0.42956293  0.01483128  1
  Si0+  Si101  1  0.42953597  0.82399876  0.98488206  1
  Si0+  Si102  1  0.68024947  0.92689962  0.01470718  1
  Si0+  Si103  1  0.42803564  0.32220541  0.65219329  1
  Si0+  Si104  1  0.82170466  0.07316832  0.68671918  1
  Si0+  Si105  1  0.57117071  0.67855051  0.31876637  1
  Si0+  Si106  1  0.42947049  0.82147961  0.31544364  1
  Si0+  Si107  1  0.81969462  0.07057053  0.01347582  1
  Si0+  Si108  1  0.67831006  0.42635024  0.01322908  1
  Si0+  Si109  1  0.92567883  0.82095098  0.32119138  1
  Si0+  Si110  1  0.92682174  0.82232463  0.64940123  1
  Si0+  Si111  1  0.67717729  0.42864311  0.68371354  1
  Si0+  Si112  1  0.42889559  0.32486160  0.31504252  1
  Si0+  Si113  1  0.56908333  0.17970505  0.65393586  1
  Si0+  Si114  1  0.82227461  0.56939913  0.68457102  1
  Si0+  Si115  1  0.32114719  0.57092905  0.68248641  1
  Si0+  Si116  1  0.32236535  0.07293179  0.34986425  1
  Si0+  Si117  1  0.17887561  0.92701873  0.68335399  1
  Si0+  Si118  1  0.43093525  0.32001180  0.98593851  1
  Si0+  Si119  1  0.17567874  0.92964197  0.01575081  1
  O2-  O120  1  0.24206767  0.00166082  0.05914434  1
  O2-  O121  1  0.24882114  0.01092460  0.39481494  1
  O2-  O122  1  0.24618525  0.00337615  0.72340506  1
  O2-  O123  1  0.23931219  0.50503249  0.05743957  1
  O2-  O124  1  0.24742087  0.50364688  0.40000869  1
  O2-  O125  1  0.24909690  0.50177858  0.72628208  1
  O2-  O126  1  0.75278077  -0.00420159  0.05647830  1
  O2-  O127  1  0.74923056  -0.00124030  0.39661390  1
  O2-  O128  1  0.75611564  0.00134524  0.73225412  1
  O2-  O129  1  0.75259672  0.49450507  0.05321229  1
  O2-  O130  1  0.75324397  0.49813202  0.39892494  1
  O2-  O131  1  0.74810015  0.49966554  0.72599586  1
  O2-  O132  1  0.00174403  0.24881386  0.26787933  1
  O2-  O133  1  -0.00255132  0.24517630  0.60059103  1
  O2-  O134  1  0.00199615  0.25202509  0.93549271  1
  O2-  O135  1  -0.00722885  0.75159401  0.27548394  1
  O2-  O136  1  -0.00239140  0.75699394  0.60467562  1
  O2-  O137  1  0.00185266  0.75130699  0.93706115  1
  O2-  O138  1  0.49698800  0.25507486  0.27106993  1
  O2-  O139  1  0.49995074  0.25190369  0.61125842  1
  O2-  O140  1  0.49842646  0.24634846  0.94119693  1
  O2-  O141  1  0.50098699  0.74989517  0.27510371  1
  O2-  O142  1  0.50373816  0.75202644  0.59898406  1
  O2-  O143  1  0.49303616  0.75054957  0.94130255  1
  O2-  O144  1  0.07192441  0.17953308  0.09862666  1
  O2-  O145  1  0.07027129  0.17713445  0.43108081  1
  O2-  O146  1  0.07672957  0.18260713  0.76420119  1
  O2-  O147  1  0.07296522  0.67997863  0.10024665  1
  O2-  O148  1  0.07169917  0.68342475  0.43348102  1
  O2-  O149  1  0.07134941  0.68250536  0.76551056  1
  O2-  O150  1  0.57155223  0.17661852  0.08842877  1
  O2-  O151  1  0.56584985  0.17868649  0.43313397  1
  O2-  O152  1  0.56641961  0.18060691  0.75977146  1
  O2-  O153  1  0.57038113  0.67821122  0.10168824  1
  O2-  O154  1  0.56983742  0.67848774  0.42337962  1
  O2-  O155  1  0.56773634  0.67530451  0.76263191  1
  O2-  O156  1  0.18098935  0.42961048  0.23459211  1
  O2-  O157  1  0.18219745  0.42913761  0.57835592  1
  O2-  O158  1  0.18185130  0.42741033  0.90862750  1
  O2-  O159  1  0.18207799  0.92916207  0.23331683  1
  O2-  O160  1  0.18097922  0.92558581  0.57848789  1
  O2-  O161  1  0.17942505  0.92781326  0.90988456  1
  O2-  O162  1  0.67875360  0.43228698  0.23306533  1
  O2-  O163  1  0.67406759  0.42672568  0.57953909  1
  O2-  O164  1  0.67501742  0.42667718  0.90774254  1
  O2-  O165  1  0.67751820  0.92707375  0.23329769  1
  O2-  O166  1  0.67786389  0.93514808  0.57099521  1
  O2-  O167  1  0.67842566  0.92953543  0.90948200  1
  O2-  O168  1  0.43458204  0.32138769  0.09021817  1
  O2-  O169  1  0.42985807  0.32276977  0.42119370  1
  O2-  O170  1  0.42853424  0.32175628  0.75802998  1
  O2-  O171  1  0.43293260  0.82706353  0.09022260  1
  O2-  O172  1  0.43012450  0.82366463  0.42031501  1
  O2-  O173  1  0.43041071  0.82136048  0.76484792  1
  O2-  O174  1  0.92202154  0.32015464  0.09619109  1
  O2-  O175  1  0.92935809  0.31888620  0.43004072  1
  O2-  O176  1  0.92921761  0.31876698  0.76237709  1
  O2-  O177  1  0.92467719  0.82012873  0.10020054  1
  O2-  O178  1  0.92657259  0.81987951  0.42668521  1
  O2-  O179  1  0.92769424  0.81940117  0.75529144  1
  O2-  O180  1  0.32526796  0.06807995  0.24430204  1
  O2-  O181  1  0.32322698  0.07210749  0.57592370  1
  O2-  O182  1  0.32461794  0.06920270  0.90094954  1
  O2-  O183  1  0.32208876  0.57224403  0.23670815  1
  O2-  O184  1  0.32197132  0.56859244  0.57802138  1
  O2-  O185  1  0.32357910  0.56797935  0.89829522  1
  O2-  O186  1  0.82070183  0.06823512  0.23296927  1
  O2-  O187  1  0.81826917  0.07433696  0.58163398  1
  O2-  O188  1  0.81424526  0.07180895  0.90839813  1
  O2-  O189  1  0.82002795  0.57436858  0.23331840  1
  O2-  O190  1  0.82296309  0.56872820  0.57998355  1
  O2-  O191  1  0.81754911  0.57099097  0.90695989  1
  O2-  O192  1  0.04434406  0.07607811  0.26798240  1
  O2-  O193  1  0.05018904  0.07543969  0.60465203  1
  O2-  O194  1  0.04597765  0.08198190  0.93075087  1
  O2-  O195  1  0.04590619  0.58327759  0.26684710  1
  O2-  O196  1  0.03930251  0.58478010  0.60037752  1
  O2-  O197  1  0.04598709  0.58183207  0.93174448  1
  O2-  O198  1  0.53628196  0.08385667  0.26293039  1
  O2-  O199  1  0.53877083  0.08938906  0.60704965  1
  O2-  O200  1  0.54131206  0.08423433  0.93716662  1
  O2-  O201  1  0.54226895  0.58649679  0.27234516  1
  O2-  O202  1  0.54206198  0.57923037  0.59627975  1
  O2-  O203  1  0.53902080  0.58014031  0.93338479  1
  O2-  O204  1  0.17437815  0.20132573  0.26938835  1
  O2-  O205  1  0.17102632  0.20742997  0.59760032  1
  O2-  O206  1  0.17395621  0.20741864  0.93502828  1
  O2-  O207  1  0.16821592  0.71604736  0.26867019  1
  O2-  O208  1  0.16751364  0.71060136  0.59897266  1
  O2-  O209  1  0.17268837  0.70889693  0.93358404  1
  O2-  O210  1  0.66517832  0.20823484  0.26318631  1
  O2-  O211  1  0.66111093  0.20639923  0.60842879  1
  O2-  O212  1  0.65968196  0.20489498  0.93278690  1
  O2-  O213  1  0.66376208  0.70639410  0.27253262  1
  O2-  O214  1  0.67399371  0.70036796  0.60134961  1
  O2-  O215  1  0.66264091  0.70798885  0.93063174  1
  O2-  O216  1  0.08003404  0.44804544  0.05597615  1
  O2-  O217  1  0.08091659  0.45478248  0.40226573  1
  O2-  O218  1  0.08675079  0.45733335  0.72890011  1
  O2-  O219  1  0.08005718  0.95188062  0.05857860  1
  O2-  O220  1  0.08314379  0.95418010  0.40446903  1
  O2-  O221  1  0.08507984  0.94825186  0.73032487  1
  O2-  O222  1  0.58817601  0.45568480  0.06214315  1
  O2-  O223  1  0.58267347  0.45674408  0.40226033  1
  O2-  O224  1  0.58450582  0.45627448  0.73187157  1
  O2-  O225  1  0.58936022  0.95639841  0.06255298  1
  O2-  O226  1  0.57826207  0.96046516  0.39913716  1
  O2-  O227  1  0.58339756  0.96388634  0.73849873  1
  O2-  O228  1  0.21016945  0.33953150  0.06264058  1
  O2-  O229  1  0.21266322  0.33188708  0.40329859  1
  O2-  O230  1  0.21055865  0.33855163  0.73057259  1
  O2-  O231  1  0.20489111  0.83798687  0.06404456  1
  O2-  O232  1  0.21812248  0.83897549  0.40305173  1
  O2-  O233  1  0.21318614  0.83738792  0.73179284  1
  O2-  O234  1  0.70230080  0.33216602  0.05791907  1
  O2-  O235  1  0.70297697  0.32898464  0.39902159  1
  O2-  O236  1  0.70372145  0.33633620  0.73278351  1
  O2-  O237  1  0.70527371  0.83319273  0.05912024  1
  O2-  O238  1  0.70010833  0.83054801  0.40389745  1
  O2-  O239  1  0.70758274  0.83068161  0.73591029  1
  O2-  O240  1  0.45666742  0.41851447  0.27050781  1
  O2-  O241  1  0.45548086  0.41293493  0.60435122  1
  O2-  O242  1  0.46247649  0.40913073  0.93464897  1
  O2-  O243  1  0.45668248  0.91264942  0.26640750  1
  O2-  O244  1  0.45874992  0.92146037  0.59857856  1
  O2-  O245  1  0.46044814  0.91547335  0.93642898  1
  O2-  O246  1  0.95780375  0.41954120  0.26449740  1
  O2-  O247  1  0.95750637  0.41786777  0.59804564  1
  O2-  O248  1  0.95051998  0.41967934  0.92900759  1
  O2-  O249  1  0.95348764  0.91399585  0.27582448  1
  O2-  O250  1  0.94771584  0.91822004  0.60737877  1
  O2-  O251  1  0.95050071  0.91889491  0.92953141  1
  O2-  O252  1  0.33599099  0.30008606  0.26808624  1
  O2-  O253  1  0.33783522  0.29323198  0.60390354  1
  O2-  O254  1  0.33896921  0.29532175  0.93724584  1
  O2-  O255  1  0.33870143  0.79324021  0.26698945  1
  O2-  O256  1  0.33365134  0.79359087  0.59682430  1
  O2-  O257  1  0.33414595  0.80541236  0.94048706  1
  O2-  O258  1  0.82989062  0.29365906  0.26507077  1
  O2-  O259  1  0.82658728  0.29537474  0.59958249  1
  O2-  O260  1  0.82864279  0.28911443  0.92842626  1
  O2-  O261  1  0.83040783  0.79810403  0.27667040  1
  O2-  O262  1  0.83343041  0.79532283  0.60518549  1
  O2-  O263  1  0.83131482  0.78839554  0.93001317  1
  O2-  O264  1  0.41687939  0.03782753  0.07037849  1
  O2-  O265  1  0.41323707  0.04021056  0.39745487  1
  O2-  O266  1  0.41040397  0.04230758  0.73064869  1
  O2-  O267  1  0.41500765  0.53403992  0.06677903  1
  O2-  O268  1  0.41774110  0.54246138  0.40545560  1
  O2-  O269  1  0.41311934  0.54018015  0.72932750  1
  O2-  O270  1  0.91372164  0.04716972  0.05728786  1
  O2-  O271  1  0.91783782  0.04311758  0.40445707  1
  O2-  O272  1  0.91688592  0.05007380  0.73144986  1
  O2-  O273  1  0.91371807  0.54613121  0.05773727  1
  O2-  O274  1  0.92185945  0.54506642  0.40015780  1
  O2-  O275  1  0.91330714  0.53837317  0.73266129  1
  O2-  O276  1  0.30060180  0.17112724  0.06801354  1
  O2-  O277  1  0.30795206  0.16963297  0.39270352  1
  O2-  O278  1  0.29499860  0.16487149  0.72841624  1
  O2-  O279  1  0.30119466  0.67248234  0.06408179  1
  O2-  O280  1  0.29705924  0.67312141  0.40261337  1
  O2-  O281  1  0.29479626  0.66426121  0.72764263  1
  O2-  O282  1  0.78640547  0.16079551  0.06067689  1
  O2-  O283  1  0.78921780  0.16737484  0.40029252  1
  O2-  O284  1  0.79087993  0.16561851  0.73348261  1
  O2-  O285  1  0.78747030  0.65997388  0.05986656  1
  O2-  O286  1  0.79274571  0.66724421  0.40473121  1
  O2-  O287  1  0.79677821  0.66155622  0.73288196  1
