# generated using pymatgen
data_Ca2Al2SiO7
_symmetry_space_group_name_H-M   'P 1'
_cell_length_a   15.46861974
_cell_length_b   15.46907911
_cell_length_c   15.29066819
_cell_angle_alpha   89.99470776
_cell_angle_beta   90.01119564
_cell_angle_gamma   90.01576650
_symmetry_Int_Tables_number   1
_chemical_formula_structural   Ca2Al2SiO7
_chemical_formula_sum   'Ca48 Al48 Si24 O168'
_cell_volume   3658.83193976
_cell_formula_units_Z   24
loop_
 _symmetry_equiv_pos_site_id
 _symmetry_equiv_pos_as_xyz
  1  'x, y, z'
loop_
 _atom_type_symbol
 _atom_type_oxidation_number
  Ca2+  2.0
  Al0+  0.0
  Si0+  0.0
  O2-  -2.0
loop_
 _atom_site_type_symbol
 _atom_site_label
 _atom_site_symmetry_multiplicity
 _atom_site_fract_x
 _atom_site_fract_y
 _atom_site_fract_z
 _atom_site_occupancy
  Ca2+  Ca0  1  0.16297172  0.08738122  0.17064846  1
  Ca2+  Ca1  1  0.17124778  0.08069937  0.51247605  1
  Ca2+  Ca2  1  0.17057545  0.08126152  0.83641738  1
  Ca2+  Ca3  1  0.17107759  0.58542479  0.17051840  1
  Ca2+  Ca4  1  0.17389740  0.57969921  0.51119185  1
  Ca2+  Ca5  1  0.16467863  0.58489853  0.82975018  1
  Ca2+  Ca6  1  0.66921970  0.08342833  0.17612293  1
  Ca2+  Ca7  1  0.67321979  0.08434846  0.50662459  1
  Ca2+  Ca8  1  0.66587769  0.08625006  0.83041316  1
  Ca2+  Ca9  1  0.66620334  0.56789832  0.17385316  1
  Ca2+  Ca10  1  0.67270213  0.56853872  0.50995255  1
  Ca2+  Ca11  1  0.66641205  0.57089005  0.83724596  1
  Ca2+  Ca12  1  0.07159121  0.32223781  0.16027845  1
  Ca2+  Ca13  1  0.07704371  0.32973371  0.49195634  1
  Ca2+  Ca14  1  0.07742584  0.33569212  0.82769486  1
  Ca2+  Ca15  1  0.08024407  0.82713510  0.15957903  1
  Ca2+  Ca16  1  0.08751604  0.83061248  0.50341314  1
  Ca2+  Ca17  1  0.08728911  0.82272009  0.82437706  1
  Ca2+  Ca18  1  0.59467760  0.32338991  0.16444329  1
  Ca2+  Ca19  1  0.59259675  0.32494402  0.49692984  1
  Ca2+  Ca20  1  0.59273762  0.32537799  0.82908773  1
  Ca2+  Ca21  1  0.57857387  0.83416146  0.16109658  1
  Ca2+  Ca22  1  0.58175892  0.84113279  0.49955480  1
  Ca2+  Ca23  1  0.57324237  0.83786542  0.82296360  1
  Ca2+  Ca24  1  0.33154599  0.42500597  0.17496489  1
  Ca2+  Ca25  1  0.32792586  0.42764609  0.50937170  1
  Ca2+  Ca26  1  0.32750056  0.41900701  0.83256505  1
  Ca2+  Ca27  1  0.33348469  0.91622229  0.16698108  1
  Ca2+  Ca28  1  0.32907067  0.92295989  0.51242538  1
  Ca2+  Ca29  1  0.33618562  0.91670003  0.82858973  1
  Ca2+  Ca30  1  0.82847364  0.40489322  0.16746616  1
  Ca2+  Ca31  1  0.82604419  0.41292814  0.50495778  1
  Ca2+  Ca32  1  0.82608426  0.41551289  0.83327101  1
  Ca2+  Ca33  1  0.82572392  0.92632159  0.17937505  1
  Ca2+  Ca34  1  0.82314064  0.92970387  0.50687778  1
  Ca2+  Ca35  1  0.83075531  0.92286128  0.83155299  1
  Ca2+  Ca36  1  0.43162004  0.16693086  0.16206599  1
  Ca2+  Ca37  1  0.42790724  0.16116373  0.49994474  1
  Ca2+  Ca38  1  0.42846069  0.16391043  0.82422092  1
  Ca2+  Ca39  1  0.41613161  0.67205337  0.16166043  1
  Ca2+  Ca40  1  0.40852068  0.67029040  0.49992754  1
  Ca2+  Ca41  1  0.41255702  0.67755077  0.82456475  1
  Ca2+  Ca42  1  0.91707235  0.17442871  0.16525476  1
  Ca2+  Ca43  1  0.91698660  0.16793585  0.49105634  1
  Ca2+  Ca44  1  0.91653065  0.17088658  0.83125815  1
  Ca2+  Ca45  1  0.92237135  0.66913142  0.15902829  1
  Ca2+  Ca46  1  0.91928805  0.66108027  0.50200336  1
  Ca2+  Ca47  1  0.92577702  0.65974123  0.82406090  1
  Al0+  Al48  1  0.00040748  -0.00059535  -0.00042808  1
  Al0+  Al49  1  -0.00005252  -0.00322006  0.33328860  1
  Al0+  Al50  1  -0.00060415  -0.00150690  0.67439611  1
  Al0+  Al51  1  0.00045375  0.49976984  -0.00535401  1
  Al0+  Al52  1  0.00049075  0.50015017  0.32598548  1
  Al0+  Al53  1  -0.00018912  0.49940211  0.66553888  1
  Al0+  Al54  1  0.49894540  0.00071508  -0.00599479  1
  Al0+  Al55  1  0.49633027  -0.00123568  0.33016306  1
  Al0+  Al56  1  0.49998096  0.00033117  0.66316412  1
  Al0+  Al57  1  0.49970188  0.49960256  0.00685085  1
  Al0+  Al58  1  0.50024521  0.50223536  0.34181980  1
  Al0+  Al59  1  0.49889073  0.50003141  0.67496357  1
  Al0+  Al60  1  0.25168278  0.24960394  0.00139067  1
  Al0+  Al61  1  0.25147624  0.25099947  0.32967910  1
  Al0+  Al62  1  0.25125522  0.25105256  0.67377341  1
  Al0+  Al63  1  0.24940358  0.75180559  -0.00552007  1
  Al0+  Al64  1  0.25110677  0.75154738  0.33496431  1
  Al0+  Al65  1  0.24981651  0.75025612  0.66320387  1
  Al0+  Al66  1  0.75146688  0.24894670  -0.00377892  1
  Al0+  Al67  1  0.75077688  0.24912849  0.33271748  1
  Al0+  Al68  1  0.75141119  0.24967986  0.66915709  1
  Al0+  Al69  1  0.74911878  0.74935913  0.00075789  1
  Al0+  Al70  1  0.74846741  0.74882526  0.33442394  1
  Al0+  Al71  1  0.75079077  0.75083442  0.67252768  1
  Al0+  Al72  1  0.07388724  0.17551063  0.32112915  1
  Al0+  Al73  1  0.31954941  0.57228838  0.34679292  1
  Al0+  Al74  1  0.17786425  0.42849665  0.68088746  1
  Al0+  Al75  1  0.32190109  0.07188413  0.68162159  1
  Al0+  Al76  1  0.82196722  0.07236579  0.68381576  1
  Al0+  Al77  1  0.07330882  0.17705304  0.98282832  1
  Al0+  Al78  1  0.82094151  0.07039821  0.34720923  1
  Al0+  Al79  1  0.68148460  0.42868267  0.34718874  1
  Al0+  Al80  1  0.43090917  0.81960934  0.98549242  1
  Al0+  Al81  1  0.57045709  0.18231501  0.65105654  1
  Al0+  Al82  1  0.67791284  0.92978524  0.68237813  1
  Al0+  Al83  1  0.92991167  0.31948306  0.98108369  1
  Al0+  Al84  1  0.67509971  0.92729667  0.34688517  1
  Al0+  Al85  1  0.56855653  0.17962584  0.32057410  1
  Al0+  Al86  1  0.32064061  0.57223718  0.68375027  1
  Al0+  Al87  1  0.82177005  0.57129572  0.68039227  1
  Al0+  Al88  1  0.57007276  0.18098639  0.98571026  1
  Al0+  Al89  1  0.43136194  0.81886482  0.64952553  1
  Al0+  Al90  1  0.06943481  0.68063756  0.98593840  1
  Al0+  Al91  1  0.06837450  0.67958170  0.64979823  1
  Al0+  Al92  1  0.68047357  0.42859150  0.01647341  1
  Al0+  Al93  1  0.67866461  0.42813544  0.68261311  1
  Al0+  Al94  1  0.92885062  0.32123708  0.31854548  1
  Al0+  Al95  1  0.17881684  0.92909461  0.68223489  1
  Si0+  Si96  1  0.32006232  0.07202812  0.34529894  1
  Si0+  Si97  1  0.67651273  0.92915070  0.01431644  1
  Si0+  Si98  1  0.32278038  0.07120149  0.01726673  1
  Si0+  Si99  1  0.82474811  0.57374799  0.34767840  1
  Si0+  Si100  1  0.18028546  0.92919005  0.01621787  1
  Si0+  Si101  1  0.57209168  0.67591999  0.98494083  1
  Si0+  Si102  1  0.17925947  0.92887563  0.34610819  1
  Si0+  Si103  1  0.17743509  0.42832818  0.34688901  1
  Si0+  Si104  1  0.57173440  0.67727825  0.31920452  1
  Si0+  Si105  1  0.17777327  0.42781706  0.01711731  1
  Si0+  Si106  1  0.82352755  0.57259293  0.01759790  1
  Si0+  Si107  1  0.93100485  0.31906198  0.65051053  1
  Si0+  Si108  1  0.42865673  0.32604855  0.31831353  1
  Si0+  Si109  1  0.42839884  0.81910728  0.31691372  1
  Si0+  Si110  1  0.07229688  0.68156101  0.31830973  1
  Si0+  Si111  1  0.42721270  0.32502559  0.98507102  1
  Si0+  Si112  1  0.31816910  0.57255088  0.01550890  1
  Si0+  Si113  1  0.82124628  0.06873179  0.01640098  1
  Si0+  Si114  1  0.57433684  0.67550667  0.65067531  1
  Si0+  Si115  1  0.92530003  0.82233388  0.98387649  1
  Si0+  Si116  1  0.42553276  0.32440277  0.65055400  1
  Si0+  Si117  1  0.92569646  0.82445835  0.64850859  1
  Si0+  Si118  1  0.92690626  0.81962761  0.31906860  1
  Si0+  Si119  1  0.07278400  0.17742516  0.65454457  1
  O2-  O120  1  0.24792618  0.00319583  0.05973655  1
  O2-  O121  1  0.24129798  0.00867299  0.38530551  1
  O2-  O122  1  0.24821848  0.00258097  0.73331584  1
  O2-  O123  1  0.24946052  0.49948226  0.05871813  1
  O2-  O124  1  0.24630896  0.49599104  0.39165016  1
  O2-  O125  1  0.24991136  0.49927652  0.73332620  1
  O2-  O126  1  0.75042580  -0.00369133  0.05752274  1
  O2-  O127  1  0.74550526  0.00102851  0.39541620  1
  O2-  O128  1  0.74979306  0.00049467  0.73411192  1
  O2-  O129  1  0.75455202  0.50506574  0.06305273  1
  O2-  O130  1  0.75899601  0.50217676  0.39045815  1
  O2-  O131  1  0.74616028  0.50476975  0.73185360  1
  O2-  O132  1  0.00162618  0.24759219  0.27149535  1
  O2-  O133  1  0.00204147  0.24701538  0.61004532  1
  O2-  O134  1  0.00447332  0.25011888  0.93086366  1
  O2-  O135  1  -0.00239202  0.74825844  0.27555166  1
  O2-  O136  1  -0.00688017  0.75427708  0.60327293  1
  O2-  O137  1  -0.00954361  0.75080710  0.94003806  1
  O2-  O138  1  0.49657799  0.25719532  0.27285760  1
  O2-  O139  1  0.49593167  0.25826131  0.60517101  1
  O2-  O140  1  0.49666003  0.25785460  0.94097223  1
  O2-  O141  1  0.50205713  0.75014400  0.27602131  1
  O2-  O142  1  0.50649000  0.74381981  0.60327730  1
  O2-  O143  1  0.50688730  0.74644451  0.93959874  1
  O2-  O144  1  0.07112366  0.17749866  0.09665638  1
  O2-  O145  1  0.07594301  0.17684068  0.43486251  1
  O2-  O146  1  0.07172716  0.17954408  0.75934058  1
  O2-  O147  1  0.07083904  0.68424981  0.10021088  1
  O2-  O148  1  0.07385340  0.68280139  0.42269450  1
  O2-  O149  1  0.06746050  0.68110612  0.76278197  1
  O2-  O150  1  0.56911105  0.17905163  0.09937508  1
  O2-  O151  1  0.56665597  0.17845263  0.43297381  1
  O2-  O152  1  0.56942570  0.18363204  0.76422905  1
  O2-  O153  1  0.56989845  0.67689336  0.09116446  1
  O2-  O154  1  0.57203180  0.67618447  0.42350962  1
  O2-  O155  1  0.57157519  0.67702344  0.75646120  1
  O2-  O156  1  0.17921431  0.43134557  0.24092728  1
  O2-  O157  1  0.17832739  0.42914662  0.56667508  1
  O2-  O158  1  0.17898804  0.42745563  0.91258363  1
  O2-  O159  1  0.18247999  0.92290051  0.24071820  1
  O2-  O160  1  0.17963833  0.93185613  0.56761102  1
  O2-  O161  1  0.18170624  0.92704676  0.91207639  1
  O2-  O162  1  0.68097300  0.43010723  0.23385682  1
  O2-  O163  1  0.68232496  0.42662990  0.56885494  1
  O2-  O164  1  0.67968803  0.43077127  0.90423128  1
  O2-  O165  1  0.67714408  0.92689072  0.23225509  1
  O2-  O166  1  0.67905795  0.93230489  0.56879987  1
  O2-  O167  1  0.67638394  0.92969860  0.90996221  1
  O2-  O168  1  0.42563821  0.32443279  0.09105196  1
  O2-  O169  1  0.42655526  0.32517155  0.42331649  1
  O2-  O170  1  0.42433444  0.32248788  0.75620112  1
  O2-  O171  1  0.43038767  0.81804163  0.09960983  1
  O2-  O172  1  0.42442328  0.81873385  0.42113184  1
  O2-  O173  1  0.43183298  0.81798577  0.76266435  1
  O2-  O174  1  0.92983840  0.31654845  0.09481633  1
  O2-  O175  1  0.93166949  0.32345004  0.43215066  1
  O2-  O176  1  0.93132114  0.31950209  0.75543879  1
  O2-  O177  1  0.92737326  0.82200430  0.09028255  1
  O2-  O178  1  0.92788005  0.81976067  0.42339911  1
  O2-  O179  1  0.92747900  0.82478750  0.75416485  1
  O2-  O180  1  0.32346522  0.06765940  0.23994363  1
  O2-  O181  1  0.31932319  0.07061293  0.56705947  1
  O2-  O182  1  0.32469856  0.06967820  0.91296930  1
  O2-  O183  1  0.31668128  0.57449066  0.23278514  1
  O2-  O184  1  0.31766072  0.57114531  0.56977529  1
  O2-  O185  1  0.31777737  0.57322660  0.91131107  1
  O2-  O186  1  0.82047117  0.06765850  0.23286306  1
  O2-  O187  1  0.82299764  0.07282906  0.57025428  1
  O2-  O188  1  0.82220427  0.06742252  0.91177866  1
  O2-  O189  1  0.82290082  0.57843570  0.24206713  1
  O2-  O190  1  0.82223857  0.56634832  0.56620392  1
  O2-  O191  1  0.82186293  0.57443878  0.91273136  1
  O2-  O192  1  0.04901466  0.07522247  0.26869813  1
  O2-  O193  1  0.04669234  0.08376304  0.61011523  1
  O2-  O194  1  0.04551250  0.07733677  0.93293430  1
  O2-  O195  1  0.04998863  0.58907013  0.26934876  1
  O2-  O196  1  0.03728726  0.58293071  0.59511170  1
  O2-  O197  1  0.04499058  0.58317182  0.93253699  1
  O2-  O198  1  0.53381388  0.08402349  0.26473484  1
  O2-  O199  1  0.53773214  0.08645726  0.59727696  1
  O2-  O200  1  0.53671355  0.08612868  0.93123555  1
  O2-  O201  1  0.54013072  0.58672862  0.27058778  1
  O2-  O202  1  0.54842654  0.58052162  0.60706301  1
  O2-  O203  1  0.54371948  0.58255456  0.94104880  1
  O2-  O204  1  0.17231013  0.20344015  0.26551067  1
  O2-  O205  1  0.16579414  0.20456159  0.60900250  1
  O2-  O206  1  0.17512632  0.20079452  0.93576367  1
  O2-  O207  1  0.16209616  0.71583717  0.26973703  1
  O2-  O208  1  0.16421069  0.71231647  0.59539792  1
  O2-  O209  1  0.16342868  0.71574583  0.93140835  1
  O2-  O210  1  0.66561259  0.20826808  0.26682453  1
  O2-  O211  1  0.66825183  0.21347920  0.59920837  1
  O2-  O212  1  0.66644651  0.20930922  0.93224580  1
  O2-  O213  1  0.66346890  0.70257234  0.26928939  1
  O2-  O214  1  0.66946835  0.69926900  0.60685795  1
  O2-  O215  1  0.66750621  0.69674394  0.94118977  1
  O2-  O216  1  0.08602783  0.45784505  0.06330801  1
  O2-  O217  1  0.08347489  0.45481450  0.39087021  1
  O2-  O218  1  0.08121892  0.45982560  0.73398573  1
  O2-  O219  1  0.08680524  0.95276163  0.06385687  1
  O2-  O220  1  0.08499399  0.94487054  0.39218110  1
  O2-  O221  1  0.08051869  0.95094110  0.73675964  1
  O2-  O222  1  0.58304062  0.45805229  0.07180658  1
  O2-  O223  1  0.58613610  0.46066491  0.40199276  1
  O2-  O224  1  0.57942807  0.45004699  0.73606131  1
  O2-  O225  1  0.58513059  0.95987621  0.06136377  1
  O2-  O226  1  0.57440813  0.95203963  0.39547425  1
  O2-  O227  1  0.58007710  0.96018714  0.73362307  1
  O2-  O228  1  0.20647402  0.33633636  0.06545126  1
  O2-  O229  1  0.20133032  0.33382812  0.39142516  1
  O2-  O230  1  0.20470486  0.33179079  0.73752608  1
  O2-  O231  1  0.21270946  0.83859152  0.06493947  1
  O2-  O232  1  0.21609149  0.84170241  0.39628104  1
  O2-  O233  1  0.21075956  0.83160129  0.73274201  1
  O2-  O234  1  0.71449020  0.33113410  0.06756430  1
  O2-  O235  1  0.71111039  0.33231724  0.40025164  1
  O2-  O236  1  0.71457838  0.33331228  0.73626324  1
  O2-  O237  1  0.69898966  0.83458067  0.06061378  1
  O2-  O238  1  0.70325108  0.82862393  0.39861072  1
  O2-  O239  1  0.70241280  0.83085780  0.73607548  1
  O2-  O240  1  0.45398404  0.42064863  0.27337995  1
  O2-  O241  1  0.44825281  0.42026434  0.60767835  1
  O2-  O242  1  0.45039062  0.42002175  0.94129371  1
  O2-  O243  1  0.45288561  0.91063004  0.26687835  1
  O2-  O244  1  0.46083701  0.91558866  0.59497540  1
  O2-  O245  1  0.45961477  0.91566468  0.93138377  1
  O2-  O246  1  0.95524600  0.41961913  0.26193776  1
  O2-  O247  1  0.95939742  0.40990306  0.60221312  1
  O2-  O248  1  0.95534492  0.41917176  0.93047864  1
  O2-  O249  1  0.95620298  0.90973594  0.26867586  1
  O2-  O250  1  0.95537352  0.91752968  0.60288580  1
  O2-  O251  1  0.95380558  0.91457419  0.93859198  1
  O2-  O252  1  0.33521141  0.30215867  0.26985429  1
  O2-  O253  1  0.33185370  0.29777520  0.60417492  1
  O2-  O254  1  0.33390498  0.29931152  0.93944087  1
  O2-  O255  1  0.33798566  0.78752089  0.26705256  1
  O2-  O256  1  0.33463511  0.78847199  0.59509115  1
  O2-  O257  1  0.33527702  0.78852304  0.93176945  1
  O2-  O258  1  0.83205502  0.29013469  0.26393133  1
  O2-  O259  1  0.83951048  0.29011035  0.60393129  1
  O2-  O260  1  0.83324891  0.28771116  0.92818595  1
  O2-  O261  1  0.83534786  0.79242484  0.26969968  1
  O2-  O262  1  0.83110668  0.80064673  0.60369310  1
  O2-  O263  1  0.82983214  0.80182857  0.93972913  1
  O2-  O264  1  0.41288700  0.03695939  0.06539920  1
  O2-  O265  1  0.40768552  0.03585168  0.39454938  1
  O2-  O266  1  0.41836476  0.03855746  0.73349651  1
  O2-  O267  1  0.41041199  0.54758646  0.06465849  1
  O2-  O268  1  0.41572593  0.54652635  0.40236372  1
  O2-  O269  1  0.41880967  0.54853830  0.73839274  1
  O2-  O270  1  0.91334804  0.04108383  0.06419443  1
  O2-  O271  1  0.91917196  0.03900630  0.39919965  1
  O2-  O272  1  0.91867983  0.04324223  0.73933365  1
  O2-  O273  1  0.91835250  0.54748728  0.06222898  1
  O2-  O274  1  0.92082604  0.55165373  0.39014044  1
  O2-  O275  1  0.91781984  0.53778589  0.73358413  1
  O2-  O276  1  0.30003412  0.16430315  0.06544984  1
  O2-  O277  1  0.30218687  0.16686492  0.39030534  1
  O2-  O278  1  0.29879903  0.17002294  0.73618057  1
  O2-  O279  1  0.28652682  0.66394158  0.06281879  1
  O2-  O280  1  0.28590660  0.66783069  0.40063201  1
  O2-  O281  1  0.28861697  0.66980947  0.73415308  1
  O2-  O282  1  0.79100908  0.16023148  0.06187965  1
  O2-  O283  1  0.79575123  0.16888640  0.39905386  1
  O2-  O284  1  0.79194584  0.16896685  0.73770969  1
  O2-  O285  1  0.79986322  0.66776360  0.06393121  1
  O2-  O286  1  0.79758652  0.66562795  0.39577641  1
  O2-  O287  1  0.80413350  0.67180217  0.73253028  1
