# generated using pymatgen
data_Ca2Al2SiO7
_symmetry_space_group_name_H-M   'P 1'
_cell_length_a   15.46369184
_cell_length_b   15.46210707
_cell_length_c   15.28732871
_cell_angle_alpha   90.00761364
_cell_angle_beta   89.99091800
_cell_angle_gamma   90.01000705
_symmetry_Int_Tables_number   1
_chemical_formula_structural   Ca2Al2SiO7
_chemical_formula_sum   'Ca48 Al48 Si24 O168'
_cell_volume   3655.21940697
_cell_formula_units_Z   24
loop_
 _symmetry_equiv_pos_site_id
 _symmetry_equiv_pos_as_xyz
  1  'x, y, z'
loop_
 _atom_type_symbol
 _atom_type_oxidation_number
  Ca2+  2.0
  Al0+  0.0
  Si0+  0.0
  O2-  -2.0
loop_
 _atom_site_type_symbol
 _atom_site_label
 _atom_site_symmetry_multiplicity
 _atom_site_fract_x
 _atom_site_fract_y
 _atom_site_fract_z
 _atom_site_occupancy
  Ca2+  Ca0  1  0.17108651  0.07997396  0.16794641  1
  Ca2+  Ca1  1  0.17681741  0.07524267  0.51084890  1
  Ca2+  Ca2  1  0.17087309  0.07145726  0.83913126  1
  Ca2+  Ca3  1  0.16463727  0.57758521  0.17061962  1
  Ca2+  Ca4  1  0.16483951  0.58151346  0.49990599  1
  Ca2+  Ca5  1  0.16242965  0.58834793  0.83744879  1
  Ca2+  Ca6  1  0.67665980  0.08916679  0.17145524  1
  Ca2+  Ca7  1  0.67577917  0.08973283  0.50056024  1
  Ca2+  Ca8  1  0.67761378  0.08154516  0.83588913  1
  Ca2+  Ca9  1  0.67333652  0.57505230  0.17464589  1
  Ca2+  Ca10  1  0.66479162  0.57679760  0.49994152  1
  Ca2+  Ca11  1  0.67738441  0.57212325  0.84181076  1
  Ca2+  Ca12  1  0.07755086  0.33350365  0.15959017  1
  Ca2+  Ca13  1  0.07675740  0.33379887  0.49619285  1
  Ca2+  Ca14  1  0.06527582  0.33225170  0.82880415  1
  Ca2+  Ca15  1  0.07877282  0.82779784  0.16059183  1
  Ca2+  Ca16  1  0.07716907  0.83348126  0.50015526  1
  Ca2+  Ca17  1  0.08631429  0.82682727  0.82705319  1
  Ca2+  Ca18  1  0.58210353  0.33563883  0.16371544  1
  Ca2+  Ca19  1  0.58193196  0.33200215  0.49019943  1
  Ca2+  Ca20  1  0.58291162  0.33807311  0.83205025  1
  Ca2+  Ca21  1  0.58218486  0.82877181  0.16905146  1
  Ca2+  Ca22  1  0.57646426  0.82910665  0.48618610  1
  Ca2+  Ca23  1  0.58359164  0.83206610  0.83018720  1
  Ca2+  Ca24  1  0.32845414  0.40773505  0.17387354  1
  Ca2+  Ca25  1  0.32684831  0.40931401  0.49805109  1
  Ca2+  Ca26  1  0.33099790  0.41682229  0.83994393  1
  Ca2+  Ca27  1  0.32927651  0.91545001  0.16815233  1
  Ca2+  Ca28  1  0.33094157  0.91909157  0.51098688  1
  Ca2+  Ca29  1  0.32316965  0.92605063  0.84035264  1
  Ca2+  Ca30  1  0.82847993  0.42593086  0.17163917  1
  Ca2+  Ca31  1  0.82119014  0.41910742  0.50404152  1
  Ca2+  Ca32  1  0.82609574  0.41362594  0.84220298  1
  Ca2+  Ca33  1  0.83985491  0.92762139  0.17403298  1
  Ca2+  Ca34  1  0.84314457  0.92524450  0.50294038  1
  Ca2+  Ca35  1  0.84581517  0.92722760  0.83406440  1
  Ca2+  Ca36  1  0.42164103  0.17593077  0.16134024  1
  Ca2+  Ca37  1  0.42567470  0.16775523  0.48849596  1
  Ca2+  Ca38  1  0.41187791  0.16678232  0.83285648  1
  Ca2+  Ca39  1  0.42360183  0.66599164  0.16905111  1
  Ca2+  Ca40  1  0.42388336  0.67424847  0.48939683  1
  Ca2+  Ca41  1  0.41925954  0.66732129  0.82954566  1
  Ca2+  Ca42  1  0.91118893  0.17118809  0.16045390  1
  Ca2+  Ca43  1  0.90957339  0.16969865  0.49780794  1
  Ca2+  Ca44  1  0.90375401  0.17468925  0.83041860  1
  Ca2+  Ca45  1  0.91510375  0.66637145  0.16050488  1
  Ca2+  Ca46  1  0.91434119  0.67891917  0.49391271  1
  Ca2+  Ca47  1  0.92745492  0.66857992  0.82599854  1
  Al0+  Al48  1  0.00189632  -0.00087840  0.00861989  1
  Al0+  Al49  1  0.00204369  0.00015083  0.33424608  1
  Al0+  Al50  1  0.00257174  0.00069279  0.67252628  1
  Al0+  Al51  1  -0.00014856  0.49980724  -0.00588316  1
  Al0+  Al52  1  0.00002034  0.50038141  0.34302324  1
  Al0+  Al53  1  -0.00000707  0.49936980  0.65703630  1
  Al0+  Al54  1  0.49968637  0.00081538  0.00213421  1
  Al0+  Al55  1  0.50106722  0.00179770  0.32276531  1
  Al0+  Al56  1  0.50246071  0.00174134  0.67043667  1
  Al0+  Al57  1  0.49946354  0.49982818  -0.00233202  1
  Al0+  Al58  1  0.49753262  0.50150855  0.32980421  1
  Al0+  Al59  1  0.49902984  0.49857952  0.66995047  1
  Al0+  Al60  1  0.25074447  0.24906087  -0.00268621  1
  Al0+  Al61  1  0.24863795  0.24789200  0.33626338  1
  Al0+  Al62  1  0.24896867  0.25259011  0.67111019  1
  Al0+  Al63  1  0.24994589  0.74968664  0.00062774  1
  Al0+  Al64  1  0.24750787  0.74906741  0.33066769  1
  Al0+  Al65  1  0.25156564  0.74831819  0.66547178  1
  Al0+  Al66  1  0.74669176  0.24823135  0.00276433  1
  Al0+  Al67  1  0.75073556  0.25136426  0.33665260  1
  Al0+  Al68  1  0.74684761  0.25041488  0.66970250  1
  Al0+  Al69  1  0.75028267  0.75103113  -0.00048544  1
  Al0+  Al70  1  0.75036282  0.75286599  0.32737174  1
  Al0+  Al71  1  0.75079974  0.74830947  0.66287185  1
  Al0+  Al72  1  0.32463040  0.07329572  0.68124981  1
  Al0+  Al73  1  0.67751477  0.43091609  0.34864992  1
  Al0+  Al74  1  0.92571554  0.31856909  0.65104337  1
  Al0+  Al75  1  0.17915400  0.42676184  0.34685134  1
  Al0+  Al76  1  0.32148159  0.07279671  0.01858121  1
  Al0+  Al77  1  0.18070746  0.92726219  0.68193387  1
  Al0+  Al78  1  0.42566622  0.82277546  0.31787646  1
  Al0+  Al79  1  0.42677505  0.31988637  0.31995901  1
  Al0+  Al80  1  0.07020906  0.67944973  0.98743173  1
  Al0+  Al81  1  0.57447479  0.18083952  0.31664259  1
  Al0+  Al82  1  0.57201872  0.67854410  0.31744798  1
  Al0+  Al83  1  0.81972975  0.06879967  0.01431948  1
  Al0+  Al84  1  0.82170278  0.57520095  0.35030826  1
  Al0+  Al85  1  0.82023749  0.06945002  0.67981219  1
  Al0+  Al86  1  0.18025729  0.92686418  0.01866559  1
  Al0+  Al87  1  0.93064556  0.82268418  0.31821835  1
  Al0+  Al88  1  0.92946188  0.82285015  0.65192317  1
  Al0+  Al89  1  0.82389951  0.57110155  0.01256038  1
  Al0+  Al90  1  0.07425154  0.67842663  0.64802951  1
  Al0+  Al91  1  0.92799565  0.31830152  0.98876680  1
  Al0+  Al92  1  0.82179402  0.07055824  0.34810847  1
  Al0+  Al93  1  0.42894749  0.32097777  0.98389135  1
  Al0+  Al94  1  0.67876683  0.43066751  0.68176333  1
  Al0+  Al95  1  0.67748632  0.42947656  0.01631246  1
  Si0+  Si96  1  0.57179488  0.67902109  0.98274824  1
  Si0+  Si97  1  0.07088973  0.17903791  0.31983745  1
  Si0+  Si98  1  0.07362883  0.17978983  0.65104286  1
  Si0+  Si99  1  0.06978076  0.67637890  0.31584046  1
  Si0+  Si100  1  0.32165848  0.57138139  0.01426602  1
  Si0+  Si101  1  0.32024985  0.56870966  0.68092445  1
  Si0+  Si102  1  0.32006647  0.57326381  0.34949502  1
  Si0+  Si103  1  0.57006676  0.67658383  0.65366885  1
  Si0+  Si104  1  0.17932311  0.42973488  0.01115269  1
  Si0+  Si105  1  0.43264014  0.82111328  0.65524461  1
  Si0+  Si106  1  0.93027635  0.32160901  0.31991532  1
  Si0+  Si107  1  0.18031098  0.92789748  0.34949811  1
  Si0+  Si108  1  0.67668550  0.92979047  0.34789796  1
  Si0+  Si109  1  0.92770652  0.82408094  0.98393789  1
  Si0+  Si110  1  0.56931226  0.17950686  0.65274719  1
  Si0+  Si111  1  0.17618390  0.42923107  0.68354011  1
  Si0+  Si112  1  0.67593323  0.92596492  0.01752676  1
  Si0+  Si113  1  0.57124674  0.17669774  0.97974579  1
  Si0+  Si114  1  0.32142974  0.06951243  0.34707037  1
  Si0+  Si115  1  0.82305338  0.57303037  0.68239899  1
  Si0+  Si116  1  0.42959439  0.82046764  0.98351492  1
  Si0+  Si117  1  0.67751788  0.92462386  0.68107159  1
  Si0+  Si118  1  0.42750007  0.32222574  0.65211011  1
  Si0+  Si119  1  0.07232665  0.17630075  0.98369422  1
  O2-  O120  1  0.25081290  0.00013243  0.06925397  1
  O2-  O121  1  0.25714076  -0.00681985  0.39089898  1
  O2-  O122  1  0.25198209  0.00137502  0.72991059  1
  O2-  O123  1  0.25203951  0.49837211  0.05473497  1
  O2-  O124  1  0.25507563  0.50089677  0.39368473  1
  O2-  O125  1  0.24582519  0.50221360  0.72465807  1
  O2-  O126  1  0.74726501  -0.00791297  0.06070932  1
  O2-  O127  1  0.74575402  -0.00328004  0.39418031  1
  O2-  O128  1  0.75102415  -0.01163143  0.72490022  1
  O2-  O129  1  0.75113391  0.50077730  0.06363537  1
  O2-  O130  1  0.74778026  0.50431228  0.39966231  1
  O2-  O131  1  0.75680775  0.50238435  0.72710426  1
  O2-  O132  1  0.00078145  0.25045891  0.27715717  1
  O2-  O133  1  0.00143150  0.24374858  0.60479415  1
  O2-  O134  1  -0.00030404  0.24099605  0.93977320  1
  O2-  O135  1  -0.00059724  0.74248846  0.27144794  1
  O2-  O136  1  0.00016903  0.74972164  0.60074096  1
  O2-  O137  1  -0.00547533  0.75320691  0.94086896  1
  O2-  O138  1  0.50280964  0.25408368  0.26798032  1
  O2-  O139  1  0.49359959  0.24642098  0.61187928  1
  O2-  O140  1  0.50254266  0.24593167  0.93555920  1
  O2-  O141  1  0.49869645  0.75102086  0.26872057  1
  O2-  O142  1  0.50576127  0.75364765  0.61161481  1
  O2-  O143  1  0.50244878  0.75190317  0.93948225  1
  O2-  O144  1  0.07390431  0.18010402  0.08970081  1
  O2-  O145  1  0.07219977  0.17910525  0.42494145  1
  O2-  O146  1  0.07620283  0.18438384  0.75636868  1
  O2-  O147  1  0.07155846  0.67823661  0.10031805  1
  O2-  O148  1  0.07299702  0.67945534  0.42107905  1
  O2-  O149  1  0.07452861  0.67912772  0.76185836  1
  O2-  O150  1  0.57169323  0.17680358  0.08481561  1
  O2-  O151  1  0.57150646  0.17922030  0.43114512  1
  O2-  O152  1  0.57061381  0.17899297  0.75759051  1
  O2-  O153  1  0.56985477  0.67914322  0.08709948  1
  O2-  O154  1  0.56804358  0.68104231  0.43208871  1
  O2-  O155  1  0.56634896  0.67667996  0.75899657  1
  O2-  O156  1  0.17787512  0.42718903  0.23327199  1
  O2-  O157  1  0.17969489  0.42556493  0.57872115  1
  O2-  O158  1  0.18007283  0.43202354  0.90594890  1
  O2-  O159  1  0.17946746  0.92975620  0.24480932  1
  O2-  O160  1  0.18478042  0.92839982  0.56769135  1
  O2-  O161  1  0.18292676  0.92565468  0.90518317  1
  O2-  O162  1  0.68057936  0.43027029  0.23552491  1
  O2-  O163  1  0.67457914  0.43254263  0.56914349  1
  O2-  O164  1  0.67798509  0.43193751  0.90213958  1
  O2-  O165  1  0.67765807  0.93108248  0.24241644  1
  O2-  O166  1  0.66983744  0.92681042  0.57634361  1
  O2-  O167  1  0.67374381  0.92631700  0.91140695  1
  O2-  O168  1  0.42714317  0.32126377  0.09631664  1
  O2-  O169  1  0.42430005  0.31441237  0.43416090  1
  O2-  O170  1  0.42899731  0.32556493  0.75700139  1
  O2-  O171  1  0.42943813  0.81760231  0.08813101  1
  O2-  O172  1  0.42640152  0.82202686  0.43259171  1
  O2-  O173  1  0.43354680  0.81838354  0.76041100  1
  O2-  O174  1  0.93250057  0.31940142  0.10202023  1
  O2-  O175  1  0.93116295  0.31879379  0.42510034  1
  O2-  O176  1  0.92620843  0.31757549  0.76446307  1
  O2-  O177  1  0.92914249  0.82422502  0.08948455  1
  O2-  O178  1  0.93582745  0.82625905  0.43106846  1
  O2-  O179  1  0.92927951  0.82066298  0.76558720  1
  O2-  O180  1  0.31597097  0.07228002  0.24274987  1
  O2-  O181  1  0.32617112  0.07013917  0.56695837  1
  O2-  O182  1  0.31943073  0.07011039  0.90479470  1
  O2-  O183  1  0.31655431  0.57584760  0.24383108  1
  O2-  O184  1  0.32370408  0.56685761  0.57633490  1
  O2-  O185  1  0.32186612  0.57195150  0.90859610  1
  O2-  O186  1  0.82303299  0.07018195  0.23517610  1
  O2-  O187  1  0.81687706  0.07109002  0.56695501  1
  O2-  O188  1  0.81771043  0.06850520  0.90090031  1
  O2-  O189  1  0.82462051  0.57020654  0.23668956  1
  O2-  O190  1  0.81818143  0.57497101  0.57727143  1
  O2-  O191  1  0.82272808  0.57011326  0.89860841  1
  O2-  O192  1  0.04342341  0.08817355  0.27105405  1
  O2-  O193  1  0.05362953  0.08377185  0.60858342  1
  O2-  O194  1  0.04979178  0.08033349  0.94180874  1
  O2-  O195  1  0.04731007  0.58027678  0.27362166  1
  O2-  O196  1  0.05066848  0.57891600  0.59571802  1
  O2-  O197  1  0.04236578  0.58364365  0.92963491  1
  O2-  O198  1  0.54779718  0.08359571  0.26134143  1
  O2-  O199  1  0.54627478  0.08618526  0.60492024  1
  O2-  O200  1  0.54566227  0.08227680  0.93389049  1
  O2-  O201  1  0.54031701  0.58241210  0.26211409  1
  O2-  O202  1  0.53347593  0.58802183  0.60573002  1
  O2-  O203  1  0.53990253  0.58924172  0.93361266  1
  O2-  O204  1  0.16175448  0.20726106  0.27126035  1
  O2-  O205  1  0.16610596  0.20995376  0.60329251  1
  O2-  O206  1  0.16391354  0.20450776  0.93572851  1
  O2-  O207  1  0.16278660  0.70288619  0.26882308  1
  O2-  O208  1  0.17373444  0.70620175  0.59536624  1
  O2-  O209  1  0.16790661  0.70963165  0.93325049  1
  O2-  O210  1  0.67338203  0.20945037  0.26510522  1
  O2-  O211  1  0.65852477  0.21202243  0.60400305  1
  O2-  O212  1  0.66446032  0.20311678  0.93320136  1
  O2-  O213  1  0.66844314  0.70795587  0.26211906  1
  O2-  O214  1  0.66356687  0.69620149  0.60749036  1
  O2-  O215  1  0.66370839  0.70635838  0.93420213  1
  O2-  O216  1  0.08874224  0.45920033  0.05905400  1
  O2-  O217  1  0.08525766  0.45760675  0.40544326  1
  O2-  O218  1  0.08285860  0.45588233  0.72825143  1
  O2-  O219  1  0.08258929  0.95372760  0.07313112  1
  O2-  O220  1  0.09192544  0.96312817  0.39818041  1
  O2-  O221  1  0.08363765  0.95463687  0.73719076  1
  O2-  O222  1  0.57876825  0.46035840  0.06639425  1
  O2-  O223  1  0.57638646  0.45687810  0.39873584  1
  O2-  O224  1  0.58280051  0.46393297  0.73674717  1
  O2-  O225  1  0.58310594  0.95228996  0.06379463  1
  O2-  O226  1  0.58166976  0.95524957  0.39244605  1
  O2-  O227  1  0.58733774  0.95529132  0.73269955  1
  O2-  O228  1  0.20467233  0.33718940  0.05756304  1
  O2-  O229  1  0.21001242  0.33103536  0.40423928  1
  O2-  O230  1  0.20545246  0.33948627  0.73390390  1
  O2-  O231  1  0.21251385  0.82929967  0.07154261  1
  O2-  O232  1  0.20235582  0.83383885  0.39488882  1
  O2-  O233  1  0.21245540  0.82905300  0.73361917  1
  O2-  O234  1  0.70136387  0.32966648  0.06596772  1
  O2-  O235  1  0.70882263  0.33364844  0.40272967  1
  O2-  O236  1  0.70697807  0.33383399  0.73585531  1
  O2-  O237  1  0.69774845  0.83125921  0.06216333  1
  O2-  O238  1  0.69908169  0.83518539  0.39242359  1
  O2-  O239  1  0.69708413  0.82879394  0.72606876  1
  O2-  O240  1  0.44296968  0.42186971  0.27088962  1
  O2-  O241  1  0.45904615  0.41269454  0.60406586  1
  O2-  O242  1  0.45776437  0.41871941  0.92908065  1
  O2-  O243  1  0.45287380  0.91948995  0.26210449  1
  O2-  O244  1  0.45766728  0.91421248  0.60905028  1
  O2-  O245  1  0.45606179  0.91346684  0.93744639  1
  O2-  O246  1  0.96012876  0.41399917  0.27560061  1
  O2-  O247  1  0.95681023  0.41409346  0.59605405  1
  O2-  O248  1  0.96206189  0.41218052  0.93126336  1
  O2-  O249  1  0.96808902  0.91749450  0.26414241  1
  O2-  O250  1  0.95957963  0.92259794  0.60154764  1
  O2-  O251  1  0.95716956  0.91772670  0.93979422  1
  O2-  O252  1  0.32916106  0.28625936  0.26734490  1
  O2-  O253  1  0.33289406  0.30035220  0.60756307  1
  O2-  O254  1  0.33161745  0.29141339  0.92886693  1
  O2-  O255  1  0.32811046  0.79159921  0.26473324  1
  O2-  O256  1  0.34251301  0.79058719  0.60699428  1
  O2-  O257  1  0.33948259  0.78830599  0.93561113  1
  O2-  O258  1  0.83900956  0.29372708  0.27332647  1
  O2-  O259  1  0.82900877  0.28618007  0.59843393  1
  O2-  O260  1  0.83055675  0.28779780  0.93561889  1
  O2-  O261  1  0.83221064  0.80153042  0.26460276  1
  O2-  O262  1  0.82936239  0.79731334  0.59862556  1
  O2-  O263  1  0.83214939  0.80461894  0.93872294  1
  O2-  O264  1  0.42093114  0.04537667  0.06868021  1
  O2-  O265  1  0.41679818  0.04742011  0.38957131  1
  O2-  O266  1  0.42227629  0.04497402  0.73595990  1
  O2-  O267  1  0.41365200  0.54550844  0.06068958  1
  O2-  O268  1  0.41495600  0.55340740  0.39444557  1
  O2-  O269  1  0.40943022  0.53759826  0.73249300  1
  O2-  O270  1  0.91712599  0.04366866  0.06911380  1
  O2-  O271  1  0.91897538  0.03927880  0.40153950  1
  O2-  O272  1  0.91831531  0.04676375  0.73458863  1
  O2-  O273  1  0.92201354  0.54120014  0.06511797  1
  O2-  O274  1  0.91880154  0.54654685  0.40550760  1
  O2-  O275  1  0.91924712  0.54865335  0.72275394  1
  O2-  O276  1  0.29147956  0.17184119  0.06923166  1
  O2-  O277  1  0.28820031  0.15784788  0.39801614  1
  O2-  O278  1  0.29687097  0.17246390  0.73281225  1
  O2-  O279  1  0.29282556  0.66152020  0.06276983  1
  O2-  O280  1  0.28995081  0.66517041  0.39806456  1
  O2-  O281  1  0.29723064  0.66166021  0.72882305  1
  O2-  O282  1  0.78680723  0.16423417  0.06852715  1
  O2-  O283  1  0.79124424  0.16690903  0.40244418  1
  O2-  O284  1  0.78138565  0.16289793  0.73457420  1
  O2-  O285  1  0.79758269  0.67146204  0.06239290  1
  O2-  O286  1  0.79452922  0.67603089  0.39880088  1
  O2-  O287  1  0.79628439  0.66615800  0.72959334  1
