# generated using pymatgen
data_Ca2Al2SiO7
_symmetry_space_group_name_H-M   'P 1'
_cell_length_a   15.46955146
_cell_length_b   15.47182844
_cell_length_c   15.29388719
_cell_angle_alpha   89.99425369
_cell_angle_beta   89.99648834
_cell_angle_gamma   89.98716741
_symmetry_Int_Tables_number   1
_chemical_formula_structural   Ca2Al2SiO7
_chemical_formula_sum   'Ca48 Al48 Si24 O168'
_cell_volume   3660.47319683
_cell_formula_units_Z   24
loop_
 _symmetry_equiv_pos_site_id
 _symmetry_equiv_pos_as_xyz
  1  'x, y, z'
loop_
 _atom_type_symbol
 _atom_type_oxidation_number
  Ca2+  2.0
  Al0+  0.0
  Si0+  0.0
  O2-  -2.0
loop_
 _atom_site_type_symbol
 _atom_site_label
 _atom_site_symmetry_multiplicity
 _atom_site_fract_x
 _atom_site_fract_y
 _atom_site_fract_z
 _atom_site_occupancy
  Ca2+  Ca0  1  0.16650749  0.07642307  0.16632882  1
  Ca2+  Ca1  1  0.17084549  0.07064895  0.51023488  1
  Ca2+  Ca2  1  0.16801091  0.07791037  0.83860670  1
  Ca2+  Ca3  1  0.17413391  0.58293710  0.17662809  1
  Ca2+  Ca4  1  0.17148291  0.59003318  0.50677577  1
  Ca2+  Ca5  1  0.16345093  0.58435408  0.83213286  1
  Ca2+  Ca6  1  0.67605114  0.07846065  0.17510609  1
  Ca2+  Ca7  1  0.67571329  0.07943004  0.51242984  1
  Ca2+  Ca8  1  0.66826005  0.07959567  0.82652693  1
  Ca2+  Ca9  1  0.66082614  0.58594340  0.17087670  1
  Ca2+  Ca10  1  0.66996271  0.58228159  0.51140531  1
  Ca2+  Ca11  1  0.66646816  0.58547420  0.83219480  1
  Ca2+  Ca12  1  0.07672801  0.32670534  0.16078724  1
  Ca2+  Ca13  1  0.07049832  0.32469155  0.50009259  1
  Ca2+  Ca14  1  0.08154045  0.31868316  0.82266095  1
  Ca2+  Ca15  1  0.07475553  0.84869296  0.16664957  1
  Ca2+  Ca16  1  0.08421325  0.83562761  0.49806397  1
  Ca2+  Ca17  1  0.08341910  0.83566831  0.82895817  1
  Ca2+  Ca18  1  0.58085175  0.33017421  0.16472501  1
  Ca2+  Ca19  1  0.59310955  0.32754143  0.50456233  1
  Ca2+  Ca20  1  0.58378045  0.32725809  0.82333185  1
  Ca2+  Ca21  1  0.57859962  0.82176153  0.16273937  1
  Ca2+  Ca22  1  0.57451224  0.83401930  0.49683433  1
  Ca2+  Ca23  1  0.57950526  0.82785438  0.82048916  1
  Ca2+  Ca24  1  0.33032619  0.42386126  0.17398845  1
  Ca2+  Ca25  1  0.33472268  0.42651393  0.50213385  1
  Ca2+  Ca26  1  0.33293936  0.41832230  0.83615576  1
  Ca2+  Ca27  1  0.32090085  0.91272925  0.17232808  1
  Ca2+  Ca28  1  0.32767853  0.91174189  0.50920937  1
  Ca2+  Ca29  1  0.32505026  0.92275095  0.83307179  1
  Ca2+  Ca30  1  0.83228727  0.41816241  0.17392499  1
  Ca2+  Ca31  1  0.83345534  0.42052530  0.51306575  1
  Ca2+  Ca32  1  0.83497040  0.41992088  0.82500270  1
  Ca2+  Ca33  1  0.83798848  0.91872543  0.17423013  1
  Ca2+  Ca34  1  0.83167317  0.92511235  0.50666634  1
  Ca2+  Ca35  1  0.83189369  0.91600063  0.83260671  1
  Ca2+  Ca36  1  0.41366718  0.16582652  0.16111994  1
  Ca2+  Ca37  1  0.42417326  0.15607597  0.50398174  1
  Ca2+  Ca38  1  0.41557673  0.16230842  0.82234247  1
  Ca2+  Ca39  1  0.42115384  0.66888990  0.16865247  1
  Ca2+  Ca40  1  0.42504984  0.67779942  0.49557486  1
  Ca2+  Ca41  1  0.42645203  0.67561221  0.82294170  1
  Ca2+  Ca42  1  0.92107326  0.16658531  0.16420739  1
  Ca2+  Ca43  1  0.90813223  0.17194634  0.49735954  1
  Ca2+  Ca44  1  0.92721142  0.16746543  0.82210504  1
  Ca2+  Ca45  1  0.91639436  0.68324804  0.16229289  1
  Ca2+  Ca46  1  0.91959793  0.67104567  0.49908796  1
  Ca2+  Ca47  1  0.92189059  0.67239683  0.82560230  1
  Al0+  Al48  1  -0.00088288  0.00213869  -0.00508184  1
  Al0+  Al49  1  0.00134711  0.00123679  0.33872635  1
  Al0+  Al50  1  0.00180825  -0.00061156  0.67015322  1
  Al0+  Al51  1  -0.00312098  0.50175491  0.00277086  1
  Al0+  Al52  1  -0.00125729  0.49723169  0.32870611  1
  Al0+  Al53  1  0.00108917  0.50030027  0.66375816  1
  Al0+  Al54  1  0.50165593  -0.00012235  0.00474672  1
  Al0+  Al55  1  0.49946509  -0.00133322  0.32472153  1
  Al0+  Al56  1  0.49984515  0.00105394  0.66541579  1
  Al0+  Al57  1  0.50077660  0.49782282  -0.00230777  1
  Al0+  Al58  1  0.49904776  0.49713219  0.33462699  1
  Al0+  Al59  1  0.50036909  0.50022648  0.66847364  1
  Al0+  Al60  1  0.24906708  0.25144643  0.00131808  1
  Al0+  Al61  1  0.25043411  0.24905040  0.33386219  1
  Al0+  Al62  1  0.24917035  0.25227381  0.66157808  1
  Al0+  Al63  1  0.24978487  0.74949539  0.00562289  1
  Al0+  Al64  1  0.25184621  0.74842462  0.33775711  1
  Al0+  Al65  1  0.25061679  0.75024058  0.66591863  1
  Al0+  Al66  1  0.74798312  0.25234387  0.00152960  1
  Al0+  Al67  1  0.75077570  0.25051505  0.33001171  1
  Al0+  Al68  1  0.74853367  0.25205594  0.66928507  1
  Al0+  Al69  1  0.75084197  0.74927871  -0.00658182  1
  Al0+  Al70  1  0.75069460  0.74854619  0.32637125  1
  Al0+  Al71  1  0.75233610  0.74902030  0.67104062  1
  Al0+  Al72  1  0.93104720  0.82167406  0.98537162  1
  Al0+  Al73  1  0.81953606  0.07063724  0.34574124  1
  Al0+  Al74  1  0.93133758  0.82141740  0.32226616  1
  Al0+  Al75  1  0.92966544  0.31850772  0.65297288  1
  Al0+  Al76  1  0.56856897  0.67843386  0.98395551  1
  Al0+  Al77  1  0.07082596  0.68010738  0.65425541  1
  Al0+  Al78  1  0.07325238  0.17532371  0.64928301  1
  Al0+  Al79  1  0.67884171  0.92822001  0.67977994  1
  Al0+  Al80  1  0.43055219  0.82196412  0.65320848  1
  Al0+  Al81  1  0.06952437  0.18246100  0.98647047  1
  Al0+  Al82  1  0.82171503  0.07239593  0.68253975  1
  Al0+  Al83  1  0.32230477  0.07290205  0.01592980  1
  Al0+  Al84  1  0.82421333  0.57202355  0.68177935  1
  Al0+  Al85  1  0.17918629  0.92688284  0.68313200  1
  Al0+  Al86  1  0.32046522  0.07267428  0.67906253  1
  Al0+  Al87  1  0.42674419  0.82178257  0.31548947  1
  Al0+  Al88  1  0.57408861  0.67791225  0.65185466  1
  Al0+  Al89  1  0.67781727  0.43052926  0.68286961  1
  Al0+  Al90  1  0.18073631  0.93046050  0.34858301  1
  Al0+  Al91  1  0.92800712  0.32048612  0.31742364  1
  Al0+  Al92  1  0.56934300  0.18039320  0.65444094  1
  Al0+  Al93  1  0.57088933  0.67691973  0.31893586  1
  Al0+  Al94  1  0.17775393  0.92915829  0.01705091  1
  Al0+  Al95  1  0.32037019  0.56888307  0.34870869  1
  Si0+  Si96  1  0.42970112  0.31903650  0.98661869  1
  Si0+  Si97  1  0.81860473  0.07181444  0.01430136  1
  Si0+  Si98  1  0.82097521  0.57120521  0.34606830  1
  Si0+  Si99  1  0.67997626  0.92630077  0.01600086  1
  Si0+  Si100  1  0.57164124  0.17912057  0.31730936  1
  Si0+  Si101  1  0.32226171  0.56847050  0.01431557  1
  Si0+  Si102  1  0.67753620  0.92617723  0.34643183  1
  Si0+  Si103  1  0.32487178  0.07372380  0.35012999  1
  Si0+  Si104  1  0.42618060  0.82254168  0.98354361  1
  Si0+  Si105  1  0.67921416  0.42854074  0.34741620  1
  Si0+  Si106  1  0.42588239  0.32461628  0.64877651  1
  Si0+  Si107  1  0.07261899  0.17868966  0.31601138  1
  Si0+  Si108  1  0.17585565  0.42637951  0.35078884  1
  Si0+  Si109  1  0.07309395  0.67512720  0.98606828  1
  Si0+  Si110  1  0.07248138  0.67693121  0.31764752  1
  Si0+  Si111  1  0.32106723  0.57079095  0.68301569  1
  Si0+  Si112  1  0.42841811  0.31983268  0.31810195  1
  Si0+  Si113  1  0.17938393  0.43034350  0.68067747  1
  Si0+  Si114  1  0.67858467  0.43002560  0.01794314  1
  Si0+  Si115  1  0.82014404  0.57241408  0.01779705  1
  Si0+  Si116  1  0.17731869  0.42964274  0.01426994  1
  Si0+  Si117  1  0.92789996  0.82302870  0.65026947  1
  Si0+  Si118  1  0.57230052  0.17830369  0.98647760  1
  Si0+  Si119  1  0.92497444  0.32485637  0.98233530  1
  O2-  O120  1  0.25311853  -0.00129012  0.06660705  1
  O2-  O121  1  0.25926252  0.00240964  0.39267065  1
  O2-  O122  1  0.24645963  0.00460081  0.73087071  1
  O2-  O123  1  0.24551095  0.50318865  0.05697947  1
  O2-  O124  1  0.24109968  0.49810478  0.39499895  1
  O2-  O125  1  0.25145880  0.49881937  0.72604534  1
  O2-  O126  1  0.74983245  -0.00092907  0.05807091  1
  O2-  O127  1  0.74489578  -0.00440571  0.39047250  1
  O2-  O128  1  0.75254338  -0.00253425  0.73263932  1
  O2-  O129  1  0.74909824  0.50102859  0.06063038  1
  O2-  O130  1  0.74875837  0.50120300  0.38735223  1
  O2-  O131  1  0.74805856  0.50423924  0.73297235  1
  O2-  O132  1  0.00430297  0.24787598  0.27073868  1
  O2-  O133  1  -0.00559108  0.24112228  0.60083949  1
  O2-  O134  1  -0.00497149  0.25772359  0.94031908  1
  O2-  O135  1  0.00609199  0.74714628  0.27273654  1
  O2-  O136  1  -0.00271977  0.75469606  0.60673036  1
  O2-  O137  1  0.00912142  0.74812191  0.94324345  1
  O2-  O138  1  0.49631101  0.24610891  0.27501402  1
  O2-  O139  1  0.49383673  0.25432120  0.60637714  1
  O2-  O140  1  0.49370175  0.24178255  0.94602678  1
  O2-  O141  1  0.50055060  0.74993401  0.26748271  1
  O2-  O142  1  0.50599204  0.75324789  0.60312138  1
  O2-  O143  1  0.49566958  0.75495935  0.93917994  1
  O2-  O144  1  0.06719519  0.18457620  0.10015140  1
  O2-  O145  1  0.07341440  0.18131383  0.42069195  1
  O2-  O146  1  0.07535935  0.18121496  0.76315115  1
  O2-  O147  1  0.06991113  0.66730985  0.09127061  1
  O2-  O148  1  0.06968436  0.67467436  0.42284428  1
  O2-  O149  1  0.07044392  0.67921206  0.76781784  1
  O2-  O150  1  0.57602103  0.18376262  0.09194431  1
  O2-  O151  1  0.57340336  0.18068471  0.42177238  1
  O2-  O152  1  0.56739910  0.18236711  0.76799792  1
  O2-  O153  1  0.56587791  0.67673784  0.09718751  1
  O2-  O154  1  0.57153235  0.67560077  0.43134460  1
  O2-  O155  1  0.56747172  0.67753777  0.76579046  1
  O2-  O156  1  0.17868450  0.42676280  0.24431421  1
  O2-  O157  1  0.18100928  0.43253694  0.57578920  1
  O2-  O158  1  0.17954459  0.42928107  0.90939871  1
  O2-  O159  1  0.17828574  0.93469251  0.23534429  1
  O2-  O160  1  0.18270339  0.92449442  0.56958450  1
  O2-  O161  1  0.17876001  0.92835968  0.90446948  1
  O2-  O162  1  0.67929279  0.42708360  0.24157476  1
  O2-  O163  1  0.67895760  0.43030464  0.56878316  1
  O2-  O164  1  0.67664844  0.42770737  0.91395434  1
  O2-  O165  1  0.67948587  0.92882425  0.24001822  1
  O2-  O166  1  0.67930443  0.93083722  0.56576979  1
  O2-  O167  1  0.67885813  0.92711515  0.91156336  1
  O2-  O168  1  0.43251221  0.32259823  0.09205005  1
  O2-  O169  1  0.42862403  0.32253165  0.42229443  1
  O2-  O170  1  0.42505228  0.32604628  0.75491667  1
  O2-  O171  1  0.42671857  0.81913375  0.08916603  1
  O2-  O172  1  0.42865185  0.82245564  0.42835408  1
  O2-  O173  1  0.42888350  0.81882729  0.76732817  1
  O2-  O174  1  0.92478356  0.32428694  0.08838999  1
  O2-  O175  1  0.92564898  0.32161962  0.42941921  1
  O2-  O176  1  0.93484714  0.32044173  0.76682050  1
  O2-  O177  1  0.92999231  0.82105595  0.09906369  1
  O2-  O178  1  0.92929414  0.81902452  0.43442102  1
  O2-  O179  1  0.92867454  0.82095095  0.75610265  1
  O2-  O180  1  0.32262550  0.07770590  0.24455495  1
  O2-  O181  1  0.32068709  0.07062291  0.56535517  1
  O2-  O182  1  0.32183175  0.07606431  0.90336889  1
  O2-  O183  1  0.31969786  0.56420441  0.23452388  1
  O2-  O184  1  0.32051970  0.56864637  0.57814797  1
  O2-  O185  1  0.32343865  0.56495674  0.90942424  1
  O2-  O186  1  0.81799799  0.07072397  0.23155422  1
  O2-  O187  1  0.81787626  0.07214222  0.56868299  1
  O2-  O188  1  0.81555365  0.07445835  0.91010503  1
  O2-  O189  1  0.82057899  0.56962523  0.24051225  1
  O2-  O190  1  0.82633681  0.56884627  0.56771363  1
  O2-  O191  1  0.82268425  0.57070604  0.91356944  1
  O2-  O192  1  0.04364822  0.08616642  0.27053459  1
  O2-  O193  1  0.05241009  0.07398742  0.60139114  1
  O2-  O194  1  0.03839042  0.08760309  0.93184169  1
  O2-  O195  1  0.04730230  0.58328313  0.27038024  1
  O2-  O196  1  0.04229610  0.58413120  0.59820281  1
  O2-  O197  1  0.04313675  0.58321626  0.93752081  1
  O2-  O198  1  0.54922008  0.08720306  0.26726802  1
  O2-  O199  1  0.54024037  0.08552046  0.59709089  1
  O2-  O200  1  0.55406433  0.08309264  0.94317170  1
  O2-  O201  1  0.53938949  0.57776350  0.26621956  1
  O2-  O202  1  0.54202473  0.57980772  0.60108622  1
  O2-  O203  1  0.53744222  0.58084925  0.93221955  1
  O2-  O204  1  0.16661490  0.20490797  0.26944156  1
  O2-  O205  1  0.16785507  0.21256598  0.59410153  1
  O2-  O206  1  0.16606388  0.21566047  0.93405426  1
  O2-  O207  1  0.16753769  0.69903112  0.27411862  1
  O2-  O208  1  0.16749432  0.70843317  0.59991411  1
  O2-  O209  1  0.16958902  0.69464317  0.94355310  1
  O2-  O210  1  0.66008591  0.21303960  0.26646581  1
  O2-  O211  1  0.66438976  0.21414490  0.59958174  1
  O2-  O212  1  0.66036395  0.21500944  0.93807568  1
  O2-  O213  1  0.66883887  0.70330100  0.26242541  1
  O2-  O214  1  0.67602472  0.69825242  0.60459158  1
  O2-  O215  1  0.66644302  0.70596805  0.93280732  1
  O2-  O216  1  0.08409069  0.45409615  0.06160668  1
  O2-  O217  1  0.08028036  0.44833065  0.39323734  1
  O2-  O218  1  0.08994446  0.46064558  0.73007452  1
  O2-  O219  1  0.07900266  0.96422670  0.06731355  1
  O2-  O220  1  0.08566905  0.96242229  0.40377095  1
  O2-  O221  1  0.07959068  0.94929994  0.73510960  1
  O2-  O222  1  0.58616074  0.45741903  0.06607447  1
  O2-  O223  1  0.58639034  0.45083571  0.39382233  1
  O2-  O224  1  0.57819603  0.45486392  0.73699594  1
  O2-  O225  1  0.58846048  0.95246458  0.06546344  1
  O2-  O226  1  0.58247243  0.95198209  0.38822896  1
  O2-  O227  1  0.58230705  0.96072264  0.73409335  1
  O2-  O228  1  0.20830094  0.34074101  0.06520812  1
  O2-  O229  1  0.20611545  0.33418008  0.39603326  1
  O2-  O230  1  0.20724896  0.33880238  0.72848379  1
  O2-  O231  1  0.20116854  0.82831676  0.07035321  1
  O2-  O232  1  0.20639275  0.83159042  0.39940358  1
  O2-  O233  1  0.21208816  0.82975676  0.73710313  1
  O2-  O234  1  0.70680342  0.33860591  0.06780122  1
  O2-  O235  1  0.70910951  0.33723859  0.39343950  1
  O2-  O236  1  0.70722450  0.33369775  0.73828352  1
  O2-  O237  1  0.71052041  0.83464941  0.06233341  1
  O2-  O238  1  0.70318779  0.83204558  0.38948446  1
  O2-  O239  1  0.70462844  0.83014718  0.73446345  1
  O2-  O240  1  0.46017571  0.40892018  0.26707513  1
  O2-  O241  1  0.45441057  0.41710969  0.60272581  1
  O2-  O242  1  0.46310852  0.40752318  0.93645396  1
  O2-  O243  1  0.45216936  0.92007744  0.25940109  1
  O2-  O244  1  0.45547092  0.92000041  0.59916880  1
  O2-  O245  1  0.45202896  0.91776112  0.94203614  1
  O2-  O246  1  0.95770317  0.41673427  0.26000612  1
  O2-  O247  1  0.96480889  0.41439297  0.59904330  1
  O2-  O248  1  0.94885127  0.42004019  0.93977056  1
  O2-  O249  1  0.96257002  0.91876757  0.26836586  1
  O2-  O250  1  0.95235716  0.91681899  0.60542044  1
  O2-  O251  1  0.95664885  0.91842326  0.93110093  1
  O2-  O252  1  0.33558545  0.29549570  0.26943582  1
  O2-  O253  1  0.33272531  0.30402281  0.60057481  1
  O2-  O254  1  0.33545040  0.30040501  0.94083546  1
  O2-  O255  1  0.32937753  0.78711989  0.26349141  1
  O2-  O256  1  0.33489765  0.78657313  0.60006078  1
  O2-  O257  1  0.33209395  0.79518547  0.93995852  1
  O2-  O258  1  0.83227530  0.28902688  0.26052742  1
  O2-  O259  1  0.82888674  0.29756514  0.60265476  1
  O2-  O260  1  0.83071389  0.29876020  0.93904598  1
  O2-  O261  1  0.83628319  0.79042812  0.26391605  1
  O2-  O262  1  0.83457556  0.79719170  0.60487028  1
  O2-  O263  1  0.83649095  0.78765318  0.93064274  1
  O2-  O264  1  0.42381245  0.05118167  0.06787404  1
  O2-  O265  1  0.42166167  0.05112536  0.39049648  1
  O2-  O266  1  0.41846713  0.04467107  0.73228854  1
  O2-  O267  1  0.41101019  0.53185034  0.06261578  1
  O2-  O268  1  0.41434299  0.53043852  0.40217334  1
  O2-  O269  1  0.41167202  0.54197046  0.73186278  1
  O2-  O270  1  0.91115172  0.04559557  0.06028459  1
  O2-  O271  1  0.91572849  0.04354793  0.39987726  1
  O2-  O272  1  0.92081052  0.04669206  0.73416879  1
  O2-  O273  1  0.91163229  0.54520622  0.06759878  1
  O2-  O274  1  0.91331195  0.54223498  0.39124340  1
  O2-  O275  1  0.92086478  0.53715754  0.73621898  1
  O2-  O276  1  0.29252213  0.17232192  0.06935097  1
  O2-  O277  1  0.30008423  0.16771850  0.39601586  1
  O2-  O278  1  0.29825996  0.17525485  0.72740245  1
  O2-  O279  1  0.30014691  0.66104364  0.06246614  1
  O2-  O280  1  0.29360518  0.66494455  0.40362464  1
  O2-  O281  1  0.29062329  0.66055554  0.73155261  1
  O2-  O282  1  0.78832901  0.16348884  0.06284201  1
  O2-  O283  1  0.78564727  0.16731312  0.39711663  1
  O2-  O284  1  0.78993631  0.16916065  0.73597813  1
  O2-  O285  1  0.79089476  0.66442314  0.06412650  1
  O2-  O286  1  0.79498338  0.66355381  0.39227789  1
  O2-  O287  1  0.80198288  0.67042635  0.73659693  1
