# generated using pymatgen
data_Ca2Al2SiO7
_symmetry_space_group_name_H-M   'P 1'
_cell_length_a   15.45977085
_cell_length_b   15.45928768
_cell_length_c   15.28507934
_cell_angle_alpha   89.99630120
_cell_angle_beta   90.00629332
_cell_angle_gamma   89.99667695
_symmetry_Int_Tables_number   1
_chemical_formula_structural   Ca2Al2SiO7
_chemical_formula_sum   'Ca48 Al48 Si24 O168'
_cell_volume   3653.08876006
_cell_formula_units_Z   24
loop_
 _symmetry_equiv_pos_site_id
 _symmetry_equiv_pos_as_xyz
  1  'x, y, z'
loop_
 _atom_type_symbol
 _atom_type_oxidation_number
  Ca2+  2.0
  Al0+  0.0
  Si0+  0.0
  O2-  -2.0
loop_
 _atom_site_type_symbol
 _atom_site_label
 _atom_site_symmetry_multiplicity
 _atom_site_fract_x
 _atom_site_fract_y
 _atom_site_fract_z
 _atom_site_occupancy
  Ca2+  Ca0  1  0.16304541  0.07789634  0.17395071  1
  Ca2+  Ca1  1  0.17320811  0.07169681  0.50972543  1
  Ca2+  Ca2  1  0.16959924  0.08123683  0.83575867  1
  Ca2+  Ca3  1  0.17013862  0.59082275  0.16884333  1
  Ca2+  Ca4  1  0.16979108  0.58557403  0.50825696  1
  Ca2+  Ca5  1  0.17529165  0.59286742  0.83566243  1
  Ca2+  Ca6  1  0.67361888  0.07699686  0.17181710  1
  Ca2+  Ca7  1  0.66439525  0.08120603  0.50270489  1
  Ca2+  Ca8  1  0.66697409  0.07427325  0.83661728  1
  Ca2+  Ca9  1  0.67100560  0.58058765  0.17122901  1
  Ca2+  Ca10  1  0.66418370  0.57417411  0.51170201  1
  Ca2+  Ca11  1  0.65809495  0.57566550  0.83287957  1
  Ca2+  Ca12  1  0.07163516  0.32293502  0.15732999  1
  Ca2+  Ca13  1  0.07092654  0.33444771  0.49495709  1
  Ca2+  Ca14  1  0.07238407  0.32798103  0.83070211  1
  Ca2+  Ca15  1  0.08983413  0.82602857  0.16323322  1
  Ca2+  Ca16  1  0.09664948  0.82561707  0.49814590  1
  Ca2+  Ca17  1  0.08811465  0.82502759  0.82686680  1
  Ca2+  Ca18  1  0.58096742  0.32587876  0.16928512  1
  Ca2+  Ca19  1  0.58181286  0.32145468  0.49573605  1
  Ca2+  Ca20  1  0.58662178  0.32503452  0.82263453  1
  Ca2+  Ca21  1  0.57977550  0.84209942  0.16039712  1
  Ca2+  Ca22  1  0.57976190  0.84127039  0.50042629  1
  Ca2+  Ca23  1  0.57565662  0.83480925  0.82331979  1
  Ca2+  Ca24  1  0.33343055  0.42229623  0.17165333  1
  Ca2+  Ca25  1  0.33733975  0.42248505  0.50794652  1
  Ca2+  Ca26  1  0.33579037  0.43333075  0.83891109  1
  Ca2+  Ca27  1  0.32889469  0.91521167  0.16947911  1
  Ca2+  Ca28  1  0.32644041  0.91756289  0.50945801  1
  Ca2+  Ca29  1  0.33550611  0.91495373  0.83016926  1
  Ca2+  Ca30  1  0.84009248  0.41320943  0.16920677  1
  Ca2+  Ca31  1  0.83137472  0.41334937  0.50715873  1
  Ca2+  Ca32  1  0.83286069  0.41038887  0.83165074  1
  Ca2+  Ca33  1  0.82685861  0.92868677  0.17569375  1
  Ca2+  Ca34  1  0.82261735  0.92320697  0.50473339  1
  Ca2+  Ca35  1  0.81900484  0.91844210  0.84255201  1
  Ca2+  Ca36  1  0.42129808  0.16766598  0.16652376  1
  Ca2+  Ca37  1  0.42724532  0.16102486  0.49728101  1
  Ca2+  Ca38  1  0.42320358  0.16419131  0.82245048  1
  Ca2+  Ca39  1  0.41821726  0.67479109  0.15743958  1
  Ca2+  Ca40  1  0.41941163  0.66962486  0.50581644  1
  Ca2+  Ca41  1  0.41519028  0.67600107  0.82568567  1
  Ca2+  Ca42  1  0.91132785  0.17021609  0.16003599  1
  Ca2+  Ca43  1  0.90810547  0.17680029  0.49529989  1
  Ca2+  Ca44  1  0.91238277  0.17142744  0.83308058  1
  Ca2+  Ca45  1  0.92986928  0.66907006  0.16199340  1
  Ca2+  Ca46  1  0.92945441  0.66921679  0.49631406  1
  Ca2+  Ca47  1  0.92986033  0.66501111  0.82710709  1
  Al0+  Al48  1  -0.00030295  -0.00049046  0.00027254  1
  Al0+  Al49  1  -0.00154488  -0.00125516  0.34550904  1
  Al0+  Al50  1  -0.00021564  0.00022794  0.67159510  1
  Al0+  Al51  1  0.00038080  0.49822940  -0.00796095  1
  Al0+  Al52  1  0.00273619  0.50080400  0.32485487  1
  Al0+  Al53  1  -0.00021304  0.49978499  0.65888569  1
  Al0+  Al54  1  0.49724682  0.00072605  0.00002182  1
  Al0+  Al55  1  0.49952049  -0.00005850  0.32963149  1
  Al0+  Al56  1  0.49977026  0.00007790  0.66472478  1
  Al0+  Al57  1  0.49928303  0.50089992  0.00819637  1
  Al0+  Al58  1  0.50046162  0.50198183  0.32963300  1
  Al0+  Al59  1  0.49994254  0.50042879  0.67366378  1
  Al0+  Al60  1  0.24915056  0.25167176  -0.00273471  1
  Al0+  Al61  1  0.24883630  0.25302557  0.33117460  1
  Al0+  Al62  1  0.24788354  0.25023893  0.67066221  1
  Al0+  Al63  1  0.25316891  0.75077312  -0.00266647  1
  Al0+  Al64  1  0.25320701  0.74916928  0.33313824  1
  Al0+  Al65  1  0.25126769  0.74959286  0.66563217  1
  Al0+  Al66  1  0.74774115  0.24957481  0.00011569  1
  Al0+  Al67  1  0.74795849  0.25091800  0.32705108  1
  Al0+  Al68  1  0.74868006  0.25095963  0.66301331  1
  Al0+  Al69  1  0.74862506  0.74539914  0.00517729  1
  Al0+  Al70  1  0.75190758  0.74928866  0.33691543  1
  Al0+  Al71  1  0.75258672  0.74798838  0.66778395  1
  Al0+  Al72  1  0.81978522  0.07431764  0.35068621  1
  Al0+  Al73  1  0.92968112  0.31966519  0.31838513  1
  Al0+  Al74  1  0.18038869  0.92794751  0.34620369  1
  Al0+  Al75  1  0.07281504  0.17508801  0.98446437  1
  Al0+  Al76  1  0.07054202  0.68211346  0.65186114  1
  Al0+  Al77  1  0.68012459  0.92751736  0.68032461  1
  Al0+  Al78  1  0.17879416  0.92820716  0.68427987  1
  Al0+  Al79  1  0.07239874  0.68240207  0.31844097  1
  Al0+  Al80  1  0.56925222  0.17914247  0.65392907  1
  Al0+  Al81  1  0.56938371  0.17769074  0.31507587  1
  Al0+  Al82  1  0.42714355  0.32435597  0.31873402  1
  Al0+  Al83  1  0.57336488  0.67671770  0.65330562  1
  Al0+  Al84  1  0.31908143  0.57196027  0.01658333  1
  Al0+  Al85  1  0.93087285  0.31775380  0.65121534  1
  Al0+  Al86  1  0.32140670  0.07197868  0.68128172  1
  Al0+  Al87  1  0.82068991  0.07017342  0.01456838  1
  Al0+  Al88  1  0.43198060  0.82136150  0.98578542  1
  Al0+  Al89  1  0.31985201  0.56868552  0.68038347  1
  Al0+  Al90  1  0.43132414  0.82034738  0.64929998  1
  Al0+  Al91  1  0.67720789  0.92783360  0.35008253  1
  Al0+  Al92  1  0.68034753  0.42938267  0.67915604  1
  Al0+  Al93  1  0.92659087  0.31924738  0.98222219  1
  Al0+  Al94  1  0.07083914  0.68129413  0.98517600  1
  Al0+  Al95  1  0.67601392  0.92699007  0.01463787  1
  Si0+  Si96  1  0.17762950  0.42799804  0.01734407  1
  Si0+  Si97  1  0.17823181  0.43022066  0.34702224  1
  Si0+  Si98  1  0.92645567  0.82262159  0.31778586  1
  Si0+  Si99  1  0.92529406  0.82121653  0.98562694  1
  Si0+  Si100  1  0.42832763  0.32411662  0.98492526  1
  Si0+  Si101  1  0.43113385  0.81893102  0.31787680  1
  Si0+  Si102  1  0.57387224  0.67793671  0.31840157  1
  Si0+  Si103  1  0.82058780  0.07380757  0.68361973  1
  Si0+  Si104  1  0.92654251  0.82478543  0.65051647  1
  Si0+  Si105  1  0.18045181  0.92955708  0.01411274  1
  Si0+  Si106  1  0.67863461  0.42867795  0.01734291  1
  Si0+  Si107  1  0.82422000  0.56892155  0.01526220  1
  Si0+  Si108  1  0.32054431  0.07448990  0.01571904  1
  Si0+  Si109  1  0.57360352  0.67520155  0.98512339  1
  Si0+  Si110  1  0.17385038  0.42792612  0.68330690  1
  Si0+  Si111  1  0.56727920  0.18141450  0.98417227  1
  Si0+  Si112  1  0.42600145  0.32318930  0.65472290  1
  Si0+  Si113  1  0.67909915  0.43220851  0.34713212  1
  Si0+  Si114  1  0.82495954  0.57081750  0.68263569  1
  Si0+  Si115  1  0.07174435  0.17556782  0.32064328  1
  Si0+  Si116  1  0.07397848  0.17558959  0.64876826  1
  Si0+  Si117  1  0.82480786  0.56986637  0.34757213  1
  Si0+  Si118  1  0.32184041  0.57024402  0.34942442  1
  Si0+  Si119  1  0.32063655  0.07487689  0.34753839  1
  O2-  O120  1  0.24579338  0.00631005  0.05665281  1
  O2-  O121  1  0.24998349  0.00815712  0.39079733  1
  O2-  O122  1  0.24860713  0.00235493  0.73412648  1
  O2-  O123  1  0.24421193  0.49776927  0.06419431  1
  O2-  O124  1  0.25312295  0.49660131  0.39048852  1
  O2-  O125  1  0.24567163  0.49328296  0.72750810  1
  O2-  O126  1  0.75189662  -0.00515312  0.06424016  1
  O2-  O127  1  0.74757982  0.00165968  0.39941538  1
  O2-  O128  1  0.75698936  0.00007797  0.72702886  1
  O2-  O129  1  0.75218215  0.49840566  0.05792606  1
  O2-  O130  1  0.75266284  0.50021946  0.38995169  1
  O2-  O131  1  0.75211590  0.50652681  0.72729130  1
  O2-  O132  1  0.00045449  0.24027616  0.27425821  1
  O2-  O133  1  0.00480787  0.24306759  0.60341530  1
  O2-  O134  1  -0.00194410  0.24508222  0.93529045  1
  O2-  O135  1  -0.00074846  0.75869678  0.27197195  1
  O2-  O136  1  -0.00136200  0.75956886  0.60531564  1
  O2-  O137  1  -0.00558026  0.75426263  0.93910250  1
  O2-  O138  1  0.49481473  0.24925719  0.26694949  1
  O2-  O139  1  0.49021681  0.25133047  0.60965109  1
  O2-  O140  1  0.49686962  0.25248512  0.94098488  1
  O2-  O141  1  0.50792432  0.75361082  0.27639306  1
  O2-  O142  1  0.50681970  0.75127338  0.59927446  1
  O2-  O143  1  0.51091028  0.74932810  0.94263164  1
  O2-  O144  1  0.07584027  0.17727503  0.09852128  1
  O2-  O145  1  0.07465980  0.18100459  0.42582475  1
  O2-  O146  1  0.07391966  0.17776993  0.75417639  1
  O2-  O147  1  0.07091342  0.68337270  0.09860886  1
  O2-  O148  1  0.07226940  0.68071763  0.43119377  1
  O2-  O149  1  0.06897365  0.68100202  0.76501912  1
  O2-  O150  1  0.56566918  0.18283254  0.08903341  1
  O2-  O151  1  0.56852172  0.17940872  0.42860068  1
  O2-  O152  1  0.57056998  0.18160279  0.76758969  1
  O2-  O153  1  0.57154633  0.67182771  0.09124271  1
  O2-  O154  1  0.57108650  0.67124605  0.42256134  1
  O2-  O155  1  0.56911402  0.67554706  0.76690345  1
  O2-  O156  1  0.17773370  0.43253634  0.24220201  1
  O2-  O157  1  0.17382848  0.43005315  0.57712354  1
  O2-  O158  1  0.18081858  0.42794381  0.91195050  1
  O2-  O159  1  0.18404644  0.92659544  0.23233528  1
  O2-  O160  1  0.18237519  0.92842886  0.57038545  1
  O2-  O161  1  0.18300865  0.92749942  0.90972185  1
  O2-  O162  1  0.67843422  0.43592345  0.24159236  1
  O2-  O163  1  0.68145908  0.42865167  0.56577392  1
  O2-  O164  1  0.67549952  0.42890726  0.91246604  1
  O2-  O165  1  0.67911892  0.92720428  0.23644933  1
  O2-  O166  1  0.68091966  0.93046757  0.56751164  1
  O2-  O167  1  0.67550343  0.92938216  0.90107031  1
  O2-  O168  1  0.43020461  0.32351418  0.08993053  1
  O2-  O169  1  0.43110367  0.32909953  0.43198516  1
  O2-  O170  1  0.42999400  0.32356346  0.76066048  1
  O2-  O171  1  0.42989133  0.81945497  0.09980043  1
  O2-  O172  1  0.42814249  0.81658356  0.42224541  1
  O2-  O173  1  0.43116507  0.81898624  0.76282008  1
  O2-  O174  1  0.92888623  0.31973851  0.09596548  1
  O2-  O175  1  0.93119156  0.32304780  0.43128329  1
  O2-  O176  1  0.93050568  0.31704293  0.76391457  1
  O2-  O177  1  0.92735003  0.81877879  0.09140760  1
  O2-  O178  1  0.92327077  0.81706212  0.42292245  1
  O2-  O179  1  0.92565511  0.82106271  0.75625865  1
  O2-  O180  1  0.31942453  0.07356404  0.24130191  1
  O2-  O181  1  0.31987044  0.07185175  0.56727014  1
  O2-  O182  1  0.32360514  0.07461370  0.91128910  1
  O2-  O183  1  0.32053180  0.57193686  0.24425683  1
  O2-  O184  1  0.31973664  0.56673254  0.56663350  1
  O2-  O185  1  0.31979420  0.57120730  0.90394959  1
  O2-  O186  1  0.81995389  0.07284947  0.23704967  1
  O2-  O187  1  0.81825681  0.07545166  0.57812448  1
  O2-  O188  1  0.81617641  0.07086984  0.90090460  1
  O2-  O189  1  0.82353333  0.56917079  0.24202297  1
  O2-  O190  1  0.82709647  0.56711788  0.57674621  1
  O2-  O191  1  0.82436022  0.57044212  0.91063700  1
  O2-  O192  1  0.05024887  0.07891367  0.27925596  1
  O2-  O193  1  0.05036826  0.08037088  0.60552350  1
  O2-  O194  1  0.04893457  0.07531990  0.93230735  1
  O2-  O195  1  0.04017972  0.58757892  0.26183554  1
  O2-  O196  1  0.03791982  0.58664171  0.59623848  1
  O2-  O197  1  0.04240447  0.58435444  0.93165813  1
  O2-  O198  1  0.54033855  0.07995353  0.26020643  1
  O2-  O199  1  0.53949837  0.08423855  0.59771202  1
  O2-  O200  1  0.53784226  0.08988087  0.93803193  1
  O2-  O201  1  0.54167718  0.58957979  0.26616718  1
  O2-  O202  1  0.53904463  0.57890327  0.60086074  1
  O2-  O203  1  0.54198702  0.58253461  0.94038730  1
  O2-  O204  1  0.16410226  0.20292435  0.27211609  1
  O2-  O205  1  0.16784868  0.20182062  0.60307678  1
  O2-  O206  1  0.17046457  0.20706788  0.93062216  1
  O2-  O207  1  0.16967016  0.71313143  0.26476074  1
  O2-  O208  1  0.16727365  0.71038260  0.59755304  1
  O2-  O209  1  0.16668009  0.71477121  0.93274538  1
  O2-  O210  1  0.66474556  0.21181524  0.25982556  1
  O2-  O211  1  0.66262439  0.21498457  0.59790268  1
  O2-  O212  1  0.65852667  0.21029428  0.93742350  1
  O2-  O213  1  0.66843172  0.69953001  0.27282061  1
  O2-  O214  1  0.67566217  0.69448369  0.60408133  1
  O2-  O215  1  0.67027684  0.69026381  0.94183845  1
  O2-  O216  1  0.08225527  0.45239723  0.06012088  1
  O2-  O217  1  0.08799764  0.46340869  0.39469966  1
  O2-  O218  1  0.08165396  0.45821175  0.72878594  1
  O2-  O219  1  0.08661025  0.94975856  0.06120137  1
  O2-  O220  1  0.08280896  0.94826323  0.40218313  1
  O2-  O221  1  0.07859464  0.95182087  0.73652844  1
  O2-  O222  1  0.58895173  0.45887243  0.06826481  1
  O2-  O223  1  0.58827750  0.46384856  0.39402251  1
  O2-  O224  1  0.58493789  0.45761715  0.73731117  1
  O2-  O225  1  0.57894322  0.96164974  0.06744149  1
  O2-  O226  1  0.57655782  0.95529511  0.39867571  1
  O2-  O227  1  0.58385712  0.96078018  0.73220934  1
  O2-  O228  1  0.20516412  0.33491230  0.06447025  1
  O2-  O229  1  0.19969829  0.33683373  0.39465931  1
  O2-  O230  1  0.19342801  0.33304728  0.72869505  1
  O2-  O231  1  0.21577766  0.84051160  0.06280848  1
  O2-  O232  1  0.21927035  0.83365083  0.39987477  1
  O2-  O233  1  0.21060508  0.83035023  0.73536152  1
  O2-  O234  1  0.70512764  0.33693275  0.06496302  1
  O2-  O235  1  0.70351043  0.33869743  0.39086532  1
  O2-  O236  1  0.71424606  0.33421830  0.73442360  1
  O2-  O237  1  0.69637970  0.82495975  0.06492688  1
  O2-  O238  1  0.70506474  0.82814356  0.40165444  1
  O2-  O239  1  0.70818538  0.82936169  0.73363416  1
  O2-  O240  1  0.46024646  0.42094319  0.26257874  1
  O2-  O241  1  0.45544168  0.41535985  0.60896719  1
  O2-  O242  1  0.45904463  0.41652146  0.94053420  1
  O2-  O243  1  0.45184544  0.91218951  0.26978198  1
  O2-  O244  1  0.45672077  0.91901022  0.59620803  1
  O2-  O245  1  0.45698499  0.91953601  0.93233934  1
  O2-  O246  1  0.96474872  0.41425623  0.26249276  1
  O2-  O247  1  0.96127293  0.41382936  0.59546639  1
  O2-  O248  1  0.95575049  0.41671051  0.92798614  1
  O2-  O249  1  0.94879945  0.91896877  0.27683146  1
  O2-  O250  1  0.94740585  0.92059711  0.60717634  1
  O2-  O251  1  0.94770927  0.91533176  0.94058657  1
  O2-  O252  1  0.32691661  0.30137540  0.26538918  1
  O2-  O253  1  0.32965939  0.30499684  0.61106530  1
  O2-  O254  1  0.33549553  0.30122749  0.93861802  1
  O2-  O255  1  0.34262160  0.78405662  0.26789873  1
  O2-  O256  1  0.33452078  0.78665416  0.59642933  1
  O2-  O257  1  0.33782734  0.78644018  0.93104251  1
  O2-  O258  1  0.83176903  0.29591941  0.26439672  1
  O2-  O259  1  0.83417422  0.28811259  0.59706848  1
  O2-  O260  1  0.82654794  0.29262404  0.93122749  1
  O2-  O261  1  0.83509030  0.79195293  0.26896940  1
  O2-  O262  1  0.83528791  0.79520343  0.60198841  1
  O2-  O263  1  0.83131319  0.79286621  0.94127395  1
  O2-  O264  1  0.40982202  0.04206800  0.06559956  1
  O2-  O265  1  0.41378544  0.04585302  0.39119498  1
  O2-  O266  1  0.41915431  0.04208107  0.73427689  1
  O2-  O267  1  0.41523037  0.54078634  0.07288569  1
  O2-  O268  1  0.41498057  0.54410385  0.39491739  1
  O2-  O269  1  0.41455732  0.53894888  0.73853862  1
  O2-  O270  1  0.92112397  0.04660399  0.06694594  1
  O2-  O271  1  0.91765612  0.04888141  0.40659604  1
  O2-  O272  1  0.91640820  0.05540380  0.72780098  1
  O2-  O273  1  0.91593597  0.53939436  0.06271305  1
  O2-  O274  1  0.91686525  0.54009441  0.39304945  1
  O2-  O275  1  0.91639553  0.53826296  0.72946213  1
  O2-  O276  1  0.29730923  0.16811403  0.06238141  1
  O2-  O277  1  0.29988634  0.17009906  0.39238380  1
  O2-  O278  1  0.29665923  0.17182148  0.73521090  1
  O2-  O279  1  0.28756328  0.66879366  0.07045416  1
  O2-  O280  1  0.29127406  0.66054719  0.39705797  1
  O2-  O281  1  0.28718319  0.66443998  0.73341149  1
  O2-  O282  1  0.78758274  0.16809176  0.06677339  1
  O2-  O283  1  0.78874069  0.17403224  0.39997895  1
  O2-  O284  1  0.78843851  0.16516308  0.72975512  1
  O2-  O285  1  0.79758591  0.65946796  0.06688649  1
  O2-  O286  1  0.80022418  0.66182975  0.39532439  1
  O2-  O287  1  0.80730935  0.66569760  0.72846417  1
