# generated using pymatgen
data_Ca2Al2SiO7
_symmetry_space_group_name_H-M   'P 1'
_cell_length_a   15.46822841
_cell_length_b   15.46571381
_cell_length_c   15.29106624
_cell_angle_alpha   90.00175156
_cell_angle_beta   89.99457295
_cell_angle_gamma   90.00206787
_symmetry_Int_Tables_number   1
_chemical_formula_structural   Ca2Al2SiO7
_chemical_formula_sum   'Ca48 Al48 Si24 O168'
_cell_volume   3658.03884589
_cell_formula_units_Z   24
loop_
 _symmetry_equiv_pos_site_id
 _symmetry_equiv_pos_as_xyz
  1  'x, y, z'
loop_
 _atom_type_symbol
 _atom_type_oxidation_number
  Ca2+  2.0
  Al0+  0.0
  Si0+  0.0
  O2-  -2.0
loop_
 _atom_site_type_symbol
 _atom_site_label
 _atom_site_symmetry_multiplicity
 _atom_site_fract_x
 _atom_site_fract_y
 _atom_site_fract_z
 _atom_site_occupancy
  Ca2+  Ca0  1  0.17006721  0.07379192  0.17360019  1
  Ca2+  Ca1  1  0.16969755  0.07183773  0.50226582  1
  Ca2+  Ca2  1  0.17557448  0.07245718  0.83994548  1
  Ca2+  Ca3  1  0.15733786  0.57966888  0.17050475  1
  Ca2+  Ca4  1  0.17479166  0.59539554  0.50316468  1
  Ca2+  Ca5  1  0.16662039  0.58393988  0.83579772  1
  Ca2+  Ca6  1  0.67654968  0.07824744  0.16249180  1
  Ca2+  Ca7  1  0.66955380  0.08205922  0.50220252  1
  Ca2+  Ca8  1  0.67219047  0.07542415  0.84296533  1
  Ca2+  Ca9  1  0.67415644  0.59030503  0.17244911  1
  Ca2+  Ca10  1  0.67631204  0.58616573  0.50073301  1
  Ca2+  Ca11  1  0.66704011  0.58325772  0.84144534  1
  Ca2+  Ca12  1  0.08524790  0.32744053  0.15956695  1
  Ca2+  Ca13  1  0.08432339  0.32475471  0.49696959  1
  Ca2+  Ca14  1  0.07659773  0.33536868  0.83261300  1
  Ca2+  Ca15  1  0.08383554  0.82683228  0.16104161  1
  Ca2+  Ca16  1  0.08729901  0.82775361  0.49182751  1
  Ca2+  Ca17  1  0.09512942  0.82787780  0.83235345  1
  Ca2+  Ca18  1  0.58008192  0.33061740  0.16236676  1
  Ca2+  Ca19  1  0.57486225  0.33158081  0.49983759  1
  Ca2+  Ca20  1  0.57321775  0.32826109  0.82554223  1
  Ca2+  Ca21  1  0.57677054  0.83181061  0.16025124  1
  Ca2+  Ca22  1  0.56542103  0.83784404  0.49548513  1
  Ca2+  Ca23  1  0.57994035  0.83221346  0.83279991  1
  Ca2+  Ca24  1  0.32493308  0.42573286  0.17004616  1
  Ca2+  Ca25  1  0.33378460  0.42967436  0.50602907  1
  Ca2+  Ca26  1  0.32777151  0.42047000  0.83729380  1
  Ca2+  Ca27  1  0.32152718  0.91943300  0.17401171  1
  Ca2+  Ca28  1  0.32292518  0.91578569  0.50686786  1
  Ca2+  Ca29  1  0.32588718  0.91960082  0.83517926  1
  Ca2+  Ca30  1  0.83567142  0.42345053  0.17058020  1
  Ca2+  Ca31  1  0.83989914  0.42295636  0.50314703  1
  Ca2+  Ca32  1  0.83822293  0.41448949  0.83953024  1
  Ca2+  Ca33  1  0.82972824  0.90124993  0.16747072  1
  Ca2+  Ca34  1  0.83507332  0.91324822  0.50048329  1
  Ca2+  Ca35  1  0.82864863  0.91960997  0.84764038  1
  Ca2+  Ca36  1  0.40994116  0.16142340  0.16297449  1
  Ca2+  Ca37  1  0.40266076  0.16944324  0.49732106  1
  Ca2+  Ca38  1  0.40839325  0.16772697  0.82651687  1
  Ca2+  Ca39  1  0.41570617  0.67247307  0.16536968  1
  Ca2+  Ca40  1  0.40551388  0.67805244  0.49651068  1
  Ca2+  Ca41  1  0.41961396  0.67112506  0.82611340  1
  Ca2+  Ca42  1  0.92262341  0.17038114  0.16049115  1
  Ca2+  Ca43  1  0.92521652  0.17196510  0.49358402  1
  Ca2+  Ca44  1  0.91054035  0.17588431  0.83087188  1
  Ca2+  Ca45  1  0.92515517  0.67430384  0.16356457  1
  Ca2+  Ca46  1  0.93005316  0.67093005  0.49125049  1
  Ca2+  Ca47  1  0.93136385  0.67429748  0.83320726  1
  Al0+  Al48  1  0.00161504  0.00271520  0.00253921  1
  Al0+  Al49  1  -0.00252133  0.00191265  0.32989015  1
  Al0+  Al50  1  -0.00122445  0.00025140  0.67246550  1
  Al0+  Al51  1  0.00018448  0.49976181  -0.00330257  1
  Al0+  Al52  1  -0.00269893  0.49967881  0.33721358  1
  Al0+  Al53  1  0.00007119  0.50160587  0.65879570  1
  Al0+  Al54  1  0.50355308  0.00068415  0.00604144  1
  Al0+  Al55  1  0.50144294  0.00216957  0.33064628  1
  Al0+  Al56  1  0.50247575  -0.00040814  0.66614987  1
  Al0+  Al57  1  0.50025895  0.49885329  -0.00322933  1
  Al0+  Al58  1  0.49962662  0.49763261  0.33733405  1
  Al0+  Al59  1  0.50265399  0.49800783  0.66555793  1
  Al0+  Al60  1  0.24899902  0.25406733  0.00565339  1
  Al0+  Al61  1  0.24915326  0.25128035  0.33046218  1
  Al0+  Al62  1  0.24857567  0.25133393  0.66414393  1
  Al0+  Al63  1  0.25365108  0.75070257  -0.00143206  1
  Al0+  Al64  1  0.25004562  0.74885413  0.32915855  1
  Al0+  Al65  1  0.25269718  0.74847115  0.66909954  1
  Al0+  Al66  1  0.74732292  0.24982072  -0.00000351  1
  Al0+  Al67  1  0.74642108  0.24890159  0.33424014  1
  Al0+  Al68  1  0.74880333  0.25181336  0.66056504  1
  Al0+  Al69  1  0.74987733  0.74859455  -0.00419193  1
  Al0+  Al70  1  0.74919647  0.74819117  0.34008420  1
  Al0+  Al71  1  0.75203557  0.74824504  0.66880997  1
  Al0+  Al72  1  0.92655087  0.82159699  0.32014905  1
  Al0+  Al73  1  0.92841063  0.32045411  0.65111487  1
  Al0+  Al74  1  0.07111973  0.68226686  0.65232253  1
  Al0+  Al75  1  0.32174330  0.07232409  0.68026020  1
  Al0+  Al76  1  0.17703972  0.92854885  0.34790556  1
  Al0+  Al77  1  0.17776084  0.43307702  0.01282989  1
  Al0+  Al78  1  0.42850738  0.82222011  0.31873000  1
  Al0+  Al79  1  0.68223795  0.92620551  0.01658498  1
  Al0+  Al80  1  0.92865741  0.31881664  0.98824024  1
  Al0+  Al81  1  0.82224793  0.07366600  0.01430422  1
  Al0+  Al82  1  0.32092343  0.07221376  0.01470028  1
  Al0+  Al83  1  0.42668685  0.32082871  0.65245502  1
  Al0+  Al84  1  0.57040968  0.67802114  0.98791275  1
  Al0+  Al85  1  0.07201239  0.67875248  0.31792871  1
  Al0+  Al86  1  0.32072669  0.56987156  0.34609959  1
  Al0+  Al87  1  0.17920447  0.92608668  0.01699767  1
  Al0+  Al88  1  0.93007860  0.82371832  0.98498662  1
  Al0+  Al89  1  0.43262119  0.81956339  0.65430121  1
  Al0+  Al90  1  0.82027425  0.57014344  0.34838365  1
  Al0+  Al91  1  0.07111092  0.18052914  0.31870225  1
  Al0+  Al92  1  0.32221864  0.07157668  0.34913192  1
  Al0+  Al93  1  0.07328202  0.67946538  0.98384141  1
  Al0+  Al94  1  0.32253565  0.56978463  0.68119604  1
  Al0+  Al95  1  0.17795626  0.92723173  0.68214589  1
  Si0+  Si96  1  0.57279068  0.17894380  0.31491752  1
  Si0+  Si97  1  0.07491702  0.17939660  0.98262292  1
  Si0+  Si98  1  0.67723087  0.42534654  0.35239442  1
  Si0+  Si99  1  0.17632497  0.42832787  0.68180723  1
  Si0+  Si100  1  0.92558986  0.32112730  0.31721222  1
  Si0+  Si101  1  0.67942646  0.92863931  0.34969805  1
  Si0+  Si102  1  0.32527099  0.57106286  0.01523701  1
  Si0+  Si103  1  0.07117912  0.17591647  0.65115853  1
  Si0+  Si104  1  0.57081762  0.67727446  0.32030062  1
  Si0+  Si105  1  0.42816614  0.32055958  0.98554804  1
  Si0+  Si106  1  0.57009401  0.17956227  0.98505282  1
  Si0+  Si107  1  0.81980115  0.56885694  0.01307964  1
  Si0+  Si108  1  0.57561279  0.67581472  0.64868793  1
  Si0+  Si109  1  0.81958232  0.07383617  0.34950813  1
  Si0+  Si110  1  0.42998490  0.32133986  0.31668780  1
  Si0+  Si111  1  0.57112062  0.17850026  0.64899641  1
  Si0+  Si112  1  0.17653559  0.42801374  0.35083590  1
  Si0+  Si113  1  0.68097294  0.42843030  0.68313306  1
  Si0+  Si114  1  0.82237008  0.56969983  0.68463529  1
  Si0+  Si115  1  0.68022135  0.92821055  0.68062733  1
  Si0+  Si116  1  0.92553469  0.82382925  0.65162331  1
  Si0+  Si117  1  0.67654727  0.42855451  0.01410782  1
  Si0+  Si118  1  0.81943642  0.07290263  0.67950576  1
  Si0+  Si119  1  0.43060429  0.82415848  0.98287681  1
  O2-  O120  1  0.25016947  0.00025900  0.06520625  1
  O2-  O121  1  0.25239060  -0.00230482  0.39832679  1
  O2-  O122  1  0.24963950  0.00128811  0.72991120  1
  O2-  O123  1  0.24942352  0.51069969  0.05944307  1
  O2-  O124  1  0.24180697  0.49993729  0.39423105  1
  O2-  O125  1  0.24760407  0.49442261  0.72608116  1
  O2-  O126  1  0.75997561  -0.00677793  0.06593562  1
  O2-  O127  1  0.75274655  -0.00177998  0.39128417  1
  O2-  O128  1  0.75383419  -0.00295887  0.72163295  1
  O2-  O129  1  0.74683933  0.49943975  0.05629593  1
  O2-  O130  1  0.74710106  0.49302111  0.39570151  1
  O2-  O131  1  0.75097410  0.49896763  0.72749195  1
  O2-  O132  1  -0.00358352  0.25634501  0.27246202  1
  O2-  O133  1  0.00220388  0.24489307  0.60637460  1
  O2-  O134  1  -0.00013952  0.24224617  0.93881377  1
  O2-  O135  1  0.00223346  0.75403866  0.27006183  1
  O2-  O136  1  -0.00139881  0.76041208  0.60816807  1
  O2-  O137  1  0.00734277  0.75788168  0.93397707  1
  O2-  O138  1  0.49756355  0.24673539  0.27459224  1
  O2-  O139  1  0.49668955  0.24115194  0.60509105  1
  O2-  O140  1  0.49389657  0.24469444  0.94308065  1
  O2-  O141  1  0.50203457  0.74418953  0.27469537  1
  O2-  O142  1  0.50618520  0.74349526  0.60550352  1
  O2-  O143  1  0.49721386  0.75242272  0.93950978  1
  O2-  O144  1  0.07657869  0.18536777  0.08807770  1
  O2-  O145  1  0.06828715  0.18233817  0.43233005  1
  O2-  O146  1  0.06967518  0.17662257  0.75649444  1
  O2-  O147  1  0.06773983  0.67414295  0.09667805  1
  O2-  O148  1  0.07068952  0.67907706  0.43165436  1
  O2-  O149  1  0.06842892  0.67865319  0.76512773  1
  O2-  O150  1  0.57317743  0.18421518  0.09004579  1
  O2-  O151  1  0.57919474  0.18111312  0.41973694  1
  O2-  O152  1  0.57605199  0.18215264  0.75442665  1
  O2-  O153  1  0.56871525  0.67565254  0.10106007  1
  O2-  O154  1  0.57188057  0.67933103  0.42588796  1
  O2-  O155  1  0.57724135  0.67633569  0.75436537  1
  O2-  O156  1  0.17830600  0.42754354  0.24503010  1
  O2-  O157  1  0.17708871  0.42734224  0.57627569  1
  O2-  O158  1  0.17987210  0.43064793  0.89961295  1
  O2-  O159  1  0.17755618  0.92990614  0.23483287  1
  O2-  O160  1  0.17646993  0.92746852  0.56875860  1
  O2-  O161  1  0.18417515  0.92616163  0.90329250  1
  O2-  O162  1  0.67608225  0.42383400  0.24663185  1
  O2-  O163  1  0.68146447  0.42820058  0.57816649  1
  O2-  O164  1  0.67544841  0.42836214  0.90900566  1
  O2-  O165  1  0.67962470  0.92765807  0.24517870  1
  O2-  O166  1  0.67984830  0.92993288  0.57527003  1
  O2-  O167  1  0.67945719  0.93009082  0.90238018  1
  O2-  O168  1  0.43278184  0.32400331  0.09064699  1
  O2-  O169  1  0.43273951  0.32243646  0.42170299  1
  O2-  O170  1  0.43093376  0.32191746  0.76578356  1
  O2-  O171  1  0.43203553  0.82321476  0.08851149  1
  O2-  O172  1  0.43038040  0.82282879  0.43210576  1
  O2-  O173  1  0.43737771  0.81918889  0.76721885  1
  O2-  O174  1  0.92802262  0.32021472  0.10111227  1
  O2-  O175  1  0.92449561  0.31761211  0.42301938  1
  O2-  O176  1  0.92589250  0.31876437  0.76416828  1
  O2-  O177  1  0.92537779  0.81420091  0.09773483  1
  O2-  O178  1  0.92438101  0.81807803  0.43424322  1
  O2-  O179  1  0.91838854  0.82068101  0.75642068  1
  O2-  O180  1  0.32090170  0.07058349  0.23588247  1
  O2-  O181  1  0.31958213  0.07096860  0.56716839  1
  O2-  O182  1  0.32043982  0.07348517  0.90100334  1
  O2-  O183  1  0.32763033  0.56432636  0.23334072  1
  O2-  O184  1  0.32121073  0.56984803  0.56807442  1
  O2-  O185  1  0.32985685  0.56490145  0.90980437  1
  O2-  O186  1  0.81444359  0.08295871  0.24573381  1
  O2-  O187  1  0.81713041  0.07353963  0.57413253  1
  O2-  O188  1  0.81242561  0.07855961  0.90033796  1
  O2-  O189  1  0.81704389  0.56843080  0.23502273  1
  O2-  O190  1  0.81931767  0.56940817  0.57964395  1
  O2-  O191  1  0.81809731  0.56579038  0.90776652  1
  O2-  O192  1  0.03756768  0.08610022  0.26379196  1
  O2-  O193  1  0.04311242  0.08278179  0.60506066  1
  O2-  O194  1  0.05766500  0.08357279  0.93935918  1
  O2-  O195  1  0.03844362  0.57919279  0.26903306  1
  O2-  O196  1  0.03767928  0.58755295  0.59630337  1
  O2-  O197  1  0.03753561  0.58339995  0.92945312  1
  O2-  O198  1  0.55027890  0.08681574  0.26674016  1
  O2-  O199  1  0.55434118  0.08293723  0.60425407  1
  O2-  O200  1  0.54967059  0.08540685  0.93941694  1
  O2-  O201  1  0.54951784  0.58136508  0.27672889  1
  O2-  O202  1  0.55441755  0.58093549  0.60421299  1
  O2-  O203  1  0.54119457  0.58115340  0.93135894  1
  O2-  O204  1  0.16643803  0.21313900  0.26309544  1
  O2-  O205  1  0.16317492  0.20343135  0.60329781  1
  O2-  O206  1  0.16529798  0.21502113  0.93583044  1
  O2-  O207  1  0.17085684  0.69947781  0.26394577  1
  O2-  O208  1  0.16931133  0.70968855  0.60114211  1
  O2-  O209  1  0.17518997  0.70086035  0.93360608  1
  O2-  O210  1  0.66173883  0.21294813  0.26482664  1
  O2-  O211  1  0.66067471  0.21213376  0.59819250  1
  O2-  O212  1  0.65795617  0.21402097  0.93405461  1
  O2-  O213  1  0.66397183  0.70504269  0.27515066  1
  O2-  O214  1  0.66960086  0.70298784  0.60361506  1
  O2-  O215  1  0.66614145  0.70582620  0.93066751  1
  O2-  O216  1  0.08059404  0.46021453  0.06768947  1
  O2-  O217  1  0.08087372  0.44591645  0.39533225  1
  O2-  O218  1  0.08291057  0.45759616  0.72635874  1
  O2-  O219  1  0.07900009  0.95075281  0.06655888  1
  O2-  O220  1  0.07759962  0.95925486  0.39890633  1
  O2-  O221  1  0.07833688  0.95255571  0.73557053  1
  O2-  O222  1  0.58500434  0.45529665  0.06282707  1
  O2-  O223  1  0.58497056  0.45218812  0.40044120  1
  O2-  O224  1  0.58914276  0.45463680  0.73120344  1
  O2-  O225  1  0.58694697  0.96055815  0.07180206  1
  O2-  O226  1  0.58975000  0.96282962  0.39748760  1
  O2-  O227  1  0.59067903  0.95842127  0.73023434  1
  O2-  O228  1  0.21246064  0.33987029  0.07077448  1
  O2-  O229  1  0.20768312  0.33632916  0.39707283  1
  O2-  O230  1  0.19891315  0.33414396  0.72780932  1
  O2-  O231  1  0.20999532  0.82732617  0.06867353  1
  O2-  O232  1  0.20559095  0.82876707  0.39722606  1
  O2-  O233  1  0.21265517  0.83137706  0.73545371  1
  O2-  O234  1  0.70416691  0.33776617  0.06305626  1
  O2-  O235  1  0.70148361  0.33169551  0.39944269  1
  O2-  O236  1  0.70850921  0.33578864  0.72959080  1
  O2-  O237  1  0.70519894  0.82543629  0.06767539  1
  O2-  O238  1  0.70403707  0.83763150  0.40024946  1
  O2-  O239  1  0.70486949  0.83507946  0.72733448  1
  O2-  O240  1  0.46395525  0.41088528  0.26818716  1
  O2-  O241  1  0.46605308  0.41445113  0.59699985  1
  O2-  O242  1  0.46191572  0.40902148  0.93517734  1
  O2-  O243  1  0.46441744  0.91730984  0.26527764  1
  O2-  O244  1  0.46631458  0.91525430  0.59933938  1
  O2-  O245  1  0.46178995  0.91686439  0.93832567  1
  O2-  O246  1  0.94654086  0.41671025  0.27491799  1
  O2-  O247  1  0.95914611  0.41602964  0.59603586  1
  O2-  O248  1  0.96075456  0.41383845  0.93181054  1
  O2-  O249  1  0.94084273  0.92372310  0.27105800  1
  O2-  O250  1  0.94369598  0.92088614  0.60956468  1
  O2-  O251  1  0.94648783  0.92720045  0.93738887  1
  O2-  O252  1  0.33731419  0.29830375  0.26949364  1
  O2-  O253  1  0.32916479  0.29716051  0.59700670  1
  O2-  O254  1  0.33488875  0.29790325  0.93954706  1
  O2-  O255  1  0.33434689  0.79011959  0.26274482  1
  O2-  O256  1  0.33673266  0.78730121  0.60114354  1
  O2-  O257  1  0.33763009  0.79987810  0.93602391  1
  O2-  O258  1  0.83127939  0.29419515  0.27312639  1
  O2-  O259  1  0.83196971  0.29101812  0.59539343  1
  O2-  O260  1  0.83020652  0.29094189  0.93417289  1
  O2-  O261  1  0.82830582  0.78612285  0.26993050  1
  O2-  O262  1  0.83352202  0.79351016  0.60326095  1
  O2-  O263  1  0.83296710  0.78975198  0.93061911  1
  O2-  O264  1  0.42178568  0.04936438  0.06520109  1
  O2-  O265  1  0.42527213  0.05216106  0.39702727  1
  O2-  O266  1  0.42299977  0.04719793  0.73020259  1
  O2-  O267  1  0.41514064  0.53590695  0.06370637  1
  O2-  O268  1  0.41560034  0.53481278  0.40236079  1
  O2-  O269  1  0.42099480  0.53925623  0.73234929  1
  O2-  O270  1  0.92506535  0.06267384  0.06107408  1
  O2-  O271  1  0.91181478  0.05050121  0.39701975  1
  O2-  O272  1  0.91203702  0.05354211  0.72793949  1
  O2-  O273  1  0.90974709  0.53751262  0.06037693  1
  O2-  O274  1  0.91516032  0.53877292  0.40614387  1
  O2-  O275  1  0.91407259  0.53919141  0.72934939  1
  O2-  O276  1  0.29495549  0.17189656  0.06672648  1
  O2-  O277  1  0.29185549  0.17177988  0.39787993  1
  O2-  O278  1  0.29498285  0.17286595  0.73058550  1
  O2-  O279  1  0.30999590  0.66796650  0.05598907  1
  O2-  O280  1  0.29295301  0.66744451  0.39855862  1
  O2-  O281  1  0.29317500  0.66488661  0.73716793  1
  O2-  O282  1  0.78090801  0.16758608  0.06959194  1
  O2-  O283  1  0.78492935  0.16265364  0.40067688  1
  O2-  O284  1  0.78528486  0.16371701  0.72521692  1
  O2-  O285  1  0.79091639  0.65985652  0.05982576  1
  O2-  O286  1  0.78556411  0.66342797  0.40724559  1
  O2-  O287  1  0.79457292  0.66158739  0.73211159  1
