# generated using pymatgen
data_Ca2Al2SiO7
_symmetry_space_group_name_H-M   'P 1'
_cell_length_a   15.45642088
_cell_length_b   15.45712154
_cell_length_c   15.28287382
_cell_angle_alpha   89.98473984
_cell_angle_beta   89.99989118
_cell_angle_gamma   90.00193566
_symmetry_Int_Tables_number   1
_chemical_formula_structural   Ca2Al2SiO7
_chemical_formula_sum   'Ca48 Al48 Si24 O168'
_cell_volume   3651.25839766
_cell_formula_units_Z   24
loop_
 _symmetry_equiv_pos_site_id
 _symmetry_equiv_pos_as_xyz
  1  'x, y, z'
loop_
 _atom_type_symbol
 _atom_type_oxidation_number
  Ca2+  2.0
  Al0+  0.0
  Si0+  0.0
  O2-  -2.0
loop_
 _atom_site_type_symbol
 _atom_site_label
 _atom_site_symmetry_multiplicity
 _atom_site_fract_x
 _atom_site_fract_y
 _atom_site_fract_z
 _atom_site_occupancy
  Ca2+  Ca0  1  0.16791257  0.08210549  0.16994976  1
  Ca2+  Ca1  1  0.17529147  0.08644025  0.50780470  1
  Ca2+  Ca2  1  0.16148100  0.07436178  0.83710510  1
  Ca2+  Ca3  1  0.18108048  0.58654495  0.16999883  1
  Ca2+  Ca4  1  0.17186067  0.58387318  0.50097882  1
  Ca2+  Ca5  1  0.17239797  0.58138764  0.84180129  1
  Ca2+  Ca6  1  0.66518484  0.08214282  0.16588051  1
  Ca2+  Ca7  1  0.67318395  0.08250205  0.50960973  1
  Ca2+  Ca8  1  0.67542252  0.08497529  0.84289443  1
  Ca2+  Ca9  1  0.65908047  0.57573767  0.16941093  1
  Ca2+  Ca10  1  0.66688479  0.57757167  0.50217828  1
  Ca2+  Ca11  1  0.67492813  0.58114582  0.84486371  1
  Ca2+  Ca12  1  0.08023830  0.32223314  0.16229008  1
  Ca2+  Ca13  1  0.07579410  0.32250065  0.49064939  1
  Ca2+  Ca14  1  0.08261108  0.31902640  0.82791186  1
  Ca2+  Ca15  1  0.08411716  0.83558020  0.16032977  1
  Ca2+  Ca16  1  0.07845632  0.84128374  0.50390007  1
  Ca2+  Ca17  1  0.07999935  0.83860427  0.82790661  1
  Ca2+  Ca18  1  0.58806184  0.33218502  0.16030215  1
  Ca2+  Ca19  1  0.58803578  0.32746199  0.49855618  1
  Ca2+  Ca20  1  0.59056737  0.32434159  0.83532965  1
  Ca2+  Ca21  1  0.57220764  0.82612976  0.15705245  1
  Ca2+  Ca22  1  0.57615574  0.82563844  0.48884364  1
  Ca2+  Ca23  1  0.58283807  0.83461982  0.83547064  1
  Ca2+  Ca24  1  0.34200818  0.43097774  0.16961825  1
  Ca2+  Ca25  1  0.33560350  0.42375871  0.49939294  1
  Ca2+  Ca26  1  0.33332448  0.42239487  0.83901972  1
  Ca2+  Ca27  1  0.33349624  0.91654028  0.17067537  1
  Ca2+  Ca28  1  0.33027065  0.92592103  0.50442178  1
  Ca2+  Ca29  1  0.32398157  0.91846696  0.83785394  1
  Ca2+  Ca30  1  0.82265776  0.41539448  0.16977949  1
  Ca2+  Ca31  1  0.83251298  0.41790663  0.50133919  1
  Ca2+  Ca32  1  0.83085926  0.42859062  0.84190019  1
  Ca2+  Ca33  1  0.82609069  0.92125564  0.16163465  1
  Ca2+  Ca34  1  0.83283791  0.92033434  0.50955178  1
  Ca2+  Ca35  1  0.83063019  0.92507590  0.83929020  1
  Ca2+  Ca36  1  0.41993747  0.16743401  0.16004187  1
  Ca2+  Ca37  1  0.41932092  0.15944235  0.49725626  1
  Ca2+  Ca38  1  0.43033935  0.15801044  0.82905111  1
  Ca2+  Ca39  1  0.42149598  0.67056720  0.15830327  1
  Ca2+  Ca40  1  0.42073051  0.67405944  0.48665222  1
  Ca2+  Ca41  1  0.41925890  0.67021675  0.83739413  1
  Ca2+  Ca42  1  0.92354495  0.16798938  0.16113704  1
  Ca2+  Ca43  1  0.92880442  0.16334951  0.49453147  1
  Ca2+  Ca44  1  0.92395588  0.15464934  0.82918410  1
  Ca2+  Ca45  1  0.91726927  0.66592957  0.16030977  1
  Ca2+  Ca46  1  0.91272534  0.67154039  0.50116199  1
  Ca2+  Ca47  1  0.90842134  0.67215325  0.82664796  1
  Al0+  Al48  1  0.00058747  -0.00097166  0.00581653  1
  Al0+  Al49  1  -0.00012867  -0.00109511  0.32863535  1
  Al0+  Al50  1  -0.00054463  -0.00106846  0.66312903  1
  Al0+  Al51  1  0.00105410  0.49864746  0.00337901  1
  Al0+  Al52  1  -0.00165850  0.50031091  0.32946095  1
  Al0+  Al53  1  0.00102558  0.50076693  0.66935481  1
  Al0+  Al54  1  0.49856361  0.00015052  -0.00557661  1
  Al0+  Al55  1  0.49936837  -0.00170093  0.33428384  1
  Al0+  Al56  1  0.49927945  -0.00125580  0.66386264  1
  Al0+  Al57  1  0.49996445  0.50144711  0.00106518  1
  Al0+  Al58  1  0.50205970  0.49795860  0.34210334  1
  Al0+  Al59  1  0.50008326  0.49880918  0.66697287  1
  Al0+  Al60  1  0.24823205  0.24880011  -0.00641818  1
  Al0+  Al61  1  0.25115237  0.24944453  0.33272456  1
  Al0+  Al62  1  0.25304544  0.25218050  0.66636553  1
  Al0+  Al63  1  0.24902294  0.75065438  0.00282253  1
  Al0+  Al64  1  0.24792580  0.75212434  0.33720651  1
  Al0+  Al65  1  0.24990724  0.75005992  0.66848811  1
  Al0+  Al66  1  0.75260687  0.25290436  0.00298505  1
  Al0+  Al67  1  0.75144883  0.25059990  0.33583737  1
  Al0+  Al68  1  0.74964990  0.25019419  0.66632659  1
  Al0+  Al69  1  0.75009629  0.75198643  0.00418304  1
  Al0+  Al70  1  0.74977490  0.74875698  0.32922645  1
  Al0+  Al71  1  0.74953880  0.74846688  0.66362543  1
  Al0+  Al72  1  0.57179430  0.67892052  0.98345545  1
  Al0+  Al73  1  0.67543059  0.93012089  0.01480954  1
  Al0+  Al74  1  0.17979554  0.93068028  0.68144683  1
  Al0+  Al75  1  0.57110120  0.17887414  0.65238741  1
  Al0+  Al76  1  0.32137519  0.07126828  0.34592368  1
  Al0+  Al77  1  0.67972679  0.43057933  0.01503163  1
  Al0+  Al78  1  0.57027434  0.67654855  0.31807445  1
  Al0+  Al79  1  0.31921454  0.56953513  0.01268045  1
  Al0+  Al80  1  0.92883990  0.81945714  0.65443392  1
  Al0+  Al81  1  0.82026332  0.57060720  0.67896946  1
  Al0+  Al82  1  0.32350871  0.07370568  0.68357251  1
  Al0+  Al83  1  0.42747905  0.82187251  0.31839354  1
  Al0+  Al84  1  0.82164903  0.07172964  0.01633631  1
  Al0+  Al85  1  0.92750394  0.32164195  0.31692880  1
  Al0+  Al86  1  0.82302236  0.57360691  0.01665474  1
  Al0+  Al87  1  0.06933708  0.17764076  0.98368340  1
  Al0+  Al88  1  0.82003645  0.07065174  0.67790114  1
  Al0+  Al89  1  0.57193887  0.18032093  0.98835595  1
  Al0+  Al90  1  0.32048968  0.57168402  0.34822814  1
  Al0+  Al91  1  0.07295297  0.17825996  0.31661269  1
  Al0+  Al92  1  0.07094594  0.17865795  0.65219496  1
  Al0+  Al93  1  0.68040792  0.42781064  0.35070546  1
  Al0+  Al94  1  0.42609233  0.82162220  0.98222903  1
  Al0+  Al95  1  0.17991901  0.93005067  0.01491732  1
  Si0+  Si96  1  0.07060657  0.67912214  0.31890950  1
  Si0+  Si97  1  0.42886301  0.32486124  0.64794674  1
  Si0+  Si98  1  0.57137960  0.17847761  0.32040158  1
  Si0+  Si99  1  0.92800073  0.82126671  0.31622503  1
  Si0+  Si100  1  0.17706367  0.42880720  0.34891447  1
  Si0+  Si101  1  0.92906207  0.32300377  0.98119027  1
  Si0+  Si102  1  0.42704845  0.81905513  0.65011355  1
  Si0+  Si103  1  0.67956516  0.92818083  0.34816160  1
  Si0+  Si104  1  0.17521353  0.92855258  0.35203508  1
  Si0+  Si105  1  0.42706336  0.32293575  0.98386164  1
  Si0+  Si106  1  0.82375334  0.57365936  0.35147000  1
  Si0+  Si107  1  0.67720818  0.92658598  0.68038950  1
  Si0+  Si108  1  0.92934158  0.32502258  0.65097205  1
  Si0+  Si109  1  0.17823599  0.42471027  0.01683049  1
  Si0+  Si110  1  0.82066938  0.06922577  0.34862915  1
  Si0+  Si111  1  0.32195561  0.07305994  0.01493019  1
  Si0+  Si112  1  0.07379527  0.67627361  0.65037209  1
  Si0+  Si113  1  0.17884477  0.42957243  0.68084605  1
  Si0+  Si114  1  0.57025112  0.67778121  0.65100112  1
  Si0+  Si115  1  0.67732975  0.42810196  0.68497528  1
  Si0+  Si116  1  0.92982097  0.81995623  0.98622873  1
  Si0+  Si117  1  0.42959796  0.32065121  0.32003056  1
  Si0+  Si118  1  0.07101268  0.67797170  0.98664058  1
  Si0+  Si119  1  0.32163676  0.57120547  0.68172086  1
  O2-  O120  1  0.25507694  0.00403522  0.06084319  1
  O2-  O121  1  0.24398091  -0.00132138  0.39260687  1
  O2-  O122  1  0.24878172  0.00448472  0.73319593  1
  O2-  O123  1  0.24733208  0.49262869  0.06106625  1
  O2-  O124  1  0.24463168  0.49781947  0.39556536  1
  O2-  O125  1  0.24995619  0.50077460  0.72316533  1
  O2-  O126  1  0.74398742  0.00530248  0.06618563  1
  O2-  O127  1  0.75034671  -0.00173086  0.39230584  1
  O2-  O128  1  0.74257889  -0.00151350  0.72371295  1
  O2-  O129  1  0.74893618  0.50447427  0.06682444  1
  O2-  O130  1  0.75519782  0.50436907  0.39488885  1
  O2-  O131  1  0.74725349  0.49592917  0.72718149  1
  O2-  O132  1  0.00032143  0.25025706  0.26757005  1
  O2-  O133  1  -0.00473723  0.25360924  0.60662041  1
  O2-  O134  1  -0.00535861  0.25199285  0.93594964  1
  O2-  O135  1  -0.00050194  0.74960824  0.27613981  1
  O2-  O136  1  0.00399707  0.74441104  0.60710294  1
  O2-  O137  1  -0.00431054  0.74362695  0.94432200  1
  O2-  O138  1  0.49940247  0.24851806  0.27844313  1
  O2-  O139  1  0.49454505  0.25225886  0.60513948  1
  O2-  O140  1  0.49590603  0.25404972  0.94072842  1
  O2-  O141  1  0.49617689  0.74665509  0.26917690  1
  O2-  O142  1  0.49889017  0.74823801  0.60852213  1
  O2-  O143  1  0.50171902  0.75253894  0.93201188  1
  O2-  O144  1  0.07061420  0.17986139  0.09650759  1
  O2-  O145  1  0.07170557  0.17854709  0.43063194  1
  O2-  O146  1  0.06833027  0.17898186  0.76517786  1
  O2-  O147  1  0.07213999  0.68021708  0.09206309  1
  O2-  O148  1  0.07021215  0.67809811  0.42414357  1
  O2-  O149  1  0.07599239  0.67407178  0.75572458  1
  O2-  O150  1  0.56849596  0.18158444  0.10210719  1
  O2-  O151  1  0.57128734  0.17882144  0.42568563  1
  O2-  O152  1  0.57293552  0.18126240  0.76515379  1
  O2-  O153  1  0.56737022  0.67664754  0.09665024  1
  O2-  O154  1  0.57032721  0.67992508  0.43287296  1
  O2-  O155  1  0.57005991  0.67709528  0.75559000  1
  O2-  O156  1  0.17923121  0.43083049  0.24359030  1
  O2-  O157  1  0.17834867  0.43201001  0.57571923  1
  O2-  O158  1  0.17865485  0.42714728  0.91063353  1
  O2-  O159  1  0.17369495  0.92689546  0.24661955  1
  O2-  O160  1  0.18210138  0.92920818  0.56778731  1
  O2-  O161  1  0.17708697  0.92987725  0.90214674  1
  O2-  O162  1  0.67907086  0.42648125  0.23841111  1
  O2-  O163  1  0.67624437  0.42947276  0.57921342  1
  O2-  O164  1  0.68221868  0.43029897  0.90113620  1
  O2-  O165  1  0.67974937  0.93048424  0.24368272  1
  O2-  O166  1  0.67947076  0.92606333  0.57399856  1
  O2-  O167  1  0.67997828  0.93023584  0.90077096  1
  O2-  O168  1  0.42517327  0.32221051  0.08978218  1
  O2-  O169  1  0.42915259  0.32073189  0.42517051  1
  O2-  O170  1  0.43057562  0.33244492  0.75292841  1
  O2-  O171  1  0.42450971  0.81861546  0.09567813  1
  O2-  O172  1  0.43078530  0.82131734  0.43285845  1
  O2-  O173  1  0.42542082  0.81700469  0.75474656  1
  O2-  O174  1  0.93202676  0.32361459  0.08655832  1
  O2-  O175  1  0.92947669  0.32018061  0.43127934  1
  O2-  O176  1  0.93334465  0.32920053  0.75614455  1
  O2-  O177  1  0.93323132  0.82025769  0.09180235  1
  O2-  O178  1  0.92733980  0.82228886  0.42151176  1
  O2-  O179  1  0.92813840  0.81765341  0.76725008  1
  O2-  O180  1  0.32300235  0.07152296  0.23299941  1
  O2-  O181  1  0.32312633  0.07016938  0.56954268  1
  O2-  O182  1  0.32029280  0.07342113  0.90961120  1
  O2-  O183  1  0.31959218  0.57032426  0.23554875  1
  O2-  O184  1  0.32129592  0.57084638  0.57652036  1
  O2-  O185  1  0.31631605  0.56784647  0.89889239  1
  O2-  O186  1  0.81934151  0.06820909  0.24393116  1
  O2-  O187  1  0.81960226  0.06794266  0.56404615  1
  O2-  O188  1  0.82324593  0.06757361  0.90253923  1
  O2-  O189  1  0.82563010  0.57505434  0.24664897  1
  O2-  O190  1  0.81848481  0.57043364  0.56578254  1
  O2-  O191  1  0.82398169  0.57134474  0.90253506  1
  O2-  O192  1  0.04355879  0.07967976  0.26463753  1
  O2-  O193  1  0.03956784  0.08337428  0.59655227  1
  O2-  O194  1  0.03606473  0.08007980  0.93322781  1
  O2-  O195  1  0.04526261  0.58771548  0.26973755  1
  O2-  O196  1  0.04824100  0.58304077  0.60276103  1
  O2-  O197  1  0.05019613  0.58329334  0.94075593  1
  O2-  O198  1  0.54444523  0.08643040  0.27400051  1
  O2-  O199  1  0.54302578  0.08106566  0.59759162  1
  O2-  O200  1  0.54310601  0.08478190  0.93173013  1
  O2-  O201  1  0.54258645  0.57586480  0.27115792  1
  O2-  O202  1  0.54191335  0.58537950  0.60419827  1
  O2-  O203  1  0.54015456  0.58105729  0.92976573  1
  O2-  O204  1  0.17140593  0.20781142  0.26421424  1
  O2-  O205  1  0.16900795  0.21135625  0.60152848  1
  O2-  O206  1  0.16550556  0.20842894  0.92782140  1
  O2-  O207  1  0.16205564  0.70831370  0.27180653  1
  O2-  O208  1  0.16690445  0.70320321  0.60286029  1
  O2-  O209  1  0.16035534  0.70935309  0.93722592  1
  O2-  O210  1  0.66302827  0.20710658  0.27456947  1
  O2-  O211  1  0.66740913  0.21134084  0.59657365  1
  O2-  O212  1  0.66914174  0.21261077  0.93553010  1
  O2-  O213  1  0.66910343  0.70387928  0.26645475  1
  O2-  O214  1  0.66121053  0.70527574  0.60183061  1
  O2-  O215  1  0.67234170  0.70677250  0.93369911  1
  O2-  O216  1  0.08561996  0.45034694  0.06375364  1
  O2-  O217  1  0.08317172  0.45541325  0.39458712  1
  O2-  O218  1  0.08854737  0.45746339  0.73102582  1
  O2-  O219  1  0.08522009  0.96086355  0.07198310  1
  O2-  O220  1  0.08034323  0.95354986  0.39682110  1
  O2-  O221  1  0.07985648  0.95635718  0.73172863  1
  O2-  O222  1  0.57961148  0.45457782  0.06671678  1
  O2-  O223  1  0.58514710  0.45670310  0.40903613  1
  O2-  O224  1  0.58370113  0.45480542  0.73026591  1
  O2-  O225  1  0.57549710  0.95585669  0.06571079  1
  O2-  O226  1  0.58828251  0.95566144  0.39691863  1
  O2-  O227  1  0.58228727  0.94744846  0.72397492  1
  O2-  O228  1  0.20324413  0.33054214  0.06115634  1
  O2-  O229  1  0.20467564  0.33592191  0.39524848  1
  O2-  O230  1  0.20766826  0.33907980  0.72969506  1
  O2-  O231  1  0.20804811  0.83327451  0.06975296  1
  O2-  O232  1  0.19876323  0.83528292  0.40013441  1
  O2-  O233  1  0.20737449  0.83086511  0.73350976  1
  O2-  O234  1  0.70999347  0.33384467  0.07023909  1
  O2-  O235  1  0.71309817  0.33174646  0.40654070  1
  O2-  O236  1  0.70175100  0.33399831  0.72931440  1
  O2-  O237  1  0.70797383  0.83437953  0.07017043  1
  O2-  O238  1  0.70833227  0.83566395  0.39458544  1
  O2-  O239  1  0.70536644  0.83389422  0.72595586  1
  O2-  O240  1  0.46027940  0.41206360  0.27420817  1
  O2-  O241  1  0.45886652  0.41678600  0.59823639  1
  O2-  O242  1  0.45221998  0.41629129  0.93730993  1
  O2-  O243  1  0.45948827  0.91892925  0.26514895  1
  O2-  O244  1  0.45419509  0.91079234  0.60249960  1
  O2-  O245  1  0.45039185  0.92061494  0.92876896  1
  O2-  O246  1  0.95286593  0.42107012  0.26450692  1
  O2-  O247  1  0.95869586  0.41729053  0.60247166  1
  O2-  O248  1  0.95881792  0.41629375  0.93495021  1
  O2-  O249  1  0.95646591  0.91160382  0.26686226  1
  O2-  O250  1  0.96045138  0.91353217  0.59567876  1
  O2-  O251  1  0.96358094  0.90981092  0.93955048  1
  O2-  O252  1  0.33799814  0.29640046  0.27097751  1
  O2-  O253  1  0.33390636  0.30519373  0.60209783  1
  O2-  O254  1  0.33368876  0.29921678  0.93565091  1
  O2-  O255  1  0.32571621  0.79871174  0.27097554  1
  O2-  O256  1  0.33592329  0.78900861  0.60209890  1
  O2-  O257  1  0.32876602  0.78642027  0.92976774  1
  O2-  O258  1  0.82959532  0.29048480  0.26510510  1
  O2-  O259  1  0.83375791  0.30334867  0.60792309  1
  O2-  O260  1  0.83432836  0.30227332  0.93651894  1
  O2-  O261  1  0.83689468  0.79370105  0.26802469  1
  O2-  O262  1  0.83341567  0.78741279  0.59640657  1
  O2-  O263  1  0.83656658  0.79850074  0.93955653  1
  O2-  O264  1  0.41628922  0.05023044  0.05957940  1
  O2-  O265  1  0.41737442  0.03851964  0.40193633  1
  O2-  O266  1  0.42151786  0.04027936  0.73421268  1
  O2-  O267  1  0.41504204  0.53981612  0.06740145  1
  O2-  O268  1  0.41453256  0.53772259  0.40520787  1
  O2-  O269  1  0.41298339  0.54137143  0.72872519  1
  O2-  O270  1  0.91566362  0.03476124  0.07236787  1
  O2-  O271  1  0.91323052  0.03921533  0.39384187  1
  O2-  O272  1  0.91503630  0.03580055  0.73083306  1
  O2-  O273  1  0.92221212  0.54439112  0.06863737  1
  O2-  O274  1  0.91806421  0.54863467  0.39766030  1
  O2-  O275  1  0.91874651  0.54500090  0.73236658  1
  O2-  O276  1  0.29516737  0.16744720  0.05955118  1
  O2-  O277  1  0.29434328  0.16920212  0.40065277  1
  O2-  O278  1  0.30493930  0.17621133  0.73153713  1
  O2-  O279  1  0.28391376  0.66346285  0.06769134  1
  O2-  O280  1  0.28754322  0.66753262  0.40336548  1
  O2-  O281  1  0.29397349  0.66223406  0.72942065  1
  O2-  O282  1  0.80006550  0.17202620  0.06691624  1
  O2-  O283  1  0.79368069  0.16063069  0.39639406  1
  O2-  O284  1  0.79372783  0.16860943  0.73116580  1
  O2-  O285  1  0.80182291  0.67366790  0.06759381  1
  O2-  O286  1  0.79715284  0.66794684  0.39701017  1
  O2-  O287  1  0.78807273  0.66702258  0.73223378  1
