# generated using pymatgen
data_Ca2Al2SiO7
_symmetry_space_group_name_H-M   'P 1'
_cell_length_a   15.45308115
_cell_length_b   15.45341831
_cell_length_c   15.28023294
_cell_angle_alpha   90.00824519
_cell_angle_beta   90.00822189
_cell_angle_gamma   89.99865135
_symmetry_Int_Tables_number   1
_chemical_formula_structural   Ca2Al2SiO7
_chemical_formula_sum   'Ca48 Al48 Si24 O168'
_cell_volume   3648.96427973
_cell_formula_units_Z   24
loop_
 _symmetry_equiv_pos_site_id
 _symmetry_equiv_pos_as_xyz
  1  'x, y, z'
loop_
 _atom_type_symbol
 _atom_type_oxidation_number
  Ca2+  2.0
  Al0+  0.0
  Si0+  0.0
  O2-  -2.0
loop_
 _atom_site_type_symbol
 _atom_site_label
 _atom_site_symmetry_multiplicity
 _atom_site_fract_x
 _atom_site_fract_y
 _atom_site_fract_z
 _atom_site_occupancy
  Ca2+  Ca0  1  0.15880027  0.08234596  0.16792200  1
  Ca2+  Ca1  1  0.16612526  0.07648730  0.50665547  1
  Ca2+  Ca2  1  0.16496507  0.07237177  0.83993938  1
  Ca2+  Ca3  1  0.16924426  0.57707039  0.17174461  1
  Ca2+  Ca4  1  0.16904312  0.58701780  0.50615174  1
  Ca2+  Ca5  1  0.16423625  0.57240990  0.83490088  1
  Ca2+  Ca6  1  0.67308944  0.07915418  0.17218073  1
  Ca2+  Ca7  1  0.67909934  0.08714691  0.50846064  1
  Ca2+  Ca8  1  0.66779658  0.08302258  0.83339785  1
  Ca2+  Ca9  1  0.67205415  0.57180779  0.16836722  1
  Ca2+  Ca10  1  0.66237809  0.57473573  0.50582971  1
  Ca2+  Ca11  1  0.66750782  0.57732603  0.84008111  1
  Ca2+  Ca12  1  0.08176579  0.32233731  0.15336988  1
  Ca2+  Ca13  1  0.08321311  0.32777418  0.49495133  1
  Ca2+  Ca14  1  0.08123716  0.33507809  0.83220799  1
  Ca2+  Ca15  1  0.07826544  0.82963838  0.16653272  1
  Ca2+  Ca16  1  0.08449436  0.82442776  0.49446694  1
  Ca2+  Ca17  1  0.08821143  0.82821521  0.82636695  1
  Ca2+  Ca18  1  0.58170490  0.33874187  0.16060722  1
  Ca2+  Ca19  1  0.58533297  0.33519249  0.50184650  1
  Ca2+  Ca20  1  0.57617050  0.33802911  0.82473457  1
  Ca2+  Ca21  1  0.57867182  0.83702431  0.16032605  1
  Ca2+  Ca22  1  0.57320548  0.82880612  0.49629980  1
  Ca2+  Ca23  1  0.58026660  0.82869125  0.82354197  1
  Ca2+  Ca24  1  0.33126766  0.42007758  0.16953546  1
  Ca2+  Ca25  1  0.32742039  0.42227041  0.50725193  1
  Ca2+  Ca26  1  0.32631517  0.40765795  0.83683681  1
  Ca2+  Ca27  1  0.32701478  0.91492098  0.17068982  1
  Ca2+  Ca28  1  0.33019705  0.91066188  0.50700511  1
  Ca2+  Ca29  1  0.32418509  0.91129814  0.83560611  1
  Ca2+  Ca30  1  0.82806971  0.41380415  0.16622759  1
  Ca2+  Ca31  1  0.82053886  0.41385461  0.50630096  1
  Ca2+  Ca32  1  0.82321621  0.42108938  0.84182980  1
  Ca2+  Ca33  1  0.83091689  0.91962901  0.17306784  1
  Ca2+  Ca34  1  0.84432974  0.92800632  0.50233272  1
  Ca2+  Ca35  1  0.82773552  0.92373536  0.83810294  1
  Ca2+  Ca36  1  0.41948092  0.17595569  0.15688389  1
  Ca2+  Ca37  1  0.42228929  0.17227925  0.50135862  1
  Ca2+  Ca38  1  0.42360597  0.17795763  0.82673114  1
  Ca2+  Ca39  1  0.41315612  0.66767422  0.16947322  1
  Ca2+  Ca40  1  0.41563526  0.67354647  0.49814792  1
  Ca2+  Ca41  1  0.42433136  0.67248129  0.82303291  1
  Ca2+  Ca42  1  0.92448604  0.16917264  0.16282206  1
  Ca2+  Ca43  1  0.91891811  0.16329290  0.49286969  1
  Ca2+  Ca44  1  0.91690785  0.17027165  0.83399612  1
  Ca2+  Ca45  1  0.91690613  0.66605751  0.16368496  1
  Ca2+  Ca46  1  0.93083396  0.67101833  0.49244786  1
  Ca2+  Ca47  1  0.91935164  0.66507790  0.82785077  1
  Al0+  Al48  1  0.00013769  -0.00217212  0.00032999  1
  Al0+  Al49  1  0.00000518  -0.00069965  0.32959477  1
  Al0+  Al50  1  0.00064378  0.00137648  0.67769034  1
  Al0+  Al51  1  0.00133358  0.49965425  0.00464933  1
  Al0+  Al52  1  -0.00164303  0.49790282  0.32963024  1
  Al0+  Al53  1  -0.00015939  0.49979161  0.66404305  1
  Al0+  Al54  1  0.49838174  0.00061835  0.00195038  1
  Al0+  Al55  1  0.49929731  0.00064658  0.32921109  1
  Al0+  Al56  1  0.50123906  0.00286205  0.65878730  1
  Al0+  Al57  1  0.49987197  0.50222848  -0.00080003  1
  Al0+  Al58  1  0.49753104  0.50080100  0.34161427  1
  Al0+  Al59  1  0.49806929  0.50140592  0.66285791  1
  Al0+  Al60  1  0.25141508  0.24784223  -0.00473569  1
  Al0+  Al61  1  0.25108779  0.24879083  0.32998902  1
  Al0+  Al62  1  0.24986267  0.24931183  0.66597431  1
  Al0+  Al63  1  0.24901876  0.75105291  0.00449377  1
  Al0+  Al64  1  0.25094079  0.74888918  0.32831108  1
  Al0+  Al65  1  0.24937832  0.74921829  0.66544606  1
  Al0+  Al66  1  0.75100427  0.24922563  0.00028562  1
  Al0+  Al67  1  0.74956620  0.24780991  0.34036046  1
  Al0+  Al68  1  0.75084068  0.25171183  0.67372905  1
  Al0+  Al69  1  0.74990303  0.75071106  0.00734488  1
  Al0+  Al70  1  0.74849713  0.74805974  0.33172207  1
  Al0+  Al71  1  0.75115434  0.75222754  0.65958953  1
  Al0+  Al72  1  0.57391015  0.18130188  0.65115196  1
  Al0+  Al73  1  0.82172440  0.07193759  0.68305381  1
  Al0+  Al74  1  0.31745216  0.57096479  0.34843196  1
  Al0+  Al75  1  0.92873456  0.82050530  0.31824808  1
  Al0+  Al76  1  0.82029050  0.06680488  0.34651368  1
  Al0+  Al77  1  0.18162636  0.92865665  0.67938023  1
  Al0+  Al78  1  0.43055335  0.82144831  0.31671177  1
  Al0+  Al79  1  0.17838935  0.92797935  0.01686165  1
  Al0+  Al80  1  0.07191603  0.67649982  0.31557291  1
  Al0+  Al81  1  0.17791045  0.42771183  0.67926837  1
  Al0+  Al82  1  0.42625853  0.32162435  0.64938436  1
  Al0+  Al83  1  0.06889731  0.67840224  0.65493816  1
  Al0+  Al84  1  0.43141689  0.32324002  0.98721656  1
  Al0+  Al85  1  0.57399613  0.67868345  0.65119757  1
  Al0+  Al86  1  0.18060665  0.42677505  0.01320098  1
  Al0+  Al87  1  0.67789796  0.43228235  0.68163637  1
  Al0+  Al88  1  0.67769527  0.92982519  0.01221823  1
  Al0+  Al89  1  0.07189963  0.18000720  0.32105109  1
  Al0+  Al90  1  0.07114331  0.17688673  0.98173321  1
  Al0+  Al91  1  0.68032012  0.43001697  0.34891374  1
  Al0+  Al92  1  0.42860568  0.82168982  0.65296935  1
  Al0+  Al93  1  0.92877584  0.32277923  0.98411525  1
  Al0+  Al94  1  0.67735979  0.42795193  0.01418399  1
  Al0+  Al95  1  0.82251008  0.57144763  0.01477781  1
  Si0+  Si96  1  0.92887117  0.82530811  0.65199071  1
  Si0+  Si97  1  0.07193344  0.67993514  0.98482580  1
  Si0+  Si98  1  0.92712046  0.81945629  0.98431831  1
  Si0+  Si99  1  0.32012602  0.57206641  0.68429124  1
  Si0+  Si100  1  0.93004601  0.32071327  0.65186726  1
  Si0+  Si101  1  0.57050526  0.67557841  0.31494494  1
  Si0+  Si102  1  0.57154868  0.68176513  0.98686227  1
  Si0+  Si103  1  0.18134299  0.93132826  0.34710094  1
  Si0+  Si104  1  0.82243737  0.57370645  0.67971905  1
  Si0+  Si105  1  0.42803163  0.82190155  0.98515697  1
  Si0+  Si106  1  0.57232983  0.17635136  0.98470646  1
  Si0+  Si107  1  0.82384826  0.57352513  0.35223298  1
  Si0+  Si108  1  0.32110274  0.07067388  0.01706926  1
  Si0+  Si109  1  0.57227265  0.18027094  0.31787513  1
  Si0+  Si110  1  0.32188050  0.57277511  0.01582886  1
  Si0+  Si111  1  0.67710885  0.92831505  0.68025550  1
  Si0+  Si112  1  0.43033679  0.32137669  0.31844136  1
  Si0+  Si113  1  0.17716469  0.42538829  0.34821536  1
  Si0+  Si114  1  0.82194599  0.07138565  0.01822550  1
  Si0+  Si115  1  0.06982561  0.17727387  0.65284715  1
  Si0+  Si116  1  0.32431505  0.07266307  0.68265192  1
  Si0+  Si117  1  0.32340597  0.07330020  0.34822371  1
  Si0+  Si118  1  0.92521029  0.31976408  0.31834133  1
  Si0+  Si119  1  0.67483268  0.92650576  0.35086089  1
  O2-  O120  1  0.25088939  0.00458689  0.06343745  1
  O2-  O121  1  0.25300375  0.00145562  0.39008786  1
  O2-  O122  1  0.25849141  0.00101726  0.72678146  1
  O2-  O123  1  0.25594031  0.50096398  0.05935476  1
  O2-  O124  1  0.23906114  0.49918236  0.39381678  1
  O2-  O125  1  0.25464675  0.49992217  0.72752807  1
  O2-  O126  1  0.75036146  0.00498402  0.06116090  1
  O2-  O127  1  0.74776223  -0.00955257  0.39512025  1
  O2-  O128  1  0.74558077  -0.00353095  0.72608840  1
  O2-  O129  1  0.75320916  0.49592200  0.06406607  1
  O2-  O130  1  0.75571943  0.50428381  0.39617982  1
  O2-  O131  1  0.74865016  0.51182350  0.72550697  1
  O2-  O132  1  0.00079634  0.25825056  0.27510020  1
  O2-  O133  1  0.00061515  0.24911143  0.60926034  1
  O2-  O134  1  0.00088192  0.25113224  0.93232134  1
  O2-  O135  1  -0.00426135  0.74476509  0.26601642  1
  O2-  O136  1  -0.00475113  0.75422398  0.60865960  1
  O2-  O137  1  -0.00138471  0.74881639  0.94216055  1
  O2-  O138  1  0.50188133  0.25139826  0.27514654  1
  O2-  O139  1  0.50167030  0.25265818  0.59944396  1
  O2-  O140  1  0.51036628  0.25184282  0.94221965  1
  O2-  O141  1  0.50798088  0.74969647  0.26910529  1
  O2-  O142  1  0.50209290  0.75167820  0.60241786  1
  O2-  O143  1  0.50044118  0.75261430  0.94373625  1
  O2-  O144  1  0.06866053  0.17737981  0.09578087  1
  O2-  O145  1  0.07178380  0.17927940  0.43478335  1
  O2-  O146  1  0.06865187  0.17639508  0.75742716  1
  O2-  O147  1  0.07331544  0.68249715  0.08965831  1
  O2-  O148  1  0.07294567  0.68034973  0.42948841  1
  O2-  O149  1  0.06738684  0.67857132  0.76845610  1
  O2-  O150  1  0.56838258  0.17289035  0.09073811  1
  O2-  O151  1  0.57197765  0.18019492  0.42253144  1
  O2-  O152  1  0.57186004  0.18029011  0.76496063  1
  O2-  O153  1  0.56970150  0.68220044  0.09190317  1
  O2-  O154  1  0.56767544  0.67620428  0.42034322  1
  O2-  O155  1  0.57353141  0.68132356  0.76565309  1
  O2-  O156  1  0.18274370  0.42294969  0.24279613  1
  O2-  O157  1  0.17723276  0.42871798  0.56592590  1
  O2-  O158  1  0.18103719  0.43041391  0.90002437  1
  O2-  O159  1  0.18240275  0.93345129  0.24193035  1
  O2-  O160  1  0.17985653  0.93095502  0.56581661  1
  O2-  O161  1  0.18257776  0.92474079  0.90374748  1
  O2-  O162  1  0.67982915  0.42974795  0.23586403  1
  O2-  O163  1  0.68251382  0.43073659  0.56831838  1
  O2-  O164  1  0.67527809  0.43332053  0.90095258  1
  O2-  O165  1  0.67288064  0.93160281  0.24498227  1
  O2-  O166  1  0.67793394  0.92886304  0.57489494  1
  O2-  O167  1  0.67867492  0.92881777  0.89898806  1
  O2-  O168  1  0.43176029  0.32111944  0.10122362  1
  O2-  O169  1  0.42864984  0.31839484  0.42306096  1
  O2-  O170  1  0.42619739  0.31814033  0.76310540  1
  O2-  O171  1  0.42845432  0.82155248  0.09028049  1
  O2-  O172  1  0.42970729  0.82144360  0.42940062  1
  O2-  O173  1  0.42876893  0.81901411  0.76724647  1
  O2-  O174  1  0.92911593  0.31919999  0.09822590  1
  O2-  O175  1  0.92454172  0.31679479  0.42442779  1
  O2-  O176  1  0.93153019  0.32204778  0.75655022  1
  O2-  O177  1  0.92753057  0.81935424  0.08923861  1
  O2-  O178  1  0.93540521  0.82355856  0.43205753  1
  O2-  O179  1  0.92756244  0.82391564  0.75788596  1
  O2-  O180  1  0.32413778  0.07457853  0.24320788  1
  O2-  O181  1  0.32010103  0.07392274  0.57659333  1
  O2-  O182  1  0.32404646  0.06682295  0.91172643  1
  O2-  O183  1  0.31997191  0.56678525  0.23491717  1
  O2-  O184  1  0.31655105  0.57417426  0.57864213  1
  O2-  O185  1  0.32107777  0.57733466  0.91059385  1
  O2-  O186  1  0.81702147  0.06781666  0.23362638  1
  O2-  O187  1  0.82466848  0.06981195  0.56970987  1
  O2-  O188  1  0.82170018  0.06901605  0.91253296  1
  O2-  O189  1  0.82216046  0.57279770  0.24677692  1
  O2-  O190  1  0.82506328  0.56884540  0.57435394  1
  O2-  O191  1  0.81865367  0.57575096  0.90082659  1
  O2-  O192  1  0.03809520  0.08546804  0.26577073  1
  O2-  O193  1  0.03963596  0.08535264  0.60657030  1
  O2-  O194  1  0.04077582  0.07748954  0.93097041  1
  O2-  O195  1  0.04785209  0.57559832  0.26463456  1
  O2-  O196  1  0.03821058  0.58345495  0.59730599  1
  O2-  O197  1  0.04711262  0.58665801  0.93983687  1
  O2-  O198  1  0.54406069  0.08898118  0.26935569  1
  O2-  O199  1  0.54786342  0.08369986  0.59476175  1
  O2-  O200  1  0.53924246  0.08553424  0.93630612  1
  O2-  O201  1  0.53624947  0.58403273  0.26968883  1
  O2-  O202  1  0.54315854  0.58213044  0.59724454  1
  O2-  O203  1  0.54289943  0.59096953  0.93818183  1
  O2-  O204  1  0.16932432  0.20611449  0.26521864  1
  O2-  O205  1  0.16219921  0.20228067  0.60543745  1
  O2-  O206  1  0.17103882  0.20058427  0.93055461  1
  O2-  O207  1  0.16823781  0.70879358  0.26157321  1
  O2-  O208  1  0.16458956  0.71010431  0.60062410  1
  O2-  O209  1  0.16305331  0.71186799  0.93782759  1
  O2-  O210  1  0.66420950  0.20820713  0.27098171  1
  O2-  O211  1  0.67302301  0.21202333  0.60018797  1
  O2-  O212  1  0.66879619  0.19281158  0.94239601  1
  O2-  O213  1  0.66672467  0.69332269  0.27146398  1
  O2-  O214  1  0.67209085  0.70451206  0.59515046  1
  O2-  O215  1  0.66338369  0.71048366  0.94053283  1
  O2-  O216  1  0.08561579  0.45738526  0.06926214  1
  O2-  O217  1  0.07959739  0.44226370  0.38954021  1
  O2-  O218  1  0.08190621  0.46168503  0.73305887  1
  O2-  O219  1  0.08060391  0.95621025  0.06947191  1
  O2-  O220  1  0.08991932  0.96014391  0.39378163  1
  O2-  O221  1  0.08762493  0.96057573  0.73754716  1
  O2-  O222  1  0.58048994  0.46202354  0.06826501  1
  O2-  O223  1  0.58404440  0.46090794  0.40312600  1
  O2-  O224  1  0.57856129  0.45902254  0.73170394  1
  O2-  O225  1  0.58076196  0.95921792  0.06743692  1
  O2-  O226  1  0.58212673  0.95701156  0.39595490  1
  O2-  O227  1  0.58303896  0.95428972  0.72559678  1
  O2-  O228  1  0.21126050  0.32915727  0.06515421  1
  O2-  O229  1  0.20867195  0.33340246  0.39532382  1
  O2-  O230  1  0.20641734  0.33016073  0.73273314  1
  O2-  O231  1  0.21252643  0.83347713  0.07307656  1
  O2-  O232  1  0.20990639  0.83867216  0.39156756  1
  O2-  O233  1  0.21152074  0.83201509  0.73463230  1
  O2-  O234  1  0.70070456  0.32719646  0.06550911  1
  O2-  O235  1  0.71128543  0.33370903  0.40379300  1
  O2-  O236  1  0.71228297  0.33810270  0.73675476  1
  O2-  O237  1  0.70825122  0.83565001  0.07039009  1
  O2-  O238  1  0.69337801  0.82954343  0.39201340  1
  O2-  O239  1  0.70312377  0.83409207  0.72583657  1
  O2-  O240  1  0.45815170  0.41409750  0.27359962  1
  O2-  O241  1  0.45012421  0.42128263  0.59830473  1
  O2-  O242  1  0.45635065  0.42127764  0.93289838  1
  O2-  O243  1  0.45766792  0.91944274  0.26179621  1
  O2-  O244  1  0.45171769  0.92071671  0.59910092  1
  O2-  O245  1  0.45365283  0.91449176  0.93871045  1
  O2-  O246  1  0.94088078  0.41587948  0.27441849  1
  O2-  O247  1  0.95749195  0.41117540  0.60150941  1
  O2-  O248  1  0.95706324  0.42242228  0.93322261  1
  O2-  O249  1  0.96155032  0.91630978  0.26226495  1
  O2-  O250  1  0.96013655  0.91847083  0.60849553  1
  O2-  O251  1  0.95461995  0.91125529  0.93718802  1
  O2-  O252  1  0.33948310  0.29202550  0.26961447  1
  O2-  O253  1  0.32894042  0.28924897  0.59494471  1
  O2-  O254  1  0.33723740  0.28795010  0.93212869  1
  O2-  O255  1  0.33567431  0.78765941  0.26145303  1
  O2-  O256  1  0.33163505  0.78977671  0.59894569  1
  O2-  O257  1  0.33625470  0.79120542  0.93948135  1
  O2-  O258  1  0.83431011  0.28583420  0.27192207  1
  O2-  O259  1  0.83833085  0.29125591  0.60604248  1
  O2-  O260  1  0.82944657  0.29385358  0.93158270  1
  O2-  O261  1  0.82689280  0.79849153  0.26815337  1
  O2-  O262  1  0.83528411  0.80641294  0.60343443  1
  O2-  O263  1  0.83474658  0.79183334  0.93763667  1
  O2-  O264  1  0.41332562  0.04356780  0.06608989  1
  O2-  O265  1  0.41577313  0.04626160  0.39495069  1
  O2-  O266  1  0.41985584  0.05105747  0.72603175  1
  O2-  O267  1  0.41575381  0.54963928  0.06250204  1
  O2-  O268  1  0.41155950  0.53847558  0.40534799  1
  O2-  O269  1  0.41539511  0.55084748  0.72798196  1
  O2-  O270  1  0.91412436  0.04111146  0.06367729  1
  O2-  O271  1  0.91799534  0.03673694  0.40031911  1
  O2-  O272  1  0.91535653  0.03993866  0.74156053  1
  O2-  O273  1  0.92099675  0.54701960  0.06905166  1
  O2-  O274  1  0.91902855  0.54886118  0.39623273  1
  O2-  O275  1  0.91338659  0.54231993  0.72785590  1
  O2-  O276  1  0.29758141  0.16485304  0.06255777  1
  O2-  O277  1  0.29446906  0.16446466  0.39661932  1
  O2-  O278  1  0.29507713  0.16438177  0.72978605  1
  O2-  O279  1  0.29245734  0.66414975  0.06491531  1
  O2-  O280  1  0.28879039  0.66913311  0.40086563  1
  O2-  O281  1  0.29123764  0.66390460  0.73213989  1
  O2-  O282  1  0.79965288  0.16558080  0.06390483  1
  O2-  O283  1  0.78837675  0.16164018  0.40338960  1
  O2-  O284  1  0.79071601  0.16695298  0.73905014  1
  O2-  O285  1  0.79059290  0.66734166  0.07133120  1
  O2-  O286  1  0.79933889  0.66791170  0.39763529  1
  O2-  O287  1  0.80441084  0.67109463  0.72173318  1
