# generated using pymatgen
data_Ca2Al2SiO7
_symmetry_space_group_name_H-M   'P 1'
_cell_length_a   15.46237555
_cell_length_b   15.46419916
_cell_length_c   15.28709031
_cell_angle_alpha   89.99077993
_cell_angle_beta   90.01805152
_cell_angle_gamma   89.99420428
_symmetry_Int_Tables_number   1
_chemical_formula_structural   Ca2Al2SiO7
_chemical_formula_sum   'Ca48 Al48 Si24 O168'
_cell_volume   3655.34567353
_cell_formula_units_Z   24
loop_
 _symmetry_equiv_pos_site_id
 _symmetry_equiv_pos_as_xyz
  1  'x, y, z'
loop_
 _atom_type_symbol
 _atom_type_oxidation_number
  Ca2+  2.0
  Al0+  0.0
  Si0+  0.0
  O2-  -2.0
loop_
 _atom_site_type_symbol
 _atom_site_label
 _atom_site_symmetry_multiplicity
 _atom_site_fract_x
 _atom_site_fract_y
 _atom_site_fract_z
 _atom_site_occupancy
  Ca2+  Ca0  1  0.17025383  0.08040901  0.17152593  1
  Ca2+  Ca1  1  0.16906653  0.08262834  0.50387275  1
  Ca2+  Ca2  1  0.16172249  0.07498481  0.83781002  1
  Ca2+  Ca3  1  0.16307663  0.58936245  0.17229474  1
  Ca2+  Ca4  1  0.16716902  0.58456022  0.50150055  1
  Ca2+  Ca5  1  0.16769486  0.58385725  0.84166031  1
  Ca2+  Ca6  1  0.66993183  0.07748446  0.17647700  1
  Ca2+  Ca7  1  0.67660378  0.08468445  0.50491548  1
  Ca2+  Ca8  1  0.67107538  0.07364942  0.83805403  1
  Ca2+  Ca9  1  0.67096042  0.58253239  0.17287775  1
  Ca2+  Ca10  1  0.66443614  0.57881815  0.50089015  1
  Ca2+  Ca11  1  0.66774597  0.57417730  0.84592246  1
  Ca2+  Ca12  1  0.08045050  0.32062400  0.16186602  1
  Ca2+  Ca13  1  0.07914217  0.31935357  0.49340294  1
  Ca2+  Ca14  1  0.08026817  0.31913957  0.82771372  1
  Ca2+  Ca15  1  0.07564641  0.82554258  0.15650261  1
  Ca2+  Ca16  1  0.08307507  0.83145182  0.49478462  1
  Ca2+  Ca17  1  0.07924505  0.83754143  0.83474828  1
  Ca2+  Ca18  1  0.59550275  0.32955232  0.16774021  1
  Ca2+  Ca19  1  0.58384062  0.33450013  0.49537483  1
  Ca2+  Ca20  1  0.58134763  0.33985031  0.82675041  1
  Ca2+  Ca21  1  0.57816418  0.82849482  0.15552049  1
  Ca2+  Ca22  1  0.57948161  0.83259011  0.48889680  1
  Ca2+  Ca23  1  0.59246184  0.83034708  0.83332480  1
  Ca2+  Ca24  1  0.32913837  0.41909093  0.16986145  1
  Ca2+  Ca25  1  0.33565161  0.41711639  0.50465649  1
  Ca2+  Ca26  1  0.33503995  0.41672945  0.83640845  1
  Ca2+  Ca27  1  0.32959769  0.91123838  0.17014934  1
  Ca2+  Ca28  1  0.33088227  0.92161974  0.50162682  1
  Ca2+  Ca29  1  0.32164480  0.91148008  0.84096896  1
  Ca2+  Ca30  1  0.82578333  0.42849919  0.17205284  1
  Ca2+  Ca31  1  0.82208462  0.42124003  0.50032467  1
  Ca2+  Ca32  1  0.82245007  0.42092732  0.84199962  1
  Ca2+  Ca33  1  0.83101229  0.91523975  0.16621792  1
  Ca2+  Ca34  1  0.82844590  0.92694985  0.50516499  1
  Ca2+  Ca35  1  0.82716277  0.91728497  0.83613792  1
  Ca2+  Ca36  1  0.42177855  0.16301581  0.16862041  1
  Ca2+  Ca37  1  0.42245414  0.17055690  0.49223948  1
  Ca2+  Ca38  1  0.41923182  0.17496378  0.82800948  1
  Ca2+  Ca39  1  0.42774068  0.67808778  0.16459536  1
  Ca2+  Ca40  1  0.42441574  0.67699500  0.48958960  1
  Ca2+  Ca41  1  0.42186582  0.67382343  0.83728823  1
  Ca2+  Ca42  1  0.92570484  0.15870427  0.16354203  1
  Ca2+  Ca43  1  0.92284312  0.15624771  0.49408624  1
  Ca2+  Ca44  1  0.92677380  0.15491817  0.82924851  1
  Ca2+  Ca45  1  0.92054919  0.66382954  0.15799505  1
  Ca2+  Ca46  1  0.92115723  0.66685080  0.49113667  1
  Ca2+  Ca47  1  0.91178459  0.67036761  0.83897740  1
  Al0+  Al48  1  0.00256526  -0.00299962  -0.00288977  1
  Al0+  Al49  1  0.00055862  -0.00220937  0.33203352  1
  Al0+  Al50  1  0.00151070  -0.00253551  0.66729588  1
  Al0+  Al51  1  -0.00041695  0.49644086  -0.00180526  1
  Al0+  Al52  1  -0.00081546  0.49800728  0.33489624  1
  Al0+  Al53  1  0.00134953  0.49864643  0.66593170  1
  Al0+  Al54  1  0.49887864  0.00273342  -0.00202113  1
  Al0+  Al55  1  0.49559739  0.00384828  0.33092604  1
  Al0+  Al56  1  0.49916069  0.00097576  0.66993539  1
  Al0+  Al57  1  0.49756736  0.49908256  0.00258046  1
  Al0+  Al58  1  0.49666025  0.50156712  0.33325499  1
  Al0+  Al59  1  0.49930940  0.50206611  0.66589883  1
  Al0+  Al60  1  0.25051961  0.24972388  -0.00428360  1
  Al0+  Al61  1  0.24918349  0.24846383  0.33305658  1
  Al0+  Al62  1  0.24982582  0.25133419  0.65849508  1
  Al0+  Al63  1  0.25081914  0.74933287  -0.00128417  1
  Al0+  Al64  1  0.24865213  0.74883472  0.32859991  1
  Al0+  Al65  1  0.25199047  0.74964620  0.66942299  1
  Al0+  Al66  1  0.75165812  0.24991773  0.00252422  1
  Al0+  Al67  1  0.75012768  0.25129188  0.33758775  1
  Al0+  Al68  1  0.75232320  0.25227596  0.67596696  1
  Al0+  Al69  1  0.75108485  0.74984009  -0.00060949  1
  Al0+  Al70  1  0.75097245  0.74952399  0.33551504  1
  Al0+  Al71  1  0.75237821  0.74968359  0.66614224  1
  Al0+  Al72  1  0.57225374  0.18191880  0.32175847  1
  Al0+  Al73  1  0.67688196  0.43070376  0.35024185  1
  Al0+  Al74  1  0.82222978  0.07126908  0.68223432  1
  Al0+  Al75  1  0.92838299  0.82058368  0.98305565  1
  Al0+  Al76  1  0.43104309  0.32212845  0.65243446  1
  Al0+  Al77  1  0.82109559  0.57030860  0.01477301  1
  Al0+  Al78  1  0.67861590  0.43251161  0.68129297  1
  Al0+  Al79  1  0.67703784  0.92799835  0.68004170  1
  Al0+  Al80  1  0.57252513  0.67933969  0.31938910  1
  Al0+  Al81  1  0.06867556  0.67767483  0.32170740  1
  Al0+  Al82  1  0.07129238  0.17900254  0.98544968  1
  Al0+  Al83  1  0.18030297  0.92848567  0.01554503  1
  Al0+  Al84  1  0.07113797  0.67600020  0.98390217  1
  Al0+  Al85  1  0.82176976  0.06959620  0.34501995  1
  Al0+  Al86  1  0.82259993  0.57346708  0.35014083  1
  Al0+  Al87  1  0.07057794  0.17745400  0.31827521  1
  Al0+  Al88  1  0.42953375  0.82403307  0.98299714  1
  Al0+  Al89  1  0.67797117  0.93042904  0.01430790  1
  Al0+  Al90  1  0.67564829  0.42750923  0.01753654  1
  Al0+  Al91  1  0.42874551  0.82387389  0.31934881  1
  Al0+  Al92  1  0.32076722  0.07214032  0.34753119  1
  Al0+  Al93  1  0.06797191  0.17745962  0.65042674  1
  Al0+  Al94  1  0.18220720  0.92863017  0.67999699  1
  Al0+  Al95  1  0.57114436  0.67890514  0.98491144  1
  Si0+  Si96  1  0.17868639  0.42711509  0.34876042  1
  Si0+  Si97  1  0.31948248  0.57051111  0.01674509  1
  Si0+  Si98  1  0.82310046  0.07061774  0.01669270  1
  Si0+  Si99  1  0.92794529  0.82216711  0.31795545  1
  Si0+  Si100  1  0.31789634  0.57138776  0.34893096  1
  Si0+  Si101  1  0.17959605  0.92709424  0.34914031  1
  Si0+  Si102  1  0.57381398  0.17801135  0.65241930  1
  Si0+  Si103  1  0.07354535  0.67789087  0.65187326  1
  Si0+  Si104  1  0.92781042  0.32111442  0.31658478  1
  Si0+  Si105  1  0.17911204  0.42831550  0.68103455  1
  Si0+  Si106  1  0.42661600  0.32298698  0.31596301  1
  Si0+  Si107  1  0.42721217  0.82140950  0.65216689  1
  Si0+  Si108  1  0.92980968  0.81917221  0.64955241  1
  Si0+  Si109  1  0.82540645  0.57208611  0.68407128  1
  Si0+  Si110  1  0.57104987  0.68098549  0.65260455  1
  Si0+  Si111  1  0.42896956  0.32012598  0.98608917  1
  Si0+  Si112  1  0.57381604  0.17962864  0.98510773  1
  Si0+  Si113  1  0.17967913  0.42664055  0.01347238  1
  Si0+  Si114  1  0.92739090  0.32415970  0.64871486  1
  Si0+  Si115  1  0.32152794  0.07530470  0.68319875  1
  Si0+  Si116  1  0.32104570  0.07504714  0.01591614  1
  Si0+  Si117  1  0.67571273  0.92899406  0.34678387  1
  Si0+  Si118  1  0.32002003  0.57044662  0.68237719  1
  Si0+  Si119  1  0.92760575  0.32010662  0.98221010  1
  O2-  O120  1  0.25675900  0.00232601  0.06002314  1
  O2-  O121  1  0.24714559  -0.00359731  0.39407340  1
  O2-  O122  1  0.25508326  0.00509453  0.72761843  1
  O2-  O123  1  0.24400568  0.50269947  0.05760814  1
  O2-  O124  1  0.24811817  0.49946172  0.39224625  1
  O2-  O125  1  0.24909160  0.49929643  0.72491497  1
  O2-  O126  1  0.75194410  0.00538716  0.06170493  1
  O2-  O127  1  0.74450418  -0.00272981  0.39164380  1
  O2-  O128  1  0.74629474  0.00254068  0.73041272  1
  O2-  O129  1  0.74524743  0.50257698  0.06494253  1
  O2-  O130  1  0.74626897  0.50572727  0.39992583  1
  O2-  O131  1  0.75519245  0.50497415  0.72747532  1
  O2-  O132  1  -0.00672294  0.24931971  0.27163746  1
  O2-  O133  1  -0.00921889  0.25041085  0.60417438  1
  O2-  O134  1  -0.00642237  0.24935218  0.93701547  1
  O2-  O135  1  -0.00906429  0.74767069  0.27527876  1
  O2-  O136  1  0.00099007  0.74665922  0.60929410  1
  O2-  O137  1  0.00018424  0.74750605  0.93234197  1
  O2-  O138  1  0.49905123  0.25817246  0.27275557  1
  O2-  O139  1  0.50605681  0.24757015  0.60741387  1
  O2-  O140  1  0.50464883  0.25389059  0.94456700  1
  O2-  O141  1  0.50731622  0.75835708  0.27086367  1
  O2-  O142  1  0.50599208  0.75835093  0.61127698  1
  O2-  O143  1  0.50483030  0.75553071  0.93210500  1
  O2-  O144  1  0.07279439  0.18179900  0.09854091  1
  O2-  O145  1  0.07059788  0.17888249  0.43145224  1
  O2-  O146  1  0.06933628  0.17994573  0.76355784  1
  O2-  O147  1  0.07014477  0.67688003  0.09745313  1
  O2-  O148  1  0.07165545  0.68063092  0.43564092  1
  O2-  O149  1  0.07553235  0.67663063  0.75623784  1
  O2-  O150  1  0.57323205  0.17874663  0.09013087  1
  O2-  O151  1  0.57095950  0.18244939  0.43498030  1
  O2-  O152  1  0.56997081  0.17849501  0.75829595  1
  O2-  O153  1  0.56732784  0.67823917  0.09794370  1
  O2-  O154  1  0.56721228  0.67986301  0.43409842  1
  O2-  O155  1  0.56843532  0.67841141  0.75733239  1
  O2-  O156  1  0.18109400  0.42637720  0.24344084  1
  O2-  O157  1  0.17928354  0.43065005  0.57589272  1
  O2-  O158  1  0.18506663  0.42469817  0.90814483  1
  O2-  O159  1  0.18008517  0.92702414  0.24388798  1
  O2-  O160  1  0.18479536  0.92586451  0.56677321  1
  O2-  O161  1  0.18069510  0.93102171  0.90203835  1
  O2-  O162  1  0.67941690  0.43030484  0.23731597  1
  O2-  O163  1  0.67633617  0.43541191  0.56867851  1
  O2-  O164  1  0.67568710  0.42836824  0.90343684  1
  O2-  O165  1  0.67687797  0.93067309  0.24128610  1
  O2-  O166  1  0.67810362  0.92691599  0.56611750  1
  O2-  O167  1  0.67891974  0.93375599  0.90123646  1
  O2-  O168  1  0.42195365  0.31812749  0.09057496  1
  O2-  O169  1  0.42484077  0.32185832  0.42166378  1
  O2-  O170  1  0.43018884  0.32223179  0.76599193  1
  O2-  O171  1  0.42932527  0.82086500  0.09627406  1
  O2-  O172  1  0.42746501  0.82064616  0.43407516  1
  O2-  O173  1  0.42159516  0.81627912  0.75642673  1
  O2-  O174  1  0.93064993  0.32003132  0.08768697  1
  O2-  O175  1  0.93174416  0.32188130  0.42234810  1
  O2-  O176  1  0.93323975  0.32920728  0.75393731  1
  O2-  O177  1  0.93110300  0.82273239  0.09666575  1
  O2-  O178  1  0.93204634  0.82452529  0.42398690  1
  O2-  O179  1  0.92859000  0.81876609  0.75411423  1
  O2-  O180  1  0.31759570  0.07605682  0.23480913  1
  O2-  O181  1  0.32112137  0.07451847  0.57763777  1
  O2-  O182  1  0.31820768  0.07996189  0.91019690  1
  O2-  O183  1  0.31603745  0.56999989  0.24401705  1
  O2-  O184  1  0.31812480  0.57139443  0.57713244  1
  O2-  O185  1  0.32079502  0.56697640  0.91105444  1
  O2-  O186  1  0.82256009  0.06716092  0.23204062  1
  O2-  O187  1  0.82200392  0.06827815  0.56830221  1
  O2-  O188  1  0.82112296  0.07066067  0.91109398  1
  O2-  O189  1  0.82693824  0.56991006  0.23746270  1
  O2-  O190  1  0.82675767  0.57154852  0.57862680  1
  O2-  O191  1  0.82123915  0.56535806  0.90059357  1
  O2-  O192  1  0.04214882  0.08001751  0.26555004  1
  O2-  O193  1  0.04058981  0.07940699  0.59755331  1
  O2-  O194  1  0.04260802  0.08224231  0.93213298  1
  O2-  O195  1  0.04553003  0.57827615  0.26998489  1
  O2-  O196  1  0.04840083  0.58473622  0.60465868  1
  O2-  O197  1  0.04655718  0.57549421  0.93181667  1
  O2-  O198  1  0.53844274  0.08740979  0.26558439  1
  O2-  O199  1  0.54764846  0.08432296  0.60617470  1
  O2-  O200  1  0.54254227  0.09074498  0.93448425  1
  O2-  O201  1  0.53573444  0.58353375  0.26705538  1
  O2-  O202  1  0.53490393  0.59282289  0.60357711  1
  O2-  O203  1  0.53443194  0.58114423  0.93324201  1
  O2-  O204  1  0.16560453  0.21329180  0.26477255  1
  O2-  O205  1  0.16356761  0.21228358  0.59640106  1
  O2-  O206  1  0.16567125  0.21515315  0.92985289  1
  O2-  O207  1  0.16391325  0.70843635  0.26617228  1
  O2-  O208  1  0.16552143  0.70720081  0.60460145  1
  O2-  O209  1  0.17073034  0.70262158  0.93287384  1
  O2-  O210  1  0.66915732  0.21045599  0.26702046  1
  O2-  O211  1  0.66949422  0.20292731  0.61099460  1
  O2-  O212  1  0.66667183  0.20426485  0.93828275  1
  O2-  O213  1  0.67428433  0.69842846  0.27107133  1
  O2-  O214  1  0.66554941  0.70108159  0.60691652  1
  O2-  O215  1  0.67067932  0.70159791  0.93268669  1
  O2-  O216  1  0.08581816  0.44597161  0.05901099  1
  O2-  O217  1  0.08735930  0.45281845  0.39739908  1
  O2-  O218  1  0.08758856  0.45524223  0.72926765  1
  O2-  O219  1  0.08380671  0.95978452  0.06862461  1
  O2-  O220  1  0.08610283  0.95246122  0.39537769  1
  O2-  O221  1  0.08528741  0.95730609  0.73287141  1
  O2-  O222  1  0.57451614  0.44887789  0.06755675  1
  O2-  O223  1  0.57544304  0.45572810  0.40018127  1
  O2-  O224  1  0.58165794  0.46546405  0.73438237  1
  O2-  O225  1  0.58048648  0.96240598  0.06606761  1
  O2-  O226  1  0.58148882  0.95456860  0.39104131  1
  O2-  O227  1  0.57717064  0.95120007  0.73333442  1
  O2-  O228  1  0.21503733  0.33788598  0.06258896  1
  O2-  O229  1  0.20924776  0.33701741  0.39766042  1
  O2-  O230  1  0.20881446  0.33660072  0.72734012  1
  O2-  O231  1  0.21044179  0.83083828  0.06777319  1
  O2-  O232  1  0.20647242  0.83341067  0.39532037  1
  O2-  O233  1  0.21454685  0.83277048  0.73501384  1
  O2-  O234  1  0.70830261  0.32933990  0.06888854  1
  O2-  O235  1  0.70832178  0.33354617  0.40463684  1
  O2-  O236  1  0.70487176  0.33553512  0.73673696  1
  O2-  O237  1  0.70760098  0.83317936  0.06603440  1
  O2-  O238  1  0.69951025  0.83527395  0.39326181  1
  O2-  O239  1  0.70982257  0.82996764  0.73200593  1
  O2-  O240  1  0.44523207  0.41839876  0.27143690  1
  O2-  O241  1  0.45932650  0.41979291  0.59821945  1
  O2-  O242  1  0.45139278  0.41306410  0.93835337  1
  O2-  O243  1  0.44482569  0.92476994  0.26835595  1
  O2-  O244  1  0.44654745  0.91716321  0.60881653  1
  O2-  O245  1  0.44904031  0.92535490  0.93208071  1
  O2-  O246  1  0.95919958  0.41229132  0.26927109  1
  O2-  O247  1  0.95914416  0.41533309  0.59963452  1
  O2-  O248  1  0.95610887  0.41138198  0.93339194  1
  O2-  O249  1  0.95937459  0.91188910  0.26824601  1
  O2-  O250  1  0.96074509  0.90941690  0.60140919  1
  O2-  O251  1  0.96049220  0.91716324  0.92807652  1
  O2-  O252  1  0.33443689  0.29350425  0.26899842  1
  O2-  O253  1  0.33447433  0.29453750  0.59650498  1
  O2-  O254  1  0.34017316  0.28861944  0.93367639  1
  O2-  O255  1  0.33375720  0.78619934  0.26584407  1
  O2-  O256  1  0.33927709  0.78488508  0.60181646  1
  O2-  O257  1  0.33348543  0.78730348  0.93011643  1
  O2-  O258  1  0.83323219  0.29964314  0.27276493  1
  O2-  O259  1  0.83066271  0.30419014  0.60758868  1
  O2-  O260  1  0.83295473  0.29707877  0.93667647  1
  O2-  O261  1  0.83203809  0.80392233  0.27494340  1
  O2-  O262  1  0.83840738  0.79215049  0.60017436  1
  O2-  O263  1  0.83060990  0.79317744  0.92839244  1
  O2-  O264  1  0.41669408  0.05536064  0.05941295  1
  O2-  O265  1  0.41740123  0.04487384  0.40427907  1
  O2-  O266  1  0.41599497  0.05395213  0.72913751  1
  O2-  O267  1  0.40767115  0.53654079  0.06642570  1
  O2-  O268  1  0.40883107  0.54441228  0.39838555  1
  O2-  O269  1  0.41060886  0.54117925  0.73059344  1
  O2-  O270  1  0.91646361  0.04192215  0.06070986  1
  O2-  O271  1  0.91750780  0.03534697  0.39991850  1
  O2-  O272  1  0.91874408  0.03621962  0.73426901  1
  O2-  O273  1  0.91953891  0.53691613  0.06625535  1
  O2-  O274  1  0.92006530  0.53959641  0.40457020  1
  O2-  O275  1  0.91941185  0.54581436  0.72930507  1
  O2-  O276  1  0.29034392  0.16675156  0.06351825  1
  O2-  O277  1  0.28839489  0.16814610  0.40288991  1
  O2-  O278  1  0.29415402  0.16961503  0.72714364  1
  O2-  O279  1  0.29480967  0.66238092  0.06385212  1
  O2-  O280  1  0.28754440  0.66208236  0.39777414  1
  O2-  O281  1  0.29132802  0.66063741  0.73177842  1
  O2-  O282  1  0.80199565  0.16564398  0.06140422  1
  O2-  O283  1  0.79494216  0.16664079  0.39976085  1
  O2-  O284  1  0.80272463  0.17112851  0.73605213  1
  O2-  O285  1  0.79990714  0.67064303  0.06500142  1
  O2-  O286  1  0.80022729  0.67359740  0.40402569  1
  O2-  O287  1  0.80127495  0.66656695  0.72779052  1
