# generated using pymatgen
data_Ca2Al2SiO7
_symmetry_space_group_name_H-M   'P 1'
_cell_length_a   15.45132960
_cell_length_b   15.45107453
_cell_length_c   15.27856212
_cell_angle_alpha   90.00714526
_cell_angle_beta   90.00995522
_cell_angle_gamma   89.99624758
_symmetry_Int_Tables_number   1
_chemical_formula_structural   Ca2Al2SiO7
_chemical_formula_sum   'Ca48 Al48 Si24 O168'
_cell_volume   3647.59841009
_cell_formula_units_Z   24
loop_
 _symmetry_equiv_pos_site_id
 _symmetry_equiv_pos_as_xyz
  1  'x, y, z'
loop_
 _atom_type_symbol
 _atom_type_oxidation_number
  Ca2+  2.0
  Al0+  0.0
  Si0+  0.0
  O2-  -2.0
loop_
 _atom_site_type_symbol
 _atom_site_label
 _atom_site_symmetry_multiplicity
 _atom_site_fract_x
 _atom_site_fract_y
 _atom_site_fract_z
 _atom_site_occupancy
  Ca2+  Ca0  1  0.17484312  0.08592176  0.17032154  1
  Ca2+  Ca1  1  0.16750544  0.06791875  0.50531437  1
  Ca2+  Ca2  1  0.17000362  0.07965979  0.84145798  1
  Ca2+  Ca3  1  0.16947432  0.58611396  0.16012264  1
  Ca2+  Ca4  1  0.16824676  0.58727907  0.50635445  1
  Ca2+  Ca5  1  0.16889675  0.58204620  0.84420966  1
  Ca2+  Ca6  1  0.66190597  0.07241049  0.17139095  1
  Ca2+  Ca7  1  0.65752505  0.07303283  0.50332545  1
  Ca2+  Ca8  1  0.65887905  0.07394605  0.83605164  1
  Ca2+  Ca9  1  0.65673326  0.56988244  0.17143529  1
  Ca2+  Ca10  1  0.66983604  0.58577774  0.50562231  1
  Ca2+  Ca11  1  0.67432324  0.58313639  0.83820129  1
  Ca2+  Ca12  1  0.07801946  0.32954379  0.15041766  1
  Ca2+  Ca13  1  0.07406710  0.33479265  0.49937268  1
  Ca2+  Ca14  1  0.07751291  0.33450142  0.83382362  1
  Ca2+  Ca15  1  0.07896101  0.83402340  0.16238447  1
  Ca2+  Ca16  1  0.08116940  0.83394224  0.49396951  1
  Ca2+  Ca17  1  0.08862113  0.82119017  0.82809149  1
  Ca2+  Ca18  1  0.58573942  0.32891733  0.16004313  1
  Ca2+  Ca19  1  0.59102273  0.32090383  0.49401344  1
  Ca2+  Ca20  1  0.58057977  0.33110545  0.83081210  1
  Ca2+  Ca21  1  0.57670448  0.83529273  0.16270727  1
  Ca2+  Ca22  1  0.58680443  0.82531589  0.49007286  1
  Ca2+  Ca23  1  0.57870565  0.83562865  0.82879957  1
  Ca2+  Ca24  1  0.33423634  0.41994679  0.16330194  1
  Ca2+  Ca25  1  0.33175662  0.41967405  0.50254384  1
  Ca2+  Ca26  1  0.32976101  0.42454607  0.84968320  1
  Ca2+  Ca27  1  0.33326564  0.91642269  0.16929522  1
  Ca2+  Ca28  1  0.32456821  0.90654086  0.50071621  1
  Ca2+  Ca29  1  0.33155050  0.92117116  0.84084245  1
  Ca2+  Ca30  1  0.82388797  0.41325702  0.16801762  1
  Ca2+  Ca31  1  0.82846058  0.42198448  0.50650586  1
  Ca2+  Ca32  1  0.83309219  0.41632735  0.83761094  1
  Ca2+  Ca33  1  0.82331176  0.91279569  0.17337288  1
  Ca2+  Ca34  1  0.82251234  0.91009259  0.50323640  1
  Ca2+  Ca35  1  0.81748075  0.91339143  0.83729464  1
  Ca2+  Ca36  1  0.42042918  0.16895514  0.15924128  1
  Ca2+  Ca37  1  0.42935797  0.16442819  0.49726257  1
  Ca2+  Ca38  1  0.41561076  0.17168049  0.83438392  1
  Ca2+  Ca39  1  0.41719562  0.67746499  0.16243606  1
  Ca2+  Ca40  1  0.43094485  0.67260056  0.49322226  1
  Ca2+  Ca41  1  0.42062920  0.66986128  0.83153342  1
  Ca2+  Ca42  1  0.92513340  0.17149673  0.15617765  1
  Ca2+  Ca43  1  0.91145809  0.17256689  0.49873994  1
  Ca2+  Ca44  1  0.91699915  0.17847767  0.83385373  1
  Ca2+  Ca45  1  0.92064135  0.67339247  0.16362627  1
  Ca2+  Ca46  1  0.91969435  0.67012314  0.49885933  1
  Ca2+  Ca47  1  0.92879359  0.65794461  0.82841270  1
  Al0+  Al48  1  -0.00217156  -0.00038747  -0.00677655  1
  Al0+  Al49  1  0.00084690  0.00093120  0.33354035  1
  Al0+  Al50  1  -0.00059891  0.00005347  0.67353251  1
  Al0+  Al51  1  -0.00057909  0.50156829  -0.00126560  1
  Al0+  Al52  1  0.00027318  0.49990306  0.33280361  1
  Al0+  Al53  1  -0.00033530  0.50032852  0.65967188  1
  Al0+  Al54  1  0.49800415  -0.00153419  0.00428206  1
  Al0+  Al55  1  0.50027589  0.00169652  0.33063598  1
  Al0+  Al56  1  0.49690663  0.00149835  0.66634610  1
  Al0+  Al57  1  0.50100281  0.50054686  0.00395760  1
  Al0+  Al58  1  0.49890150  0.49836195  0.33808027  1
  Al0+  Al59  1  0.49918617  0.50066320  0.66211146  1
  Al0+  Al60  1  0.25122465  0.24921441  -0.00022176  1
  Al0+  Al61  1  0.25012125  0.25071231  0.33889398  1
  Al0+  Al62  1  0.24820082  0.24966066  0.66406836  1
  Al0+  Al63  1  0.25090336  0.75123051  -0.00434662  1
  Al0+  Al64  1  0.25127340  0.74873553  0.33469354  1
  Al0+  Al65  1  0.24983175  0.74871924  0.66720696  1
  Al0+  Al66  1  0.75130620  0.24798972  -0.00104154  1
  Al0+  Al67  1  0.75003539  0.25061530  0.33199874  1
  Al0+  Al68  1  0.74946835  0.24965837  0.65837763  1
  Al0+  Al69  1  0.74955008  0.74938682  0.00589645  1
  Al0+  Al70  1  0.75267230  0.74740749  0.32769998  1
  Al0+  Al71  1  0.75096173  0.74884592  0.67449262  1
  Al0+  Al72  1  0.57310214  0.68004094  0.65495194  1
  Al0+  Al73  1  0.92754717  0.32126680  0.98550111  1
  Al0+  Al74  1  0.17818729  0.42967047  0.01364811  1
  Al0+  Al75  1  0.93041706  0.32031310  0.65075480  1
  Al0+  Al76  1  0.43084667  0.32233979  0.98846958  1
  Al0+  Al77  1  0.82109218  0.56973303  0.68032798  1
  Al0+  Al78  1  0.07137013  0.68013714  0.65207587  1
  Al0+  Al79  1  0.56868034  0.17944211  0.65368185  1
  Al0+  Al80  1  0.31935675  0.07095050  0.01360789  1
  Al0+  Al81  1  0.43057909  0.82131452  0.98478207  1
  Al0+  Al82  1  0.17938799  0.92957480  0.34531559  1
  Al0+  Al83  1  0.06912386  0.68270199  0.98718456  1
  Al0+  Al84  1  0.42875975  0.82038982  0.31839287  1
  Al0+  Al85  1  0.07369580  0.17724017  0.98464315  1
  Al0+  Al86  1  0.67847395  0.92956219  0.67951223  1
  Al0+  Al87  1  0.67985555  0.92890872  0.34645009  1
  Al0+  Al88  1  0.32239526  0.57391443  0.01559018  1
  Al0+  Al89  1  0.57331738  0.67651816  0.31739904  1
  Al0+  Al90  1  0.57113682  0.18053370  0.31749121  1
  Al0+  Al91  1  0.93052955  0.82205365  0.32082376  1
  Al0+  Al92  1  0.68023754  0.42824381  0.01135058  1
  Al0+  Al93  1  0.67852164  0.42858972  0.34901484  1
  Al0+  Al94  1  0.67872630  0.92912463  0.01565743  1
  Al0+  Al95  1  0.17852605  0.92752257  0.68246519  1
  Si0+  Si96  1  0.92412537  0.82275548  0.98115211  1
  Si0+  Si97  1  0.67773428  0.42640761  0.68218181  1
  Si0+  Si98  1  0.92807444  0.82317570  0.65271541  1
  Si0+  Si99  1  0.82263030  0.07121450  0.01618264  1
  Si0+  Si100  1  0.82315739  0.07214092  0.34927756  1
  Si0+  Si101  1  0.07322963  0.67678073  0.31596743  1
  Si0+  Si102  1  0.57275384  0.67717747  0.98371936  1
  Si0+  Si103  1  0.07158929  0.17990834  0.32072958  1
  Si0+  Si104  1  0.82155378  0.07511155  0.68402216  1
  Si0+  Si105  1  0.17742159  0.42817293  0.34997735  1
  Si0+  Si106  1  0.31974022  0.57070746  0.35067316  1
  Si0+  Si107  1  0.93042712  0.32158006  0.31740614  1
  Si0+  Si108  1  0.82410940  0.57066999  0.35028531  1
  Si0+  Si109  1  0.42551017  0.32349167  0.64935460  1
  Si0+  Si110  1  0.17649071  0.92769578  0.01520193  1
  Si0+  Si111  1  0.32198459  0.56930042  0.68131014  1
  Si0+  Si112  1  0.57143727  0.17726834  0.98400916  1
  Si0+  Si113  1  0.82343445  0.57193971  0.01881903  1
  Si0+  Si114  1  0.07296045  0.17600243  0.64785661  1
  Si0+  Si115  1  0.32216551  0.07420425  0.35235109  1
  Si0+  Si116  1  0.42520925  0.32166281  0.31712674  1
  Si0+  Si117  1  0.17886229  0.42921732  0.68009945  1
  Si0+  Si118  1  0.42880611  0.82192650  0.65041269  1
  Si0+  Si119  1  0.32044276  0.07298756  0.68377342  1
  O2-  O120  1  0.24087530  -0.00020971  0.06002455  1
  O2-  O121  1  0.25622644  0.00149007  0.39453790  1
  O2-  O122  1  0.25127347  0.00464167  0.72741835  1
  O2-  O123  1  0.25091495  0.50032057  0.06524913  1
  O2-  O124  1  0.24762078  0.49965833  0.39276333  1
  O2-  O125  1  0.25283567  0.49624747  0.72259607  1
  O2-  O126  1  0.75571212  0.00202112  0.06161343  1
  O2-  O127  1  0.75491931  0.00320274  0.39420998  1
  O2-  O128  1  0.75262290  0.00559895  0.72659291  1
  O2-  O129  1  0.75398986  0.50291410  0.06087849  1
  O2-  O130  1  0.75162988  0.50550480  0.39442248  1
  O2-  O131  1  0.74455040  0.49633562  0.72668828  1
  O2-  O132  1  0.00247642  0.25146417  0.27672992  1
  O2-  O133  1  0.00306634  0.24331517  0.60284944  1
  O2-  O134  1  0.00283803  0.25171485  0.93647057  1
  O2-  O135  1  0.00639724  0.74802811  0.27405311  1
  O2-  O136  1  -0.00049625  0.75791710  0.60674781  1
  O2-  O137  1  -0.00554674  0.75585264  0.93752701  1
  O2-  O138  1  0.49561445  0.25530955  0.27301102  1
  O2-  O139  1  0.49566159  0.25610065  0.60596502  1
  O2-  O140  1  0.50615399  0.24930877  0.94000674  1
  O2-  O141  1  0.50444557  0.75203519  0.26821813  1
  O2-  O142  1  0.50208176  0.75784713  0.60707316  1
  O2-  O143  1  0.50568536  0.74690801  0.93843083  1
  O2-  O144  1  0.07089734  0.17725945  0.09918602  1
  O2-  O145  1  0.07029336  0.18160175  0.42603809  1
  O2-  O146  1  0.07601713  0.17870904  0.75274124  1
  O2-  O147  1  0.06786995  0.68503943  0.10063695  1
  O2-  O148  1  0.07215862  0.67492479  0.42183605  1
  O2-  O149  1  0.07214631  0.67801711  0.76482853  1
  O2-  O150  1  0.57070418  0.17836859  0.08970142  1
  O2-  O151  1  0.56945031  0.18053988  0.43099910  1
  O2-  O152  1  0.56681115  0.18009645  0.76671199  1
  O2-  O153  1  0.57147970  0.67767081  0.08912089  1
  O2-  O154  1  0.57176943  0.67823159  0.43172247  1
  O2-  O155  1  0.56974546  0.67805103  0.76785989  1
  O2-  O156  1  0.17580889  0.42521100  0.24587662  1
  O2-  O157  1  0.18066014  0.43015551  0.57415426  1
  O2-  O158  1  0.17893637  0.43224306  0.89949145  1
  O2-  O159  1  0.17769716  0.93316654  0.23261346  1
  O2-  O160  1  0.17992502  0.92814304  0.56882184  1
  O2-  O161  1  0.18029175  0.92747536  0.90944687  1
  O2-  O162  1  0.68152646  0.42657715  0.23586867  1
  O2-  O163  1  0.68030679  0.42663064  0.57640291  1
  O2-  O164  1  0.68052318  0.42940664  0.89800639  1
  O2-  O165  1  0.68116429  0.93139062  0.23363088  1
  O2-  O166  1  0.67997303  0.92881543  0.56628787  1
  O2-  O167  1  0.67812878  0.93091261  0.90204462  1
  O2-  O168  1  0.43222699  0.32060146  0.10160952  1
  O2-  O169  1  0.42237176  0.31913324  0.42321273  1
  O2-  O170  1  0.42406246  0.32473861  0.75460843  1
  O2-  O171  1  0.43070943  0.82156879  0.09762448  1
  O2-  O172  1  0.42607079  0.81563608  0.43239532  1
  O2-  O173  1  0.42866804  0.82088777  0.75605062  1
  O2-  O174  1  0.92764267  0.31775677  0.09968489  1
  O2-  O175  1  0.93210971  0.32185157  0.42280307  1
  O2-  O176  1  0.93218436  0.32054590  0.76325717  1
  O2-  O177  1  0.92521968  0.82253571  0.08707294  1
  O2-  O178  1  0.93126231  0.82052651  0.43421674  1
  O2-  O179  1  0.92812954  0.82078538  0.75805087  1
  O2-  O180  1  0.31827287  0.08020239  0.24723269  1
  O2-  O181  1  0.31993678  0.07380483  0.57804857  1
  O2-  O182  1  0.32112822  0.06858447  0.90020116  1
  O2-  O183  1  0.31863759  0.57078717  0.24620542  1
  O2-  O184  1  0.32086096  0.56833159  0.57572677  1
  O2-  O185  1  0.32146985  0.57220764  0.90133964  1
  O2-  O186  1  0.82467009  0.07204636  0.24387791  1
  O2-  O187  1  0.82244594  0.07475024  0.57815559  1
  O2-  O188  1  0.82034111  0.07184942  0.91056196  1
  O2-  O189  1  0.83050828  0.56608220  0.24524940  1
  O2-  O190  1  0.82110814  0.56935628  0.56701198  1
  O2-  O191  1  0.82313931  0.57261232  0.91301339  1
  O2-  O192  1  0.04450957  0.08918838  0.27216926  1
  O2-  O193  1  0.04675990  0.08097527  0.60463815  1
  O2-  O194  1  0.04358968  0.08001165  0.92918224  1
  O2-  O195  1  0.04527101  0.58362364  0.26967475  1
  O2-  O196  1  0.03941946  0.58566979  0.59463695  1
  O2-  O197  1  0.03937041  0.58584576  0.93300934  1
  O2-  O198  1  0.54048719  0.08465573  0.26318118  1
  O2-  O199  1  0.53446597  0.08409793  0.59753352  1
  O2-  O200  1  0.54006404  0.08530570  0.93902036  1
  O2-  O201  1  0.53922168  0.57773468  0.26872727  1
  O2-  O202  1  0.54047814  0.58435587  0.59857908  1
  O2-  O203  1  0.54700625  0.58409420  0.93743858  1
  O2-  O204  1  0.16474867  0.20749640  0.27602954  1
  O2-  O205  1  0.16555127  0.20314158  0.59910724  1
  O2-  O206  1  0.17183512  0.20344717  0.93147923  1
  O2-  O207  1  0.16744774  0.70030761  0.27206692  1
  O2-  O208  1  0.16881808  0.70884060  0.59774783  1
  O2-  O209  1  0.16503985  0.71224942  0.93128414  1
  O2-  O210  1  0.66812685  0.21108151  0.26409422  1
  O2-  O211  1  0.66458249  0.20697735  0.59642712  1
  O2-  O212  1  0.66600255  0.19872888  0.93865623  1
  O2-  O213  1  0.67353401  0.69547243  0.26570624  1
  O2-  O214  1  0.67127880  0.70848993  0.60308170  1
  O2-  O215  1  0.66815109  0.70184100  0.94062579  1
  O2-  O216  1  0.08020641  0.45965233  0.06734879  1
  O2-  O217  1  0.08553466  0.45681702  0.39820476  1
  O2-  O218  1  0.08779091  0.46025900  0.72468205  1
  O2-  O219  1  0.07920173  0.94786471  0.05605144  1
  O2-  O220  1  0.08426099  0.96330783  0.40185079  1
  O2-  O221  1  0.08126792  0.95452651  0.73689080  1
  O2-  O222  1  0.58514402  0.45830369  0.06849893  1
  O2-  O223  1  0.58031767  0.45309593  0.40358246  1
  O2-  O224  1  0.58143018  0.44938526  0.72379944  1
  O2-  O225  1  0.58386532  0.96267881  0.07018146  1
  O2-  O226  1  0.58251038  0.96039232  0.39923780  1
  O2-  O227  1  0.58078697  0.96134542  0.73174706  1
  O2-  O228  1  0.20539151  0.33091899  0.06557920  1
  O2-  O229  1  0.20585231  0.33771960  0.40142268  1
  O2-  O230  1  0.20155082  0.33487548  0.72481708  1
  O2-  O231  1  0.20601024  0.83599926  0.06165105  1
  O2-  O232  1  0.20801248  0.83170630  0.39975948  1
  O2-  O233  1  0.21187578  0.83110905  0.73530459  1
  O2-  O234  1  0.71093932  0.33093927  0.06527124  1
  O2-  O235  1  0.71417289  0.33271669  0.40261485  1
  O2-  O236  1  0.70516560  0.33257677  0.72618722  1
  O2-  O237  1  0.70773012  0.83219129  0.07009633  1
  O2-  O238  1  0.71230102  0.83036647  0.39655678  1
  O2-  O239  1  0.70981388  0.83512593  0.73727968  1
  O2-  O240  1  0.44751918  0.41692094  0.27505673  1
  O2-  O241  1  0.44877594  0.41691621  0.60130988  1
  O2-  O242  1  0.46036742  0.41928707  0.93396167  1
  O2-  O243  1  0.45091433  0.92110769  0.26859596  1
  O2-  O244  1  0.44665630  0.91749395  0.60584549  1
  O2-  O245  1  0.46286897  0.91768150  0.93085164  1
  O2-  O246  1  0.95827261  0.41342102  0.27063731  1
  O2-  O247  1  0.96503345  0.41384544  0.59281005  1
  O2-  O248  1  0.95288886  0.42060128  0.93415019  1
  O2-  O249  1  0.96035483  0.91890343  0.26609890  1
  O2-  O250  1  0.94956333  0.91884322  0.60850785  1
  O2-  O251  1  0.94427511  0.91698308  0.93445056  1
  O2-  O252  1  0.33114557  0.29495140  0.27198929  1
  O2-  O253  1  0.33206717  0.29683079  0.60163850  1
  O2-  O254  1  0.33540666  0.29085059  0.93304016  1
  O2-  O255  1  0.33116420  0.78780742  0.26530536  1
  O2-  O256  1  0.33712648  0.78959454  0.60430631  1
  O2-  O257  1  0.33468016  0.79167814  0.92929616  1
  O2-  O258  1  0.83909403  0.29312349  0.27090916  1
  O2-  O259  1  0.83436670  0.29096396  0.59425677  1
  O2-  O260  1  0.83145647  0.28825647  0.92946209  1
  O2-  O261  1  0.83700149  0.78904961  0.26265352  1
  O2-  O262  1  0.83557327  0.79280284  0.60733773  1
  O2-  O263  1  0.83032438  0.79424293  0.93708636  1
  O2-  O264  1  0.41354260  0.03746860  0.07027563  1
  O2-  O265  1  0.41689933  0.05059871  0.39586349  1
  O2-  O266  1  0.41314485  0.04747351  0.73094887  1
  O2-  O267  1  0.41978570  0.54582560  0.06974181  1
  O2-  O268  1  0.40997195  0.54114175  0.40103303  1
  O2-  O269  1  0.41444790  0.54312722  0.72840102  1
  O2-  O270  1  0.91761421  0.04705357  0.06111992  1
  O2-  O271  1  0.91678315  0.04879809  0.39700123  1
  O2-  O272  1  0.91526602  0.05257491  0.73130085  1
  O2-  O273  1  0.91629761  0.54686312  0.06593630  1
  O2-  O274  1  0.91668805  0.54129730  0.39885197  1
  O2-  O275  1  0.91821392  0.53532431  0.73157873  1
  O2-  O276  1  0.29237627  0.16739513  0.06956565  1
  O2-  O277  1  0.29322745  0.16567314  0.40270292  1
  O2-  O278  1  0.29488246  0.16784858  0.72845074  1
  O2-  O279  1  0.28890522  0.67128501  0.06779812  1
  O2-  O280  1  0.29109665  0.66098429  0.40083882  1
  O2-  O281  1  0.29310010  0.66051463  0.72820360  1
  O2-  O282  1  0.79802531  0.16441898  0.06353624  1
  O2-  O283  1  0.79664078  0.16589330  0.39494500  1
  O2-  O284  1  0.79375779  0.16892537  0.72821145  1
  O2-  O285  1  0.79904595  0.66542960  0.06581519  1
  O2-  O286  1  0.80204167  0.66560177  0.39463669  1
  O2-  O287  1  0.79361514  0.66465515  0.73883421  1
