# generated using pymatgen
data_Ca2Al2SiO7
_symmetry_space_group_name_H-M   'P 1'
_cell_length_a   15.46696084
_cell_length_b   15.46839354
_cell_length_c   15.29221398
_cell_angle_alpha   90.00129189
_cell_angle_beta   90.01452502
_cell_angle_gamma   90.01010202
_symmetry_Int_Tables_number   1
_chemical_formula_structural   Ca2Al2SiO7
_chemical_formula_sum   'Ca48 Al48 Si24 O168'
_cell_volume   3658.64729676
_cell_formula_units_Z   24
loop_
 _symmetry_equiv_pos_site_id
 _symmetry_equiv_pos_as_xyz
  1  'x, y, z'
loop_
 _atom_type_symbol
 _atom_type_oxidation_number
  Ca2+  2.0
  Al0+  0.0
  Si0+  0.0
  O2-  -2.0
loop_
 _atom_site_type_symbol
 _atom_site_label
 _atom_site_symmetry_multiplicity
 _atom_site_fract_x
 _atom_site_fract_y
 _atom_site_fract_z
 _atom_site_occupancy
  Ca2+  Ca0  1  0.17572071  0.07457957  0.17231220  1
  Ca2+  Ca1  1  0.16555276  0.07404751  0.49890515  1
  Ca2+  Ca2  1  0.17518800  0.07876230  0.84090771  1
  Ca2+  Ca3  1  0.16519291  0.58022264  0.17610489  1
  Ca2+  Ca4  1  0.17908376  0.58758427  0.50213196  1
  Ca2+  Ca5  1  0.16917216  0.57751050  0.83797170  1
  Ca2+  Ca6  1  0.67089028  0.07546014  0.17915207  1
  Ca2+  Ca7  1  0.66439894  0.07145797  0.49696294  1
  Ca2+  Ca8  1  0.66329886  0.07356828  0.83362919  1
  Ca2+  Ca9  1  0.66537460  0.58943589  0.16845404  1
  Ca2+  Ca10  1  0.66325003  0.58388033  0.50884212  1
  Ca2+  Ca11  1  0.66507392  0.57739659  0.84149642  1
  Ca2+  Ca12  1  0.08743275  0.33788295  0.16150916  1
  Ca2+  Ca13  1  0.08194521  0.34106631  0.49773298  1
  Ca2+  Ca14  1  0.08052184  0.34104063  0.82597064  1
  Ca2+  Ca15  1  0.08768975  0.82181751  0.16758871  1
  Ca2+  Ca16  1  0.07836425  0.82922356  0.48542700  1
  Ca2+  Ca17  1  0.08225927  0.82442528  0.83273541  1
  Ca2+  Ca18  1  0.58629866  0.32722109  0.16423052  1
  Ca2+  Ca19  1  0.58797155  0.32823833  0.49281050  1
  Ca2+  Ca20  1  0.59048757  0.33352361  0.82728751  1
  Ca2+  Ca21  1  0.57745664  0.82565319  0.16449130  1
  Ca2+  Ca22  1  0.57570378  0.82755596  0.49317316  1
  Ca2+  Ca23  1  0.57672955  0.82221928  0.82686967  1
  Ca2+  Ca24  1  0.32228207  0.42740591  0.17582628  1
  Ca2+  Ca25  1  0.32655330  0.43248485  0.50400961  1
  Ca2+  Ca26  1  0.32598577  0.42571037  0.83675355  1
  Ca2+  Ca27  1  0.33713208  0.91405587  0.17208358  1
  Ca2+  Ca28  1  0.33241745  0.90509790  0.49948386  1
  Ca2+  Ca29  1  0.34592146  0.92001085  0.83713733  1
  Ca2+  Ca30  1  0.82830368  0.42578525  0.16379662  1
  Ca2+  Ca31  1  0.82871307  0.41860830  0.50646522  1
  Ca2+  Ca32  1  0.82435657  0.41982916  0.83774283  1
  Ca2+  Ca33  1  0.82819260  0.91943530  0.18178019  1
  Ca2+  Ca34  1  0.81924454  0.90905995  0.49923160  1
  Ca2+  Ca35  1  0.82381320  0.91178414  0.83493035  1
  Ca2+  Ca36  1  0.42140145  0.16245134  0.16318981  1
  Ca2+  Ca37  1  0.42398758  0.17239895  0.49282880  1
  Ca2+  Ca38  1  0.41363237  0.16907807  0.83171004  1
  Ca2+  Ca39  1  0.42122667  0.67374371  0.16438819  1
  Ca2+  Ca40  1  0.42383290  0.66653357  0.49382856  1
  Ca2+  Ca41  1  0.42426192  0.67097955  0.82510861  1
  Ca2+  Ca42  1  0.91628746  0.16563304  0.16571694  1
  Ca2+  Ca43  1  0.90911199  0.17487723  0.49521490  1
  Ca2+  Ca44  1  0.92032147  0.17688194  0.82455749  1
  Ca2+  Ca45  1  0.92447232  0.66760799  0.16452077  1
  Ca2+  Ca46  1  0.92501895  0.67194377  0.48998317  1
  Ca2+  Ca47  1  0.92218036  0.65273726  0.83645983  1
  Al0+  Al48  1  0.00135090  0.00040381  -0.00286723  1
  Al0+  Al49  1  0.00067370  0.00585948  0.33759629  1
  Al0+  Al50  1  0.00124218  0.00157442  0.66802040  1
  Al0+  Al51  1  -0.00311609  0.49922434  0.00293134  1
  Al0+  Al52  1  -0.00417085  0.49825299  0.33265513  1
  Al0+  Al53  1  -0.00071112  0.49886828  0.66219713  1
  Al0+  Al54  1  0.50209352  0.00214389  0.00056175  1
  Al0+  Al55  1  0.50204995  0.00200518  0.33038910  1
  Al0+  Al56  1  0.50086412  -0.00006589  0.66708296  1
  Al0+  Al57  1  0.49737126  0.49621801  0.00188682  1
  Al0+  Al58  1  0.49843343  0.49822740  0.33212237  1
  Al0+  Al59  1  0.49885235  0.49871353  0.67185981  1
  Al0+  Al60  1  0.25129439  0.24693616  0.00756597  1
  Al0+  Al61  1  0.24802802  0.25101421  0.33728079  1
  Al0+  Al62  1  0.24957678  0.24731419  0.66760294  1
  Al0+  Al63  1  0.24788742  0.75130783  -0.01064136  1
  Al0+  Al64  1  0.25063295  0.74994143  0.33381725  1
  Al0+  Al65  1  0.24937825  0.75105613  0.67030032  1
  Al0+  Al66  1  0.75067979  0.24967064  0.00137017  1
  Al0+  Al67  1  0.75040947  0.25037972  0.33002630  1
  Al0+  Al68  1  0.75283206  0.25024396  0.66555373  1
  Al0+  Al69  1  0.74981516  0.74985907  0.00090782  1
  Al0+  Al70  1  0.75051473  0.75026387  0.33163075  1
  Al0+  Al71  1  0.75121651  0.75014512  0.67054023  1
  Al0+  Al72  1  0.81887509  0.57181630  0.01663405  1
  Al0+  Al73  1  0.17876292  0.42940875  0.68134319  1
  Al0+  Al74  1  0.92893678  0.82462757  0.32047386  1
  Al0+  Al75  1  0.67953981  0.42837719  0.67759633  1
  Al0+  Al76  1  0.67908100  0.92881527  0.68206965  1
  Al0+  Al77  1  0.17535935  0.42876458  0.34975408  1
  Al0+  Al78  1  0.18119717  0.92980961  0.34521707  1
  Al0+  Al79  1  0.42919444  0.82253442  0.65007738  1
  Al0+  Al80  1  0.32132487  0.57365608  0.68469873  1
  Al0+  Al81  1  0.67865916  0.92713794  0.34822677  1
  Al0+  Al82  1  0.57133884  0.67623697  0.98424339  1
  Al0+  Al83  1  0.32209220  0.06824854  0.01431802  1
  Al0+  Al84  1  0.57166292  0.67671548  0.65272661  1
  Al0+  Al85  1  0.57209860  0.67535598  0.31878773  1
  Al0+  Al86  1  0.57061952  0.18122027  0.31935840  1
  Al0+  Al87  1  0.42878221  0.82100039  0.31877432  1
  Al0+  Al88  1  0.17933379  0.43041526  0.01310273  1
  Al0+  Al89  1  0.67598742  0.42688407  0.01669512  1
  Al0+  Al90  1  0.43004891  0.82268361  0.98415272  1
  Al0+  Al91  1  0.93079250  0.32038307  0.65181874  1
  Al0+  Al92  1  0.07006497  0.67858915  0.32000537  1
  Al0+  Al93  1  0.82181043  0.07398018  0.34873459  1
  Al0+  Al94  1  0.32174354  0.57229518  0.34732793  1
  Al0+  Al95  1  0.06885062  0.67733911  0.98530839  1
  Si0+  Si96  1  0.06920804  0.67962465  0.65193990  1
  Si0+  Si97  1  0.42582880  0.32102841  0.31612659  1
  Si0+  Si98  1  0.92795168  0.82441080  0.98313399  1
  Si0+  Si99  1  0.32365702  0.07297238  0.35114938  1
  Si0+  Si100  1  0.17644952  0.92888822  0.68303524  1
  Si0+  Si101  1  0.92959921  0.31852952  0.98468502  1
  Si0+  Si102  1  0.82246394  0.07198928  0.68447716  1
  Si0+  Si103  1  0.81970047  0.57124623  0.34880991  1
  Si0+  Si104  1  0.67965476  0.42938987  0.34634147  1
  Si0+  Si105  1  0.17605554  0.92724225  0.01561195  1
  Si0+  Si106  1  0.82248562  0.57251529  0.68155676  1
  Si0+  Si107  1  0.07362348  0.17656949  0.64817449  1
  Si0+  Si108  1  0.32097971  0.06981252  0.68062591  1
  Si0+  Si109  1  0.68082143  0.93049939  0.01502259  1
  Si0+  Si110  1  0.92808479  0.32031563  0.31466622  1
  Si0+  Si111  1  0.57260817  0.18120985  0.98292290  1
  Si0+  Si112  1  0.82294464  0.07063382  0.01264280  1
  Si0+  Si113  1  0.92971421  0.82436521  0.65272551  1
  Si0+  Si114  1  0.42658701  0.32000399  0.65317351  1
  Si0+  Si115  1  0.42635408  0.31791303  0.98566971  1
  Si0+  Si116  1  0.07277943  0.17841349  0.98515373  1
  Si0+  Si117  1  0.32066790  0.57463296  0.01616776  1
  Si0+  Si118  1  0.07319239  0.18028472  0.31676025  1
  Si0+  Si119  1  0.57167374  0.18013781  0.65234062  1
  O2-  O120  1  0.25068318  -0.01004882  0.05851021  1
  O2-  O121  1  0.25838575  0.00119385  0.39527084  1
  O2-  O122  1  0.25192118  -0.00333695  0.72281768  1
  O2-  O123  1  0.24922272  0.50850738  0.06043507  1
  O2-  O124  1  0.24615265  0.50267847  0.39675763  1
  O2-  O125  1  0.24837994  0.50132330  0.73367438  1
  O2-  O126  1  0.75704103  -0.00335524  0.05563276  1
  O2-  O127  1  0.75411599  -0.00248318  0.39727590  1
  O2-  O128  1  0.75587218  0.00231110  0.73000926  1
  O2-  O129  1  0.74100813  0.50533319  0.06645096  1
  O2-  O130  1  0.74327469  0.50571590  0.39008978  1
  O2-  O131  1  0.74935055  0.50746996  0.72385677  1
  O2-  O132  1  0.00317973  0.25246578  0.27418473  1
  O2-  O133  1  0.00645619  0.24676468  0.60455568  1
  O2-  O134  1  0.00357173  0.25043188  0.94198020  1
  O2-  O135  1  0.00094307  0.75353199  0.26951079  1
  O2-  O136  1  0.00013967  0.75308910  0.61097856  1
  O2-  O137  1  -0.00629526  0.75285072  0.93834757  1
  O2-  O138  1  0.49326439  0.25173051  0.27061332  1
  O2-  O139  1  0.50317050  0.25413866  0.61126400  1
  O2-  O140  1  0.50305622  0.25343691  0.94063798  1
  O2-  O141  1  0.50095774  0.74882010  0.27011904  1
  O2-  O142  1  0.49927883  0.74788916  0.60227693  1
  O2-  O143  1  0.49754893  0.74653784  0.93431182  1
  O2-  O144  1  0.07028122  0.17654325  0.08990547  1
  O2-  O145  1  0.07486308  0.18015267  0.42166523  1
  O2-  O146  1  0.07259664  0.17424847  0.75415170  1
  O2-  O147  1  0.06898861  0.67785920  0.09778226  1
  O2-  O148  1  0.06770436  0.67984527  0.43412150  1
  O2-  O149  1  0.06622172  0.67870965  0.75725876  1
  O2-  O150  1  0.57350297  0.18046110  0.08763646  1
  O2-  O151  1  0.57025708  0.18417693  0.43304505  1
  O2-  O152  1  0.57080507  0.17946330  0.75793801  1
  O2-  O153  1  0.57122514  0.68071873  0.09738980  1
  O2-  O154  1  0.57229062  0.67317511  0.43218072  1
  O2-  O155  1  0.57236752  0.67727012  0.76618347  1
  O2-  O156  1  0.17762848  0.42820340  0.23580526  1
  O2-  O157  1  0.18024222  0.43125086  0.56858723  1
  O2-  O158  1  0.18063248  0.42888740  0.90010684  1
  O2-  O159  1  0.18084126  0.93291284  0.23220479  1
  O2-  O160  1  0.17192276  0.93087401  0.57830413  1
  O2-  O161  1  0.16991561  0.93306255  0.90990669  1
  O2-  O162  1  0.68362243  0.42640144  0.24167164  1
  O2-  O163  1  0.68318090  0.42443762  0.56435345  1
  O2-  O164  1  0.68283626  0.42084453  0.90326408  1
  O2-  O165  1  0.67973624  0.93068310  0.23422395  1
  O2-  O166  1  0.67900249  0.93072500  0.56983121  1
  O2-  O167  1  0.68091861  0.93397695  0.90951944  1
  O2-  O168  1  0.42480260  0.31225924  0.09024332  1
  O2-  O169  1  0.42838829  0.31927012  0.42212079  1
  O2-  O170  1  0.42426763  0.31464442  0.75841876  1
  O2-  O171  1  0.43251299  0.82486910  0.09714460  1
  O2-  O172  1  0.43033715  0.82020829  0.43214257  1
  O2-  O173  1  0.43377635  0.82549677  0.76347071  1
  O2-  O174  1  0.92844438  0.31517090  0.08967686  1
  O2-  O175  1  0.92495334  0.31949498  0.41968039  1
  O2-  O176  1  0.93043029  0.31751488  0.76527184  1
  O2-  O177  1  0.93136124  0.83020120  0.08779014  1
  O2-  O178  1  0.92971004  0.81978210  0.43476880  1
  O2-  O179  1  0.93219806  0.82719237  0.75796126  1
  O2-  O180  1  0.32048343  0.07517054  0.24560472  1
  O2-  O181  1  0.32013071  0.07360504  0.57607799  1
  O2-  O182  1  0.31942416  0.07109088  0.90062977  1
  O2-  O183  1  0.32174143  0.56952586  0.23353321  1
  O2-  O184  1  0.32054896  0.57336600  0.57147180  1
  O2-  O185  1  0.31997149  0.57034797  0.91062794  1
  O2-  O186  1  0.81871415  0.07562417  0.23434514  1
  O2-  O187  1  0.82183737  0.07327731  0.57972831  1
  O2-  O188  1  0.82167866  0.07198926  0.90743658  1
  O2-  O189  1  0.82330815  0.56777195  0.24419006  1
  O2-  O190  1  0.82445722  0.57149060  0.57583051  1
  O2-  O191  1  0.82232871  0.56489607  0.90277273  1
  O2-  O192  1  0.04436423  0.08994168  0.26734577  1
  O2-  O193  1  0.04573922  0.08349483  0.60185552  1
  O2-  O194  1  0.04403526  0.08798754  0.93433611  1
  O2-  O195  1  0.03655852  0.58103547  0.26789323  1
  O2-  O196  1  0.03980282  0.58952739  0.60321295  1
  O2-  O197  1  0.03424687  0.58101772  0.93133329  1
  O2-  O198  1  0.54314848  0.08532124  0.26324048  1
  O2-  O199  1  0.53969097  0.09031311  0.60479725  1
  O2-  O200  1  0.54225255  0.09055702  0.93467519  1
  O2-  O201  1  0.54494616  0.57632973  0.26568455  1
  O2-  O202  1  0.54535077  0.57588702  0.60297579  1
  O2-  O203  1  0.54670858  0.57398214  0.93649614  1
  O2-  O204  1  0.16534006  0.20687781  0.26865011  1
  O2-  O205  1  0.16799122  0.19883017  0.60258953  1
  O2-  O206  1  0.16587490  0.20436758  0.93962297  1
  O2-  O207  1  0.16841106  0.70530157  0.26773531  1
  O2-  O208  1  0.16189190  0.70740007  0.60786749  1
  O2-  O209  1  0.16305110  0.70787662  0.92613353  1
  O2-  O210  1  0.66525963  0.21562668  0.26333734  1
  O2-  O211  1  0.66397544  0.20598739  0.60608736  1
  O2-  O212  1  0.66503720  0.20736379  0.93488747  1
  O2-  O213  1  0.67104338  0.70284763  0.26709342  1
  O2-  O214  1  0.67278053  0.70420305  0.60401900  1
  O2-  O215  1  0.67125545  0.70486580  0.93330181  1
  O2-  O216  1  0.08083171  0.45507595  0.06518346  1
  O2-  O217  1  0.07412026  0.45188698  0.39855667  1
  O2-  O218  1  0.07848481  0.45726517  0.73131590  1
  O2-  O219  1  0.08520716  0.96022451  0.06316557  1
  O2-  O220  1  0.08688427  0.96583728  0.40154405  1
  O2-  O221  1  0.08722321  0.96169695  0.73368848  1
  O2-  O222  1  0.57357142  0.44176070  0.06593651  1
  O2-  O223  1  0.58480497  0.44658235  0.39121103  1
  O2-  O224  1  0.58161603  0.44908755  0.73264004  1
  O2-  O225  1  0.59237528  0.96619805  0.06221362  1
  O2-  O226  1  0.58231186  0.96288868  0.40090658  1
  O2-  O227  1  0.58484194  0.96637026  0.73691841  1
  O2-  O228  1  0.21113575  0.33399238  0.06693371  1
  O2-  O229  1  0.20371556  0.33020670  0.40283081  1
  O2-  O230  1  0.20521290  0.32848551  0.73154394  1
  O2-  O231  1  0.19551909  0.83067585  0.05602988  1
  O2-  O232  1  0.20672127  0.83325622  0.40098876  1
  O2-  O233  1  0.19879116  0.83669912  0.73126679  1
  O2-  O234  1  0.71356731  0.33042841  0.07011224  1
  O2-  O235  1  0.71493509  0.34025194  0.39425252  1
  O2-  O236  1  0.71521488  0.33308547  0.73298103  1
  O2-  O237  1  0.70336064  0.83753295  0.06056073  1
  O2-  O238  1  0.70739478  0.82905856  0.40193055  1
  O2-  O239  1  0.71232236  0.83373397  0.73839763  1
  O2-  O240  1  0.45247019  0.41291736  0.26859295  1
  O2-  O241  1  0.44967765  0.41313061  0.60818826  1
  O2-  O242  1  0.44574224  0.41178221  0.93949228  1
  O2-  O243  1  0.45503422  0.92102499  0.26780212  1
  O2-  O244  1  0.45793515  0.92182180  0.59852937  1
  O2-  O245  1  0.46414786  0.92123585  0.93228173  1
  O2-  O246  1  0.95219467  0.41245782  0.26671379  1
  O2-  O247  1  0.95841973  0.41646193  0.59495159  1
  O2-  O248  1  0.95463621  0.41073317  0.93819564  1
  O2-  O249  1  0.95337898  0.92610469  0.27246708  1
  O2-  O250  1  0.95747075  0.91634382  0.60598410  1
  O2-  O251  1  0.95611778  0.91672326  0.93307366  1
  O2-  O252  1  0.33133060  0.29561514  0.27201572  1
  O2-  O253  1  0.33813059  0.28507425  0.60361613  1
  O2-  O254  1  0.33750225  0.28148449  0.93692812  1
  O2-  O255  1  0.33009137  0.79504043  0.26568502  1
  O2-  O256  1  0.32616507  0.79993068  0.60428793  1
  O2-  O257  1  0.32857262  0.80529146  0.93212778  1
  O2-  O258  1  0.83919210  0.28770006  0.26479114  1
  O2-  O259  1  0.83534728  0.28656333  0.59621887  1
  O2-  O260  1  0.83931384  0.28592543  0.93621611  1
  O2-  O261  1  0.83182690  0.79570609  0.26667782  1
  O2-  O262  1  0.83730176  0.79679129  0.60772373  1
  O2-  O263  1  0.83327315  0.80126071  0.93841664  1
  O2-  O264  1  0.42046385  0.04350455  0.06752214  1
  O2-  O265  1  0.41913362  0.05352482  0.39455507  1
  O2-  O266  1  0.41297191  0.04489966  0.72953362  1
  O2-  O267  1  0.41276254  0.54561920  0.06239140  1
  O2-  O268  1  0.41821974  0.53702969  0.40167600  1
  O2-  O269  1  0.41784597  0.54133752  0.73887977  1
  O2-  O270  1  0.91696149  0.04804486  0.05834095  1
  O2-  O271  1  0.92248634  0.05805518  0.40089737  1
  O2-  O272  1  0.91748323  0.04903791  0.73026193  1
  O2-  O273  1  0.91379215  0.53508767  0.07161736  1
  O2-  O274  1  0.90803905  0.53652054  0.39883732  1
  O2-  O275  1  0.91376919  0.53953424  0.72801827  1
  O2-  O276  1  0.28760877  0.16119770  0.07235824  1
  O2-  O277  1  0.29381187  0.16494470  0.39855898  1
  O2-  O278  1  0.29073155  0.15965859  0.73152369  1
  O2-  O279  1  0.29660780  0.67077643  0.05603812  1
  O2-  O280  1  0.29502284  0.66983329  0.40157962  1
  O2-  O281  1  0.29185194  0.67167720  0.73823520  1
  O2-  O282  1  0.79268019  0.16080091  0.06097981  1
  O2-  O283  1  0.78620295  0.17069227  0.40168022  1
  O2-  O284  1  0.79456961  0.16460831  0.73169982  1
  O2-  O285  1  0.79975712  0.67317678  0.06744961  1
  O2-  O286  1  0.79932118  0.66463243  0.39530059  1
  O2-  O287  1  0.80549126  0.66693071  0.72907468  1
