# generated using pymatgen
data_Ca2Al2SiO7
_symmetry_space_group_name_H-M   'P 1'
_cell_length_a   15.45564752
_cell_length_b   15.45580248
_cell_length_c   15.28137443
_cell_angle_alpha   89.99066155
_cell_angle_beta   89.99682421
_cell_angle_gamma   89.99386790
_symmetry_Int_Tables_number   1
_chemical_formula_structural   Ca2Al2SiO7
_chemical_formula_sum   'Ca48 Al48 Si24 O168'
_cell_volume   3650.40602038
_cell_formula_units_Z   24
loop_
 _symmetry_equiv_pos_site_id
 _symmetry_equiv_pos_as_xyz
  1  'x, y, z'
loop_
 _atom_type_symbol
 _atom_type_oxidation_number
  Ca2+  2.0
  Al0+  0.0
  Si0+  0.0
  O2-  -2.0
loop_
 _atom_site_type_symbol
 _atom_site_label
 _atom_site_symmetry_multiplicity
 _atom_site_fract_x
 _atom_site_fract_y
 _atom_site_fract_z
 _atom_site_occupancy
  Ca2+  Ca0  1  0.17050955  0.07921761  0.17303124  1
  Ca2+  Ca1  1  0.17504132  0.09092026  0.50443985  1
  Ca2+  Ca2  1  0.17021356  0.07820739  0.83605242  1
  Ca2+  Ca3  1  0.17865468  0.58539139  0.17632179  1
  Ca2+  Ca4  1  0.16787654  0.59001703  0.49888829  1
  Ca2+  Ca5  1  0.17322641  0.58626818  0.83854988  1
  Ca2+  Ca6  1  0.65865317  0.07248245  0.17450492  1
  Ca2+  Ca7  1  0.66695014  0.07833233  0.50144834  1
  Ca2+  Ca8  1  0.67291963  0.07554424  0.83773870  1
  Ca2+  Ca9  1  0.67305032  0.58333823  0.16898950  1
  Ca2+  Ca10  1  0.67105862  0.58587029  0.50033903  1
  Ca2+  Ca11  1  0.66578882  0.58340624  0.84549190  1
  Ca2+  Ca12  1  0.08124649  0.33047983  0.17156153  1
  Ca2+  Ca13  1  0.07970948  0.32106129  0.49078741  1
  Ca2+  Ca14  1  0.08094782  0.32650788  0.82636189  1
  Ca2+  Ca15  1  0.07993750  0.83201785  0.16652042  1
  Ca2+  Ca16  1  0.07655050  0.82428081  0.49172722  1
  Ca2+  Ca17  1  0.08627765  0.82883485  0.82904348  1
  Ca2+  Ca18  1  0.57588413  0.33447752  0.16281580  1
  Ca2+  Ca19  1  0.57741267  0.32167787  0.48937736  1
  Ca2+  Ca20  1  0.57713576  0.34131704  0.83516359  1
  Ca2+  Ca21  1  0.58012826  0.83320386  0.16340073  1
  Ca2+  Ca22  1  0.57477871  0.83613603  0.49488590  1
  Ca2+  Ca23  1  0.58435978  0.82273277  0.82983255  1
  Ca2+  Ca24  1  0.34369459  0.42578925  0.17138448  1
  Ca2+  Ca25  1  0.33774985  0.42158829  0.49758488  1
  Ca2+  Ca26  1  0.33283738  0.42313744  0.84333703  1
  Ca2+  Ca27  1  0.32847805  0.91732390  0.17697947  1
  Ca2+  Ca28  1  0.34123817  0.92640457  0.50272159  1
  Ca2+  Ca29  1  0.33160572  0.91780617  0.83459601  1
  Ca2+  Ca30  1  0.83276380  0.42549793  0.17334892  1
  Ca2+  Ca31  1  0.84003896  0.41848749  0.49841614  1
  Ca2+  Ca32  1  0.82343611  0.42633358  0.84499361  1
  Ca2+  Ca33  1  0.81944471  0.90925606  0.17424071  1
  Ca2+  Ca34  1  0.83001340  0.91677489  0.49914227  1
  Ca2+  Ca35  1  0.83047995  0.92177565  0.83836487  1
  Ca2+  Ca36  1  0.41670612  0.17431589  0.16939499  1
  Ca2+  Ca37  1  0.41691956  0.16714460  0.48585043  1
  Ca2+  Ca38  1  0.41371061  0.17167428  0.83081193  1
  Ca2+  Ca39  1  0.41768876  0.66768112  0.16075677  1
  Ca2+  Ca40  1  0.41896054  0.67940101  0.49435121  1
  Ca2+  Ca41  1  0.42757937  0.66906427  0.82784072  1
  Ca2+  Ca42  1  0.91915842  0.16932313  0.16753737  1
  Ca2+  Ca43  1  0.92579474  0.16514456  0.49178150  1
  Ca2+  Ca44  1  0.92119894  0.16450636  0.82401305  1
  Ca2+  Ca45  1  0.91483753  0.66505005  0.16814072  1
  Ca2+  Ca46  1  0.92624509  0.66718934  0.48833760  1
  Ca2+  Ca47  1  0.92041522  0.66682175  0.82830540  1
  Al0+  Al48  1  0.00158639  -0.00050672  0.00251886  1
  Al0+  Al49  1  -0.00175059  -0.00277184  0.32505189  1
  Al0+  Al50  1  0.00087875  -0.00000105  0.66650063  1
  Al0+  Al51  1  0.00102617  0.49910431  0.00082454  1
  Al0+  Al52  1  0.00172935  0.49864381  0.33062736  1
  Al0+  Al53  1  0.00014018  0.49957001  0.66582247  1
  Al0+  Al54  1  0.49973533  0.00280865  0.00081148  1
  Al0+  Al55  1  0.49839482  -0.00172962  0.33329562  1
  Al0+  Al56  1  0.49998141  0.00141571  0.67266857  1
  Al0+  Al57  1  0.50003931  0.50015821  -0.00097094  1
  Al0+  Al58  1  0.50120448  0.50023150  0.33873005  1
  Al0+  Al59  1  0.50051711  0.50068062  0.66198009  1
  Al0+  Al60  1  0.24960612  0.24990847  -0.00523605  1
  Al0+  Al61  1  0.24989857  0.25115614  0.32825792  1
  Al0+  Al62  1  0.24878219  0.25100782  0.66895223  1
  Al0+  Al63  1  0.24881536  0.75170661  0.00668905  1
  Al0+  Al64  1  0.25018717  0.75009067  0.33224466  1
  Al0+  Al65  1  0.25077864  0.75067184  0.66005055  1
  Al0+  Al66  1  0.75006638  0.25020390  0.00134302  1
  Al0+  Al67  1  0.75015892  0.24797882  0.32575777  1
  Al0+  Al68  1  0.74817949  0.25155124  0.67308729  1
  Al0+  Al69  1  0.75095643  0.75224121  0.00128902  1
  Al0+  Al70  1  0.74972059  0.74880676  0.34200559  1
  Al0+  Al71  1  0.75004832  0.74871964  0.66447165  1
  Al0+  Al72  1  0.07265911  0.17672465  0.31660835  1
  Al0+  Al73  1  0.82300585  0.57214509  0.01490774  1
  Al0+  Al74  1  0.57084893  0.17627652  0.31899276  1
  Al0+  Al75  1  0.67760361  0.42891638  0.01628401  1
  Al0+  Al76  1  0.67796397  0.92901328  0.34884602  1
  Al0+  Al77  1  0.43009325  0.82034185  0.31869197  1
  Al0+  Al78  1  0.32303211  0.57268222  0.34979550  1
  Al0+  Al79  1  0.82128490  0.56827072  0.34929690  1
  Al0+  Al80  1  0.82177068  0.07071250  0.67830885  1
  Al0+  Al81  1  0.17971401  0.92958380  0.01451412  1
  Al0+  Al82  1  0.57297359  0.67686403  0.64947904  1
  Al0+  Al83  1  0.07031178  0.67798843  0.65401104  1
  Al0+  Al84  1  0.43048094  0.32014689  0.98465544  1
  Al0+  Al85  1  0.07045419  0.17874278  0.65396574  1
  Al0+  Al86  1  0.31973478  0.56985575  0.01144374  1
  Al0+  Al87  1  0.43041302  0.82279169  0.65251583  1
  Al0+  Al88  1  0.07168884  0.67867844  0.31558070  1
  Al0+  Al89  1  0.92611212  0.81924021  0.31748442  1
  Al0+  Al90  1  0.31703530  0.06995914  0.34501498  1
  Al0+  Al91  1  0.42970212  0.32317668  0.31899216  1
  Al0+  Al92  1  0.92824870  0.32079201  0.31774550  1
  Al0+  Al93  1  0.32165799  0.07318323  0.68186699  1
  Al0+  Al94  1  0.57041310  0.68209799  0.98919124  1
  Al0+  Al95  1  0.67937616  0.93069893  0.01275380  1
  Si0+  Si96  1  0.17499521  0.92759099  0.35138375  1
  Si0+  Si97  1  0.82336602  0.07225700  0.01728750  1
  Si0+  Si98  1  0.17884511  0.92708765  0.68123755  1
  Si0+  Si99  1  0.82269883  0.07251122  0.34788149  1
  Si0+  Si100  1  0.92609644  0.32096259  0.65266749  1
  Si0+  Si101  1  0.17910754  0.42887698  0.35098316  1
  Si0+  Si102  1  0.32089480  0.57162099  0.68081162  1
  Si0+  Si103  1  0.67802731  0.92732956  0.68473895  1
  Si0+  Si104  1  0.42515446  0.82442862  0.98435814  1
  Si0+  Si105  1  0.07243671  0.67899402  0.98541706  1
  Si0+  Si106  1  0.06926190  0.17816991  0.98228773  1
  Si0+  Si107  1  0.82213797  0.57014109  0.68130597  1
  Si0+  Si108  1  0.92746741  0.82264011  0.65124309  1
  Si0+  Si109  1  0.17879699  0.42971930  0.68165486  1
  Si0+  Si110  1  0.57224728  0.67805570  0.31757827  1
  Si0+  Si111  1  0.42811694  0.32074895  0.65198807  1
  Si0+  Si112  1  0.57165595  0.18034859  0.65490038  1
  Si0+  Si113  1  0.92835194  0.32165371  0.98289328  1
  Si0+  Si114  1  0.57359989  0.17627112  0.98028106  1
  Si0+  Si115  1  0.92978446  0.82120691  0.98387683  1
  Si0+  Si116  1  0.32112350  0.07419135  0.01708342  1
  Si0+  Si117  1  0.17766735  0.42548197  0.01602477  1
  Si0+  Si118  1  0.67740872  0.42979766  0.68217049  1
  Si0+  Si119  1  0.67852484  0.42506035  0.35158989  1
  O2-  O120  1  0.25714196  0.00126290  0.06033627  1
  O2-  O121  1  0.24055527  -0.00099599  0.39582637  1
  O2-  O122  1  0.24742634  -0.00378687  0.72609882  1
  O2-  O123  1  0.24563195  0.49473171  0.05883590  1
  O2-  O124  1  0.24752068  0.49768957  0.39614030  1
  O2-  O125  1  0.24922435  0.50135645  0.72420321  1
  O2-  O126  1  0.75107157  0.00781592  0.06053234  1
  O2-  O127  1  0.75352788  0.00486339  0.39310333  1
  O2-  O128  1  0.74964602  -0.00552630  0.72724686  1
  O2-  O129  1  0.75171575  0.49929040  0.06453651  1
  O2-  O130  1  0.74886857  0.49141622  0.39748548  1
  O2-  O131  1  0.74738323  0.50298378  0.72325616  1
  O2-  O132  1  -0.00186116  0.24677509  0.26716912  1
  O2-  O133  1  -0.00805173  0.24994934  0.60879022  1
  O2-  O134  1  -0.00221356  0.24916587  0.93978240  1
  O2-  O135  1  -0.00137351  0.74910287  0.26508400  1
  O2-  O136  1  -0.00606310  0.75114902  0.60896652  1
  O2-  O137  1  -0.00000307  0.74851212  0.94184846  1
  O2-  O138  1  0.50292700  0.25234120  0.26955157  1
  O2-  O139  1  0.49668572  0.24675028  0.61190736  1
  O2-  O140  1  0.50565385  0.24623799  0.93586434  1
  O2-  O141  1  0.50154978  0.74314423  0.27167217  1
  O2-  O142  1  0.50359843  0.75219139  0.60200457  1
  O2-  O143  1  0.49546613  0.75685659  0.94102588  1
  O2-  O144  1  0.06901772  0.17835699  0.08667190  1
  O2-  O145  1  0.07275935  0.17896219  0.43068870  1
  O2-  O146  1  0.06940825  0.18131378  0.76765737  1
  O2-  O147  1  0.07326719  0.67956840  0.08947382  1
  O2-  O148  1  0.06961683  0.68052452  0.42981880  1
  O2-  O149  1  0.06971587  0.67826590  0.76803937  1
  O2-  O150  1  0.57217131  0.17371178  0.08506766  1
  O2-  O151  1  0.56986557  0.17747480  0.43384097  1
  O2-  O152  1  0.57285450  0.18349797  0.76004124  1
  O2-  O153  1  0.56977196  0.68306336  0.10181495  1
  O2-  O154  1  0.57058467  0.68011676  0.42339389  1
  O2-  O155  1  0.57204144  0.67522710  0.76367299  1
  O2-  O156  1  0.17921475  0.42960955  0.24527118  1
  O2-  O157  1  0.17858641  0.42762729  0.57726002  1
  O2-  O158  1  0.17724651  0.42599256  0.90951140  1
  O2-  O159  1  0.17784737  0.92842876  0.24547526  1
  O2-  O160  1  0.17708455  0.92755802  0.57639440  1
  O2-  O161  1  0.17828702  0.93030764  0.90069298  1
  O2-  O162  1  0.67717202  0.42794744  0.24641531  1
  O2-  O163  1  0.67810869  0.42543871  0.57767810  1
  O2-  O164  1  0.67934990  0.43167025  0.90148732  1
  O2-  O165  1  0.67840436  0.92893111  0.23559224  1
  O2-  O166  1  0.67653515  0.92956940  0.57953785  1
  O2-  O167  1  0.68396224  0.93079168  0.89912565  1
  O2-  O168  1  0.42986352  0.31876593  0.09675315  1
  O2-  O169  1  0.43053810  0.32076274  0.43357598  1
  O2-  O170  1  0.42937162  0.32315203  0.75737776  1
  O2-  O171  1  0.42482183  0.82326695  0.08965535  1
  O2-  O172  1  0.43221848  0.82279381  0.43175629  1
  O2-  O173  1  0.42936236  0.81942415  0.76674714  1
  O2-  O174  1  0.92999459  0.32173031  0.08717570  1
  O2-  O175  1  0.93064973  0.31908848  0.43214865  1
  O2-  O176  1  0.92866821  0.32213353  0.75870269  1
  O2-  O177  1  0.92985957  0.82220452  0.08804960  1
  O2-  O178  1  0.92801141  0.81865960  0.43176040  1
  O2-  O179  1  0.92746822  0.82204381  0.75755070  1
  O2-  O180  1  0.31647499  0.06811336  0.23189858  1
  O2-  O181  1  0.32142057  0.07672798  0.56926393  1
  O2-  O182  1  0.31796160  0.07530408  0.91091336  1
  O2-  O183  1  0.32331250  0.57095363  0.23654734  1
  O2-  O184  1  0.32032454  0.56939551  0.57616629  1
  O2-  O185  1  0.31732247  0.56976983  0.89728067  1
  O2-  O186  1  0.82223247  0.07164355  0.24230370  1
  O2-  O187  1  0.81992700  0.07160321  0.56584638  1
  O2-  O188  1  0.82517751  0.06989813  0.91088954  1
  O2-  O189  1  0.81848656  0.56863314  0.23657503  1
  O2-  O190  1  0.82486731  0.56657150  0.57677798  1
  O2-  O191  1  0.82445449  0.57059061  0.90017439  1
  O2-  O192  1  0.04621752  0.07869082  0.26289474  1
  O2-  O193  1  0.04435860  0.08122852  0.60070687  1
  O2-  O194  1  0.04069478  0.08604191  0.93494170  1
  O2-  O195  1  0.04712232  0.57921412  0.26495777  1
  O2-  O196  1  0.04060837  0.58113258  0.60005959  1
  O2-  O197  1  0.04793916  0.58551426  0.93807643  1
  O2-  O198  1  0.53632509  0.08115233  0.26482755  1
  O2-  O199  1  0.54930117  0.08629175  0.61109569  1
  O2-  O200  1  0.54591200  0.08363750  0.93150132  1
  O2-  O201  1  0.55055648  0.58241262  0.27540406  1
  O2-  O202  1  0.54338072  0.57951470  0.59514687  1
  O2-  O203  1  0.53978200  0.58586792  0.93362716  1
  O2-  O204  1  0.16777041  0.21017822  0.26079198  1
  O2-  O205  1  0.16560277  0.21505356  0.60108523  1
  O2-  O206  1  0.16064075  0.20662326  0.93372688  1
  O2-  O207  1  0.16965754  0.70841803  0.26381912  1
  O2-  O208  1  0.16584516  0.70758653  0.59904756  1
  O2-  O209  1  0.16334423  0.71060263  0.93713432  1
  O2-  O210  1  0.67006856  0.19685063  0.26547806  1
  O2-  O211  1  0.66199244  0.21238377  0.60693626  1
  O2-  O212  1  0.66910777  0.19978526  0.93571254  1
  O2-  O213  1  0.66570854  0.70588385  0.27454168  1
  O2-  O214  1  0.67339150  0.70061114  0.59881470  1
  O2-  O215  1  0.66720155  0.71347201  0.93338365  1
  O2-  O216  1  0.08403852  0.44939650  0.06152363  1
  O2-  O217  1  0.08575677  0.45334118  0.39810474  1
  O2-  O218  1  0.08655171  0.45661274  0.73052047  1
  O2-  O219  1  0.08429703  0.96276494  0.06913215  1
  O2-  O220  1  0.07863946  0.94886944  0.39345873  1
  O2-  O221  1  0.08549358  0.95204705  0.72942234  1
  O2-  O222  1  0.58001478  0.45790610  0.06786048  1
  O2-  O223  1  0.58662872  0.45209536  0.40104049  1
  O2-  O224  1  0.58474346  0.45791446  0.72891456  1
  O2-  O225  1  0.58104231  0.95846820  0.06502059  1
  O2-  O226  1  0.58291233  0.96286781  0.40360324  1
  O2-  O227  1  0.58680601  0.95545486  0.73408495  1
  O2-  O228  1  0.20289122  0.33141442  0.06014257  1
  O2-  O229  1  0.20577118  0.33513517  0.39656795  1
  O2-  O230  1  0.20731820  0.33951192  0.73259665  1
  O2-  O231  1  0.20574180  0.83374789  0.07112503  1
  O2-  O232  1  0.20263818  0.83454602  0.39653063  1
  O2-  O233  1  0.20597646  0.83344762  0.72835755  1
  O2-  O234  1  0.70255551  0.32840931  0.06569528  1
  O2-  O235  1  0.70291823  0.32939930  0.39488035  1
  O2-  O236  1  0.70489081  0.33985459  0.73420913  1
  O2-  O237  1  0.71274127  0.83631451  0.06763845  1
  O2-  O238  1  0.70936551  0.83451896  0.40644264  1
  O2-  O239  1  0.70351630  0.83232366  0.72898112  1
  O2-  O240  1  0.45966641  0.42212071  0.26835940  1
  O2-  O241  1  0.45801013  0.41114808  0.60368049  1
  O2-  O242  1  0.46128024  0.41631561  0.92852120  1
  O2-  O243  1  0.46219001  0.91496289  0.26321581  1
  O2-  O244  1  0.45829539  0.92329503  0.60299347  1
  O2-  O245  1  0.44829180  0.91971217  0.93984811  1
  O2-  O246  1  0.96085228  0.41672121  0.26320513  1
  O2-  O247  1  0.95496253  0.41321589  0.60624073  1
  O2-  O248  1  0.95824413  0.41299098  0.93406525  1
  O2-  O249  1  0.94999449  0.91710406  0.26180919  1
  O2-  O250  1  0.95501205  0.91485246  0.60451658  1
  O2-  O251  1  0.96037581  0.91298831  0.93619753  1
  O2-  O252  1  0.33209456  0.29688981  0.26522822  1
  O2-  O253  1  0.33496681  0.29644735  0.60716331  1
  O2-  O254  1  0.33315954  0.28991060  0.92875246  1
  O2-  O255  1  0.33253331  0.79267388  0.26639893  1
  O2-  O256  1  0.33307937  0.79493885  0.59799488  1
  O2-  O257  1  0.33120391  0.79739664  0.93914856  1
  O2-  O258  1  0.83028472  0.29650349  0.26253394  1
  O2-  O259  1  0.83074714  0.29940056  0.60931052  1
  O2-  O260  1  0.83542724  0.29596032  0.93557944  1
  O2-  O261  1  0.82730034  0.78744493  0.26786870  1
  O2-  O262  1  0.83318598  0.80039274  0.60615983  1
  O2-  O263  1  0.83869833  0.79482198  0.93422600  1
  O2-  O264  1  0.41718327  0.05602606  0.05934527  1
  O2-  O265  1  0.41277727  0.03716389  0.39956640  1
  O2-  O266  1  0.41803668  0.04523832  0.73894092  1
  O2-  O267  1  0.41527554  0.53863774  0.06491100  1
  O2-  O268  1  0.41853992  0.54096706  0.40636866  1
  O2-  O269  1  0.41317440  0.54147130  0.72674071  1
  O2-  O270  1  0.91581285  0.04427473  0.06302584  1
  O2-  O271  1  0.91673674  0.04476940  0.39276222  1
  O2-  O272  1  0.91858778  0.04111774  0.73448871  1
  O2-  O273  1  0.92190330  0.54316205  0.06634987  1
  O2-  O274  1  0.91935423  0.53707180  0.40144120  1
  O2-  O275  1  0.91288698  0.53978112  0.73086625  1
  O2-  O276  1  0.28929419  0.16627517  0.06191863  1
  O2-  O277  1  0.28978426  0.16893334  0.39728963  1
  O2-  O278  1  0.28762295  0.16888350  0.73754480  1
  O2-  O279  1  0.28982752  0.66546214  0.06646742  1
  O2-  O280  1  0.28980599  0.66896760  0.40343732  1
  O2-  O281  1  0.29301339  0.66393904  0.72694724  1
  O2-  O282  1  0.80342912  0.16794838  0.06011471  1
  O2-  O283  1  0.79991044  0.16725508  0.39318603  1
  O2-  O284  1  0.79027828  0.16663298  0.73571611  1
  O2-  O285  1  0.79576488  0.67075596  0.06562484  1
  O2-  O286  1  0.78960144  0.66274842  0.40685342  1
  O2-  O287  1  0.79973723  0.66444422  0.72685710  1
