# generated using pymatgen
data_Ca2Al2SiO7
_symmetry_space_group_name_H-M   'P 1'
_cell_length_a   15.46192141
_cell_length_b   15.46194858
_cell_length_c   15.28675414
_cell_angle_alpha   90.00981614
_cell_angle_beta   90.00579530
_cell_angle_gamma   90.02305604
_symmetry_Int_Tables_number   1
_chemical_formula_structural   Ca2Al2SiO7
_chemical_formula_sum   'Ca48 Al48 Si24 O168'
_cell_volume   3654.62586174
_cell_formula_units_Z   24
loop_
 _symmetry_equiv_pos_site_id
 _symmetry_equiv_pos_as_xyz
  1  'x, y, z'
loop_
 _atom_type_symbol
 _atom_type_oxidation_number
  Ca2+  2.0
  Al0+  0.0
  Si0+  0.0
  O2-  -2.0
loop_
 _atom_site_type_symbol
 _atom_site_label
 _atom_site_symmetry_multiplicity
 _atom_site_fract_x
 _atom_site_fract_y
 _atom_site_fract_z
 _atom_site_occupancy
  Ca2+  Ca0  1  0.16461540  0.07318498  0.17269828  1
  Ca2+  Ca1  1  0.17658418  0.07360835  0.50632856  1
  Ca2+  Ca2  1  0.16474585  0.07334492  0.83897998  1
  Ca2+  Ca3  1  0.16744647  0.58331938  0.16543827  1
  Ca2+  Ca4  1  0.16147792  0.58872166  0.50233965  1
  Ca2+  Ca5  1  0.16796098  0.58261892  0.84028807  1
  Ca2+  Ca6  1  0.66528609  0.07975795  0.16836205  1
  Ca2+  Ca7  1  0.66354326  0.08726189  0.50327857  1
  Ca2+  Ca8  1  0.66738514  0.07997662  0.83711514  1
  Ca2+  Ca9  1  0.67455893  0.57423947  0.16732727  1
  Ca2+  Ca10  1  0.67193248  0.57136591  0.50816216  1
  Ca2+  Ca11  1  0.67784736  0.57530981  0.84097962  1
  Ca2+  Ca12  1  0.08237992  0.32527784  0.15230610  1
  Ca2+  Ca13  1  0.08049959  0.33233508  0.49482994  1
  Ca2+  Ca14  1  0.08253136  0.33540606  0.83627972  1
  Ca2+  Ca15  1  0.07697995  0.83660193  0.16049479  1
  Ca2+  Ca16  1  0.08017690  0.82917924  0.49550553  1
  Ca2+  Ca17  1  0.07660470  0.83111207  0.82636276  1
  Ca2+  Ca18  1  0.58447929  0.33432821  0.16648462  1
  Ca2+  Ca19  1  0.58238336  0.32604381  0.49099513  1
  Ca2+  Ca20  1  0.58757478  0.33277249  0.82746775  1
  Ca2+  Ca21  1  0.57537731  0.83518594  0.15446830  1
  Ca2+  Ca22  1  0.58136862  0.83059769  0.49574184  1
  Ca2+  Ca23  1  0.57811931  0.83717324  0.83429013  1
  Ca2+  Ca24  1  0.33277077  0.41890118  0.16720017  1
  Ca2+  Ca25  1  0.33534689  0.41467278  0.49963700  1
  Ca2+  Ca26  1  0.32694661  0.42550042  0.84339231  1
  Ca2+  Ca27  1  0.32132702  0.91848724  0.17116897  1
  Ca2+  Ca28  1  0.32297430  0.92491858  0.50527399  1
  Ca2+  Ca29  1  0.32210236  0.91846673  0.83920154  1
  Ca2+  Ca30  1  0.82901788  0.41597472  0.16744382  1
  Ca2+  Ca31  1  0.82189684  0.42096152  0.51009721  1
  Ca2+  Ca32  1  0.82931277  0.42626323  0.84282293  1
  Ca2+  Ca33  1  0.83246958  0.91007379  0.16686165  1
  Ca2+  Ca34  1  0.83789581  0.91288978  0.50227542  1
  Ca2+  Ca35  1  0.83062842  0.91027786  0.84132750  1
  Ca2+  Ca36  1  0.41740312  0.16683333  0.16769781  1
  Ca2+  Ca37  1  0.42326977  0.16502496  0.49237979  1
  Ca2+  Ca38  1  0.42295248  0.16509049  0.82528838  1
  Ca2+  Ca39  1  0.41678029  0.67133944  0.15666577  1
  Ca2+  Ca40  1  0.41872286  0.66790960  0.49548594  1
  Ca2+  Ca41  1  0.40980398  0.67222148  0.83580081  1
  Ca2+  Ca42  1  0.92429063  0.17314459  0.15562387  1
  Ca2+  Ca43  1  0.91778415  0.16793720  0.49640872  1
  Ca2+  Ca44  1  0.92249965  0.17113523  0.83829987  1
  Ca2+  Ca45  1  0.92007761  0.67411619  0.16160456  1
  Ca2+  Ca46  1  0.92403598  0.67366906  0.49656578  1
  Ca2+  Ca47  1  0.91457940  0.67190239  0.82601692  1
  Al0+  Al48  1  -0.00036364  0.00026383  -0.00479642  1
  Al0+  Al49  1  -0.00225581  -0.00052423  0.33490375  1
  Al0+  Al50  1  -0.00089739  0.00126741  0.66606413  1
  Al0+  Al51  1  0.00046317  0.50013884  0.00460548  1
  Al0+  Al52  1  0.00027992  0.50258917  0.33023754  1
  Al0+  Al53  1  -0.00066007  0.50114174  0.66547782  1
  Al0+  Al54  1  0.49974528  -0.00066663  -0.00176245  1
  Al0+  Al55  1  0.50103549  0.00013738  0.33302468  1
  Al0+  Al56  1  0.49998870  0.00160886  0.66459041  1
  Al0+  Al57  1  0.50176411  0.50001530  0.00540835  1
  Al0+  Al58  1  0.50011932  0.49838605  0.33445289  1
  Al0+  Al59  1  0.49836652  0.49990192  0.67019764  1
  Al0+  Al60  1  0.25362488  0.24900928  -0.00346996  1
  Al0+  Al61  1  0.25176437  0.25110802  0.33400791  1
  Al0+  Al62  1  0.25154267  0.25075336  0.66938547  1
  Al0+  Al63  1  0.25033855  0.75288294  0.00318594  1
  Al0+  Al64  1  0.24989830  0.74797526  0.33468832  1
  Al0+  Al65  1  0.24870080  0.75083429  0.66557591  1
  Al0+  Al66  1  0.75136074  0.24922459  -0.00108848  1
  Al0+  Al67  1  0.74849200  0.24820198  0.33353223  1
  Al0+  Al68  1  0.74865988  0.24770700  0.66640685  1
  Al0+  Al69  1  0.74816170  0.74859801  0.00485995  1
  Al0+  Al70  1  0.75112428  0.74894176  0.33163938  1
  Al0+  Al71  1  0.74862992  0.74999373  0.66485082  1
  Al0+  Al72  1  0.07317523  0.67835245  0.31435609  1
  Al0+  Al73  1  0.92927522  0.82208260  0.31551566  1
  Al0+  Al74  1  0.07158389  0.67833780  0.65223467  1
  Al0+  Al75  1  0.32248250  0.07157740  0.68325592  1
  Al0+  Al76  1  0.57186249  0.17765271  0.31481789  1
  Al0+  Al77  1  0.17805332  0.92910899  0.68354123  1
  Al0+  Al78  1  0.67797601  0.42726347  0.68221992  1
  Al0+  Al79  1  0.57025883  0.17992969  0.65282901  1
  Al0+  Al80  1  0.32151881  0.07194950  0.34817738  1
  Al0+  Al81  1  0.68014929  0.42589387  0.01677842  1
  Al0+  Al82  1  0.42804453  0.82157725  0.98587123  1
  Al0+  Al83  1  0.07448576  0.17824616  0.98447387  1
  Al0+  Al84  1  0.17985120  0.42708932  0.01466810  1
  Al0+  Al85  1  0.92649634  0.82264247  0.65121653  1
  Al0+  Al86  1  0.92897682  0.32305999  0.98498691  1
  Al0+  Al87  1  0.32045620  0.57218287  0.01524111  1
  Al0+  Al88  1  0.82097227  0.57131666  0.68099238  1
  Al0+  Al89  1  0.42856215  0.32174943  0.31615138  1
  Al0+  Al90  1  0.17656006  0.92738563  0.34970367  1
  Al0+  Al91  1  0.68020557  0.42887485  0.34906435  1
  Al0+  Al92  1  0.92743673  0.81898707  0.98546710  1
  Al0+  Al93  1  0.82319914  0.57263074  0.01732195  1
  Al0+  Al94  1  0.17735805  0.93142725  0.01386187  1
  Al0+  Al95  1  0.67839371  0.92990635  0.01217100  1
  Si0+  Si96  1  0.07267423  0.67924269  0.98408967  1
  Si0+  Si97  1  0.57066749  0.67734170  0.98303427  1
  Si0+  Si98  1  0.57052929  0.17882264  0.98421962  1
  Si0+  Si99  1  0.07256048  0.17983519  0.65060139  1
  Si0+  Si100  1  0.82156483  0.07072951  0.01610254  1
  Si0+  Si101  1  0.92847775  0.32076981  0.32123337  1
  Si0+  Si102  1  0.43082293  0.32309985  0.98333415  1
  Si0+  Si103  1  0.32111885  0.57219602  0.68026413  1
  Si0+  Si104  1  0.57094017  0.67782190  0.31913609  1
  Si0+  Si105  1  0.81959145  0.07064611  0.34809198  1
  Si0+  Si106  1  0.07083797  0.18063061  0.32182024  1
  Si0+  Si107  1  0.17794880  0.42868438  0.67956147  1
  Si0+  Si108  1  0.42920978  0.82079426  0.65079091  1
  Si0+  Si109  1  0.32415809  0.07172844  0.01610235  1
  Si0+  Si110  1  0.82166477  0.07185793  0.68187458  1
  Si0+  Si111  1  0.82280178  0.57248070  0.35237752  1
  Si0+  Si112  1  0.67880729  0.92720576  0.34812999  1
  Si0+  Si113  1  0.92987534  0.32000052  0.65192505  1
  Si0+  Si114  1  0.42700914  0.32407851  0.65067867  1
  Si0+  Si115  1  0.56963252  0.67817520  0.65244783  1
  Si0+  Si116  1  0.43064971  0.82006263  0.31981565  1
  Si0+  Si117  1  0.32155062  0.57010716  0.34922393  1
  Si0+  Si118  1  0.17779829  0.42921012  0.34798847  1
  Si0+  Si119  1  0.67878429  0.92869684  0.67957639  1
  O2-  O120  1  0.25017725  0.00879268  0.05954889  1
  O2-  O121  1  0.24927724  0.00010673  0.39784508  1
  O2-  O122  1  0.24902927  0.00219760  0.73377850  1
  O2-  O123  1  0.24994582  0.49968289  0.06665439  1
  O2-  O124  1  0.24832207  0.50073939  0.39106896  1
  O2-  O125  1  0.24861947  0.50133559  0.71938428  1
  O2-  O126  1  0.75462041  0.00111356  0.06136669  1
  O2-  O127  1  0.74971079  -0.00189228  0.39048398  1
  O2-  O128  1  0.75380313  -0.00393564  0.72087503  1
  O2-  O129  1  0.75439687  0.49610637  0.06573631  1
  O2-  O130  1  0.75567671  0.50212353  0.39643791  1
  O2-  O131  1  0.75043401  0.49832766  0.73126241  1
  O2-  O132  1  0.00250419  0.25348584  0.27893891  1
  O2-  O133  1  0.00205563  0.25113170  0.60711239  1
  O2-  O134  1  0.00532427  0.25447720  0.93554553  1
  O2-  O135  1  0.00377159  0.75308613  0.26563836  1
  O2-  O136  1  0.00031879  0.75163524  0.60299645  1
  O2-  O137  1  0.00077669  0.74351506  0.93875189  1
  O2-  O138  1  0.49965959  0.24930032  0.26529282  1
  O2-  O139  1  0.49619636  0.25572350  0.60747321  1
  O2-  O140  1  0.50244911  0.25239593  0.94177725  1
  O2-  O141  1  0.50220605  0.75042394  0.27638755  1
  O2-  O142  1  0.49913699  0.74881412  0.60775816  1
  O2-  O143  1  0.50132621  0.74542684  0.93808839  1
  O2-  O144  1  0.07083658  0.17748542  0.09891847  1
  O2-  O145  1  0.06837267  0.18319152  0.42746201  1
  O2-  O146  1  0.07148670  0.18087290  0.75509877  1
  O2-  O147  1  0.07406087  0.68297605  0.08950332  1
  O2-  O148  1  0.07047084  0.67625384  0.42791800  1
  O2-  O149  1  0.07370211  0.67674736  0.76544105  1
  O2-  O150  1  0.56870647  0.17631218  0.08887114  1
  O2-  O151  1  0.57244686  0.17873282  0.42851206  1
  O2-  O152  1  0.56999030  0.17834436  0.76611147  1
  O2-  O153  1  0.56897804  0.67949179  0.08907266  1
  O2-  O154  1  0.56865999  0.67941860  0.42501390  1
  O2-  O155  1  0.56845379  0.67937493  0.75695415  1
  O2-  O156  1  0.17789108  0.42728144  0.24378805  1
  O2-  O157  1  0.17854186  0.42625116  0.57409155  1
  O2-  O158  1  0.18298821  0.42878921  0.90033465  1
  O2-  O159  1  0.17695092  0.93032599  0.23600785  1
  O2-  O160  1  0.18053437  0.92998077  0.56992501  1
  O2-  O161  1  0.17836525  0.93036186  0.90104620  1
  O2-  O162  1  0.68273261  0.43016001  0.23653365  1
  O2-  O163  1  0.67844971  0.42836437  0.56828816  1
  O2-  O164  1  0.67941487  0.42735042  0.90322710  1
  O2-  O165  1  0.67741113  0.92728317  0.24340122  1
  O2-  O166  1  0.67655302  0.92916163  0.57412552  1
  O2-  O167  1  0.67716347  0.93356671  0.89864284  1
  O2-  O168  1  0.42960817  0.32254985  0.08798846  1
  O2-  O169  1  0.42986470  0.32351945  0.43012698  1
  O2-  O170  1  0.42663277  0.32580914  0.75620125  1
  O2-  O171  1  0.43068754  0.82151186  0.09936889  1
  O2-  O172  1  0.43349011  0.81771528  0.42554855  1
  O2-  O173  1  0.43024548  0.81981576  0.75562748  1
  O2-  O174  1  0.92786505  0.31690784  0.09921490  1
  O2-  O175  1  0.92969239  0.31833776  0.42708917  1
  O2-  O176  1  0.93126197  0.31904238  0.75630422  1
  O2-  O177  1  0.92896897  0.82006638  0.09819794  1
  O2-  O178  1  0.92648008  0.82040855  0.42892880  1
  O2-  O179  1  0.92441060  0.82085474  0.76453270  1
  O2-  O180  1  0.31984841  0.07027689  0.23455079  1
  O2-  O181  1  0.32213489  0.06984740  0.56975442  1
  O2-  O182  1  0.32728171  0.06851496  0.91065183  1
  O2-  O183  1  0.32407882  0.57051379  0.24497510  1
  O2-  O184  1  0.32485976  0.57146387  0.57502668  1
  O2-  O185  1  0.31945847  0.57075418  0.90087391  1
  O2-  O186  1  0.82021747  0.07269365  0.24350076  1
  O2-  O187  1  0.82080970  0.07527813  0.57646089  1
  O2-  O188  1  0.81884739  0.07186872  0.91020371  1
  O2-  O189  1  0.82107055  0.57254981  0.24719139  1
  O2-  O190  1  0.81844254  0.56804605  0.56704988  1
  O2-  O191  1  0.81925048  0.57395927  0.90362426  1
  O2-  O192  1  0.03988145  0.08977384  0.27553420  1
  O2-  O193  1  0.04241083  0.08941396  0.60209857  1
  O2-  O194  1  0.03812294  0.08405883  0.92806164  1
  O2-  O195  1  0.04384685  0.57966500  0.26141821  1
  O2-  O196  1  0.04420140  0.57937177  0.59736288  1
  O2-  O197  1  0.05324513  0.58266009  0.94235792  1
  O2-  O198  1  0.54525228  0.07767002  0.26350089  1
  O2-  O199  1  0.54032391  0.08328246  0.59700494  1
  O2-  O200  1  0.53970418  0.08856475  0.93513952  1
  O2-  O201  1  0.54053411  0.58746511  0.27223327  1
  O2-  O202  1  0.53941740  0.58672679  0.60442890  1
  O2-  O203  1  0.54530884  0.58347187  0.93756759  1
  O2-  O204  1  0.16273011  0.20623663  0.27512246  1
  O2-  O205  1  0.16465516  0.20894759  0.60392132  1
  O2-  O206  1  0.17395930  0.20207040  0.93109951  1
  O2-  O207  1  0.17494664  0.70021117  0.26572621  1
  O2-  O208  1  0.17088530  0.70519167  0.59800519  1
  O2-  O209  1  0.16549521  0.70802126  0.93827347  1
  O2-  O210  1  0.67100015  0.20564906  0.26303943  1
  O2-  O211  1  0.66786797  0.20721256  0.59765973  1
  O2-  O212  1  0.66374497  0.20255210  0.93780122  1
  O2-  O213  1  0.66324319  0.70327123  0.27292189  1
  O2-  O214  1  0.65965995  0.70683276  0.60207118  1
  O2-  O215  1  0.66309779  0.70570902  0.93738535  1
  O2-  O216  1  0.08093342  0.44996108  0.06755692  1
  O2-  O217  1  0.08527998  0.45623887  0.39589104  1
  O2-  O218  1  0.08630053  0.45501797  0.72685794  1
  O2-  O219  1  0.08041668  0.96286654  0.06652589  1
  O2-  O220  1  0.07812134  0.95737233  0.40179912  1
  O2-  O221  1  0.07855514  0.95840888  0.73335170  1
  O2-  O222  1  0.58296065  0.45646777  0.07029282  1
  O2-  O223  1  0.58352323  0.46144649  0.40220350  1
  O2-  O224  1  0.57909120  0.45588185  0.73386804  1
  O2-  O225  1  0.58309148  0.96376368  0.06721865  1
  O2-  O226  1  0.58745989  0.95421964  0.39721883  1
  O2-  O227  1  0.58851293  0.96014945  0.72736076  1
  O2-  O228  1  0.21029422  0.32792823  0.06535198  1
  O2-  O229  1  0.20567611  0.33829680  0.39798417  1
  O2-  O230  1  0.20603872  0.33826260  0.72889446  1
  O2-  O231  1  0.21175893  0.83730434  0.06897298  1
  O2-  O232  1  0.20779881  0.82891830  0.40104831  1
  O2-  O233  1  0.20904355  0.83057211  0.73445106  1
  O2-  O234  1  0.70693661  0.32640882  0.06831016  1
  O2-  O235  1  0.71064781  0.33101406  0.40126986  1
  O2-  O236  1  0.70601101  0.32788849  0.73229802  1
  O2-  O237  1  0.70297509  0.83309725  0.06736034  1
  O2-  O238  1  0.70540030  0.83476162  0.39616277  1
  O2-  O239  1  0.70116146  0.83597638  0.72699750  1
  O2-  O240  1  0.45800985  0.42056706  0.26437562  1
  O2-  O241  1  0.45079371  0.41857161  0.60435435  1
  O2-  O242  1  0.45840422  0.41564965  0.93684708  1
  O2-  O243  1  0.45812150  0.91136096  0.27276757  1
  O2-  O244  1  0.46046071  0.91101475  0.60260669  1
  O2-  O245  1  0.46319627  0.91592787  0.92970307  1
  O2-  O246  1  0.95164336  0.41382597  0.27580504  1
  O2-  O247  1  0.95667958  0.41136223  0.60302162  1
  O2-  O248  1  0.95486628  0.42272883  0.93359115  1
  O2-  O249  1  0.95224080  0.92333905  0.26521514  1
  O2-  O250  1  0.95186115  0.92315026  0.59967599  1
  O2-  O251  1  0.95536818  0.91653530  0.93226526  1
  O2-  O252  1  0.32888058  0.29538627  0.26411745  1
  O2-  O253  1  0.33293953  0.29933227  0.60408401  1
  O2-  O254  1  0.34003783  0.29585470  0.93347903  1
  O2-  O255  1  0.33904918  0.79102867  0.27419493  1
  O2-  O256  1  0.33837393  0.79197697  0.60256575  1
  O2-  O257  1  0.33232286  0.78972500  0.93082456  1
  O2-  O258  1  0.83881091  0.28848679  0.27397752  1
  O2-  O259  1  0.83910513  0.28806047  0.60428940  1
  O2-  O260  1  0.83277820  0.28839233  0.93016148  1
  O2-  O261  1  0.82957959  0.79230896  0.26448396  1
  O2-  O262  1  0.82720238  0.79522306  0.59755705  1
  O2-  O263  1  0.82812597  0.79054959  0.93510829  1
  O2-  O264  1  0.41499412  0.04026421  0.06386925  1
  O2-  O265  1  0.42068098  0.04194703  0.39982086  1
  O2-  O266  1  0.42096739  0.04068273  0.73466746  1
  O2-  O267  1  0.41902184  0.54498893  0.06791948  1
  O2-  O268  1  0.41209275  0.54073416  0.39944720  1
  O2-  O269  1  0.41119803  0.54462270  0.73086325  1
  O2-  O270  1  0.91543317  0.04685847  0.06104994  1
  O2-  O271  1  0.91087395  0.04504002  0.39845087  1
  O2-  O272  1  0.91447500  0.05006238  0.72898192  1
  O2-  O273  1  0.92203476  0.54889373  0.07029324  1
  O2-  O274  1  0.91754663  0.54749716  0.39626128  1
  O2-  O275  1  0.91991304  0.54371264  0.73258724  1
  O2-  O276  1  0.30605841  0.16791460  0.05861946  1
  O2-  O277  1  0.29445742  0.17106222  0.40126799  1
  O2-  O278  1  0.29855208  0.17213682  0.73397165  1
  O2-  O279  1  0.29346599  0.67024463  0.06858133  1
  O2-  O280  1  0.29673807  0.66187202  0.39887526  1
  O2-  O281  1  0.29458758  0.66397152  0.72752720  1
  O2-  O282  1  0.79422854  0.16305233  0.06330280  1
  O2-  O283  1  0.79089065  0.16101515  0.39875860  1
  O2-  O284  1  0.78886015  0.16058559  0.73168601  1
  O2-  O285  1  0.78760237  0.66727864  0.07329369  1
  O2-  O286  1  0.79352492  0.66547583  0.39809286  1
  O2-  O287  1  0.78937606  0.66960815  0.73189072  1
