# generated using pymatgen
data_Ca2Al2SiO7
_symmetry_space_group_name_H-M   'P 1'
_cell_length_a   15.46166232
_cell_length_b   15.46106590
_cell_length_c   15.28682321
_cell_angle_alpha   89.99855182
_cell_angle_beta   89.99354873
_cell_angle_gamma   89.99155667
_symmetry_Int_Tables_number   1
_chemical_formula_structural   Ca2Al2SiO7
_chemical_formula_sum   'Ca48 Al48 Si24 O168'
_cell_volume   3654.37280849
_cell_formula_units_Z   24
loop_
 _symmetry_equiv_pos_site_id
 _symmetry_equiv_pos_as_xyz
  1  'x, y, z'
loop_
 _atom_type_symbol
 _atom_type_oxidation_number
  Ca2+  2.0
  Al0+  0.0
  Si0+  0.0
  O2-  -2.0
loop_
 _atom_site_type_symbol
 _atom_site_label
 _atom_site_symmetry_multiplicity
 _atom_site_fract_x
 _atom_site_fract_y
 _atom_site_fract_z
 _atom_site_occupancy
  Ca2+  Ca0  1  0.17665507  0.08917912  0.16617752  1
  Ca2+  Ca1  1  0.17198817  0.08192505  0.50657692  1
  Ca2+  Ca2  1  0.16046695  0.07783081  0.84097257  1
  Ca2+  Ca3  1  0.18053377  0.57961727  0.16890148  1
  Ca2+  Ca4  1  0.17085275  0.57665852  0.50821690  1
  Ca2+  Ca5  1  0.16743329  0.57408888  0.83411453  1
  Ca2+  Ca6  1  0.67216984  0.09656263  0.16464433  1
  Ca2+  Ca7  1  0.66350441  0.07883138  0.50906335  1
  Ca2+  Ca8  1  0.66648019  0.08968677  0.83779749  1
  Ca2+  Ca9  1  0.66327953  0.57565616  0.16941626  1
  Ca2+  Ca10  1  0.67227694  0.58402481  0.50672433  1
  Ca2+  Ca11  1  0.67473949  0.57311644  0.83807773  1
  Ca2+  Ca12  1  0.07130084  0.32850994  0.15792744  1
  Ca2+  Ca13  1  0.07731676  0.33690808  0.50230082  1
  Ca2+  Ca14  1  0.08069096  0.32210042  0.82366728  1
  Ca2+  Ca15  1  0.09016278  0.83372701  0.16049952  1
  Ca2+  Ca16  1  0.09274684  0.82719212  0.50260706  1
  Ca2+  Ca17  1  0.09110979  0.82931298  0.82644324  1
  Ca2+  Ca18  1  0.57293400  0.33181253  0.15676931  1
  Ca2+  Ca19  1  0.57309142  0.33014210  0.49896887  1
  Ca2+  Ca20  1  0.57598417  0.32583494  0.83319637  1
  Ca2+  Ca21  1  0.57706658  0.82695079  0.16837955  1
  Ca2+  Ca22  1  0.57984169  0.82841711  0.49189794  1
  Ca2+  Ca23  1  0.58293312  0.83427407  0.82698465  1
  Ca2+  Ca24  1  0.34228913  0.42156554  0.17172671  1
  Ca2+  Ca25  1  0.33595191  0.41970493  0.50475362  1
  Ca2+  Ca26  1  0.33305887  0.41519575  0.83825686  1
  Ca2+  Ca27  1  0.33316348  0.92923922  0.16926040  1
  Ca2+  Ca28  1  0.33641198  0.92401881  0.50391482  1
  Ca2+  Ca29  1  0.32265010  0.92819885  0.84010264  1
  Ca2+  Ca30  1  0.82614577  0.40302909  0.16674526  1
  Ca2+  Ca31  1  0.83809479  0.41866956  0.50800117  1
  Ca2+  Ca32  1  0.83515949  0.41341343  0.83795920  1
  Ca2+  Ca33  1  0.83313666  0.92695272  0.16699117  1
  Ca2+  Ca34  1  0.82355078  0.91843934  0.51004292  1
  Ca2+  Ca35  1  0.82501937  0.92513123  0.83827748  1
  Ca2+  Ca36  1  0.41570808  0.17355290  0.15763035  1
  Ca2+  Ca37  1  0.41569642  0.17539743  0.49689278  1
  Ca2+  Ca38  1  0.41847825  0.17420050  0.82873501  1
  Ca2+  Ca39  1  0.41347890  0.66615125  0.16523085  1
  Ca2+  Ca40  1  0.42000259  0.67417303  0.48685413  1
  Ca2+  Ca41  1  0.41292056  0.66643029  0.83254986  1
  Ca2+  Ca42  1  0.92066751  0.17255150  0.15466047  1
  Ca2+  Ca43  1  0.92366084  0.17591041  0.49812066  1
  Ca2+  Ca44  1  0.92208460  0.17358918  0.83147156  1
  Ca2+  Ca45  1  0.91905618  0.67232529  0.16338049  1
  Ca2+  Ca46  1  0.92263896  0.66166230  0.50248491  1
  Ca2+  Ca47  1  0.92225076  0.66677317  0.82352018  1
  Al0+  Al48  1  -0.00489522  -0.00241227  0.00458826  1
  Al0+  Al49  1  -0.00010677  -0.00062808  0.33598095  1
  Al0+  Al50  1  -0.00146639  -0.00029434  0.66580065  1
  Al0+  Al51  1  0.00014216  0.50409159  -0.00026823  1
  Al0+  Al52  1  -0.00128447  0.50041391  0.32684157  1
  Al0+  Al53  1  0.00314879  0.50236034  0.66773134  1
  Al0+  Al54  1  0.49869707  -0.00347793  0.00093338  1
  Al0+  Al55  1  0.50050808  -0.00120375  0.33301507  1
  Al0+  Al56  1  0.50000342  -0.00079509  0.66891742  1
  Al0+  Al57  1  0.50224366  0.50076458  0.00235594  1
  Al0+  Al58  1  0.50197901  0.49899280  0.33324171  1
  Al0+  Al59  1  0.50301923  0.50205514  0.66479674  1
  Al0+  Al60  1  0.24705938  0.24965271  -0.00324602  1
  Al0+  Al61  1  0.24868097  0.24947882  0.33510643  1
  Al0+  Al62  1  0.25028643  0.25201027  0.66187546  1
  Al0+  Al63  1  0.25039934  0.74893815  0.00600931  1
  Al0+  Al64  1  0.25060983  0.74926093  0.33206374  1
  Al0+  Al65  1  0.25092259  0.75157895  0.66520240  1
  Al0+  Al66  1  0.74856993  0.25053767  0.00078009  1
  Al0+  Al67  1  0.75089525  0.25072487  0.33545353  1
  Al0+  Al68  1  0.74844048  0.25020454  0.65881255  1
  Al0+  Al69  1  0.74949083  0.74894384  0.00092979  1
  Al0+  Al70  1  0.75151012  0.74938669  0.32902239  1
  Al0+  Al71  1  0.75110633  0.75015568  0.67557229  1
  Al0+  Al72  1  0.67779487  0.92960671  0.68011944  1
  Al0+  Al73  1  0.18102511  0.42908619  0.67946204  1
  Al0+  Al74  1  0.82208989  0.56904151  0.67999669  1
  Al0+  Al75  1  0.42720048  0.32331748  0.98554137  1
  Al0+  Al76  1  0.68197889  0.42985900  0.01334044  1
  Al0+  Al77  1  0.07191446  0.17527857  0.65009452  1
  Al0+  Al78  1  0.92960305  0.32128266  0.31801982  1
  Al0+  Al79  1  0.32066830  0.56773095  0.01269942  1
  Al0+  Al80  1  0.07234368  0.68070909  0.65338017  1
  Al0+  Al81  1  0.81648979  0.07004309  0.01292409  1
  Al0+  Al82  1  0.06998818  0.17668941  0.98586457  1
  Al0+  Al83  1  0.32107261  0.07323644  0.01362648  1
  Al0+  Al84  1  0.92833424  0.32249930  0.98449014  1
  Al0+  Al85  1  0.32197285  0.56968568  0.34804252  1
  Al0+  Al86  1  0.93013327  0.32220411  0.65210071  1
  Al0+  Al87  1  0.56981688  0.17727658  0.65094812  1
  Al0+  Al88  1  0.42865034  0.32402485  0.65068471  1
  Al0+  Al89  1  0.42815395  0.31963721  0.31966006  1
  Al0+  Al90  1  0.32224030  0.07190007  0.34845423  1
  Al0+  Al91  1  0.56961860  0.17693403  0.98660665  1
  Al0+  Al92  1  0.57310133  0.67825451  0.31811226  1
  Al0+  Al93  1  0.17904147  0.92978533  0.67921892  1
  Al0+  Al94  1  0.17761372  0.92891085  0.01481100  1
  Al0+  Al95  1  0.42746332  0.82189319  0.31644721  1
  Si0+  Si96  1  0.32153620  0.07280047  0.68259437  1
  Si0+  Si97  1  0.07104856  0.67944513  0.31707278  1
  Si0+  Si98  1  0.57411369  0.68094410  0.65384465  1
  Si0+  Si99  1  0.67751408  0.42719605  0.68287766  1
  Si0+  Si100  1  0.68170251  0.92778485  0.34748316  1
  Si0+  Si101  1  0.07224700  0.68240995  0.98499060  1
  Si0+  Si102  1  0.17540355  0.42741030  0.01613034  1
  Si0+  Si103  1  0.57177844  0.17722241  0.31779397  1
  Si0+  Si104  1  0.67601509  0.92383436  0.01969464  1
  Si0+  Si105  1  0.32434012  0.57288792  0.68158279  1
  Si0+  Si106  1  0.82088222  0.07364016  0.68216558  1
  Si0+  Si107  1  0.82121446  0.07171257  0.35047496  1
  Si0+  Si108  1  0.17741306  0.92799998  0.35134626  1
  Si0+  Si109  1  0.42987309  0.81934172  0.65306961  1
  Si0+  Si110  1  0.92598750  0.82005868  0.98434984  1
  Si0+  Si111  1  0.82143730  0.57240521  0.34802017  1
  Si0+  Si112  1  0.07044699  0.17550131  0.31622952  1
  Si0+  Si113  1  0.57202959  0.67898731  0.98280431  1
  Si0+  Si114  1  0.92639672  0.82072001  0.65104527  1
  Si0+  Si115  1  0.92906432  0.82168949  0.31881771  1
  Si0+  Si116  1  0.17549541  0.42963832  0.34891501  1
  Si0+  Si117  1  0.68017624  0.42863368  0.35061589  1
  Si0+  Si118  1  0.42801010  0.81835221  0.98377477  1
  Si0+  Si119  1  0.82354240  0.57397770  0.01926541  1
  O2-  O120  1  0.24601109  0.00384188  0.06450140  1
  O2-  O121  1  0.24759602  -0.00459074  0.39427115  1
  O2-  O122  1  0.24670763  0.01007407  0.72592213  1
  O2-  O123  1  0.25065675  0.48904250  0.06063950  1
  O2-  O124  1  0.24792621  0.49447707  0.39385276  1
  O2-  O125  1  0.26026527  0.50016108  0.72517770  1
  O2-  O126  1  0.73957252  -0.00226718  0.06289685  1
  O2-  O127  1  0.74929743  0.00110332  0.39152881  1
  O2-  O128  1  0.74987197  0.00661255  0.72581280  1
  O2-  O129  1  0.75926478  0.50166847  0.06311815  1
  O2-  O130  1  0.75159487  0.50093603  0.39070628  1
  O2-  O131  1  0.75141804  0.49099085  0.72646740  1
  O2-  O132  1  0.00264109  0.24519205  0.27256352  1
  O2-  O133  1  0.00091297  0.24929692  0.60089010  1
  O2-  O134  1  0.00324971  0.25361033  0.93583934  1
  O2-  O135  1  0.00360413  0.75476659  0.27576120  1
  O2-  O136  1  -0.00184452  0.75605972  0.60535662  1
  O2-  O137  1  -0.00060477  0.75157007  0.94291120  1
  O2-  O138  1  0.50027582  0.24228585  0.27379063  1
  O2-  O139  1  0.49844197  0.24935391  0.60088873  1
  O2-  O140  1  0.49367519  0.24505517  0.93738334  1
  O2-  O141  1  0.49698829  0.74600733  0.26768110  1
  O2-  O142  1  0.50139681  0.74894923  0.61062817  1
  O2-  O143  1  0.50168379  0.75029499  0.94014580  1
  O2-  O144  1  0.06754071  0.17768914  0.10004129  1
  O2-  O145  1  0.06775325  0.17274099  0.42157455  1
  O2-  O146  1  0.06833833  0.17328760  0.76323564  1
  O2-  O147  1  0.07080464  0.68304455  0.09073247  1
  O2-  O148  1  0.06940349  0.67850685  0.42197704  1
  O2-  O149  1  0.07225084  0.68256101  0.76647765  1
  O2-  O150  1  0.57050382  0.18132727  0.10064852  1
  O2-  O151  1  0.57330857  0.17819792  0.42327596  1
  O2-  O152  1  0.56821223  0.17688647  0.76407627  1
  O2-  O153  1  0.57378973  0.68046677  0.08773573  1
  O2-  O154  1  0.57705750  0.68316972  0.43214665  1
  O2-  O155  1  0.57338957  0.68186403  0.75912739  1
  O2-  O156  1  0.17264242  0.43345842  0.24330308  1
  O2-  O157  1  0.17914740  0.43470257  0.56614495  1
  O2-  O158  1  0.17215990  0.43289634  0.91092849  1
  O2-  O159  1  0.17380154  0.92940545  0.24599389  1
  O2-  O160  1  0.18544071  0.92604481  0.56616639  1
  O2-  O161  1  0.18087757  0.92548554  0.90125711  1
  O2-  O162  1  0.68154436  0.42772714  0.24546607  1
  O2-  O163  1  0.67558544  0.43246216  0.57705656  1
  O2-  O164  1  0.68234504  0.43399933  0.90046524  1
  O2-  O165  1  0.68547394  0.92535325  0.24261118  1
  O2-  O166  1  0.68040860  0.92644960  0.56645013  1
  O2-  O167  1  0.68028473  0.91814937  0.91439373  1
  O2-  O168  1  0.43166645  0.32530740  0.09933918  1
  O2-  O169  1  0.43152067  0.32083379  0.43245295  1
  O2-  O170  1  0.43097808  0.32609386  0.76387565  1
  O2-  O171  1  0.42855392  0.81595707  0.08866945  1
  O2-  O172  1  0.43109193  0.82188228  0.43081171  1
  O2-  O173  1  0.42960845  0.81704181  0.75838816  1
  O2-  O174  1  0.92911495  0.31897334  0.09861802  1
  O2-  O175  1  0.93056747  0.32267370  0.43075844  1
  O2-  O176  1  0.93090152  0.32116141  0.76510678  1
  O2-  O177  1  0.92374439  0.81723389  0.09007595  1
  O2-  O178  1  0.92527728  0.82004397  0.42343327  1
  O2-  O179  1  0.92440092  0.81776252  0.75650998  1
  O2-  O180  1  0.32086756  0.07187867  0.23575584  1
  O2-  O181  1  0.32410580  0.06775911  0.57674027  1
  O2-  O182  1  0.32376244  0.06864154  0.90024082  1
  O2-  O183  1  0.31904295  0.56933471  0.23492837  1
  O2-  O184  1  0.32349999  0.57533788  0.57599848  1
  O2-  O185  1  0.31730946  0.57147474  0.89953060  1
  O2-  O186  1  0.82098615  0.07075380  0.24531820  1
  O2-  O187  1  0.82059755  0.06947356  0.57593025  1
  O2-  O188  1  0.81641274  0.06649246  0.90016960  1
  O2-  O189  1  0.82143752  0.57528235  0.24305894  1
  O2-  O190  1  0.81874523  0.57208798  0.56626204  1
  O2-  O191  1  0.82184897  0.57879366  0.91405762  1
  O2-  O192  1  0.04300544  0.08191831  0.27067016  1
  O2-  O193  1  0.04227373  0.07707293  0.59553620  1
  O2-  O194  1  0.03575214  0.07805762  0.93639495  1
  O2-  O195  1  0.03799161  0.59118356  0.26645563  1
  O2-  O196  1  0.03950040  0.58663967  0.59689626  1
  O2-  O197  1  0.04582230  0.59040128  0.93794547  1
  O2-  O198  1  0.55350518  0.08177246  0.27342065  1
  O2-  O199  1  0.54207295  0.07733884  0.59901205  1
  O2-  O200  1  0.55123446  0.07391782  0.93833651  1
  O2-  O201  1  0.54865010  0.57883410  0.26716615  1
  O2-  O202  1  0.55124806  0.58878161  0.60561903  1
  O2-  O203  1  0.54381175  0.58820914  0.93506441  1
  O2-  O204  1  0.16465565  0.20072782  0.27258840  1
  O2-  O205  1  0.17042651  0.20275226  0.59763524  1
  O2-  O206  1  0.16913296  0.19843969  0.93244073  1
  O2-  O207  1  0.16309002  0.70454466  0.26919164  1
  O2-  O208  1  0.16801251  0.71279959  0.59705589  1
  O2-  O209  1  0.16316526  0.71239179  0.93806943  1
  O2-  O210  1  0.66532750  0.20703574  0.27365429  1
  O2-  O211  1  0.66792203  0.20257292  0.59519632  1
  O2-  O212  1  0.66607973  0.21031333  0.93345141  1
  O2-  O213  1  0.66965458  0.71072611  0.26240568  1
  O2-  O214  1  0.66535780  0.71173735  0.60708631  1
  O2-  O215  1  0.66433083  0.70717010  0.93587235  1
  O2-  O216  1  0.08503163  0.46221396  0.06524887  1
  O2-  O217  1  0.08326706  0.46268754  0.39472971  1
  O2-  O218  1  0.08794232  0.46629363  0.73539768  1
  O2-  O219  1  0.07619062  0.94717749  0.06583156  1
  O2-  O220  1  0.08342532  0.95267198  0.39867430  1
  O2-  O221  1  0.07843496  0.95073047  0.73006584  1
  O2-  O222  1  0.58791169  0.46570873  0.06948866  1
  O2-  O223  1  0.58941083  0.45688179  0.39891424  1
  O2-  O224  1  0.58717418  0.46060473  0.73119952  1
  O2-  O225  1  0.58014664  0.94117014  0.06288311  1
  O2-  O226  1  0.58883155  0.95177220  0.39396800  1
  O2-  O227  1  0.58079220  0.95523124  0.73582570  1
  O2-  O228  1  0.19132353  0.33123292  0.05909037  1
  O2-  O229  1  0.19465984  0.33411429  0.39259993  1
  O2-  O230  1  0.20633377  0.33072848  0.73220110  1
  O2-  O231  1  0.21102485  0.83277879  0.07036560  1
  O2-  O232  1  0.20092562  0.83251097  0.39425088  1
  O2-  O233  1  0.21474900  0.83442124  0.73375439  1
  O2-  O234  1  0.71022981  0.33424837  0.07026345  1
  O2-  O235  1  0.70922445  0.33767166  0.39930360  1
  O2-  O236  1  0.69761400  0.33094749  0.72438888  1
  O2-  O237  1  0.70921087  0.83278945  0.06777237  1
  O2-  O238  1  0.71408628  0.83689799  0.39506059  1
  O2-  O239  1  0.71126415  0.83575764  0.73815490  1
  O2-  O240  1  0.46282498  0.41541415  0.26702202  1
  O2-  O241  1  0.46077177  0.42258439  0.59773407  1
  O2-  O242  1  0.46206337  0.42053881  0.93325992  1
  O2-  O243  1  0.46159692  0.91831680  0.26284872  1
  O2-  O244  1  0.45785388  0.91091171  0.60612952  1
  O2-  O245  1  0.45322797  0.91018080  0.93594225  1
  O2-  O246  1  0.95765613  0.41785523  0.26208270  1
  O2-  O247  1  0.96134617  0.42059529  0.59988100  1
  O2-  O248  1  0.95002379  0.42551325  0.93809888  1
  O2-  O249  1  0.95374485  0.91487244  0.27208524  1
  O2-  O250  1  0.94624937  0.91520364  0.60520065  1
  O2-  O251  1  0.94851319  0.91270868  0.93817367  1
  O2-  O252  1  0.32879388  0.29477387  0.26849218  1
  O2-  O253  1  0.33016112  0.29980365  0.59669060  1
  O2-  O254  1  0.32624182  0.30274271  0.93559281  1
  O2-  O255  1  0.32818982  0.79578100  0.26454249  1
  O2-  O256  1  0.33997467  0.79127797  0.60293943  1
  O2-  O257  1  0.33741314  0.78517901  0.93721201  1
  O2-  O258  1  0.83184065  0.28919289  0.26723980  1
  O2-  O259  1  0.83099015  0.29780874  0.59806896  1
  O2-  O260  1  0.83077173  0.29164168  0.93338783  1
  O2-  O261  1  0.84061576  0.79005759  0.26713994  1
  O2-  O262  1  0.83403797  0.78967479  0.60433311  1
  O2-  O263  1  0.83535850  0.78901946  0.93618700  1
  O2-  O264  1  0.41821222  0.03939822  0.06775331  1
  O2-  O265  1  0.41944614  0.03987092  0.40189697  1
  O2-  O266  1  0.41166027  0.03908609  0.73032966  1
  O2-  O267  1  0.41911312  0.54499913  0.06645551  1
  O2-  O268  1  0.42031010  0.54251415  0.40071327  1
  O2-  O269  1  0.42028501  0.55338800  0.72612072  1
  O2-  O270  1  0.90963944  0.03450347  0.07172827  1
  O2-  O271  1  0.91222444  0.04153152  0.39801724  1
  O2-  O272  1  0.91309383  0.04531676  0.72861790  1
  O2-  O273  1  0.91940904  0.55604394  0.06418243  1
  O2-  O274  1  0.91419340  0.54424065  0.39358605  1
  O2-  O275  1  0.91959119  0.54456282  0.73407138  1
  O2-  O276  1  0.29435784  0.17270232  0.06643722  1
  O2-  O277  1  0.29001475  0.16780351  0.40367109  1
  O2-  O278  1  0.30364234  0.16938341  0.72308932  1
  O2-  O279  1  0.28439729  0.66145660  0.06946747  1
  O2-  O280  1  0.29102789  0.66761919  0.40020734  1
  O2-  O281  1  0.29411430  0.66497325  0.72813833  1
  O2-  O282  1  0.78754561  0.16589362  0.06946117  1
  O2-  O283  1  0.79402667  0.16325491  0.39829001  1
  O2-  O284  1  0.79575705  0.16814710  0.72543900  1
  O2-  O285  1  0.79223495  0.66578783  0.06728685  1
  O2-  O286  1  0.79397781  0.66454078  0.39563479  1
  O2-  O287  1  0.78875151  0.66325107  0.73745982  1
