# generated using pymatgen
data_Ca2Al2SiO7
_symmetry_space_group_name_H-M   'P 1'
_cell_length_a   15.45707574
_cell_length_b   15.45719529
_cell_length_c   15.28343122
_cell_angle_alpha   90.00977966
_cell_angle_beta   90.01485046
_cell_angle_gamma   90.00517825
_symmetry_Int_Tables_number   1
_chemical_formula_structural   Ca2Al2SiO7
_chemical_formula_sum   'Ca48 Al48 Si24 O168'
_cell_volume   3651.56363215
_cell_formula_units_Z   24
loop_
 _symmetry_equiv_pos_site_id
 _symmetry_equiv_pos_as_xyz
  1  'x, y, z'
loop_
 _atom_type_symbol
 _atom_type_oxidation_number
  Ca2+  2.0
  Al0+  0.0
  Si0+  0.0
  O2-  -2.0
loop_
 _atom_site_type_symbol
 _atom_site_label
 _atom_site_symmetry_multiplicity
 _atom_site_fract_x
 _atom_site_fract_y
 _atom_site_fract_z
 _atom_site_occupancy
  Ca2+  Ca0  1  0.17265576  0.08001513  0.16736931  1
  Ca2+  Ca1  1  0.16626583  0.07883039  0.50742951  1
  Ca2+  Ca2  1  0.17768217  0.07231591  0.84077548  1
  Ca2+  Ca3  1  0.16543295  0.58023721  0.16888393  1
  Ca2+  Ca4  1  0.16792324  0.58134127  0.50748572  1
  Ca2+  Ca5  1  0.17012184  0.57125100  0.83765410  1
  Ca2+  Ca6  1  0.66342610  0.07326162  0.17079725  1
  Ca2+  Ca7  1  0.67451637  0.08284566  0.50406252  1
  Ca2+  Ca8  1  0.66630143  0.08698792  0.83774084  1
  Ca2+  Ca9  1  0.66230007  0.57698682  0.16771959  1
  Ca2+  Ca10  1  0.66091943  0.57414181  0.50642985  1
  Ca2+  Ca11  1  0.66271373  0.57751497  0.84039451  1
  Ca2+  Ca12  1  0.08326440  0.32741171  0.16121305  1
  Ca2+  Ca13  1  0.07511414  0.33113999  0.49546388  1
  Ca2+  Ca14  1  0.07806957  0.33745591  0.82551673  1
  Ca2+  Ca15  1  0.08254211  0.82942445  0.16222954  1
  Ca2+  Ca16  1  0.08490220  0.83002283  0.49375212  1
  Ca2+  Ca17  1  0.08700998  0.83727396  0.82925096  1
  Ca2+  Ca18  1  0.59004748  0.32873610  0.15926912  1
  Ca2+  Ca19  1  0.58827527  0.33150291  0.50179427  1
  Ca2+  Ca20  1  0.58572468  0.32671700  0.82372289  1
  Ca2+  Ca21  1  0.57865957  0.83741617  0.15495155  1
  Ca2+  Ca22  1  0.57487304  0.83409462  0.49551766  1
  Ca2+  Ca23  1  0.57831596  0.82756028  0.82910820  1
  Ca2+  Ca24  1  0.32867270  0.41698280  0.16799409  1
  Ca2+  Ca25  1  0.32733762  0.41629468  0.51102686  1
  Ca2+  Ca26  1  0.32428607  0.40629715  0.83561008  1
  Ca2+  Ca27  1  0.34132128  0.91960212  0.16564204  1
  Ca2+  Ca28  1  0.33068167  0.91102001  0.50561698  1
  Ca2+  Ca29  1  0.33111608  0.91410598  0.84011894  1
  Ca2+  Ca30  1  0.82084626  0.42086180  0.16548389  1
  Ca2+  Ca31  1  0.82289533  0.41194193  0.50641829  1
  Ca2+  Ca32  1  0.82246616  0.41956569  0.83628368  1
  Ca2+  Ca33  1  0.81651431  0.91883724  0.17318202  1
  Ca2+  Ca34  1  0.83200119  0.92894020  0.50366235  1
  Ca2+  Ca35  1  0.82577757  0.92527801  0.83841424  1
  Ca2+  Ca36  1  0.42312879  0.16679599  0.15602697  1
  Ca2+  Ca37  1  0.42131464  0.17193572  0.50277567  1
  Ca2+  Ca38  1  0.42772391  0.16651662  0.83025190  1
  Ca2+  Ca39  1  0.42500600  0.68074347  0.15818828  1
  Ca2+  Ca40  1  0.41989772  0.67643039  0.49969785  1
  Ca2+  Ca41  1  0.42685728  0.67443561  0.82904899  1
  Ca2+  Ca42  1  0.91973790  0.16039650  0.16773405  1
  Ca2+  Ca43  1  0.91567481  0.16654814  0.49703771  1
  Ca2+  Ca44  1  0.91489608  0.17424196  0.82289459  1
  Ca2+  Ca45  1  0.91986652  0.66044333  0.16184492  1
  Ca2+  Ca46  1  0.92565287  0.66731626  0.49503513  1
  Ca2+  Ca47  1  0.91385926  0.66519842  0.83289075  1
  Al0+  Al48  1  0.00264991  -0.00101152  0.00200155  1
  Al0+  Al49  1  0.00072766  -0.00043533  0.33084804  1
  Al0+  Al50  1  -0.00053481  0.00000372  0.67526993  1
  Al0+  Al51  1  -0.00017136  0.49897550  0.00680058  1
  Al0+  Al52  1  -0.00116672  0.49834617  0.32822048  1
  Al0+  Al53  1  -0.00065621  0.49971889  0.66495673  1
  Al0+  Al54  1  0.49990868  0.00282964  -0.00246706  1
  Al0+  Al55  1  0.49837031  0.00240419  0.33588570  1
  Al0+  Al56  1  0.50072863  0.00021901  0.65705749  1
  Al0+  Al57  1  0.49698821  0.49962915  0.00091879  1
  Al0+  Al58  1  0.49688145  0.50147309  0.33750669  1
  Al0+  Al59  1  0.49866619  0.50071869  0.66433549  1
  Al0+  Al60  1  0.24919595  0.24749956  0.00755255  1
  Al0+  Al61  1  0.24875138  0.24944819  0.33031135  1
  Al0+  Al62  1  0.25036789  0.24730449  0.66843349  1
  Al0+  Al63  1  0.24798573  0.74802860  -0.00076431  1
  Al0+  Al64  1  0.25140248  0.74943296  0.32383917  1
  Al0+  Al65  1  0.24998617  0.74828453  0.66890536  1
  Al0+  Al66  1  0.75315139  0.25206539  0.00002669  1
  Al0+  Al67  1  0.75007861  0.25106855  0.33819738  1
  Al0+  Al68  1  0.75217297  0.25125506  0.66590668  1
  Al0+  Al69  1  0.75280176  0.75080261  0.00346502  1
  Al0+  Al70  1  0.74921229  0.74800742  0.33896827  1
  Al0+  Al71  1  0.75187159  0.75075433  0.66011800  1
  Al0+  Al72  1  0.42658556  0.32085226  0.65305065  1
  Al0+  Al73  1  0.67791284  0.43113307  0.34901265  1
  Al0+  Al74  1  0.68017960  0.93164969  0.00940970  1
  Al0+  Al75  1  0.57290094  0.18182659  0.98810624  1
  Al0+  Al76  1  0.07006325  0.67857320  0.31893769  1
  Al0+  Al77  1  0.82013998  0.57198272  0.01449068  1
  Al0+  Al78  1  0.82203470  0.06928233  0.34800466  1
  Al0+  Al79  1  0.57359371  0.17980893  0.64932679  1
  Al0+  Al80  1  0.67603884  0.42843261  0.01322977  1
  Al0+  Al81  1  0.43154604  0.82215429  0.31736929  1
  Al0+  Al82  1  0.57423916  0.67784774  0.98619610  1
  Al0+  Al83  1  0.81945975  0.07100860  0.68196559  1
  Al0+  Al84  1  0.07136545  0.17804870  0.31892699  1
  Al0+  Al85  1  0.42767424  0.82034618  0.65104515  1
  Al0+  Al86  1  0.67840206  0.43136833  0.68046162  1
  Al0+  Al87  1  0.67496665  0.92739797  0.35023520  1
  Al0+  Al88  1  0.32159289  0.06878787  0.01519344  1
  Al0+  Al89  1  0.57384969  0.67837211  0.65025727  1
  Al0+  Al90  1  0.93075823  0.32200183  0.65296972  1
  Al0+  Al91  1  0.17837285  0.92594990  0.01775537  1
  Al0+  Al92  1  0.42909765  0.82225339  0.98363647  1
  Al0+  Al93  1  0.18061625  0.92783421  0.67851180  1
  Al0+  Al94  1  0.17913248  0.42869600  0.01529197  1
  Al0+  Al95  1  0.17836118  0.42772055  0.67791739  1
  Si0+  Si96  1  0.32139946  0.57232615  0.01800843  1
  Si0+  Si97  1  0.32434777  0.07172429  0.68226160  1
  Si0+  Si98  1  0.17851928  0.42798624  0.34857544  1
  Si0+  Si99  1  0.93017429  0.82201715  0.98471010  1
  Si0+  Si100  1  0.82402313  0.07432146  0.01591318  1
  Si0+  Si101  1  0.92995238  0.82408672  0.65219057  1
  Si0+  Si102  1  0.93238994  0.32076908  0.98467761  1
  Si0+  Si103  1  0.32106926  0.57167675  0.68421585  1
  Si0+  Si104  1  0.18143003  0.92833221  0.34643590  1
  Si0+  Si105  1  0.06957926  0.67670544  0.98318123  1
  Si0+  Si106  1  0.07081191  0.17644278  0.65315879  1
  Si0+  Si107  1  0.31757646  0.57155110  0.34865555  1
  Si0+  Si108  1  0.42715697  0.32279025  0.31825444  1
  Si0+  Si109  1  0.42536434  0.32192032  0.98582177  1
  Si0+  Si110  1  0.32036537  0.07348421  0.35054716  1
  Si0+  Si111  1  0.82458398  0.57102672  0.35200887  1
  Si0+  Si112  1  0.82299241  0.57420836  0.68108573  1
  Si0+  Si113  1  0.92649120  0.32078792  0.31348251  1
  Si0+  Si114  1  0.92715660  0.82162416  0.31673375  1
  Si0+  Si115  1  0.57176599  0.67663892  0.31727034  1
  Si0+  Si116  1  0.07217378  0.17751544  0.98369634  1
  Si0+  Si117  1  0.57047354  0.18282456  0.31866652  1
  Si0+  Si118  1  0.06952928  0.67961987  0.65420098  1
  Si0+  Si119  1  0.67743778  0.92731648  0.68207380  1
  O2-  O120  1  0.25281137  -0.00529535  0.06802487  1
  O2-  O121  1  0.25000579  0.00048918  0.39082546  1
  O2-  O122  1  0.25845520  -0.00086819  0.72430248  1
  O2-  O123  1  0.25469734  0.50153065  0.06310157  1
  O2-  O124  1  0.24684735  0.50033481  0.39196938  1
  O2-  O125  1  0.25698661  0.49715173  0.72653708  1
  O2-  O126  1  0.75322173  0.00753016  0.05831480  1
  O2-  O127  1  0.75041475  -0.00282458  0.39850474  1
  O2-  O128  1  0.74232992  -0.00114255  0.72782803  1
  O2-  O129  1  0.74275047  0.50543135  0.06375144  1
  O2-  O130  1  0.75252821  0.50641478  0.39584821  1
  O2-  O131  1  0.74948308  0.51095058  0.72460028  1
  O2-  O132  1  -0.00449434  0.25132654  0.27060701  1
  O2-  O133  1  0.00650470  0.24779838  0.60680913  1
  O2-  O134  1  0.00061316  0.24737448  0.94129073  1
  O2-  O135  1  -0.00783612  0.74962652  0.27153476  1
  O2-  O136  1  0.00115768  0.75247155  0.61086732  1
  O2-  O137  1  0.00147058  0.75071578  0.94153711  1
  O2-  O138  1  0.50060124  0.25493189  0.27568691  1
  O2-  O139  1  0.50090129  0.25281910  0.60029748  1
  O2-  O140  1  0.50035769  0.25992360  0.94314330  1
  O2-  O141  1  0.51259378  0.75317955  0.27265451  1
  O2-  O142  1  0.50306404  0.75208779  0.60057712  1
  O2-  O143  1  0.50276897  0.75052723  0.93622903  1
  O2-  O144  1  0.07060031  0.17866434  0.08904250  1
  O2-  O145  1  0.07400635  0.18104004  0.43209079  1
  O2-  O146  1  0.06809960  0.17682626  0.75879241  1
  O2-  O147  1  0.06760280  0.67567966  0.08840906  1
  O2-  O148  1  0.07112923  0.68036050  0.43272395  1
  O2-  O149  1  0.06769025  0.67788639  0.75914685  1
  O2-  O150  1  0.57167134  0.18198247  0.10200969  1
  O2-  O151  1  0.56911552  0.18403008  0.42336666  1
  O2-  O152  1  0.57294234  0.18049814  0.76304456  1
  O2-  O153  1  0.57184235  0.67908946  0.10021951  1
  O2-  O154  1  0.56592110  0.67342602  0.42240561  1
  O2-  O155  1  0.57409805  0.67971352  0.76372127  1
  O2-  O156  1  0.18094293  0.42800758  0.24350800  1
  O2-  O157  1  0.17674344  0.43246898  0.56440712  1
  O2-  O158  1  0.17813031  0.42974858  0.90207438  1
  O2-  O159  1  0.18212709  0.92900891  0.24191928  1
  O2-  O160  1  0.17843118  0.92850210  0.56461341  1
  O2-  O161  1  0.17634070  0.92982618  0.90415264  1
  O2-  O162  1  0.67830429  0.43066581  0.23600017  1
  O2-  O163  1  0.68237534  0.43142649  0.56710430  1
  O2-  O164  1  0.68037742  0.42570697  0.90010150  1
  O2-  O165  1  0.67463226  0.93066141  0.23619038  1
  O2-  O166  1  0.68199423  0.92753948  0.57656882  1
  O2-  O167  1  0.68335871  0.93168271  0.89644160  1
  O2-  O168  1  0.42341013  0.31958157  0.09210711  1
  O2-  O169  1  0.42330492  0.32093131  0.42283251  1
  O2-  O170  1  0.42359889  0.31643212  0.76640452  1
  O2-  O171  1  0.43174807  0.82118787  0.09757147  1
  O2-  O172  1  0.42587540  0.81747598  0.43007706  1
  O2-  O173  1  0.42564326  0.81778949  0.76402386  1
  O2-  O174  1  0.93321716  0.31976783  0.08988230  1
  O2-  O175  1  0.92906318  0.32320739  0.41906619  1
  O2-  O176  1  0.93260354  0.32282385  0.76631318  1
  O2-  O177  1  0.93148601  0.82247570  0.08970974  1
  O2-  O178  1  0.93262958  0.82228691  0.42270065  1
  O2-  O179  1  0.92952067  0.82361806  0.75726547  1
  O2-  O180  1  0.32110188  0.07520215  0.24587703  1
  O2-  O181  1  0.31958963  0.07460623  0.57618793  1
  O2-  O182  1  0.31884288  0.07128334  0.90181060  1
  O2-  O183  1  0.31694600  0.56858063  0.24372124  1
  O2-  O184  1  0.31506163  0.57507360  0.57811250  1
  O2-  O185  1  0.31839433  0.57286558  0.91265017  1
  O2-  O186  1  0.82022974  0.06780140  0.23412980  1
  O2-  O187  1  0.82365431  0.06767327  0.56916662  1
  O2-  O188  1  0.82529683  0.07386092  0.91026535  1
  O2-  O189  1  0.82650674  0.56916423  0.24667432  1
  O2-  O190  1  0.82780915  0.57237822  0.57553505  1
  O2-  O191  1  0.82553588  0.56782319  0.90104758  1
  O2-  O192  1  0.04269478  0.08127751  0.26358357  1
  O2-  O193  1  0.04082883  0.08373570  0.60703887  1
  O2-  O194  1  0.04668819  0.08457117  0.93748102  1
  O2-  O195  1  0.04195845  0.58104954  0.26423795  1
  O2-  O196  1  0.03976128  0.58995827  0.60336182  1
  O2-  O197  1  0.03825122  0.58508973  0.93700495  1
  O2-  O198  1  0.54000215  0.09107622  0.27299535  1
  O2-  O199  1  0.54631240  0.08230805  0.59376633  1
  O2-  O200  1  0.53993260  0.08772020  0.93163707  1
  O2-  O201  1  0.53649737  0.58590821  0.27008003  1
  O2-  O202  1  0.54185908  0.58129961  0.59682406  1
  O2-  O203  1  0.54320758  0.57873496  0.93492455  1
  O2-  O204  1  0.16648917  0.21176018  0.26259013  1
  O2-  O205  1  0.16584006  0.19653683  0.60852895  1
  O2-  O206  1  0.16425389  0.20701834  0.93868312  1
  O2-  O207  1  0.16423122  0.71062088  0.26180209  1
  O2-  O208  1  0.16143469  0.70528127  0.60633788  1
  O2-  O209  1  0.16201318  0.70019441  0.93553136  1
  O2-  O210  1  0.66313569  0.20954918  0.27266957  1
  O2-  O211  1  0.67107908  0.21059788  0.59641944  1
  O2-  O212  1  0.67118957  0.20905027  0.93502135  1
  O2-  O213  1  0.67047161  0.69019286  0.27801075  1
  O2-  O214  1  0.67329943  0.70254228  0.59579868  1
  O2-  O215  1  0.67451251  0.70376557  0.93603070  1
  O2-  O216  1  0.08522402  0.46195242  0.07224041  1
  O2-  O217  1  0.08454886  0.45386350  0.39226094  1
  O2-  O218  1  0.08365035  0.46398927  0.73263270  1
  O2-  O219  1  0.08086746  0.95775219  0.07164480  1
  O2-  O220  1  0.08836986  0.95348540  0.39264781  1
  O2-  O221  1  0.08595974  0.95929744  0.73569259  1
  O2-  O222  1  0.57520625  0.44861559  0.06545786  1
  O2-  O223  1  0.57982468  0.45986556  0.40184961  1
  O2-  O224  1  0.57906255  0.45549503  0.73150276  1
  O2-  O225  1  0.58453397  0.96281989  0.06388810  1
  O2-  O226  1  0.57816149  0.96043948  0.40364695  1
  O2-  O227  1  0.58111515  0.94910612  0.72292113  1
  O2-  O228  1  0.20797621  0.33264983  0.07099947  1
  O2-  O229  1  0.20808188  0.33648445  0.39515663  1
  O2-  O230  1  0.20396011  0.32966718  0.73198007  1
  O2-  O231  1  0.19846628  0.82423437  0.06653654  1
  O2-  O232  1  0.21096899  0.83577666  0.39187213  1
  O2-  O233  1  0.20637837  0.83030986  0.73336964  1
  O2-  O234  1  0.71402645  0.33326282  0.06872625  1
  O2-  O235  1  0.71061667  0.33537388  0.40299560  1
  O2-  O236  1  0.71505135  0.33644922  0.73300257  1
  O2-  O237  1  0.71299514  0.83722587  0.06638431  1
  O2-  O238  1  0.69862392  0.82681252  0.40115107  1
  O2-  O239  1  0.70822901  0.83425861  0.72637363  1
  O2-  O240  1  0.45090741  0.41666101  0.27284984  1
  O2-  O241  1  0.44719171  0.42125609  0.60121049  1
  O2-  O242  1  0.43995638  0.41821180  0.94233249  1
  O2-  O243  1  0.45605558  0.92247282  0.26746324  1
  O2-  O244  1  0.44993883  0.91933200  0.59652394  1
  O2-  O245  1  0.45517005  0.92105370  0.93206266  1
  O2-  O246  1  0.95359594  0.41332302  0.26601438  1
  O2-  O247  1  0.96203299  0.41745440  0.59602539  1
  O2-  O248  1  0.96475148  0.41175660  0.93881795  1
  O2-  O249  1  0.95599035  0.91298919  0.26871988  1
  O2-  O250  1  0.96115583  0.91494590  0.60492975  1
  O2-  O251  1  0.95892920  0.91381038  0.93649286  1
  O2-  O252  1  0.33659055  0.29270381  0.26911091  1
  O2-  O253  1  0.32841658  0.28956857  0.59770946  1
  O2-  O254  1  0.33302415  0.28943323  0.94057080  1
  O2-  O255  1  0.33774905  0.78625102  0.26101143  1
  O2-  O256  1  0.32954950  0.78622091  0.59807254  1
  O2-  O257  1  0.32898675  0.79191141  0.93450004  1
  O2-  O258  1  0.83278015  0.29405553  0.26846890  1
  O2-  O259  1  0.83656059  0.28907892  0.59736517  1
  O2-  O260  1  0.84037653  0.29550382  0.93674033  1
  O2-  O261  1  0.83098806  0.79902781  0.27459658  1
  O2-  O262  1  0.84010014  0.79781408  0.60067578  1
  O2-  O263  1  0.83950763  0.79425761  0.93567275  1
  O2-  O264  1  0.42033360  0.04416621  0.06926403  1
  O2-  O265  1  0.41162612  0.04761211  0.39899125  1
  O2-  O266  1  0.42017406  0.04935416  0.72400779  1
  O2-  O267  1  0.41443181  0.54885275  0.06606364  1
  O2-  O268  1  0.40821391  0.54443249  0.39819401  1
  O2-  O269  1  0.41607497  0.55221372  0.72777087  1
  O2-  O270  1  0.91702951  0.04601312  0.06134172  1
  O2-  O271  1  0.92165089  0.04090900  0.40043791  1
  O2-  O272  1  0.91400189  0.03801875  0.73922569  1
  O2-  O273  1  0.91524017  0.53641068  0.07104850  1
  O2-  O274  1  0.91811351  0.54170522  0.39768370  1
  O2-  O275  1  0.91455380  0.54387498  0.72902291  1
  O2-  O276  1  0.28949916  0.16465754  0.07264087  1
  O2-  O277  1  0.28932752  0.16473374  0.39776048  1
  O2-  O278  1  0.29559688  0.16256851  0.73170560  1
  O2-  O279  1  0.29116366  0.66378666  0.06559280  1
  O2-  O280  1  0.28669819  0.66320665  0.39451137  1
  O2-  O281  1  0.28760817  0.66097133  0.73376627  1
  O2-  O282  1  0.80296216  0.16856361  0.06172651  1
  O2-  O283  1  0.79482755  0.16818018  0.40013995  1
  O2-  O284  1  0.79208482  0.16849636  0.73487878  1
  O2-  O285  1  0.80244791  0.67194334  0.06854591  1
  O2-  O286  1  0.80652856  0.66662090  0.39715021  1
  O2-  O287  1  0.80427358  0.67070600  0.72443335  1
