# generated using pymatgen
data_Ca2Al2SiO7
_symmetry_space_group_name_H-M   'P 1'
_cell_length_a   15.45921323
_cell_length_b   15.45829174
_cell_length_c   15.28395390
_cell_angle_alpha   90.00342378
_cell_angle_beta   90.00207783
_cell_angle_gamma   90.01000356
_symmetry_Int_Tables_number   1
_chemical_formula_structural   Ca2Al2SiO7
_chemical_formula_sum   'Ca48 Al48 Si24 O168'
_cell_volume   3652.45268239
_cell_formula_units_Z   24
loop_
 _symmetry_equiv_pos_site_id
 _symmetry_equiv_pos_as_xyz
  1  'x, y, z'
loop_
 _atom_type_symbol
 _atom_type_oxidation_number
  Ca2+  2.0
  Al0+  0.0
  Si0+  0.0
  O2-  -2.0
loop_
 _atom_site_type_symbol
 _atom_site_label
 _atom_site_symmetry_multiplicity
 _atom_site_fract_x
 _atom_site_fract_y
 _atom_site_fract_z
 _atom_site_occupancy
  Ca2+  Ca0  1  0.17029093  0.08060561  0.17188883  1
  Ca2+  Ca1  1  0.16648453  0.08092813  0.50358497  1
  Ca2+  Ca2  1  0.18193696  0.08650842  0.83901934  1
  Ca2+  Ca3  1  0.16921362  0.57939870  0.16160396  1
  Ca2+  Ca4  1  0.16263016  0.57655288  0.51000325  1
  Ca2+  Ca5  1  0.16462286  0.57583614  0.83842822  1
  Ca2+  Ca6  1  0.65872526  0.07424330  0.16870504  1
  Ca2+  Ca7  1  0.66791047  0.07825628  0.50519109  1
  Ca2+  Ca8  1  0.66904605  0.07440258  0.83700843  1
  Ca2+  Ca9  1  0.66919886  0.58310574  0.16257706  1
  Ca2+  Ca10  1  0.67704438  0.57736957  0.50804689  1
  Ca2+  Ca11  1  0.67537810  0.57975183  0.84528540  1
  Ca2+  Ca12  1  0.07581226  0.33250493  0.16238294  1
  Ca2+  Ca13  1  0.07478306  0.32815277  0.49631310  1
  Ca2+  Ca14  1  0.07624096  0.34289505  0.82906795  1
  Ca2+  Ca15  1  0.07693264  0.83653081  0.15931016  1
  Ca2+  Ca16  1  0.08702513  0.82780599  0.49551682  1
  Ca2+  Ca17  1  0.07621140  0.82521192  0.82916105  1
  Ca2+  Ca18  1  0.58887733  0.32050796  0.15677226  1
  Ca2+  Ca19  1  0.58229162  0.32296484  0.49145734  1
  Ca2+  Ca20  1  0.59099215  0.32741335  0.83498106  1
  Ca2+  Ca21  1  0.58157113  0.83133068  0.15196255  1
  Ca2+  Ca22  1  0.58074846  0.84420202  0.50099765  1
  Ca2+  Ca23  1  0.57830630  0.83591219  0.83412312  1
  Ca2+  Ca24  1  0.33426278  0.42251473  0.16348265  1
  Ca2+  Ca25  1  0.32402576  0.41739019  0.50908057  1
  Ca2+  Ca26  1  0.31881170  0.42122966  0.84474963  1
  Ca2+  Ca27  1  0.33223399  0.91897985  0.16647124  1
  Ca2+  Ca28  1  0.32930836  0.92264197  0.50658148  1
  Ca2+  Ca29  1  0.34203599  0.92191827  0.83723778  1
  Ca2+  Ca30  1  0.83571155  0.41462565  0.16127188  1
  Ca2+  Ca31  1  0.84138253  0.41744453  0.50727746  1
  Ca2+  Ca32  1  0.83701203  0.42518826  0.84118268  1
  Ca2+  Ca33  1  0.82077301  0.91020334  0.16965276  1
  Ca2+  Ca34  1  0.82110835  0.92712750  0.50999800  1
  Ca2+  Ca35  1  0.82396250  0.91541052  0.84045070  1
  Ca2+  Ca36  1  0.42697048  0.16062186  0.15926351  1
  Ca2+  Ca37  1  0.41992352  0.16322357  0.49820991  1
  Ca2+  Ca38  1  0.42111766  0.15686380  0.83254481  1
  Ca2+  Ca39  1  0.42308383  0.67338792  0.15174380  1
  Ca2+  Ca40  1  0.41757609  0.67573128  0.49844723  1
  Ca2+  Ca41  1  0.41600549  0.67513406  0.83083670  1
  Ca2+  Ca42  1  0.92109829  0.17527012  0.16041246  1
  Ca2+  Ca43  1  0.91493451  0.17608320  0.49354421  1
  Ca2+  Ca44  1  0.91112876  0.17985690  0.82773830  1
  Ca2+  Ca45  1  0.91558366  0.67253847  0.15617611  1
  Ca2+  Ca46  1  0.92074125  0.66319341  0.50383380  1
  Ca2+  Ca47  1  0.91415726  0.66553466  0.83054243  1
  Al0+  Al48  1  0.00071275  0.00144079  -0.00736058  1
  Al0+  Al49  1  -0.00021713  -0.00060469  0.33547826  1
  Al0+  Al50  1  -0.00024102  0.00078175  0.67072358  1
  Al0+  Al51  1  0.00018551  0.50001161  0.00674188  1
  Al0+  Al52  1  0.00139850  0.50170663  0.32903463  1
  Al0+  Al53  1  -0.00052726  0.50007845  0.66535278  1
  Al0+  Al54  1  0.50100297  0.00038700  0.00010261  1
  Al0+  Al55  1  0.49788971  -0.00037300  0.33389574  1
  Al0+  Al56  1  0.49918692  -0.00083367  0.66743107  1
  Al0+  Al57  1  0.50050284  0.49779374  0.00349284  1
  Al0+  Al58  1  0.50146382  0.50228233  0.33649632  1
  Al0+  Al59  1  0.49947238  0.50047433  0.66367533  1
  Al0+  Al60  1  0.25110376  0.24849617  0.01159802  1
  Al0+  Al61  1  0.25016082  0.25266216  0.33069392  1
  Al0+  Al62  1  0.24934931  0.24983651  0.67413707  1
  Al0+  Al63  1  0.24907644  0.75053027  -0.00079742  1
  Al0+  Al64  1  0.25086389  0.75054462  0.33598828  1
  Al0+  Al65  1  0.25074800  0.75009671  0.65612453  1
  Al0+  Al66  1  0.75210643  0.24965857  -0.00638859  1
  Al0+  Al67  1  0.74841003  0.25076899  0.32471329  1
  Al0+  Al68  1  0.74915096  0.24920463  0.66282687  1
  Al0+  Al69  1  0.74965931  0.75003200  -0.00007991  1
  Al0+  Al70  1  0.74955939  0.74858566  0.34161534  1
  Al0+  Al71  1  0.74915733  0.74850524  0.67144515  1
  Al0+  Al72  1  0.92938043  0.32264907  0.31561084  1
  Al0+  Al73  1  0.82281850  0.07424932  0.68151512  1
  Al0+  Al74  1  0.67922314  0.42579474  0.01455586  1
  Al0+  Al75  1  0.93271548  0.32016022  0.98393689  1
  Al0+  Al76  1  0.57161488  0.67582167  0.98513092  1
  Al0+  Al77  1  0.07232961  0.17636973  0.31854770  1
  Al0+  Al78  1  0.17779770  0.42849155  0.01859313  1
  Al0+  Al79  1  0.68173880  0.93141086  0.01393628  1
  Al0+  Al80  1  0.32202435  0.06873325  0.01580894  1
  Al0+  Al81  1  0.31828325  0.06910174  0.67960615  1
  Al0+  Al82  1  0.93019936  0.31924300  0.65325475  1
  Al0+  Al83  1  0.57041809  0.17931291  0.98369468  1
  Al0+  Al84  1  0.56751057  0.17858440  0.31939478  1
  Al0+  Al85  1  0.32192393  0.57340014  0.01335676  1
  Al0+  Al86  1  0.06860330  0.68108174  0.65335861  1
  Al0+  Al87  1  0.43147658  0.82100727  0.64982296  1
  Al0+  Al88  1  0.18002237  0.43063651  0.67887214  1
  Al0+  Al89  1  0.67907837  0.92995341  0.68384685  1
  Al0+  Al90  1  0.82033240  0.57150789  0.01679034  1
  Al0+  Al91  1  0.17758883  0.92906615  0.34682359  1
  Al0+  Al92  1  0.42798734  0.82080633  0.98524714  1
  Al0+  Al93  1  0.82036367  0.56780488  0.67974298  1
  Al0+  Al94  1  0.67783153  0.92841733  0.34782181  1
  Al0+  Al95  1  0.92772267  0.82256786  0.98724733  1
  Si0+  Si96  1  0.82432886  0.07289532  0.01629272  1
  Si0+  Si97  1  0.57237483  0.67876414  0.31958498  1
  Si0+  Si98  1  0.57389961  0.67571355  0.64769641  1
  Si0+  Si99  1  0.42590851  0.32227724  0.65388349  1
  Si0+  Si100  1  0.07567104  0.17756823  0.98188736  1
  Si0+  Si101  1  0.07278377  0.68016908  0.31683873  1
  Si0+  Si102  1  0.42937637  0.81923968  0.31810471  1
  Si0+  Si103  1  0.92523132  0.82413888  0.64924223  1
  Si0+  Si104  1  0.17920750  0.43133980  0.35008735  1
  Si0+  Si105  1  0.92796839  0.81908052  0.32211057  1
  Si0+  Si106  1  0.67462851  0.42666659  0.68046836  1
  Si0+  Si107  1  0.17721173  0.92396988  0.68307819  1
  Si0+  Si108  1  0.32341664  0.57379219  0.68093185  1
  Si0+  Si109  1  0.82223700  0.57039142  0.35008249  1
  Si0+  Si110  1  0.17566597  0.92831179  0.01400096  1
  Si0+  Si111  1  0.42595917  0.32135616  0.98405428  1
  Si0+  Si112  1  0.32090480  0.07269193  0.34983623  1
  Si0+  Si113  1  0.82093270  0.07339693  0.34727679  1
  Si0+  Si114  1  0.67935576  0.42804645  0.34813591  1
  Si0+  Si115  1  0.07542921  0.17728255  0.65254700  1
  Si0+  Si116  1  0.32249461  0.57158232  0.35067050  1
  Si0+  Si117  1  0.42804503  0.32617732  0.31713637  1
  Si0+  Si118  1  0.07098326  0.67865949  0.98471985  1
  Si0+  Si119  1  0.56837003  0.18038584  0.65092503  1
  O2-  O120  1  0.24502793  -0.00477104  0.05996717  1
  O2-  O121  1  0.24808885  0.00805379  0.39357044  1
  O2-  O122  1  0.24259573  -0.00447522  0.72683550  1
  O2-  O123  1  0.25244049  0.50004571  0.06609037  1
  O2-  O124  1  0.25232198  0.49997475  0.39338125  1
  O2-  O125  1  0.25633021  0.50415017  0.72439486  1
  O2-  O126  1  0.75811892  0.00322790  0.06299582  1
  O2-  O127  1  0.75149580  0.00531865  0.39213905  1
  O2-  O128  1  0.75656158  -0.00278253  0.73166574  1
  O2-  O129  1  0.74797777  0.49980331  0.06716363  1
  O2-  O130  1  0.75421089  0.49511924  0.39076175  1
  O2-  O131  1  0.74197407  0.49634380  0.72351576  1
  O2-  O132  1  0.00020574  0.24791497  0.26811881  1
  O2-  O133  1  0.00108859  0.23986396  0.60785814  1
  O2-  O134  1  0.00899576  0.24733884  0.93687657  1
  O2-  O135  1  0.00175149  0.75196921  0.27723407  1
  O2-  O136  1  -0.00296715  0.75854466  0.60397216  1
  O2-  O137  1  0.00187694  0.74696727  0.94132356  1
  O2-  O138  1  0.49396710  0.25506033  0.27352210  1
  O2-  O139  1  0.49906106  0.25421711  0.60964505  1
  O2-  O140  1  0.49614200  0.25547507  0.93750938  1
  O2-  O141  1  0.50354592  0.75143843  0.27724516  1
  O2-  O142  1  0.50682068  0.74619189  0.60265076  1
  O2-  O143  1  0.49650253  0.74503243  0.93588912  1
  O2-  O144  1  0.07255874  0.17498313  0.08759353  1
  O2-  O145  1  0.07243560  0.17894516  0.43261541  1
  O2-  O146  1  0.08013076  0.18161370  0.75745661  1
  O2-  O147  1  0.07161501  0.68151881  0.09099758  1
  O2-  O148  1  0.07228126  0.67769415  0.42204315  1
  O2-  O149  1  0.06833247  0.68102690  0.76599586  1
  O2-  O150  1  0.56831698  0.17795445  0.09709433  1
  O2-  O151  1  0.56597107  0.18011085  0.43330608  1
  O2-  O152  1  0.56828365  0.18046261  0.75554544  1
  O2-  O153  1  0.57163208  0.68087891  0.09996561  1
  O2-  O154  1  0.57000744  0.67572359  0.42470391  1
  O2-  O155  1  0.57146251  0.67081554  0.75220931  1
  O2-  O156  1  0.17957978  0.43397425  0.24566967  1
  O2-  O157  1  0.18186567  0.43075025  0.56493043  1
  O2-  O158  1  0.17715357  0.43120374  0.90477204  1
  O2-  O159  1  0.18070421  0.92510101  0.23409360  1
  O2-  O160  1  0.17949449  0.92471230  0.57693177  1
  O2-  O161  1  0.17443152  0.92902372  0.90863304  1
  O2-  O162  1  0.67549999  0.43048864  0.24405294  1
  O2-  O163  1  0.67352343  0.42713658  0.57399864  1
  O2-  O164  1  0.68311284  0.42543724  0.90066081  1
  O2-  O165  1  0.67854740  0.92509203  0.23515983  1
  O2-  O166  1  0.67817704  0.93530755  0.56934307  1
  O2-  O167  1  0.68096006  0.93264263  0.90147929  1
  O2-  O168  1  0.42690162  0.31862977  0.09007102  1
  O2-  O169  1  0.42934873  0.32759639  0.42342259  1
  O2-  O170  1  0.42559939  0.32312097  0.75815005  1
  O2-  O171  1  0.42952671  0.82107476  0.09971057  1
  O2-  O172  1  0.42899083  0.81801979  0.42340617  1
  O2-  O173  1  0.43050471  0.82008946  0.76207021  1
  O2-  O174  1  0.93357363  0.31767088  0.09701814  1
  O2-  O175  1  0.93146373  0.32404748  0.42975176  1
  O2-  O176  1  0.93179770  0.32184838  0.76564555  1
  O2-  O177  1  0.93013590  0.82190998  0.10147973  1
  O2-  O178  1  0.92834064  0.81520567  0.42707507  1
  O2-  O179  1  0.92624185  0.82171326  0.75456378  1
  O2-  O180  1  0.32356047  0.06837522  0.24475299  1
  O2-  O181  1  0.31800080  0.06966255  0.56599518  1
  O2-  O182  1  0.32131921  0.06798726  0.90256843  1
  O2-  O183  1  0.32321874  0.57222946  0.24618021  1
  O2-  O184  1  0.32303662  0.57081366  0.57445929  1
  O2-  O185  1  0.31781413  0.57330340  0.89962781  1
  O2-  O186  1  0.82163223  0.07105440  0.24200245  1
  O2-  O187  1  0.81817313  0.07614429  0.56699886  1
  O2-  O188  1  0.82179883  0.07141794  0.91082992  1
  O2-  O189  1  0.82088258  0.57584119  0.24592179  1
  O2-  O190  1  0.82078965  0.56492325  0.56554409  1
  O2-  O191  1  0.82197584  0.56952820  0.90336482  1
  O2-  O192  1  0.04663087  0.07629301  0.26683281  1
  O2-  O193  1  0.05715767  0.08018213  0.60976066  1
  O2-  O194  1  0.05221622  0.08483984  0.93320809  1
  O2-  O195  1  0.04439790  0.58970810  0.26809438  1
  O2-  O196  1  0.03377327  0.58651665  0.59625332  1
  O2-  O197  1  0.04475875  0.58478860  0.94119166  1
  O2-  O198  1  0.53457607  0.08232698  0.26566707  1
  O2-  O199  1  0.53619915  0.09024340  0.60309155  1
  O2-  O200  1  0.53599394  0.08450727  0.92965856  1
  O2-  O201  1  0.54330670  0.58726235  0.27226828  1
  O2-  O202  1  0.54659527  0.58275055  0.59793526  1
  O2-  O203  1  0.54928448  0.57464096  0.93553074  1
  O2-  O204  1  0.17152902  0.20489792  0.26649062  1
  O2-  O205  1  0.16670965  0.20880207  0.60375823  1
  O2-  O206  1  0.17158436  0.20268725  0.94120124  1
  O2-  O207  1  0.16526688  0.70793564  0.27108080  1
  O2-  O208  1  0.16500342  0.70697172  0.59451663  1
  O2-  O209  1  0.16356616  0.70392170  0.93717813  1
  O2-  O210  1  0.66347575  0.20706598  0.26417006  1
  O2-  O211  1  0.65928157  0.20711698  0.60069926  1
  O2-  O212  1  0.66658012  0.20908325  0.92871777  1
  O2-  O213  1  0.66608354  0.70432567  0.27566818  1
  O2-  O214  1  0.66859799  0.69990799  0.60236824  1
  O2-  O215  1  0.66863659  0.70703054  0.93271720  1
  O2-  O216  1  0.08315030  0.46220963  0.07508719  1
  O2-  O217  1  0.08795211  0.46351526  0.39653410  1
  O2-  O218  1  0.08553915  0.46585951  0.73189333  1
  O2-  O219  1  0.08247177  0.95614030  0.06083001  1
  O2-  O220  1  0.07989288  0.95349668  0.40298783  1
  O2-  O221  1  0.08157548  0.94278843  0.72691203  1
  O2-  O222  1  0.57927635  0.44650842  0.06784980  1
  O2-  O223  1  0.58901307  0.45906902  0.39860777  1
  O2-  O224  1  0.57999925  0.44948851  0.72556597  1
  O2-  O225  1  0.58606412  0.96434311  0.06819447  1
  O2-  O226  1  0.58056716  0.95995988  0.40055981  1
  O2-  O227  1  0.58237272  0.96370013  0.73493548  1
  O2-  O228  1  0.20514411  0.33109755  0.07355826  1
  O2-  O229  1  0.20496991  0.33811198  0.39628159  1
  O2-  O230  1  0.20949668  0.33589989  0.73539582  1
  O2-  O231  1  0.19838947  0.83435865  0.06060194  1
  O2-  O232  1  0.21265447  0.83359368  0.40256059  1
  O2-  O233  1  0.20654238  0.83054947  0.72613260  1
  O2-  O234  1  0.71279571  0.32800482  0.06680100  1
  O2-  O235  1  0.70296459  0.33414191  0.39399749  1
  O2-  O236  1  0.69981388  0.33278511  0.72385931  1
  O2-  O237  1  0.71108897  0.83452685  0.06801043  1
  O2-  O238  1  0.70890744  0.83292107  0.40479944  1
  O2-  O239  1  0.70033655  0.82894558  0.73272291  1
  O2-  O240  1  0.45621072  0.41973455  0.27229707  1
  O2-  O241  1  0.44930411  0.41480507  0.60374700  1
  O2-  O242  1  0.44626923  0.41650571  0.93990183  1
  O2-  O243  1  0.45246351  0.91271031  0.27308578  1
  O2-  O244  1  0.46321534  0.91766106  0.59460981  1
  O2-  O245  1  0.46190757  0.91720749  0.93276512  1
  O2-  O246  1  0.96104875  0.42068008  0.26342106  1
  O2-  O247  1  0.96552723  0.41364136  0.59739892  1
  O2-  O248  1  0.96337811  0.41920678  0.93493847  1
  O2-  O249  1  0.95096406  0.91211323  0.27592096  1
  O2-  O250  1  0.94710546  0.92008771  0.60546116  1
  O2-  O251  1  0.95791423  0.91770057  0.92989467  1
  O2-  O252  1  0.33322172  0.30585159  0.27238242  1
  O2-  O253  1  0.33548620  0.29057294  0.60491038  1
  O2-  O254  1  0.33166628  0.29316075  0.94102463  1
  O2-  O255  1  0.33838256  0.78797989  0.27134194  1
  O2-  O256  1  0.33608606  0.79035856  0.59175263  1
  O2-  O257  1  0.32774687  0.79753313  0.93302866  1
  O2-  O258  1  0.82995119  0.29842030  0.26376103  1
  O2-  O259  1  0.83206861  0.29248832  0.59771358  1
  O2-  O260  1  0.83717868  0.28937654  0.92869258  1
  O2-  O261  1  0.83668460  0.78656353  0.27580317  1
  O2-  O262  1  0.83227815  0.79473583  0.60332641  1
  O2-  O263  1  0.83285505  0.79083295  0.93261082  1
  O2-  O264  1  0.41681805  0.03507718  0.07066764  1
  O2-  O265  1  0.41177879  0.04152440  0.39875278  1
  O2-  O266  1  0.41409236  0.03671837  0.73264824  1
  O2-  O267  1  0.41970625  0.54585155  0.06864951  1
  O2-  O268  1  0.41458729  0.54535828  0.39966196  1
  O2-  O269  1  0.41802236  0.55082682  0.72496072  1
  O2-  O270  1  0.92007999  0.04982157  0.05901989  1
  O2-  O271  1  0.91369546  0.04789045  0.39528739  1
  O2-  O272  1  0.92418920  0.05611343  0.73244142  1
  O2-  O273  1  0.91791399  0.54412529  0.07171728  1
  O2-  O274  1  0.91623653  0.54471121  0.39506286  1
  O2-  O275  1  0.91533871  0.53522758  0.73355264  1
  O2-  O276  1  0.29487407  0.16404684  0.07358428  1
  O2-  O277  1  0.30219223  0.16974246  0.39255841  1
  O2-  O278  1  0.29099357  0.16496129  0.73635060  1
  O2-  O279  1  0.29091361  0.67084916  0.06871434  1
  O2-  O280  1  0.29286921  0.66267761  0.39861614  1
  O2-  O281  1  0.29643128  0.66807820  0.72254387  1
  O2-  O282  1  0.79727978  0.16605951  0.06083956  1
  O2-  O283  1  0.79397932  0.16802380  0.39134569  1
  O2-  O284  1  0.78784939  0.17086534  0.73385218  1
  O2-  O285  1  0.79136155  0.66960618  0.07052917  1
  O2-  O286  1  0.79086100  0.65898504  0.40234358  1
  O2-  O287  1  0.79522841  0.66563866  0.73241456  1
