# generated using pymatgen
data_Ca2Al2SiO7
_symmetry_space_group_name_H-M   'P 1'
_cell_length_a   15.46458539
_cell_length_b   15.46633003
_cell_length_c   15.29016880
_cell_angle_alpha   89.99100432
_cell_angle_beta   90.00061464
_cell_angle_gamma   90.01103834
_symmetry_Int_Tables_number   1
_chemical_formula_structural   Ca2Al2SiO7
_chemical_formula_sum   'Ca48 Al48 Si24 O168'
_cell_volume   3657.10829123
_cell_formula_units_Z   24
loop_
 _symmetry_equiv_pos_site_id
 _symmetry_equiv_pos_as_xyz
  1  'x, y, z'
loop_
 _atom_type_symbol
 _atom_type_oxidation_number
  Ca2+  2.0
  Al0+  0.0
  Si0+  0.0
  O2-  -2.0
loop_
 _atom_site_type_symbol
 _atom_site_label
 _atom_site_symmetry_multiplicity
 _atom_site_fract_x
 _atom_site_fract_y
 _atom_site_fract_z
 _atom_site_occupancy
  Ca2+  Ca0  1  0.17208667  0.08933133  0.17352954  1
  Ca2+  Ca1  1  0.18264767  0.09515067  0.49958356  1
  Ca2+  Ca2  1  0.17469780  0.08927295  0.83582524  1
  Ca2+  Ca3  1  0.17737096  0.57414745  0.17442592  1
  Ca2+  Ca4  1  0.17318851  0.57402767  0.50514072  1
  Ca2+  Ca5  1  0.17310270  0.57654374  0.83316216  1
  Ca2+  Ca6  1  0.67257831  0.08893216  0.17606337  1
  Ca2+  Ca7  1  0.67361715  0.09221460  0.50101646  1
  Ca2+  Ca8  1  0.67526876  0.09880293  0.83634662  1
  Ca2+  Ca9  1  0.66328744  0.56787773  0.17102106  1
  Ca2+  Ca10  1  0.66508104  0.57438392  0.49948068  1
  Ca2+  Ca11  1  0.66370836  0.57417835  0.84100048  1
  Ca2+  Ca12  1  0.08365397  0.32431738  0.16907956  1
  Ca2+  Ca13  1  0.07883666  0.33556490  0.48952342  1
  Ca2+  Ca14  1  0.08287412  0.33174120  0.83060591  1
  Ca2+  Ca15  1  0.08281703  0.83263052  0.16203649  1
  Ca2+  Ca16  1  0.08857877  0.82596351  0.49822839  1
  Ca2+  Ca17  1  0.08327450  0.82535027  0.82623409  1
  Ca2+  Ca18  1  0.58515182  0.32645618  0.16099197  1
  Ca2+  Ca19  1  0.57726301  0.32469586  0.49561986  1
  Ca2+  Ca20  1  0.57603183  0.32953418  0.83257519  1
  Ca2+  Ca21  1  0.57243963  0.83787740  0.16650626  1
  Ca2+  Ca22  1  0.58016755  0.83153907  0.48914616  1
  Ca2+  Ca23  1  0.57751058  0.83099288  0.83260193  1
  Ca2+  Ca24  1  0.33616399  0.42467838  0.17440125  1
  Ca2+  Ca25  1  0.32225560  0.41851029  0.50968251  1
  Ca2+  Ca26  1  0.34176169  0.42264972  0.83729586  1
  Ca2+  Ca27  1  0.33741122  0.92030376  0.17372554  1
  Ca2+  Ca28  1  0.34151040  0.92950013  0.49785001  1
  Ca2+  Ca29  1  0.33671576  0.92279949  0.83411625  1
  Ca2+  Ca30  1  0.82247841  0.40690849  0.17175328  1
  Ca2+  Ca31  1  0.82595061  0.40246896  0.49672051  1
  Ca2+  Ca32  1  0.82469590  0.41586457  0.83889719  1
  Ca2+  Ca33  1  0.82360806  0.92927913  0.17478031  1
  Ca2+  Ca34  1  0.82758894  0.92896034  0.50200627  1
  Ca2+  Ca35  1  0.83034051  0.92871489  0.83840744  1
  Ca2+  Ca36  1  0.42910403  0.16963924  0.15964806  1
  Ca2+  Ca37  1  0.42358840  0.16403593  0.49351828  1
  Ca2+  Ca38  1  0.42594947  0.17784474  0.82307071  1
  Ca2+  Ca39  1  0.40594142  0.67561384  0.16347864  1
  Ca2+  Ca40  1  0.40480400  0.67262144  0.49498943  1
  Ca2+  Ca41  1  0.40390253  0.67015647  0.83278970  1
  Ca2+  Ca42  1  0.92254476  0.16323941  0.16554413  1
  Ca2+  Ca43  1  0.92246733  0.16678792  0.48982696  1
  Ca2+  Ca44  1  0.91978168  0.15989377  0.83289155  1
  Ca2+  Ca45  1  0.91701380  0.66885386  0.16368999  1
  Ca2+  Ca46  1  0.92540415  0.66409655  0.49505340  1
  Ca2+  Ca47  1  0.92474065  0.66712890  0.82221202  1
  Al0+  Al48  1  -0.00014465  -0.00081807  -0.00097571  1
  Al0+  Al49  1  0.00030617  -0.00241911  0.33349062  1
  Al0+  Al50  1  -0.00250745  -0.00081975  0.66955062  1
  Al0+  Al51  1  0.00144267  0.49968370  0.00037555  1
  Al0+  Al52  1  -0.00003792  0.49987244  0.32797425  1
  Al0+  Al53  1  0.00046802  0.50027921  0.66514556  1
  Al0+  Al54  1  0.50134322  -0.00143250  -0.01053325  1
  Al0+  Al55  1  0.49986139  -0.00203047  0.33092539  1
  Al0+  Al56  1  0.50134100  -0.00179451  0.66833982  1
  Al0+  Al57  1  0.50058788  0.50170823  0.00737922  1
  Al0+  Al58  1  0.50218656  0.50286175  0.34352677  1
  Al0+  Al59  1  0.49915390  0.50094015  0.66660546  1
  Al0+  Al60  1  0.24891808  0.25077279  -0.00684979  1
  Al0+  Al61  1  0.24993429  0.25144732  0.33660776  1
  Al0+  Al62  1  0.24857014  0.25010827  0.67344169  1
  Al0+  Al63  1  0.24881031  0.74989202  -0.00131340  1
  Al0+  Al64  1  0.24931337  0.75048267  0.33090300  1
  Al0+  Al65  1  0.24821232  0.74860786  0.66428943  1
  Al0+  Al66  1  0.75296953  0.25105481  0.00463173  1
  Al0+  Al67  1  0.75039333  0.25054964  0.33515736  1
  Al0+  Al68  1  0.75044257  0.24952838  0.66910481  1
  Al0+  Al69  1  0.74959070  0.75236962  -0.00084404  1
  Al0+  Al70  1  0.74975334  0.74905176  0.33488772  1
  Al0+  Al71  1  0.74936820  0.75215217  0.66623677  1
  Al0+  Al72  1  0.42744023  0.82021894  0.98398187  1
  Al0+  Al73  1  0.31865520  0.57076634  0.01566232  1
  Al0+  Al74  1  0.82151759  0.07127588  0.34922924  1
  Al0+  Al75  1  0.57395170  0.17938591  0.98513995  1
  Al0+  Al76  1  0.32098241  0.57312574  0.34938081  1
  Al0+  Al77  1  0.17600233  0.42765999  0.68433427  1
  Al0+  Al78  1  0.17918767  0.42877589  0.34729737  1
  Al0+  Al79  1  0.92871334  0.32102860  0.31717141  1
  Al0+  Al80  1  0.67765050  0.92851351  0.34760802  1
  Al0+  Al81  1  0.42987826  0.81858764  0.32015867  1
  Al0+  Al82  1  0.06986310  0.67891471  0.65090384  1
  Al0+  Al83  1  0.07030458  0.17763200  0.98449589  1
  Al0+  Al84  1  0.42728914  0.32244417  0.65036052  1
  Al0+  Al85  1  0.07340234  0.17696954  0.32005326  1
  Al0+  Al86  1  0.57144718  0.17921690  0.64999606  1
  Al0+  Al87  1  0.67957595  0.42798237  0.34927553  1
  Al0+  Al88  1  0.32098105  0.07094389  0.34195532  1
  Al0+  Al89  1  0.81969768  0.07069833  0.68260412  1
  Al0+  Al90  1  0.42913059  0.32369629  0.98762672  1
  Al0+  Al91  1  0.32068195  0.57085643  0.68368308  1
  Al0+  Al92  1  0.56890282  0.17986247  0.32029683  1
  Al0+  Al93  1  0.68060813  0.43079845  0.01356783  1
  Al0+  Al94  1  0.82076957  0.06949649  0.01566610  1
  Al0+  Al95  1  0.32274722  0.07068662  0.68164742  1
  Si0+  Si96  1  0.82450266  0.57457579  0.01444844  1
  Si0+  Si97  1  0.57225584  0.67882459  0.98497717  1
  Si0+  Si98  1  0.17835250  0.92822295  0.68216544  1
  Si0+  Si99  1  0.82273981  0.57269859  0.34912593  1
  Si0+  Si100  1  0.42806060  0.32495929  0.32010239  1
  Si0+  Si101  1  0.32188198  0.07107874  0.01202170  1
  Si0+  Si102  1  0.92732942  0.82258067  0.64812294  1
  Si0+  Si103  1  0.82046160  0.57299700  0.67938904  1
  Si0+  Si104  1  0.07000058  0.17664868  0.65317925  1
  Si0+  Si105  1  0.42927969  0.81907241  0.65081833  1
  Si0+  Si106  1  0.07029238  0.67985828  0.31507591  1
  Si0+  Si107  1  0.17557726  0.42588773  0.01889832  1
  Si0+  Si108  1  0.67636465  0.92592934  0.01705902  1
  Si0+  Si109  1  0.92962858  0.32077213  0.65350278  1
  Si0+  Si110  1  0.92840446  0.82066249  0.98434335  1
  Si0+  Si111  1  0.17677112  0.92668944  0.34848687  1
  Si0+  Si112  1  0.57399017  0.67871052  0.65155282  1
  Si0+  Si113  1  0.67992639  0.43017693  0.68222293  1
  Si0+  Si114  1  0.92919259  0.32237490  0.98236477  1
  Si0+  Si115  1  0.06955034  0.67907958  0.98461064  1
  Si0+  Si116  1  0.67777452  0.92526028  0.68612603  1
  Si0+  Si117  1  0.92712412  0.82026166  0.31739638  1
  Si0+  Si118  1  0.57502970  0.67633993  0.31605558  1
  Si0+  Si119  1  0.18023828  0.92928160  0.01305762  1
  O2-  O120  1  0.25063054  0.00029933  0.05546283  1
  O2-  O121  1  0.24203295  -0.00034587  0.38968832  1
  O2-  O122  1  0.24521620  -0.00254741  0.72783600  1
  O2-  O123  1  0.24868002  0.49110003  0.06083171  1
  O2-  O124  1  0.25367264  0.49710650  0.39866126  1
  O2-  O125  1  0.25342619  0.49450552  0.73392938  1
  O2-  O126  1  0.74026575  -0.00040611  0.05952114  1
  O2-  O127  1  0.74688601  0.00181150  0.39938779  1
  O2-  O128  1  0.74247426  -0.00185906  0.72925471  1
  O2-  O129  1  0.75635612  0.50649959  0.05852837  1
  O2-  O130  1  0.75671682  0.50230657  0.39433304  1
  O2-  O131  1  0.74890622  0.50439850  0.72369091  1
  O2-  O132  1  -0.00010502  0.24707695  0.26910519  1
  O2-  O133  1  0.00235792  0.25126107  0.61245883  1
  O2-  O134  1  -0.00291050  0.25386366  0.93704630  1
  O2-  O135  1  -0.00139373  0.75049816  0.27295340  1
  O2-  O136  1  -0.00510927  0.75338940  0.60316124  1
  O2-  O137  1  -0.00575484  0.74525779  0.94135623  1
  O2-  O138  1  0.49532079  0.25601151  0.27414088  1
  O2-  O139  1  0.49518595  0.24662367  0.59993845  1
  O2-  O140  1  0.49840644  0.24890853  0.93712815  1
  O2-  O141  1  0.50357708  0.74267926  0.27307644  1
  O2-  O142  1  0.50096131  0.74791181  0.61022931  1
  O2-  O143  1  0.50258156  0.74506266  0.93822169  1
  O2-  O144  1  0.07053567  0.17519417  0.09695892  1
  O2-  O145  1  0.07279296  0.17732821  0.43393412  1
  O2-  O146  1  0.06614633  0.17450931  0.75845610  1
  O2-  O147  1  0.06844007  0.68208754  0.08970954  1
  O2-  O148  1  0.06916197  0.68126461  0.42013366  1
  O2-  O149  1  0.06683060  0.68155546  0.76457520  1
  O2-  O150  1  0.57290933  0.17933103  0.09882635  1
  O2-  O151  1  0.56827832  0.18012174  0.43326396  1
  O2-  O152  1  0.57415645  0.18507609  0.76349166  1
  O2-  O153  1  0.57521736  0.68139041  0.08994065  1
  O2-  O154  1  0.57924928  0.67892531  0.42184132  1
  O2-  O155  1  0.57924543  0.68049724  0.75657168  1
  O2-  O156  1  0.17938868  0.43094816  0.23340368  1
  O2-  O157  1  0.17104134  0.43170407  0.57126172  1
  O2-  O158  1  0.16870374  0.43058388  0.91385842  1
  O2-  O159  1  0.17729771  0.92291200  0.24255835  1
  O2-  O160  1  0.17865734  0.92721618  0.57682857  1
  O2-  O161  1  0.17993058  0.92716617  0.90797758  1
  O2-  O162  1  0.67989190  0.43013316  0.23627635  1
  O2-  O163  1  0.68252849  0.43001267  0.57734394  1
  O2-  O164  1  0.68309765  0.43387942  0.89978998  1
  O2-  O165  1  0.67992362  0.92791880  0.23390242  1
  O2-  O166  1  0.68049255  0.91868118  0.58123622  1
  O2-  O167  1  0.68136358  0.91778973  0.91181272  1
  O2-  O168  1  0.42964015  0.32248919  0.10144467  1
  O2-  O169  1  0.42930840  0.32255831  0.42553354  1
  O2-  O170  1  0.43352222  0.32453265  0.76401189  1
  O2-  O171  1  0.42577548  0.82049449  0.09665331  1
  O2-  O172  1  0.42966097  0.81775320  0.43348375  1
  O2-  O173  1  0.42907378  0.81785802  0.75612304  1
  O2-  O174  1  0.93002524  0.32400756  0.08721486  1
  O2-  O175  1  0.93029173  0.32123390  0.43148150  1
  O2-  O176  1  0.92790707  0.32198105  0.75876140  1
  O2-  O177  1  0.93051711  0.81963569  0.08943128  1
  O2-  O178  1  0.92797166  0.81765865  0.42240166  1
  O2-  O179  1  0.92829146  0.82016797  0.75416512  1
  O2-  O180  1  0.32141792  0.06849212  0.22854832  1
  O2-  O181  1  0.32318263  0.06826342  0.56846417  1
  O2-  O182  1  0.31894083  0.06774848  0.90693247  1
  O2-  O183  1  0.31699841  0.57446427  0.23550312  1
  O2-  O184  1  0.31665672  0.57425776  0.57085624  1
  O2-  O185  1  0.31443148  0.57359026  0.90290688  1
  O2-  O186  1  0.82211581  0.06791925  0.23565258  1
  O2-  O187  1  0.82277169  0.06946322  0.57032120  1
  O2-  O188  1  0.82174733  0.06625426  0.90226504  1
  O2-  O189  1  0.82069735  0.57644811  0.24350143  1
  O2-  O190  1  0.81941447  0.57421286  0.57464722  1
  O2-  O191  1  0.82526051  0.57496752  0.90845970  1
  O2-  O192  1  0.04877045  0.07618908  0.26848243  1
  O2-  O193  1  0.03929429  0.08556481  0.60646259  1
  O2-  O194  1  0.03794521  0.08100384  0.93008712  1
  O2-  O195  1  0.04224493  0.58960197  0.26537348  1
  O2-  O196  1  0.03519762  0.58421335  0.59609598  1
  O2-  O197  1  0.04552123  0.58607688  0.93774536  1
  O2-  O198  1  0.53885959  0.08353345  0.26595384  1
  O2-  O199  1  0.54914611  0.07669664  0.60301693  1
  O2-  O200  1  0.55257103  0.07983511  0.93132841  1
  O2-  O201  1  0.55118441  0.58118677  0.27305227  1
  O2-  O202  1  0.54959209  0.58616315  0.60505280  1
  O2-  O203  1  0.54832206  0.58474767  0.94028218  1
  O2-  O204  1  0.17138934  0.20782948  0.26600074  1
  O2-  O205  1  0.16416832  0.19988084  0.60997377  1
  O2-  O206  1  0.16618432  0.20674995  0.92839883  1
  O2-  O207  1  0.16016104  0.71120732  0.26647991  1
  O2-  O208  1  0.16457374  0.71283630  0.59558039  1
  O2-  O209  1  0.15808548  0.71328555  0.93591116  1
  O2-  O210  1  0.66628911  0.21072286  0.26902840  1
  O2-  O211  1  0.66990091  0.21269594  0.59937660  1
  O2-  O212  1  0.67222356  0.21323347  0.93460007  1
  O2-  O213  1  0.66804214  0.70235140  0.26849751  1
  O2-  O214  1  0.66487206  0.70812581  0.60226296  1
  O2-  O215  1  0.66592093  0.70487318  0.93647736  1
  O2-  O216  1  0.08368825  0.45677383  0.06663433  1
  O2-  O217  1  0.08025237  0.46155406  0.39700987  1
  O2-  O218  1  0.07890303  0.46365079  0.73801362  1
  O2-  O219  1  0.08777311  0.95457714  0.06042912  1
  O2-  O220  1  0.08197588  0.94396985  0.39475448  1
  O2-  O221  1  0.08367285  0.95038040  0.72840151  1
  O2-  O222  1  0.58661792  0.46246493  0.07114151  1
  O2-  O223  1  0.58645447  0.46136042  0.40809155  1
  O2-  O224  1  0.58865286  0.45875047  0.72916266  1
  O2-  O225  1  0.57946856  0.94672706  0.05721032  1
  O2-  O226  1  0.57823131  0.95139819  0.39922732  1
  O2-  O227  1  0.58274161  0.94511114  0.73076183  1
  O2-  O228  1  0.19718676  0.32972062  0.06023305  1
  O2-  O229  1  0.20169533  0.33029654  0.40194292  1
  O2-  O230  1  0.19529294  0.32743619  0.73652740  1
  O2-  O231  1  0.20720937  0.83792911  0.06203824  1
  O2-  O232  1  0.20693764  0.83536007  0.39627830  1
  O2-  O233  1  0.20572134  0.83517434  0.72891171  1
  O2-  O234  1  0.71397865  0.33637043  0.06900366  1
  O2-  O235  1  0.71192379  0.33358725  0.40553908  1
  O2-  O236  1  0.71274284  0.34095492  0.73074124  1
  O2-  O237  1  0.70658289  0.83436736  0.06577930  1
  O2-  O238  1  0.70875622  0.83025897  0.40071280  1
  O2-  O239  1  0.70841720  0.83354879  0.73551768  1
  O2-  O240  1  0.45521969  0.42026720  0.27828426  1
  O2-  O241  1  0.45777556  0.42107735  0.59858296  1
  O2-  O242  1  0.46143380  0.42239126  0.93647224  1
  O2-  O243  1  0.46106726  0.91331385  0.26286834  1
  O2-  O244  1  0.45732661  0.91094797  0.60457369  1
  O2-  O245  1  0.45824015  0.91446918  0.92545523  1
  O2-  O246  1  0.95429979  0.42004168  0.26255047  1
  O2-  O247  1  0.95385517  0.41300486  0.60559165  1
  O2-  O248  1  0.95378261  0.41732052  0.93609951  1
  O2-  O249  1  0.95499626  0.91111184  0.26873410  1
  O2-  O250  1  0.95502755  0.91547001  0.60257310  1
  O2-  O251  1  0.96178794  0.90921607  0.93471823  1
  O2-  O252  1  0.33358702  0.30271563  0.27539392  1
  O2-  O253  1  0.32483885  0.29784698  0.60474781  1
  O2-  O254  1  0.32990186  0.30095902  0.93382744  1
  O2-  O255  1  0.33254625  0.78980454  0.26463493  1
  O2-  O256  1  0.33743506  0.79148608  0.60401793  1
  O2-  O257  1  0.33084085  0.78804048  0.92959350  1
  O2-  O258  1  0.83027401  0.29268785  0.26562230  1
  O2-  O259  1  0.83864693  0.29067493  0.60631028  1
  O2-  O260  1  0.83597713  0.29672412  0.93610739  1
  O2-  O261  1  0.83658499  0.78985535  0.26864438  1
  O2-  O262  1  0.83334377  0.79741822  0.60330720  1
  O2-  O263  1  0.83538977  0.79789037  0.93654726  1
  O2-  O264  1  0.41515316  0.04191835  0.05514273  1
  O2-  O265  1  0.41395133  0.03386728  0.39807318  1
  O2-  O266  1  0.41797387  0.03609681  0.73621119  1
  O2-  O267  1  0.41721605  0.54861244  0.06905820  1
  O2-  O268  1  0.42211592  0.55730342  0.40028658  1
  O2-  O269  1  0.42243860  0.54983891  0.73458656  1
  O2-  O270  1  0.91596273  0.03137957  0.06785320  1
  O2-  O271  1  0.91954932  0.03833613  0.40112602  1
  O2-  O272  1  0.91493725  0.03537968  0.73815702  1
  O2-  O273  1  0.91845219  0.55068474  0.06083186  1
  O2-  O274  1  0.91783286  0.54991666  0.39234835  1
  O2-  O275  1  0.91122015  0.54371488  0.72759410  1
  O2-  O276  1  0.29413470  0.16370950  0.05682608  1
  O2-  O277  1  0.29364820  0.16655241  0.39931525  1
  O2-  O278  1  0.29212759  0.16588108  0.73760015  1
  O2-  O279  1  0.28118930  0.66655525  0.06818638  1
  O2-  O280  1  0.28485426  0.67002422  0.40079493  1
  O2-  O281  1  0.28557991  0.66881945  0.73536206  1
  O2-  O282  1  0.79807942  0.16812576  0.06755956  1
  O2-  O283  1  0.79548472  0.16964932  0.40176825  1
  O2-  O284  1  0.79139420  0.16811372  0.73737775  1
  O2-  O285  1  0.80007467  0.66909325  0.05959886  1
  O2-  O286  1  0.79655723  0.66475934  0.39816635  1
  O2-  O287  1  0.79592847  0.66590646  0.72732181  1
