# generated using pymatgen
data_Ca2Al2SiO7
_symmetry_space_group_name_H-M   'P 1'
_cell_length_a   15.46073179
_cell_length_b   15.46026120
_cell_length_c   15.28595548
_cell_angle_alpha   90.00473919
_cell_angle_beta   89.99798198
_cell_angle_gamma   89.99144132
_symmetry_Int_Tables_number   1
_chemical_formula_structural   Ca2Al2SiO7
_chemical_formula_sum   'Ca48 Al48 Si24 O168'
_cell_volume   3653.75528773
_cell_formula_units_Z   24
loop_
 _symmetry_equiv_pos_site_id
 _symmetry_equiv_pos_as_xyz
  1  'x, y, z'
loop_
 _atom_type_symbol
 _atom_type_oxidation_number
  Ca2+  2.0
  Al0+  0.0
  Si0+  0.0
  O2-  -2.0
loop_
 _atom_site_type_symbol
 _atom_site_label
 _atom_site_symmetry_multiplicity
 _atom_site_fract_x
 _atom_site_fract_y
 _atom_site_fract_z
 _atom_site_occupancy
  Ca2+  Ca0  1  0.17243160  0.07660047  0.18105820  1
  Ca2+  Ca1  1  0.17071654  0.07453147  0.50090373  1
  Ca2+  Ca2  1  0.16800502  0.07471227  0.83256178  1
  Ca2+  Ca3  1  0.17217922  0.58197813  0.17705258  1
  Ca2+  Ca4  1  0.17784843  0.59624422  0.50346907  1
  Ca2+  Ca5  1  0.17225036  0.59054920  0.82986937  1
  Ca2+  Ca6  1  0.67369779  0.08536023  0.16793006  1
  Ca2+  Ca7  1  0.67093776  0.07816679  0.51202205  1
  Ca2+  Ca8  1  0.67138107  0.08148824  0.82938316  1
  Ca2+  Ca9  1  0.67058077  0.58133965  0.17550907  1
  Ca2+  Ca10  1  0.65046911  0.57495268  0.50450622  1
  Ca2+  Ca11  1  0.66625523  0.58064056  0.83293067  1
  Ca2+  Ca12  1  0.08142762  0.32375121  0.16283102  1
  Ca2+  Ca13  1  0.08277484  0.32410745  0.49339172  1
  Ca2+  Ca14  1  0.07337255  0.33227298  0.83044487  1
  Ca2+  Ca15  1  0.09080692  0.82808272  0.17085416  1
  Ca2+  Ca16  1  0.08513074  0.83150050  0.49980778  1
  Ca2+  Ca17  1  0.07653450  0.82948220  0.81990571  1
  Ca2+  Ca18  1  0.58113062  0.33823316  0.17232325  1
  Ca2+  Ca19  1  0.57939492  0.33346279  0.49943208  1
  Ca2+  Ca20  1  0.58358516  0.32854622  0.82043636  1
  Ca2+  Ca21  1  0.57063770  0.83191533  0.16396019  1
  Ca2+  Ca22  1  0.57871256  0.82528954  0.49385236  1
  Ca2+  Ca23  1  0.57503145  0.82952570  0.82006169  1
  Ca2+  Ca24  1  0.33533106  0.42327375  0.18002104  1
  Ca2+  Ca25  1  0.34468065  0.42785457  0.50450368  1
  Ca2+  Ca26  1  0.33807467  0.42299483  0.82916068  1
  Ca2+  Ca27  1  0.33234995  0.91901757  0.17852958  1
  Ca2+  Ca28  1  0.32558321  0.90664445  0.50391132  1
  Ca2+  Ca29  1  0.32977530  0.90440864  0.83267688  1
  Ca2+  Ca30  1  0.83023840  0.41926938  0.16975781  1
  Ca2+  Ca31  1  0.81882100  0.41759390  0.50590925  1
  Ca2+  Ca32  1  0.82828061  0.42120466  0.83947489  1
  Ca2+  Ca33  1  0.83331993  0.92258857  0.16934706  1
  Ca2+  Ca34  1  0.82852286  0.92030133  0.51258611  1
  Ca2+  Ca35  1  0.82980983  0.92169644  0.83162814  1
  Ca2+  Ca36  1  0.41076573  0.17215678  0.16743968  1
  Ca2+  Ca37  1  0.41328442  0.17749888  0.49547030  1
  Ca2+  Ca38  1  0.42643213  0.17563757  0.82102135  1
  Ca2+  Ca39  1  0.41517508  0.67527644  0.16987650  1
  Ca2+  Ca40  1  0.42044082  0.67205060  0.49749233  1
  Ca2+  Ca41  1  0.42050267  0.67434685  0.82200967  1
  Ca2+  Ca42  1  0.92114881  0.16937590  0.16176001  1
  Ca2+  Ca43  1  0.92073859  0.16241232  0.49652208  1
  Ca2+  Ca44  1  0.90614259  0.16790080  0.83001048  1
  Ca2+  Ca45  1  0.92244578  0.66181699  0.16328968  1
  Ca2+  Ca46  1  0.92691033  0.67207311  0.49786707  1
  Ca2+  Ca47  1  0.92158697  0.66928124  0.82289641  1
  Al0+  Al48  1  0.00111893  -0.00240351  0.00544316  1
  Al0+  Al49  1  0.00139673  0.00064838  0.33130346  1
  Al0+  Al50  1  0.00119526  0.00083922  0.67285188  1
  Al0+  Al51  1  0.00029743  0.49705413  -0.00020416  1
  Al0+  Al52  1  -0.00140944  0.50096079  0.33037833  1
  Al0+  Al53  1  0.00146423  0.49822142  0.66145507  1
  Al0+  Al54  1  0.49768813  0.00039707  -0.00456512  1
  Al0+  Al55  1  0.50229341  0.00306360  0.33250025  1
  Al0+  Al56  1  0.49975948  0.00189461  0.66353307  1
  Al0+  Al57  1  0.49950736  0.50080514  0.00179677  1
  Al0+  Al58  1  0.50107994  0.49920810  0.33144201  1
  Al0+  Al59  1  0.49873394  0.50079960  0.67325960  1
  Al0+  Al60  1  0.24899287  0.24859326  -0.00305838  1
  Al0+  Al61  1  0.24901622  0.24942414  0.32744920  1
  Al0+  Al62  1  0.24801241  0.25172311  0.66615995  1
  Al0+  Al63  1  0.25022544  0.74846376  -0.00218682  1
  Al0+  Al64  1  0.24842973  0.74979994  0.33213572  1
  Al0+  Al65  1  0.25022391  0.74913851  0.67128206  1
  Al0+  Al66  1  0.74982088  0.24932365  0.00222225  1
  Al0+  Al67  1  0.74929206  0.25217664  0.33682231  1
  Al0+  Al68  1  0.74907699  0.25168881  0.66972281  1
  Al0+  Al69  1  0.75019708  0.74899447  0.00604176  1
  Al0+  Al70  1  0.75196987  0.75081811  0.32843174  1
  Al0+  Al71  1  0.75059364  0.74957384  0.66256140  1
  Al0+  Al72  1  0.42935561  0.81981810  0.98460248  1
  Al0+  Al73  1  0.07025747  0.67937053  0.31833481  1
  Al0+  Al74  1  0.42901989  0.82242451  0.31913753  1
  Al0+  Al75  1  0.42810669  0.32137842  0.65242997  1
  Al0+  Al76  1  0.42802745  0.82265313  0.65147117  1
  Al0+  Al77  1  0.07111312  0.67803186  0.65205684  1
  Al0+  Al78  1  0.18216066  0.92986216  0.68220852  1
  Al0+  Al79  1  0.82155540  0.07073405  0.68110998  1
  Al0+  Al80  1  0.32396632  0.07388201  0.34849624  1
  Al0+  Al81  1  0.92943751  0.31858919  0.98650897  1
  Al0+  Al82  1  0.31909864  0.56966207  0.68118471  1
  Al0+  Al83  1  0.67927311  0.43199040  0.68164640  1
  Al0+  Al84  1  0.06993247  0.17891288  0.31979261  1
  Al0+  Al85  1  0.18035006  0.92915521  0.34944004  1
  Al0+  Al86  1  0.57224188  0.67888091  0.65358127  1
  Al0+  Al87  1  0.31942152  0.56949390  0.34635306  1
  Al0+  Al88  1  0.57189118  0.67768334  0.31623806  1
  Al0+  Al89  1  0.82225113  0.57075600  0.01338235  1
  Al0+  Al90  1  0.57323357  0.17950674  0.65086126  1
  Al0+  Al91  1  0.67598080  0.92572791  0.67960012  1
  Al0+  Al92  1  0.92854963  0.82339700  0.65319379  1
  Al0+  Al93  1  0.82008993  0.07015805  0.01575891  1
  Al0+  Al94  1  0.68104811  0.43176597  0.34833015  1
  Al0+  Al95  1  0.43065575  0.31968964  0.31950462  1
  Si0+  Si96  1  0.18070209  0.92740261  0.01620473  1
  Si0+  Si97  1  0.42739771  0.32261698  0.98527142  1
  Si0+  Si98  1  0.17492998  0.42465755  0.68444257  1
  Si0+  Si99  1  0.32166513  0.07636970  0.68371845  1
  Si0+  Si100  1  0.57566346  0.17832907  0.31515066  1
  Si0+  Si101  1  0.92585515  0.32126039  0.31718729  1
  Si0+  Si102  1  0.57373190  0.67743191  0.98383442  1
  Si0+  Si103  1  0.67721664  0.42784538  0.01818844  1
  Si0+  Si104  1  0.31946109  0.56986463  0.01637805  1
  Si0+  Si105  1  0.17547580  0.42714059  0.34803574  1
  Si0+  Si106  1  0.67535323  0.92826827  0.01731328  1
  Si0+  Si107  1  0.92829457  0.82323727  0.31393296  1
  Si0+  Si108  1  0.06969376  0.67842354  0.98507369  1
  Si0+  Si109  1  0.17931280  0.42694716  0.01495172  1
  Si0+  Si110  1  0.07170993  0.17513170  0.98166804  1
  Si0+  Si111  1  0.82423626  0.57467802  0.35161547  1
  Si0+  Si112  1  0.82628602  0.57101534  0.68073165  1
  Si0+  Si113  1  0.07061563  0.17882512  0.65324056  1
  Si0+  Si114  1  0.57026797  0.18003546  0.98555621  1
  Si0+  Si115  1  0.32058157  0.07209791  0.01387855  1
  Si0+  Si116  1  0.67974095  0.92849249  0.34606223  1
  Si0+  Si117  1  0.82073049  0.07079824  0.34687511  1
  Si0+  Si118  1  0.92810031  0.82171977  0.98652093  1
  Si0+  Si119  1  0.92795515  0.32097080  0.65136656  1
  O2-  O120  1  0.25074421  0.00015556  0.05639932  1
  O2-  O121  1  0.25661209  -0.00243514  0.39832590  1
  O2-  O122  1  0.25939619  0.00226780  0.73002626  1
  O2-  O123  1  0.25258277  0.49471438  0.05817212  1
  O2-  O124  1  0.24323921  0.49535314  0.39280436  1
  O2-  O125  1  0.24297159  0.49471013  0.72761115  1
  O2-  O126  1  0.74588194  -0.00485831  0.06307910  1
  O2-  O127  1  0.75047455  -0.00015290  0.38800839  1
  O2-  O128  1  0.74921987  -0.00232429  0.72962283  1
  O2-  O129  1  0.74489245  0.49855886  0.06048957  1
  O2-  O130  1  0.75273991  0.50936349  0.39550508  1
  O2-  O131  1  0.75457587  0.50665501  0.72709402  1
  O2-  O132  1  -0.00336593  0.25496745  0.27260803  1
  O2-  O133  1  -0.00159022  0.24877279  0.61102873  1
  O2-  O134  1  0.00050196  0.24103928  0.93728567  1
  O2-  O135  1  -0.00505354  0.75241033  0.26925439  1
  O2-  O136  1  -0.00060586  0.75054860  0.60310280  1
  O2-  O137  1  -0.00354942  0.74784207  0.94472698  1
  O2-  O138  1  0.50253455  0.24267022  0.27066600  1
  O2-  O139  1  0.49742321  0.24764693  0.60192823  1
  O2-  O140  1  0.50025474  0.25319814  0.94469267  1
  O2-  O141  1  0.50117210  0.75134613  0.26668436  1
  O2-  O142  1  0.50572060  0.75588858  0.60382601  1
  O2-  O143  1  0.50677907  0.74732948  0.94000523  1
  O2-  O144  1  0.07344486  0.17788456  0.08708467  1
  O2-  O145  1  0.06637944  0.17877390  0.43301098  1
  O2-  O146  1  0.07169664  0.18089369  0.75867965  1
  O2-  O147  1  0.07170901  0.67940593  0.09016004  1
  O2-  O148  1  0.06878191  0.67941199  0.43040574  1
  O2-  O149  1  0.06837929  0.67855558  0.76684009  1
  O2-  O150  1  0.56935981  0.17901246  0.09074961  1
  O2-  O151  1  0.58177677  0.18072729  0.41956648  1
  O2-  O152  1  0.57340923  0.18349372  0.76568383  1
  O2-  O153  1  0.57193242  0.67634280  0.08920603  1
  O2-  O154  1  0.57083596  0.67868562  0.42911043  1
  O2-  O155  1  0.56973796  0.67757449  0.76802223  1
  O2-  O156  1  0.17651050  0.42844843  0.24149516  1
  O2-  O157  1  0.17195226  0.41955199  0.57965227  1
  O2-  O158  1  0.17875012  0.42663424  0.91014646  1
  O2-  O159  1  0.17990357  0.93103238  0.23471592  1
  O2-  O160  1  0.17987319  0.93170218  0.56992417  1
  O2-  O161  1  0.17987973  0.92723841  0.91128234  1
  O2-  O162  1  0.68494152  0.42981271  0.23462215  1
  O2-  O163  1  0.68059434  0.43085037  0.56883829  1
  O2-  O164  1  0.67665702  0.42698521  0.91284310  1
  O2-  O165  1  0.68175801  0.93054337  0.24032355  1
  O2-  O166  1  0.67982264  0.92756281  0.56565344  1
  O2-  O167  1  0.67564514  0.92855802  0.91236703  1
  O2-  O168  1  0.42547677  0.32223338  0.09023864  1
  O2-  O169  1  0.43181037  0.32099619  0.43154432  1
  O2-  O170  1  0.42969038  0.31977778  0.76734677  1
  O2-  O171  1  0.42738585  0.81968806  0.09748965  1
  O2-  O172  1  0.43018094  0.82084565  0.43165821  1
  O2-  O173  1  0.42763566  0.81662891  0.76584443  1
  O2-  O174  1  0.93338273  0.31773639  0.09954345  1
  O2-  O175  1  0.92515544  0.31872834  0.42277305  1
  O2-  O176  1  0.92917974  0.32235129  0.75679511  1
  O2-  O177  1  0.93070316  0.82304591  0.09162583  1
  O2-  O178  1  0.92708708  0.82488107  0.41883781  1
  O2-  O179  1  0.93081156  0.82223324  0.76784318  1
  O2-  O180  1  0.31980505  0.07370166  0.23356432  1
  O2-  O181  1  0.31453417  0.08275863  0.57916975  1
  O2-  O182  1  0.31867317  0.07588866  0.90920926  1
  O2-  O183  1  0.31695651  0.56746527  0.23203882  1
  O2-  O184  1  0.31874400  0.56904266  0.56851471  1
  O2-  O185  1  0.31832355  0.56985249  0.91157939  1
  O2-  O186  1  0.81970698  0.07095858  0.24125633  1
  O2-  O187  1  0.82290665  0.07105812  0.56712275  1
  O2-  O188  1  0.81798880  0.06974040  0.90366029  1
  O2-  O189  1  0.82544020  0.57079507  0.24544457  1
  O2-  O190  1  0.83179385  0.56499460  0.57579459  1
  O2-  O191  1  0.82351725  0.56900347  0.90052819  1
  O2-  O192  1  0.03747280  0.08418363  0.26236172  1
  O2-  O193  1  0.04315785  0.08746280  0.60664381  1
  O2-  O194  1  0.04888649  0.07933985  0.93959887  1
  O2-  O195  1  0.04070059  0.58185631  0.26251120  1
  O2-  O196  1  0.04703307  0.57896429  0.59859025  1
  O2-  O197  1  0.04466452  0.58555124  0.93921271  1
  O2-  O198  1  0.55640885  0.08393423  0.26795532  1
  O2-  O199  1  0.55179550  0.07975118  0.59985512  1
  O2-  O200  1  0.54120492  0.08956889  0.93664926  1
  O2-  O201  1  0.54284569  0.58015005  0.26215630  1
  O2-  O202  1  0.53592610  0.58220632  0.60352375  1
  O2-  O203  1  0.54670658  0.58306945  0.93910216  1
  O2-  O204  1  0.16444651  0.20923797  0.26107297  1
  O2-  O205  1  0.16048984  0.20891023  0.60441186  1
  O2-  O206  1  0.16409446  0.20398301  0.93408241  1
  O2-  O207  1  0.16520094  0.71077536  0.26112075  1
  O2-  O208  1  0.16886157  0.70935243  0.60278649  1
  O2-  O209  1  0.16048104  0.70879881  0.93734718  1
  O2-  O210  1  0.66697393  0.21140477  0.26636282  1
  O2-  O211  1  0.67044055  0.21233369  0.59845877  1
  O2-  O212  1  0.66233828  0.20738045  0.93944335  1
  O2-  O213  1  0.67196483  0.70474387  0.26399191  1
  O2-  O214  1  0.67266232  0.69555920  0.60091364  1
  O2-  O215  1  0.66944704  0.69978391  0.94081682  1
  O2-  O216  1  0.08882671  0.45613225  0.06362378  1
  O2-  O217  1  0.08029030  0.44962115  0.39207460  1
  O2-  O218  1  0.08117812  0.45121900  0.73120369  1
  O2-  O219  1  0.08900188  0.95275794  0.06510139  1
  O2-  O220  1  0.08197346  0.96216713  0.39989299  1
  O2-  O221  1  0.08764536  0.96442407  0.73931332  1
  O2-  O222  1  0.58261108  0.45247309  0.06398601  1
  O2-  O223  1  0.58353944  0.45950374  0.40019346  1
  O2-  O224  1  0.58446853  0.46140317  0.73961648  1
  O2-  O225  1  0.58223517  0.95876743  0.06259633  1
  O2-  O226  1  0.58836291  0.95516121  0.39290631  1
  O2-  O227  1  0.57760493  0.95528136  0.73348220  1
  O2-  O228  1  0.20460581  0.33315184  0.06099994  1
  O2-  O229  1  0.19948543  0.33251772  0.39105791  1
  O2-  O230  1  0.20134382  0.33278082  0.73493530  1
  O2-  O231  1  0.21016171  0.83527808  0.06252518  1
  O2-  O232  1  0.20348405  0.82940779  0.39995382  1
  O2-  O233  1  0.21017158  0.83365867  0.73902309  1
  O2-  O234  1  0.70430863  0.33512612  0.06501218  1
  O2-  O235  1  0.71400034  0.33598965  0.40332598  1
  O2-  O236  1  0.71275163  0.33681241  0.73700918  1
  O2-  O237  1  0.69939680  0.83463177  0.06441233  1
  O2-  O238  1  0.70834257  0.83639453  0.39156490  1
  O2-  O239  1  0.70459178  0.82705458  0.73333713  1
  O2-  O240  1  0.46489460  0.41367225  0.26194053  1
  O2-  O241  1  0.45932142  0.41951493  0.60378864  1
  O2-  O242  1  0.45296917  0.41593164  0.93980343  1
  O2-  O243  1  0.45793282  0.92205901  0.26606129  1
  O2-  O244  1  0.44329009  0.92485808  0.60351716  1
  O2-  O245  1  0.45413719  0.91844554  0.93161021  1
  O2-  O246  1  0.94807120  0.41586776  0.27179180  1
  O2-  O247  1  0.95660727  0.41053663  0.60108162  1
  O2-  O248  1  0.96420844  0.41354539  0.93104199  1
  O2-  O249  1  0.95680292  0.91576712  0.26643774  1
  O2-  O250  1  0.95934925  0.92216368  0.60269568  1
  O2-  O251  1  0.95942142  0.91266414  0.93961169  1
  O2-  O252  1  0.33354656  0.29232220  0.26284589  1
  O2-  O253  1  0.32769890  0.29744324  0.60178963  1
  O2-  O254  1  0.33603336  0.29373210  0.93736144  1
  O2-  O255  1  0.33097100  0.79250345  0.26546519  1
  O2-  O256  1  0.33131485  0.78687662  0.60177867  1
  O2-  O257  1  0.33332891  0.78451406  0.93146107  1
  O2-  O258  1  0.83404233  0.29204046  0.26931039  1
  O2-  O259  1  0.83689108  0.29286548  0.60429076  1
  O2-  O260  1  0.83119535  0.29079258  0.93424192  1
  O2-  O261  1  0.83512775  0.80004143  0.26518439  1
  O2-  O262  1  0.83121764  0.79754229  0.59828195  1
  O2-  O263  1  0.83389350  0.79781577  0.94271585  1
  O2-  O264  1  0.41329923  0.04651775  0.06028569  1
  O2-  O265  1  0.42672651  0.05760715  0.39574001  1
  O2-  O266  1  0.41826599  0.05858803  0.72581338  1
  O2-  O267  1  0.41283471  0.54572664  0.06267601  1
  O2-  O268  1  0.41570508  0.53666028  0.39736022  1
  O2-  O269  1  0.41246952  0.53690465  0.74097621  1
  O2-  O270  1  0.91762440  0.03973914  0.06980865  1
  O2-  O271  1  0.91279016  0.04337861  0.39255415  1
  O2-  O272  1  0.91925752  0.04573226  0.73765847  1
  O2-  O273  1  0.91809520  0.53579413  0.06821100  1
  O2-  O274  1  0.91716362  0.54616101  0.39725908  1
  O2-  O275  1  0.91830631  0.54070646  0.72915546  1
  O2-  O276  1  0.29150601  0.16411938  0.06186060  1
  O2-  O277  1  0.28855093  0.17118324  0.39910106  1
  O2-  O278  1  0.28899265  0.16713850  0.73391679  1
  O2-  O279  1  0.28614190  0.66022505  0.06338319  1
  O2-  O280  1  0.28789870  0.66564940  0.39840775  1
  O2-  O281  1  0.28597489  0.66351956  0.74000937  1
  O2-  O282  1  0.78852357  0.16650374  0.07092064  1
  O2-  O283  1  0.79442133  0.16283236  0.39365936  1
  O2-  O284  1  0.79079296  0.16855008  0.73481504  1
  O2-  O285  1  0.79700218  0.66789780  0.07026145  1
  O2-  O286  1  0.80444269  0.67130397  0.39247613  1
  O2-  O287  1  0.80556166  0.66657181  0.72385014  1
