# generated using pymatgen
data_Ca2Al2SiO7
_symmetry_space_group_name_H-M   'P 1'
_cell_length_a   15.46096861
_cell_length_b   15.46216325
_cell_length_c   15.28762562
_cell_angle_alpha   90.00778009
_cell_angle_beta   89.99826063
_cell_angle_gamma   89.99286979
_symmetry_Int_Tables_number   1
_chemical_formula_structural   Ca2Al2SiO7
_chemical_formula_sum   'Ca48 Al48 Si24 O168'
_cell_volume   3654.66003259
_cell_formula_units_Z   24
loop_
 _symmetry_equiv_pos_site_id
 _symmetry_equiv_pos_as_xyz
  1  'x, y, z'
loop_
 _atom_type_symbol
 _atom_type_oxidation_number
  Ca2+  2.0
  Al0+  0.0
  Si0+  0.0
  O2-  -2.0
loop_
 _atom_site_type_symbol
 _atom_site_label
 _atom_site_symmetry_multiplicity
 _atom_site_fract_x
 _atom_site_fract_y
 _atom_site_fract_z
 _atom_site_occupancy
  Ca2+  Ca0  1  0.16264740  0.08648269  0.16791103  1
  Ca2+  Ca1  1  0.16518829  0.08291826  0.50535174  1
  Ca2+  Ca2  1  0.16238258  0.08684999  0.83918713  1
  Ca2+  Ca3  1  0.17210640  0.57560048  0.17074041  1
  Ca2+  Ca4  1  0.16574524  0.57794482  0.50022807  1
  Ca2+  Ca5  1  0.17012660  0.58455989  0.84481913  1
  Ca2+  Ca6  1  0.66957012  0.07162807  0.17697289  1
  Ca2+  Ca7  1  0.67231976  0.08678253  0.49586771  1
  Ca2+  Ca8  1  0.66896374  0.07336697  0.84202095  1
  Ca2+  Ca9  1  0.67224095  0.58014333  0.17491921  1
  Ca2+  Ca10  1  0.67986650  0.57222284  0.50179953  1
  Ca2+  Ca11  1  0.67069913  0.58344763  0.83527490  1
  Ca2+  Ca12  1  0.07571800  0.33729773  0.16030878  1
  Ca2+  Ca13  1  0.07912396  0.33002012  0.49221769  1
  Ca2+  Ca14  1  0.08201419  0.33055742  0.83476951  1
  Ca2+  Ca15  1  0.06919598  0.82605841  0.16057670  1
  Ca2+  Ca16  1  0.07592078  0.82221082  0.49427415  1
  Ca2+  Ca17  1  0.08042520  0.82083915  0.83116429  1
  Ca2+  Ca18  1  0.57427273  0.34151824  0.16518174  1
  Ca2+  Ca19  1  0.58460553  0.33422667  0.48641909  1
  Ca2+  Ca20  1  0.57606803  0.34128041  0.83044519  1
  Ca2+  Ca21  1  0.59006173  0.82734290  0.15989167  1
  Ca2+  Ca22  1  0.58090129  0.83474780  0.49478981  1
  Ca2+  Ca23  1  0.58224995  0.82696806  0.83394784  1
  Ca2+  Ca24  1  0.32583020  0.41947818  0.17105893  1
  Ca2+  Ca25  1  0.33227225  0.41840901  0.49574592  1
  Ca2+  Ca26  1  0.32474406  0.42178104  0.84807718  1
  Ca2+  Ca27  1  0.32973166  0.91979815  0.17129212  1
  Ca2+  Ca28  1  0.33421937  0.91726534  0.50652875  1
  Ca2+  Ca29  1  0.33502251  0.91723603  0.83662307  1
  Ca2+  Ca30  1  0.83420772  0.42007044  0.17830866  1
  Ca2+  Ca31  1  0.82767394  0.41744519  0.50268427  1
  Ca2+  Ca32  1  0.83174123  0.41930002  0.83468721  1
  Ca2+  Ca33  1  0.82864420  0.91643729  0.17576832  1
  Ca2+  Ca34  1  0.83275972  0.91782590  0.49485111  1
  Ca2+  Ca35  1  0.83148609  0.91564516  0.84349416  1
  Ca2+  Ca36  1  0.42207291  0.18021632  0.16735660  1
  Ca2+  Ca37  1  0.42762110  0.17636403  0.48797350  1
  Ca2+  Ca38  1  0.41481154  0.17625440  0.83337209  1
  Ca2+  Ca39  1  0.42264106  0.65610635  0.16103355  1
  Ca2+  Ca40  1  0.41510904  0.67001396  0.49513781  1
  Ca2+  Ca41  1  0.42285239  0.66481135  0.83224123  1
  Ca2+  Ca42  1  0.91409834  0.17882619  0.16311592  1
  Ca2+  Ca43  1  0.91902927  0.17030882  0.49089718  1
  Ca2+  Ca44  1  0.92697058  0.17142464  0.83358321  1
  Ca2+  Ca45  1  0.91333463  0.67410937  0.15992192  1
  Ca2+  Ca46  1  0.91524719  0.66213272  0.49465895  1
  Ca2+  Ca47  1  0.92600437  0.66427411  0.83140619  1
  Al0+  Al48  1  -0.00076602  0.00169211  -0.00558394  1
  Al0+  Al49  1  -0.00013710  -0.00347623  0.33398232  1
  Al0+  Al50  1  0.00066382  -0.00106441  0.66435448  1
  Al0+  Al51  1  -0.00079793  0.50032754  -0.00398663  1
  Al0+  Al52  1  0.00425877  0.49845699  0.33675459  1
  Al0+  Al53  1  -0.00003284  0.49885923  0.66630602  1
  Al0+  Al54  1  0.50034444  0.00015798  0.00553257  1
  Al0+  Al55  1  0.49866773  0.00002772  0.33301955  1
  Al0+  Al56  1  0.49871359  0.00222516  0.66483764  1
  Al0+  Al57  1  0.50050642  0.50118971  -0.00755832  1
  Al0+  Al58  1  0.49851828  0.50235547  0.33766755  1
  Al0+  Al59  1  0.49906318  0.50199826  0.66714420  1
  Al0+  Al60  1  0.25117906  0.25041848  -0.00226406  1
  Al0+  Al61  1  0.25218108  0.24906601  0.33440392  1
  Al0+  Al62  1  0.25127069  0.24926600  0.66247150  1
  Al0+  Al63  1  0.25113148  0.75325217  0.00336642  1
  Al0+  Al64  1  0.24985188  0.75057933  0.33591110  1
  Al0+  Al65  1  0.24812974  0.75092871  0.65922078  1
  Al0+  Al66  1  0.74918631  0.24896533  -0.00476789  1
  Al0+  Al67  1  0.75199316  0.24575888  0.33141905  1
  Al0+  Al68  1  0.74915754  0.24835125  0.67415617  1
  Al0+  Al69  1  0.74738595  0.74962497  -0.00565207  1
  Al0+  Al70  1  0.74862132  0.75073905  0.33922454  1
  Al0+  Al71  1  0.74940546  0.75018057  0.67013971  1
  Al0+  Al72  1  0.56973825  0.67890867  0.98665021  1
  Al0+  Al73  1  0.43017778  0.32395628  0.31774153  1
  Al0+  Al74  1  0.82250013  0.57129806  0.68454325  1
  Al0+  Al75  1  0.92521153  0.32394484  0.98372804  1
  Al0+  Al76  1  0.92730599  0.82064767  0.98496988  1
  Al0+  Al77  1  0.07118941  0.17894449  0.65129894  1
  Al0+  Al78  1  0.43078811  0.82083389  0.65386021  1
  Al0+  Al79  1  0.92823532  0.81776611  0.32068646  1
  Al0+  Al80  1  0.67697453  0.92825805  0.35028766  1
  Al0+  Al81  1  0.07146366  0.18062644  0.98662047  1
  Al0+  Al82  1  0.93058387  0.32105545  0.32206987  1
  Al0+  Al83  1  0.57346414  0.17743768  0.31737577  1
  Al0+  Al84  1  0.43114701  0.32072157  0.98563399  1
  Al0+  Al85  1  0.17734297  0.42847828  0.01432568  1
  Al0+  Al86  1  0.06977786  0.67740898  0.65111952  1
  Al0+  Al87  1  0.68025647  0.92839048  0.01356769  1
  Al0+  Al88  1  0.17969668  0.42625609  0.35000486  1
  Al0+  Al89  1  0.67755404  0.42773335  0.68341121  1
  Al0+  Al90  1  0.82305353  0.07000586  0.34757269  1
  Al0+  Al91  1  0.82330868  0.57175869  0.34518800  1
  Al0+  Al92  1  0.32097701  0.57253242  0.35018941  1
  Al0+  Al93  1  0.32277411  0.57317078  0.01344297  1
  Al0+  Al94  1  0.67974326  0.42748070  0.34352525  1
  Al0+  Al95  1  0.07275170  0.67975318  0.98768827  1
  Si0+  Si96  1  0.17935988  0.92919106  0.68208943  1
  Si0+  Si97  1  0.57058310  0.17574380  0.98263212  1
  Si0+  Si98  1  0.31840499  0.57358966  0.68174338  1
  Si0+  Si99  1  0.42784845  0.82565948  0.98601644  1
  Si0+  Si100  1  0.82301373  0.06978283  0.68405662  1
  Si0+  Si101  1  0.42970176  0.32231064  0.65132464  1
  Si0+  Si102  1  0.81988165  0.56993580  0.01323471  1
  Si0+  Si103  1  0.18138982  0.42685407  0.68171729  1
  Si0+  Si104  1  0.57297907  0.67800526  0.64672554  1
  Si0+  Si105  1  0.17888869  0.92906336  0.34960410  1
  Si0+  Si106  1  0.56891665  0.68188553  0.32066404  1
  Si0+  Si107  1  0.07380413  0.67722492  0.31619399  1
  Si0+  Si108  1  0.57065821  0.17946960  0.65330124  1
  Si0+  Si109  1  0.67848674  0.42813831  0.01322035  1
  Si0+  Si110  1  0.32048633  0.06999929  0.34949770  1
  Si0+  Si111  1  0.42638231  0.82222678  0.31753790  1
  Si0+  Si112  1  0.32146286  0.07180874  0.01607303  1
  Si0+  Si113  1  0.07301181  0.17608607  0.31830730  1
  Si0+  Si114  1  0.67662194  0.93130430  0.68239950  1
  Si0+  Si115  1  0.92627714  0.82201975  0.64920215  1
  Si0+  Si116  1  0.17733407  0.93027308  0.01495588  1
  Si0+  Si117  1  0.32064818  0.07089669  0.68246125  1
  Si0+  Si118  1  0.82303448  0.07224740  0.01617829  1
  Si0+  Si119  1  0.92701942  0.31934742  0.64959279  1
  O2-  O120  1  0.24791740  0.00236887  0.05707894  1
  O2-  O121  1  0.24892945  0.00044538  0.39321450  1
  O2-  O122  1  0.24872109  0.00149539  0.72577714  1
  O2-  O123  1  0.24858992  0.50290961  0.06196785  1
  O2-  O124  1  0.25009631  0.49992758  0.40077667  1
  O2-  O125  1  0.24981558  0.50054842  0.72417206  1
  O2-  O126  1  0.75551319  0.00213420  0.05934078  1
  O2-  O127  1  0.74849261  0.00107330  0.39964102  1
  O2-  O128  1  0.75214031  -0.00255197  0.72499459  1
  O2-  O129  1  0.75379510  0.49413827  0.05519046  1
  O2-  O130  1  0.75614254  0.49434327  0.39411665  1
  O2-  O131  1  0.74902351  0.49996895  0.73414920  1
  O2-  O132  1  0.00608386  0.24628680  0.27562227  1
  O2-  O133  1  -0.00420372  0.25128677  0.60434394  1
  O2-  O134  1  0.00060676  0.25334286  0.93603995  1
  O2-  O135  1  -0.00138940  0.73944149  0.27353374  1
  O2-  O136  1  -0.00991610  0.74819762  0.60624135  1
  O2-  O137  1  0.00044134  0.75017616  0.93494752  1
  O2-  O138  1  0.50707405  0.25575243  0.26899052  1
  O2-  O139  1  0.50738814  0.25752620  0.61139656  1
  O2-  O140  1  0.50617101  0.24716659  0.93622501  1
  O2-  O141  1  0.49752553  0.75206391  0.27622810  1
  O2-  O142  1  0.50467321  0.74791268  0.60354037  1
  O2-  O143  1  0.49261155  0.75332528  0.94250971  1
  O2-  O144  1  0.07020689  0.17821278  0.09991958  1
  O2-  O145  1  0.07244365  0.17555228  0.42432924  1
  O2-  O146  1  0.07167717  0.17974116  0.76381583  1
  O2-  O147  1  0.07161135  0.68229130  0.10094908  1
  O2-  O148  1  0.07610710  0.68195619  0.42207674  1
  O2-  O149  1  0.07458948  0.68177345  0.76389764  1
  O2-  O150  1  0.56781009  0.17393368  0.08747500  1
  O2-  O151  1  0.56840584  0.17621757  0.43192679  1
  O2-  O152  1  0.56564815  0.17476180  0.75831021  1
  O2-  O153  1  0.57172103  0.67895027  0.09983842  1
  O2-  O154  1  0.56694796  0.68457286  0.42570729  1
  O2-  O155  1  0.57116402  0.67868697  0.75253094  1
  O2-  O156  1  0.17952514  0.42601392  0.23687151  1
  O2-  O157  1  0.18482210  0.42492888  0.57692472  1
  O2-  O158  1  0.18107979  0.42762296  0.89979136  1
  O2-  O159  1  0.18064548  0.92953574  0.24443617  1
  O2-  O160  1  0.18141384  0.93102173  0.57685640  1
  O2-  O161  1  0.18015985  0.92953938  0.90958555  1
  O2-  O162  1  0.67794050  0.43333029  0.22968639  1
  O2-  O163  1  0.67823141  0.42586013  0.57007347  1
  O2-  O164  1  0.67750689  0.43112812  0.90806037  1
  O2-  O165  1  0.67776115  0.92660415  0.23688027  1
  O2-  O166  1  0.67407990  0.93409154  0.57783316  1
  O2-  O167  1  0.67841065  0.93143463  0.89958738  1
  O2-  O168  1  0.43186508  0.32028391  0.09799437  1
  O2-  O169  1  0.42987502  0.31964658  0.43209538  1
  O2-  O170  1  0.42671287  0.31903422  0.75647233  1
  O2-  O171  1  0.42902626  0.83009488  0.09128450  1
  O2-  O172  1  0.42602293  0.82265445  0.42293252  1
  O2-  O173  1  0.43185480  0.82154388  0.76688787  1
  O2-  O174  1  0.92223844  0.32233743  0.09717253  1
  O2-  O175  1  0.93151392  0.31838593  0.43549663  1
  O2-  O176  1  0.92815901  0.31766961  0.75509557  1
  O2-  O177  1  0.92724301  0.81957987  0.09858867  1
  O2-  O178  1  0.93252848  0.81904984  0.43391906  1
  O2-  O179  1  0.92966709  0.82574906  0.75459518  1
  O2-  O180  1  0.31966846  0.06828322  0.24432418  1
  O2-  O181  1  0.32116342  0.06941069  0.57745927  1
  O2-  O182  1  0.32395874  0.06966720  0.91049533  1
  O2-  O183  1  0.32008053  0.57491700  0.23715640  1
  O2-  O184  1  0.31821589  0.57306386  0.57689965  1
  O2-  O185  1  0.32236285  0.57158359  0.89891311  1
  O2-  O186  1  0.82569798  0.06634584  0.23436803  1
  O2-  O187  1  0.82277440  0.07131341  0.57934349  1
  O2-  O188  1  0.82081036  0.07057723  0.90977092  1
  O2-  O189  1  0.81895624  0.57448625  0.23120872  1
  O2-  O190  1  0.82103972  0.56942312  0.57114791  1
  O2-  O191  1  0.81769384  0.57081861  0.90820126  1
  O2-  O192  1  0.04827228  0.08184872  0.27357462  1
  O2-  O193  1  0.04326855  0.08056545  0.59881271  1
  O2-  O194  1  0.04290804  0.08334302  0.92973004  1
  O2-  O195  1  0.05769812  0.58071341  0.27508790  1
  O2-  O196  1  0.04404758  0.57895015  0.59832141  1
  O2-  O197  1  0.04594311  0.58238263  0.93286572  1
  O2-  O198  1  0.53563283  0.08144607  0.26447521  1
  O2-  O199  1  0.53559020  0.09165750  0.60294738  1
  O2-  O200  1  0.53937129  0.08346115  0.93571007  1
  O2-  O201  1  0.54134018  0.59027394  0.27345081  1
  O2-  O202  1  0.54483984  0.58487425  0.60141190  1
  O2-  O203  1  0.53964097  0.58559360  0.92610296  1
  O2-  O204  1  0.16819207  0.19795150  0.27457962  1
  O2-  O205  1  0.16877091  0.20785954  0.59742580  1
  O2-  O206  1  0.17071132  0.20432039  0.93242260  1
  O2-  O207  1  0.16464259  0.71214270  0.27025981  1
  O2-  O208  1  0.16293160  0.71439718  0.59409113  1
  O2-  O209  1  0.17123743  0.71180746  0.93494989  1
  O2-  O210  1  0.67422907  0.19325123  0.26665101  1
  O2-  O211  1  0.66610634  0.19932311  0.61021219  1
  O2-  O212  1  0.66519510  0.19579803  0.93664532  1
  O2-  O213  1  0.66043465  0.71037925  0.27364569  1
  O2-  O214  1  0.66708429  0.70452779  0.60311792  1
  O2-  O215  1  0.66226746  0.71322224  0.92721624  1
  O2-  O216  1  0.07740125  0.45478095  0.06464448  1
  O2-  O217  1  0.08281627  0.45409193  0.40642738  1
  O2-  O218  1  0.08730534  0.44974808  0.72553286  1
  O2-  O219  1  0.08530462  0.95901794  0.06121789  1
  O2-  O220  1  0.08813791  0.95556914  0.39902648  1
  O2-  O221  1  0.08702963  0.95559819  0.72896121  1
  O2-  O222  1  0.58787508  0.46128610  0.05853027  1
  O2-  O223  1  0.58357400  0.45946652  0.39894931  1
  O2-  O224  1  0.57770206  0.45807209  0.73454510  1
  O2-  O225  1  0.58381425  0.95872078  0.06839064  1
  O2-  O226  1  0.57706299  0.95597969  0.40156971  1
  O2-  O227  1  0.58655765  0.96528729  0.73044697  1
  O2-  O228  1  0.20870000  0.33016926  0.06548727  1
  O2-  O229  1  0.20996221  0.32788133  0.40365128  1
  O2-  O230  1  0.21340820  0.33564412  0.72853847  1
  O2-  O231  1  0.20621355  0.84100229  0.06627578  1
  O2-  O232  1  0.20866287  0.83881677  0.39870257  1
  O2-  O233  1  0.21073574  0.83800297  0.72835355  1
  O2-  O234  1  0.69831199  0.33276127  0.05637862  1
  O2-  O235  1  0.70226939  0.32696830  0.39394852  1
  O2-  O236  1  0.70236554  0.32847077  0.73817564  1
  O2-  O237  1  0.70881340  0.83038863  0.06516145  1
  O2-  O238  1  0.70643329  0.83227161  0.40687721  1
  O2-  O239  1  0.69849169  0.83724114  0.72784432  1
  O2-  O240  1  0.45410130  0.42432681  0.26741201  1
  O2-  O241  1  0.45005225  0.41683946  0.60661178  1
  O2-  O242  1  0.46159778  0.41530613  0.92775715  1
  O2-  O243  1  0.45115234  0.91457042  0.27052678  1
  O2-  O244  1  0.45975374  0.91859854  0.59954046  1
  O2-  O245  1  0.45736528  0.91755349  0.93737604  1
  O2-  O246  1  0.96105675  0.41806334  0.26835071  1
  O2-  O247  1  0.95226813  0.41318797  0.60530366  1
  O2-  O248  1  0.95193199  0.42146238  0.92902908  1
  O2-  O249  1  0.96433879  0.91267712  0.26632558  1
  O2-  O250  1  0.95768365  0.91332335  0.60161291  1
  O2-  O251  1  0.95497015  0.91899087  0.93178482  1
  O2-  O252  1  0.33385783  0.28678431  0.26579510  1
  O2-  O253  1  0.34151886  0.28717832  0.60197344  1
  O2-  O254  1  0.33650549  0.28635640  0.92981866  1
  O2-  O255  1  0.33373801  0.79636894  0.27072846  1
  O2-  O256  1  0.33451174  0.79240436  0.59789953  1
  O2-  O257  1  0.33281762  0.80607718  0.94076121  1
  O2-  O258  1  0.83507746  0.29046880  0.26662825  1
  O2-  O259  1  0.83225193  0.29129534  0.60725522  1
  O2-  O260  1  0.82822412  0.29251373  0.92770603  1
  O2-  O261  1  0.82924390  0.79176153  0.26955821  1
  O2-  O262  1  0.82975835  0.80264501  0.60681819  1
  O2-  O263  1  0.83047712  0.79187056  0.93006121  1
  O2-  O264  1  0.41077515  0.04091003  0.06613725  1
  O2-  O265  1  0.41074939  0.03997336  0.39847556  1
  O2-  O266  1  0.41150744  0.04140345  0.73141139  1
  O2-  O267  1  0.42157170  0.54104550  0.06319447  1
  O2-  O268  1  0.41855097  0.54596898  0.40610731  1
  O2-  O269  1  0.41236524  0.54948707  0.72666152  1
  O2-  O270  1  0.91769745  0.04937947  0.05992164  1
  O2-  O271  1  0.92005365  0.03741675  0.40325407  1
  O2-  O272  1  0.91522690  0.04073978  0.73049492  1
  O2-  O273  1  0.91330340  0.54858776  0.05913612  1
  O2-  O274  1  0.92346723  0.55028200  0.39627536  1
  O2-  O275  1  0.92165036  0.54183651  0.73632212  1
  O2-  O276  1  0.29476095  0.16324954  0.06335290  1
  O2-  O277  1  0.29516384  0.16125490  0.39872438  1
  O2-  O278  1  0.29322684  0.16335482  0.72918756  1
  O2-  O279  1  0.30224285  0.67414687  0.06495332  1
  O2-  O280  1  0.29237036  0.67168212  0.40359342  1
  O2-  O281  1  0.28887050  0.66581270  0.72704586  1
  O2-  O282  1  0.79550540  0.16619932  0.06010538  1
  O2-  O283  1  0.79645604  0.16767740  0.40329022  1
  O2-  O284  1  0.79470413  0.16001085  0.73406772  1
  O2-  O285  1  0.78607769  0.66057350  0.05884957  1
  O2-  O286  1  0.78891373  0.66604274  0.40250101  1
  O2-  O287  1  0.79470042  0.67118981  0.73650454  1
