# generated using pymatgen
data_Ca2Al2SiO7
_symmetry_space_group_name_H-M   'P 1'
_cell_length_a   15.45955539
_cell_length_b   15.45973978
_cell_length_c   15.28597955
_cell_angle_alpha   90.00724795
_cell_angle_beta   90.00213688
_cell_angle_gamma   89.99370575
_symmetry_Int_Tables_number   1
_chemical_formula_structural   Ca2Al2SiO7
_chemical_formula_sum   'Ca48 Al48 Si24 O168'
_cell_volume   3653.35981383
_cell_formula_units_Z   24
loop_
 _symmetry_equiv_pos_site_id
 _symmetry_equiv_pos_as_xyz
  1  'x, y, z'
loop_
 _atom_type_symbol
 _atom_type_oxidation_number
  Ca2+  2.0
  Al0+  0.0
  Si0+  0.0
  O2-  -2.0
loop_
 _atom_site_type_symbol
 _atom_site_label
 _atom_site_symmetry_multiplicity
 _atom_site_fract_x
 _atom_site_fract_y
 _atom_site_fract_z
 _atom_site_occupancy
  Ca2+  Ca0  1  0.16418975  0.08417733  0.16944545  1
  Ca2+  Ca1  1  0.16662063  0.07572166  0.50977400  1
  Ca2+  Ca2  1  0.16036766  0.08118227  0.83398985  1
  Ca2+  Ca3  1  0.17526005  0.58408375  0.17856313  1
  Ca2+  Ca4  1  0.16711393  0.58019860  0.49654495  1
  Ca2+  Ca5  1  0.17682424  0.58071654  0.83816258  1
  Ca2+  Ca6  1  0.66536903  0.08101538  0.17461015  1
  Ca2+  Ca7  1  0.66811740  0.08282105  0.50898524  1
  Ca2+  Ca8  1  0.66678926  0.08276990  0.82900185  1
  Ca2+  Ca9  1  0.66921653  0.57321113  0.17809923  1
  Ca2+  Ca10  1  0.67237934  0.57919533  0.50189108  1
  Ca2+  Ca11  1  0.66753850  0.57249373  0.83373518  1
  Ca2+  Ca12  1  0.07771467  0.33922938  0.16775794  1
  Ca2+  Ca13  1  0.07825096  0.33080170  0.49229916  1
  Ca2+  Ca14  1  0.08528729  0.31945915  0.82567607  1
  Ca2+  Ca15  1  0.07320006  0.82509461  0.16873735  1
  Ca2+  Ca16  1  0.07778620  0.82731019  0.49244016  1
  Ca2+  Ca17  1  0.07803115  0.83484910  0.82857368  1
  Ca2+  Ca18  1  0.58547303  0.33882028  0.16868822  1
  Ca2+  Ca19  1  0.58488103  0.32998287  0.49341523  1
  Ca2+  Ca20  1  0.58123492  0.33534878  0.82257469  1
  Ca2+  Ca21  1  0.58007251  0.82237681  0.17055190  1
  Ca2+  Ca22  1  0.57654895  0.83250659  0.49214197  1
  Ca2+  Ca23  1  0.57690874  0.83269623  0.82203883  1
  Ca2+  Ca24  1  0.32722794  0.42523378  0.17890487  1
  Ca2+  Ca25  1  0.33714431  0.41525223  0.49760315  1
  Ca2+  Ca26  1  0.33727941  0.42039341  0.83887566  1
  Ca2+  Ca27  1  0.33392031  0.91842660  0.17541682  1
  Ca2+  Ca28  1  0.33111593  0.91191301  0.50738199  1
  Ca2+  Ca29  1  0.32779954  0.91419444  0.83148028  1
  Ca2+  Ca30  1  0.82581995  0.41902951  0.18013992  1
  Ca2+  Ca31  1  0.82703753  0.42388101  0.50291007  1
  Ca2+  Ca32  1  0.82090878  0.41657177  0.83299537  1
  Ca2+  Ca33  1  0.84030422  0.91600410  0.17121300  1
  Ca2+  Ca34  1  0.82742342  0.92091354  0.50902040  1
  Ca2+  Ca35  1  0.83121047  0.92080853  0.83172589  1
  Ca2+  Ca36  1  0.42209738  0.17467740  0.17116445  1
  Ca2+  Ca37  1  0.42986900  0.17716758  0.49613950  1
  Ca2+  Ca38  1  0.42533319  0.17735389  0.81927309  1
  Ca2+  Ca39  1  0.41725460  0.65780955  0.17032176  1
  Ca2+  Ca40  1  0.42171242  0.67546193  0.49043040  1
  Ca2+  Ca41  1  0.41679784  0.66894577  0.82702505  1
  Ca2+  Ca42  1  0.92131391  0.17741867  0.16533486  1
  Ca2+  Ca43  1  0.91694989  0.16947899  0.49748011  1
  Ca2+  Ca44  1  0.92455627  0.16289877  0.82728144  1
  Ca2+  Ca45  1  0.91347669  0.67133469  0.16825567  1
  Ca2+  Ca46  1  0.91651488  0.66709835  0.48729765  1
  Ca2+  Ca47  1  0.91236902  0.67019061  0.82929694  1
  Al0+  Al48  1  -0.00070751  -0.00085655  -0.00572871  1
  Al0+  Al49  1  0.00068538  -0.00057032  0.33091542  1
  Al0+  Al50  1  0.00047889  -0.00222747  0.66995087  1
  Al0+  Al51  1  -0.00110724  0.50096371  -0.00379726  1
  Al0+  Al52  1  0.00178311  0.49904271  0.33108070  1
  Al0+  Al53  1  0.00273837  0.49996919  0.67428910  1
  Al0+  Al54  1  0.49936529  -0.00010925  0.00045850  1
  Al0+  Al55  1  0.49979718  0.00111835  0.32630349  1
  Al0+  Al56  1  0.49768474  0.00186109  0.66471371  1
  Al0+  Al57  1  0.50060559  0.50049993  0.00688959  1
  Al0+  Al58  1  0.49856866  0.49982231  0.33505528  1
  Al0+  Al59  1  0.49921018  0.50304359  0.66609394  1
  Al0+  Al60  1  0.25120904  0.24902653  -0.00333899  1
  Al0+  Al61  1  0.25340050  0.24743998  0.33459429  1
  Al0+  Al62  1  0.24956154  0.24893822  0.65868300  1
  Al0+  Al63  1  0.24917305  0.75148341  0.00444465  1
  Al0+  Al64  1  0.24765500  0.75133814  0.32993937  1
  Al0+  Al65  1  0.24855773  0.75001727  0.66850867  1
  Al0+  Al66  1  0.75038854  0.24728206  0.00346989  1
  Al0+  Al67  1  0.75312112  0.24769303  0.32875203  1
  Al0+  Al68  1  0.75261785  0.25065444  0.67265390  1
  Al0+  Al69  1  0.74792775  0.75046613  -0.00595839  1
  Al0+  Al70  1  0.74720505  0.75213075  0.32845613  1
  Al0+  Al71  1  0.74994489  0.75072295  0.67461269  1
  Al0+  Al72  1  0.68160401  0.42832110  0.01551922  1
  Al0+  Al73  1  0.92673298  0.82221389  0.32115327  1
  Al0+  Al74  1  0.42720663  0.82120623  0.31764801  1
  Al0+  Al75  1  0.06998392  0.67726510  0.31924589  1
  Al0+  Al76  1  0.57060009  0.67776925  0.31917234  1
  Al0+  Al77  1  0.67792565  0.43027300  0.68037372  1
  Al0+  Al78  1  0.93091467  0.32071659  0.32197629  1
  Al0+  Al79  1  0.17895668  0.42618191  0.34891930  1
  Al0+  Al80  1  0.32052035  0.57310646  0.35168511  1
  Al0+  Al81  1  0.42881849  0.32534328  0.65130164  1
  Al0+  Al82  1  0.57361572  0.18024403  0.31711634  1
  Al0+  Al83  1  0.06910191  0.17650679  0.65113627  1
  Al0+  Al84  1  0.42899928  0.32180368  0.31651538  1
  Al0+  Al85  1  0.67919137  0.42637187  0.34946428  1
  Al0+  Al86  1  0.82475437  0.57238645  0.68272157  1
  Al0+  Al87  1  0.92875902  0.81905723  0.98250585  1
  Al0+  Al88  1  0.82193535  0.07130193  0.68181243  1
  Al0+  Al89  1  0.31909609  0.57121535  0.01410808  1
  Al0+  Al90  1  0.67514441  0.92971951  0.68066597  1
  Al0+  Al91  1  0.18003554  0.92803858  0.68069786  1
  Al0+  Al92  1  0.42793745  0.82017817  0.65510591  1
  Al0+  Al93  1  0.57436095  0.18077952  0.65321545  1
  Al0+  Al94  1  0.82072490  0.57326964  0.34537339  1
  Al0+  Al95  1  0.07065516  0.18159631  0.98623091  1
  Si0+  Si96  1  0.07420126  0.67820382  0.98133435  1
  Si0+  Si97  1  0.17951758  0.42625351  0.68255284  1
  Si0+  Si98  1  0.92549838  0.32298737  0.98187902  1
  Si0+  Si99  1  0.56817815  0.67851930  0.98356951  1
  Si0+  Si100  1  0.57351840  0.67953110  0.65119869  1
  Si0+  Si101  1  0.57169213  0.17622988  0.98390784  1
  Si0+  Si102  1  0.07338306  0.17641804  0.31841494  1
  Si0+  Si103  1  0.07129179  0.67787090  0.65374701  1
  Si0+  Si104  1  0.82171785  0.57414865  0.01653040  1
  Si0+  Si105  1  0.31889127  0.57112409  0.68067647  1
  Si0+  Si106  1  0.17799962  0.93116642  0.01696821  1
  Si0+  Si107  1  0.32209364  0.07141733  0.01525968  1
  Si0+  Si108  1  0.43218707  0.32068106  0.98635886  1
  Si0+  Si109  1  0.67784869  0.93084231  0.34565657  1
  Si0+  Si110  1  0.82324607  0.06937562  0.34646422  1
  Si0+  Si111  1  0.17845261  0.93121889  0.34758595  1
  Si0+  Si112  1  0.32347410  0.06964300  0.34974185  1
  Si0+  Si113  1  0.17795042  0.42553148  0.01378547  1
  Si0+  Si114  1  0.31995611  0.07330308  0.68336636  1
  Si0+  Si115  1  0.92859408  0.81869800  0.65284349  1
  Si0+  Si116  1  0.93018164  0.32380402  0.65187804  1
  Si0+  Si117  1  0.42788495  0.82286301  0.98394872  1
  Si0+  Si118  1  0.67669553  0.92844618  0.01640009  1
  Si0+  Si119  1  0.82167152  0.06744529  0.01713671  1
  O2-  O120  1  0.25041389  0.00118402  0.05870958  1
  O2-  O121  1  0.25153469  -0.00093306  0.39088262  1
  O2-  O122  1  0.25243302  0.00420693  0.72975796  1
  O2-  O123  1  0.24071721  0.49908552  0.05784001  1
  O2-  O124  1  0.25060733  0.49803814  0.40059776  1
  O2-  O125  1  0.25382586  0.49462092  0.72397245  1
  O2-  O126  1  0.74908926  -0.00214307  0.05953004  1
  O2-  O127  1  0.75104078  -0.00052767  0.38722160  1
  O2-  O128  1  0.74652239  0.00216350  0.73217708  1
  O2-  O129  1  0.75993463  0.49994979  0.06065713  1
  O2-  O130  1  0.74940437  0.50168344  0.39669750  1
  O2-  O131  1  0.75086182  0.50137042  0.73142872  1
  O2-  O132  1  0.00974352  0.24954172  0.27472910  1
  O2-  O133  1  -0.00471149  0.25207218  0.60650206  1
  O2-  O134  1  -0.00089902  0.25889740  0.93841625  1
  O2-  O135  1  -0.00638156  0.74576837  0.27059437  1
  O2-  O136  1  -0.00578190  0.74249282  0.61213685  1
  O2-  O137  1  0.00192542  0.74228943  0.93575118  1
  O2-  O138  1  0.50601601  0.25552781  0.26525061  1
  O2-  O139  1  0.50586759  0.25669859  0.60461932  1
  O2-  O140  1  0.50375906  0.25070079  0.94310640  1
  O2-  O141  1  0.49459321  0.74552418  0.26692619  1
  O2-  O142  1  0.50827346  0.75245905  0.60907254  1
  O2-  O143  1  0.49701343  0.75029697  0.94179193  1
  O2-  O144  1  0.06902289  0.18084941  0.09926856  1
  O2-  O145  1  0.06898500  0.17135265  0.42355069  1
  O2-  O146  1  0.06939245  0.17876965  0.76473870  1
  O2-  O147  1  0.07614908  0.68029560  0.08618323  1
  O2-  O148  1  0.07111528  0.68179910  0.43332360  1
  O2-  O149  1  0.07424684  0.68085261  0.75919826  1
  O2-  O150  1  0.56935271  0.17217648  0.08844585  1
  O2-  O151  1  0.57234062  0.17608025  0.42998109  1
  O2-  O152  1  0.56940464  0.18074108  0.76787114  1
  O2-  O153  1  0.56864174  0.67958097  0.08811365  1
  O2-  O154  1  0.57357356  0.68478454  0.43259708  1
  O2-  O155  1  0.56891811  0.67779190  0.75766064  1
  O2-  O156  1  0.18001794  0.42610982  0.23457303  1
  O2-  O157  1  0.17434126  0.42816943  0.57841250  1
  O2-  O158  1  0.18284778  0.42363759  0.90777832  1
  O2-  O159  1  0.17650095  0.93566527  0.24205718  1
  O2-  O160  1  0.18076779  0.92711471  0.56771586  1
  O2-  O161  1  0.17956873  0.93047229  0.91181694  1
  O2-  O162  1  0.68382172  0.42719276  0.23537649  1
  O2-  O163  1  0.67904299  0.43129860  0.56773377  1
  O2-  O164  1  0.67889697  0.42999813  0.90243786  1
  O2-  O165  1  0.67756401  0.93276509  0.23994385  1
  O2-  O166  1  0.67820590  0.92786371  0.56703606  1
  O2-  O167  1  0.67387357  0.93102147  0.91170564  1
  O2-  O168  1  0.43061994  0.31848375  0.09068700  1
  O2-  O169  1  0.42720939  0.31572876  0.42931731  1
  O2-  O170  1  0.42779539  0.32377897  0.76641794  1
  O2-  O171  1  0.42929324  0.82675176  0.08831054  1
  O2-  O172  1  0.43010103  0.82389102  0.43117205  1
  O2-  O173  1  0.42573847  0.81493495  0.76914848  1
  O2-  O174  1  0.92534748  0.32106160  0.08742571  1
  O2-  O175  1  0.92951908  0.31645231  0.43486770  1
  O2-  O176  1  0.93456697  0.32392072  0.75792515  1
  O2-  O177  1  0.93127342  0.82031997  0.09521510  1
  O2-  O178  1  0.93042561  0.82732204  0.43457281  1
  O2-  O179  1  0.93152677  0.81928679  0.75829787  1
  O2-  O180  1  0.32181608  0.06905287  0.24377687  1
  O2-  O181  1  0.31792841  0.07179948  0.57807632  1
  O2-  O182  1  0.32358613  0.07020601  0.91050825  1
  O2-  O183  1  0.31623907  0.57204143  0.23762706  1
  O2-  O184  1  0.31531205  0.57536264  0.57676198  1
  O2-  O185  1  0.31982656  0.56974692  0.90004536  1
  O2-  O186  1  0.82558296  0.06752015  0.24086259  1
  O2-  O187  1  0.82456078  0.06719941  0.56807929  1
  O2-  O188  1  0.82140761  0.06742262  0.91240101  1
  O2-  O189  1  0.81892481  0.57164940  0.23130610  1
  O2-  O190  1  0.82728445  0.57270696  0.56975236  1
  O2-  O191  1  0.81834234  0.57460542  0.91098533  1
  O2-  O192  1  0.04214919  0.08612573  0.26804176  1
  O2-  O193  1  0.03917493  0.07875276  0.59942275  1
  O2-  O194  1  0.03730452  0.08586518  0.93200087  1
  O2-  O195  1  0.04927094  0.57871940  0.26430787  1
  O2-  O196  1  0.05078615  0.58303753  0.61014851  1
  O2-  O197  1  0.05479153  0.58206916  0.93614811  1
  O2-  O198  1  0.53813214  0.08491390  0.26052640  1
  O2-  O199  1  0.54269162  0.08333322  0.60060376  1
  O2-  O200  1  0.53995996  0.08561685  0.93575176  1
  O2-  O201  1  0.54545985  0.57889979  0.26640549  1
  O2-  O202  1  0.54376615  0.58860678  0.60409969  1
  O2-  O203  1  0.53764512  0.58691380  0.93682602  1
  O2-  O204  1  0.16905081  0.19496340  0.27470707  1
  O2-  O205  1  0.16544437  0.20486814  0.59697409  1
  O2-  O206  1  0.16874347  0.20771145  0.93082675  1
  O2-  O207  1  0.16417738  0.71360137  0.26263612  1
  O2-  O208  1  0.15971409  0.71239274  0.60518592  1
  O2-  O209  1  0.16670956  0.70971784  0.93484829  1
  O2-  O210  1  0.67294889  0.20125484  0.26257728  1
  O2-  O211  1  0.67597800  0.20189866  0.60469992  1
  O2-  O212  1  0.66619774  0.19944903  0.94028354  1
  O2-  O213  1  0.66482587  0.71227027  0.26062647  1
  O2-  O214  1  0.66918087  0.70173010  0.60925257  1
  O2-  O215  1  0.65898775  0.70653764  0.93449421  1
  O2-  O216  1  0.08044954  0.44545901  0.05423430  1
  O2-  O217  1  0.08041079  0.45388787  0.40153111  1
  O2-  O218  1  0.09118133  0.45609477  0.73599398  1
  O2-  O219  1  0.08665779  0.96247125  0.06267672  1
  O2-  O220  1  0.08791105  0.96202065  0.39634620  1
  O2-  O221  1  0.08463485  0.95833249  0.73697748  1
  O2-  O222  1  0.58634285  0.46233912  0.06952136  1
  O2-  O223  1  0.57882051  0.44966795  0.39817702  1
  O2-  O224  1  0.57964938  0.46174014  0.73488610  1
  O2-  O225  1  0.58546399  0.95816185  0.06451777  1
  O2-  O226  1  0.58643814  0.96121335  0.39185535  1
  O2-  O227  1  0.57608172  0.95698812  0.73481832  1
  O2-  O228  1  0.20700907  0.33336118  0.06055063  1
  O2-  O229  1  0.20601538  0.32623965  0.40031171  1
  O2-  O230  1  0.20640551  0.33301955  0.72804443  1
  O2-  O231  1  0.20473509  0.83952048  0.06468089  1
  O2-  O232  1  0.20235556  0.83855824  0.39348134  1
  O2-  O233  1  0.21312856  0.83329274  0.73855235  1
  O2-  O234  1  0.70761160  0.32923581  0.06742056  1
  O2-  O235  1  0.71222399  0.32730712  0.39808273  1
  O2-  O236  1  0.70604611  0.33280022  0.73639665  1
  O2-  O237  1  0.70354966  0.83492155  0.06034299  1
  O2-  O238  1  0.70249791  0.83887783  0.39258282  1
  O2-  O239  1  0.70368969  0.83284701  0.73751646  1
  O2-  O240  1  0.44907641  0.42243367  0.26624349  1
  O2-  O241  1  0.45027294  0.42584335  0.60114913  1
  O2-  O242  1  0.45968587  0.41352378  0.94045713  1
  O2-  O243  1  0.45985738  0.91722854  0.26154309  1
  O2-  O244  1  0.44929979  0.91934179  0.60353998  1
  O2-  O245  1  0.45725142  0.91428476  0.93576305  1
  O2-  O246  1  0.95930546  0.41556884  0.26383283  1
  O2-  O247  1  0.96090048  0.41657343  0.60756383  1
  O2-  O248  1  0.94392240  0.41903656  0.93730693  1
  O2-  O249  1  0.96339274  0.91722663  0.26393197  1
  O2-  O250  1  0.96155339  0.90853634  0.60617437  1
  O2-  O251  1  0.96329081  0.91424281  0.92804793  1
  O2-  O252  1  0.33269122  0.28487769  0.26210847  1
  O2-  O253  1  0.33225992  0.29360313  0.59785151  1
  O2-  O254  1  0.34059013  0.29254852  0.93783425  1
  O2-  O255  1  0.32731079  0.80010554  0.26524327  1
  O2-  O256  1  0.33270819  0.78490740  0.60155598  1
  O2-  O257  1  0.33411331  0.79658520  0.93930814  1
  O2-  O258  1  0.83924536  0.28388919  0.26235921  1
  O2-  O259  1  0.83531933  0.30133926  0.60918099  1
  O2-  O260  1  0.83397065  0.28942214  0.93603036  1
  O2-  O261  1  0.82830419  0.80143706  0.26561742  1
  O2-  O262  1  0.83386071  0.79757272  0.60912755  1
  O2-  O263  1  0.83058188  0.79237462  0.92863723  1
  O2-  O264  1  0.41298515  0.04178387  0.06408439  1
  O2-  O265  1  0.41495689  0.03958986  0.39549968  1
  O2-  O266  1  0.41324521  0.04881764  0.73045673  1
  O2-  O267  1  0.41410354  0.53891005  0.06857517  1
  O2-  O268  1  0.42028472  0.54952974  0.40259008  1
  O2-  O269  1  0.41206764  0.54975864  0.72877304  1
  O2-  O270  1  0.91310828  0.03642134  0.06339030  1
  O2-  O271  1  0.91453359  0.04078341  0.39463837  1
  O2-  O272  1  0.91747392  0.03588177  0.73760020  1
  O2-  O273  1  0.91979261  0.55672947  0.05698438  1
  O2-  O274  1  0.92050986  0.54681616  0.39501593  1
  O2-  O275  1  0.92245851  0.54426378  0.73980333  1
  O2-  O276  1  0.29370375  0.16338675  0.06236980  1
  O2-  O277  1  0.29717177  0.16048944  0.39810713  1
  O2-  O278  1  0.29241180  0.16685140  0.72947820  1
  O2-  O279  1  0.29187232  0.66908029  0.06747310  1
  O2-  O280  1  0.28881648  0.67264865  0.40118425  1
  O2-  O281  1  0.28428579  0.65922097  0.73236224  1
  O2-  O282  1  0.79585695  0.15979118  0.06463012  1
  O2-  O283  1  0.79691136  0.16084418  0.39346637  1
  O2-  O284  1  0.80090219  0.17008064  0.73769979  1
  O2-  O285  1  0.79101153  0.66732444  0.06045973  1
  O2-  O286  1  0.79305890  0.67346070  0.39603302  1
  O2-  O287  1  0.79650964  0.66996897  0.73801486  1
