# generated using pymatgen
data_Ca2Al2SiO7
_symmetry_space_group_name_H-M   'P 1'
_cell_length_a   15.46122997
_cell_length_b   15.46241255
_cell_length_c   15.28643322
_cell_angle_alpha   90.00587779
_cell_angle_beta   89.99692255
_cell_angle_gamma   90.00711618
_symmetry_Int_Tables_number   1
_chemical_formula_structural   Ca2Al2SiO7
_chemical_formula_sum   'Ca48 Al48 Si24 O168'
_cell_volume   3654.49568405
_cell_formula_units_Z   24
loop_
 _symmetry_equiv_pos_site_id
 _symmetry_equiv_pos_as_xyz
  1  'x, y, z'
loop_
 _atom_type_symbol
 _atom_type_oxidation_number
  Ca2+  2.0
  Al0+  0.0
  Si0+  0.0
  O2-  -2.0
loop_
 _atom_site_type_symbol
 _atom_site_label
 _atom_site_symmetry_multiplicity
 _atom_site_fract_x
 _atom_site_fract_y
 _atom_site_fract_z
 _atom_site_occupancy
  Ca2+  Ca0  1  0.16671722  0.07562172  0.17255295  1
  Ca2+  Ca1  1  0.15916364  0.07676931  0.50436393  1
  Ca2+  Ca2  1  0.16400629  0.08776536  0.83306529  1
  Ca2+  Ca3  1  0.16931113  0.58028907  0.16953480  1
  Ca2+  Ca4  1  0.17886200  0.58147942  0.50208501  1
  Ca2+  Ca5  1  0.17825123  0.58254186  0.84348816  1
  Ca2+  Ca6  1  0.66510344  0.07822963  0.16503957  1
  Ca2+  Ca7  1  0.67394541  0.07238310  0.51165782  1
  Ca2+  Ca8  1  0.66504312  0.07405425  0.83984288  1
  Ca2+  Ca9  1  0.66978323  0.58297566  0.16502821  1
  Ca2+  Ca10  1  0.67680008  0.58542127  0.51023505  1
  Ca2+  Ca11  1  0.66668558  0.57589864  0.83485099  1
  Ca2+  Ca12  1  0.08040497  0.34265348  0.15961076  1
  Ca2+  Ca13  1  0.08160351  0.33241750  0.49980466  1
  Ca2+  Ca14  1  0.07263598  0.33630476  0.82731664  1
  Ca2+  Ca15  1  0.07431765  0.82876781  0.15997797  1
  Ca2+  Ca16  1  0.07586893  0.83145455  0.49019483  1
  Ca2+  Ca17  1  0.07887279  0.82620924  0.83410853  1
  Ca2+  Ca18  1  0.58573977  0.32784212  0.15556021  1
  Ca2+  Ca19  1  0.57935278  0.34397483  0.50474517  1
  Ca2+  Ca20  1  0.58509208  0.33545017  0.82614268  1
  Ca2+  Ca21  1  0.57773226  0.82538217  0.15777911  1
  Ca2+  Ca22  1  0.58266595  0.82690874  0.49738536  1
  Ca2+  Ca23  1  0.59244627  0.82234531  0.83056137  1
  Ca2+  Ca24  1  0.32232649  0.42961263  0.17107253  1
  Ca2+  Ca25  1  0.33375169  0.42555235  0.50714939  1
  Ca2+  Ca26  1  0.33166222  0.42406000  0.83952549  1
  Ca2+  Ca27  1  0.32777903  0.91378887  0.17530478  1
  Ca2+  Ca28  1  0.32862005  0.91079521  0.49872336  1
  Ca2+  Ca29  1  0.33303265  0.92022769  0.83738114  1
  Ca2+  Ca30  1  0.83144211  0.42168088  0.16850600  1
  Ca2+  Ca31  1  0.82964831  0.42858380  0.50960430  1
  Ca2+  Ca32  1  0.82797784  0.41243067  0.83671418  1
  Ca2+  Ca33  1  0.82987182  0.90581639  0.16700487  1
  Ca2+  Ca34  1  0.83022544  0.91936353  0.51060744  1
  Ca2+  Ca35  1  0.82498642  0.91989381  0.83613631  1
  Ca2+  Ca36  1  0.42439554  0.16905580  0.15914531  1
  Ca2+  Ca37  1  0.41706620  0.17562036  0.49941000  1
  Ca2+  Ca38  1  0.42389506  0.17589088  0.82846980  1
  Ca2+  Ca39  1  0.41328818  0.66711470  0.16222895  1
  Ca2+  Ca40  1  0.42214920  0.66254526  0.49777512  1
  Ca2+  Ca41  1  0.42808044  0.65392481  0.82996710  1
  Ca2+  Ca42  1  0.91979735  0.17655679  0.15791214  1
  Ca2+  Ca43  1  0.91370403  0.17072808  0.50454510  1
  Ca2+  Ca44  1  0.91731275  0.17853357  0.82481769  1
  Ca2+  Ca45  1  0.91992517  0.67258691  0.15949953  1
  Ca2+  Ca46  1  0.91004656  0.66928947  0.49226667  1
  Ca2+  Ca47  1  0.91752002  0.66667691  0.83132972  1
  Al0+  Al48  1  -0.00053905  0.00165685  -0.00359609  1
  Al0+  Al49  1  -0.00115101  0.00095599  0.33175056  1
  Al0+  Al50  1  -0.00045040  -0.00115046  0.66895357  1
  Al0+  Al51  1  0.00048999  0.50130804  -0.00578289  1
  Al0+  Al52  1  -0.00071826  0.49959172  0.34118228  1
  Al0+  Al53  1  0.00218374  0.50093891  0.66348108  1
  Al0+  Al54  1  0.50138190  0.00056496  0.00099833  1
  Al0+  Al55  1  0.49993357  -0.00099693  0.33017509  1
  Al0+  Al56  1  0.49636240  -0.00094698  0.66951857  1
  Al0+  Al57  1  0.49980243  0.50065282  0.00734248  1
  Al0+  Al58  1  0.49996745  0.49775024  0.33243957  1
  Al0+  Al59  1  0.50136613  0.50176349  0.66350088  1
  Al0+  Al60  1  0.25106559  0.25008715  0.00542990  1
  Al0+  Al61  1  0.25053955  0.24884555  0.33397067  1
  Al0+  Al62  1  0.25033641  0.24815523  0.65774572  1
  Al0+  Al63  1  0.24930855  0.75319299  -0.00028481  1
  Al0+  Al64  1  0.25035609  0.75016754  0.33822107  1
  Al0+  Al65  1  0.24986145  0.75026433  0.67129745  1
  Al0+  Al66  1  0.75086105  0.24779794  -0.00328457  1
  Al0+  Al67  1  0.75059594  0.24856770  0.33296592  1
  Al0+  Al68  1  0.75120596  0.24920613  0.66543385  1
  Al0+  Al69  1  0.74755944  0.75175189  -0.00296010  1
  Al0+  Al70  1  0.74826958  0.74990745  0.33193092  1
  Al0+  Al71  1  0.75001560  0.74947812  0.66947798  1
  Al0+  Al72  1  0.32167756  0.57321874  0.01613203  1
  Al0+  Al73  1  0.82247983  0.07061718  0.68270822  1
  Al0+  Al74  1  0.07009917  0.17824315  0.65029976  1
  Al0+  Al75  1  0.32231987  0.57133797  0.35057363  1
  Al0+  Al76  1  0.57067107  0.68137035  0.65278626  1
  Al0+  Al77  1  0.17710365  0.42879426  0.01278398  1
  Al0+  Al78  1  0.32052687  0.57078799  0.68159045  1
  Al0+  Al79  1  0.17780705  0.42692068  0.35116821  1
  Al0+  Al80  1  0.67953555  0.92850171  0.01675320  1
  Al0+  Al81  1  0.68011007  0.43054785  0.68010534  1
  Al0+  Al82  1  0.42915382  0.81991862  0.32014635  1
  Al0+  Al83  1  0.57107128  0.17874245  0.98572579  1
  Al0+  Al84  1  0.67616408  0.92888946  0.68183820  1
  Al0+  Al85  1  0.92680189  0.32348566  0.64825235  1
  Al0+  Al86  1  0.92779246  0.82204325  0.32042218  1
  Al0+  Al87  1  0.92741129  0.82236141  0.98241097  1
  Al0+  Al88  1  0.17797358  0.93064738  0.34621787  1
  Al0+  Al89  1  0.43107776  0.32114659  0.65362328  1
  Al0+  Al90  1  0.93003458  0.32187055  0.98787023  1
  Al0+  Al91  1  0.82504095  0.57244524  0.68319533  1
  Al0+  Al92  1  0.81786950  0.57142639  0.34418032  1
  Al0+  Al93  1  0.68052519  0.42695330  0.01346976  1
  Al0+  Al94  1  0.07220918  0.67943617  0.98480337  1
  Al0+  Al95  1  0.56850177  0.67781090  0.98651983  1
  Si0+  Si96  1  0.57095207  0.17888677  0.31864194  1
  Si0+  Si97  1  0.67847084  0.92990327  0.34715026  1
  Si0+  Si98  1  0.07515804  0.67932581  0.65000734  1
  Si0+  Si99  1  0.92963868  0.32107485  0.31819458  1
  Si0+  Si100  1  0.93118272  0.81786450  0.65207957  1
  Si0+  Si101  1  0.42720024  0.82335551  0.98337998  1
  Si0+  Si102  1  0.82182767  0.57266896  0.01515788  1
  Si0+  Si103  1  0.57162157  0.17478341  0.64980432  1
  Si0+  Si104  1  0.42482441  0.82396620  0.65039429  1
  Si0+  Si105  1  0.17851388  0.92899248  0.68322849  1
  Si0+  Si106  1  0.67893092  0.42404765  0.34873623  1
  Si0+  Si107  1  0.82253042  0.07082043  0.01825387  1
  Si0+  Si108  1  0.57194126  0.67680938  0.31546969  1
  Si0+  Si109  1  0.42820373  0.32121335  0.31576706  1
  Si0+  Si110  1  0.07105668  0.67762635  0.31930708  1
  Si0+  Si111  1  0.42842560  0.32102624  0.98610560  1
  Si0+  Si112  1  0.07116906  0.17849714  0.31712134  1
  Si0+  Si113  1  0.17780661  0.93122111  0.01471062  1
  Si0+  Si114  1  0.31979104  0.07266116  0.68146405  1
  Si0+  Si115  1  0.32393586  0.07100409  0.35066212  1
  Si0+  Si116  1  0.82054211  0.07232712  0.34763085  1
  Si0+  Si117  1  0.18033605  0.42548547  0.68225441  1
  Si0+  Si118  1  0.07474931  0.17836623  0.98547959  1
  Si0+  Si119  1  0.32189752  0.07099806  0.01539342  1
  O2-  O120  1  0.24977928  0.00118028  0.05731225  1
  O2-  O121  1  0.25320446  0.00442318  0.39491061  1
  O2-  O122  1  0.24934496  0.00119840  0.72399010  1
  O2-  O123  1  0.24611632  0.50333296  0.06345108  1
  O2-  O124  1  0.25225314  0.49690867  0.40014728  1
  O2-  O125  1  0.24618546  0.49572765  0.72756295  1
  O2-  O126  1  0.75692858  0.00020404  0.06498094  1
  O2-  O127  1  0.75232833  -0.00198536  0.38878063  1
  O2-  O128  1  0.74470908  0.00444723  0.73156199  1
  O2-  O129  1  0.75512588  0.50193975  0.06017171  1
  O2-  O130  1  0.74315148  0.49708440  0.39089292  1
  O2-  O131  1  0.75677425  0.49624461  0.73163400  1
  O2-  O132  1  0.00431889  0.25349452  0.27533655  1
  O2-  O133  1  -0.00068221  0.25049232  0.59885022  1
  O2-  O134  1  0.00930889  0.25032414  0.94362555  1
  O2-  O135  1  0.00220844  0.74651235  0.27502655  1
  O2-  O136  1  -0.00095465  0.74503716  0.60766666  1
  O2-  O137  1  -0.00241212  0.74829927  0.93313796  1
  O2-  O138  1  0.50168921  0.25136644  0.27536543  1
  O2-  O139  1  0.50737436  0.24744977  0.60489079  1
  O2-  O140  1  0.49990128  0.25654337  0.93992467  1
  O2-  O141  1  0.49929873  0.74204855  0.27231788  1
  O2-  O142  1  0.49612497  0.75764638  0.60746042  1
  O2-  O143  1  0.49190362  0.75141602  0.93987544  1
  O2-  O144  1  0.07310621  0.17447524  0.09139264  1
  O2-  O145  1  0.06855744  0.17499413  0.42165664  1
  O2-  O146  1  0.07183732  0.17982438  0.76400320  1
  O2-  O147  1  0.07214187  0.68243703  0.09899995  1
  O2-  O148  1  0.06973324  0.68078653  0.42521416  1
  O2-  O149  1  0.07866820  0.68423531  0.75473320  1
  O2-  O150  1  0.56822317  0.17825032  0.09976059  1
  O2-  O151  1  0.56998770  0.17659117  0.42339722  1
  O2-  O152  1  0.56636224  0.17230830  0.75512712  1
  O2-  O153  1  0.56901383  0.68056965  0.10000931  1
  O2-  O154  1  0.57457898  0.68010758  0.42097791  1
  O2-  O155  1  0.56916900  0.68006505  0.76564272  1
  O2-  O156  1  0.17750642  0.42843326  0.23764606  1
  O2-  O157  1  0.18368854  0.42639097  0.57652705  1
  O2-  O158  1  0.18126592  0.42441573  0.89950175  1
  O2-  O159  1  0.17848661  0.93419955  0.23297494  1
  O2-  O160  1  0.17831723  0.92845793  0.57801623  1
  O2-  O161  1  0.17929896  0.93288589  0.90944743  1
  O2-  O162  1  0.68193598  0.41902791  0.24315477  1
  O2-  O163  1  0.67883808  0.43545431  0.56589653  1
  O2-  O164  1  0.68009322  0.42636099  0.90115422  1
  O2-  O165  1  0.67781250  0.93148654  0.24214768  1
  O2-  O166  1  0.67831409  0.92920575  0.56699378  1
  O2-  O167  1  0.67724396  0.93146468  0.90440955  1
  O2-  O168  1  0.42859019  0.31509797  0.09195734  1
  O2-  O169  1  0.42889949  0.32047191  0.42097203  1
  O2-  O170  1  0.42934843  0.31783354  0.76659707  1
  O2-  O171  1  0.42786205  0.82535200  0.08930611  1
  O2-  O172  1  0.43408788  0.82451558  0.43288725  1
  O2-  O173  1  0.42141174  0.82590327  0.75562472  1
  O2-  O174  1  0.92960837  0.31934022  0.10202008  1
  O2-  O175  1  0.92653028  0.31765173  0.42255644  1
  O2-  O176  1  0.92954704  0.32249028  0.76183861  1
  O2-  O177  1  0.93074308  0.82124502  0.09662051  1
  O2-  O178  1  0.92828367  0.82331170  0.43385078  1
  O2-  O179  1  0.93435976  0.81892970  0.75681186  1
  O2-  O180  1  0.32399586  0.07049460  0.24476477  1
  O2-  O181  1  0.32165099  0.07162896  0.57642457  1
  O2-  O182  1  0.32137320  0.07175116  0.91024232  1
  O2-  O183  1  0.32083902  0.57113597  0.23730649  1
  O2-  O184  1  0.31929889  0.57147711  0.56852020  1
  O2-  O185  1  0.32273280  0.56938271  0.90254560  1
  O2-  O186  1  0.81835000  0.07743961  0.24279834  1
  O2-  O187  1  0.82229494  0.06490952  0.56787574  1
  O2-  O188  1  0.82148186  0.07012399  0.91333356  1
  O2-  O189  1  0.81829241  0.57011478  0.23093345  1
  O2-  O190  1  0.82053609  0.57515036  0.56904895  1
  O2-  O191  1  0.82064307  0.57201512  0.91005842  1
  O2-  O192  1  0.03914036  0.08917879  0.26685575  1
  O2-  O193  1  0.04038120  0.07832668  0.59889882  1
  O2-  O194  1  0.04794550  0.08653213  0.93685975  1
  O2-  O195  1  0.04461406  0.58341188  0.27524083  1
  O2-  O196  1  0.05565939  0.58557704  0.60383736  1
  O2-  O197  1  0.04905787  0.58127982  0.93012961  1
  O2-  O198  1  0.54135676  0.08831471  0.26908274  1
  O2-  O199  1  0.53939196  0.08299505  0.60235078  1
  O2-  O200  1  0.53500342  0.08401029  0.93191214  1
  O2-  O201  1  0.55224145  0.58050640  0.27229679  1
  O2-  O202  1  0.53876698  0.58698777  0.59558054  1
  O2-  O203  1  0.53862633  0.57989561  0.93467235  1
  O2-  O204  1  0.16602433  0.19900858  0.27166921  1
  O2-  O205  1  0.16861741  0.20189086  0.59432475  1
  O2-  O206  1  0.17046280  0.19923003  0.94164031  1
  O2-  O207  1  0.16476602  0.70410135  0.27504035  1
  O2-  O208  1  0.16437571  0.71458835  0.60148209  1
  O2-  O209  1  0.16880868  0.71424870  0.93066654  1
  O2-  O210  1  0.66334769  0.20544262  0.27090633  1
  O2-  O211  1  0.66700072  0.19388054  0.60561066  1
  O2-  O212  1  0.66822510  0.20347566  0.93238046  1
  O2-  O213  1  0.66282016  0.70795253  0.26719438  1
  O2-  O214  1  0.66732707  0.71362239  0.59816923  1
  O2-  O215  1  0.66380405  0.71022034  0.93246453  1
  O2-  O216  1  0.07762435  0.45616934  0.06483613  1
  O2-  O217  1  0.08027909  0.45465628  0.40557769  1
  O2-  O218  1  0.08520497  0.44928565  0.72417635  1
  O2-  O219  1  0.08638955  0.96083440  0.06212113  1
  O2-  O220  1  0.08178424  0.96376455  0.40067056  1
  O2-  O221  1  0.08815183  0.95721750  0.73213517  1
  O2-  O222  1  0.58469256  0.45634646  0.07018328  1
  O2-  O223  1  0.58287421  0.44480328  0.39067740  1
  O2-  O224  1  0.58285530  0.46217347  0.73255758  1
  O2-  O225  1  0.58349505  0.96350357  0.07097824  1
  O2-  O226  1  0.58800528  0.96148174  0.39466652  1
  O2-  O227  1  0.57585312  0.95253223  0.73320479  1
  O2-  O228  1  0.20603907  0.33075721  0.06905960  1
  O2-  O229  1  0.20380756  0.32592644  0.40031006  1
  O2-  O230  1  0.20704338  0.33098767  0.72490331  1
  O2-  O231  1  0.20462936  0.84021788  0.06318375  1
  O2-  O232  1  0.20706976  0.83513576  0.40238932  1
  O2-  O233  1  0.20838921  0.83931944  0.73296336  1
  O2-  O234  1  0.71140989  0.32949194  0.06708321  1
  O2-  O235  1  0.70713469  0.33205911  0.39693356  1
  O2-  O236  1  0.69945200  0.32807443  0.72768588  1
  O2-  O237  1  0.70826492  0.83131781  0.07106732  1
  O2-  O238  1  0.70338040  0.83733672  0.39349857  1
  O2-  O239  1  0.70998431  0.83315594  0.73461581  1
  O2-  O240  1  0.45395930  0.41303617  0.26769796  1
  O2-  O241  1  0.46286111  0.41584650  0.59632122  1
  O2-  O242  1  0.45024014  0.41637160  0.94462202  1
  O2-  O243  1  0.46033926  0.91632962  0.26408435  1
  O2-  O244  1  0.44577877  0.91900790  0.60428584  1
  O2-  O245  1  0.45553467  0.91627735  0.93760613  1
  O2-  O246  1  0.95495477  0.41457289  0.27327445  1
  O2-  O247  1  0.95656219  0.42220159  0.59533346  1
  O2-  O248  1  0.95489300  0.41803128  0.93179091  1
  O2-  O249  1  0.95775757  0.91871158  0.26563029  1
  O2-  O250  1  0.96198490  0.90907896  0.60498304  1
  O2-  O251  1  0.95919988  0.92033952  0.93039931  1
  O2-  O252  1  0.33708852  0.29041891  0.26856008  1
  O2-  O253  1  0.33770548  0.28629339  0.59530692  1
  O2-  O254  1  0.33625103  0.29036823  0.93988660  1
  O2-  O255  1  0.32994944  0.79391284  0.26825571  1
  O2-  O256  1  0.33174081  0.79538277  0.60409539  1
  O2-  O257  1  0.33174278  0.80547471  0.93859683  1
  O2-  O258  1  0.83885184  0.28866966  0.27014289  1
  O2-  O259  1  0.82850004  0.29401880  0.59388837  1
  O2-  O260  1  0.83660389  0.28526028  0.93278561  1
  O2-  O261  1  0.83105856  0.79126489  0.26655427  1
  O2-  O262  1  0.83816169  0.79359241  0.60554967  1
  O2-  O263  1  0.82805784  0.79793330  0.93177849  1
  O2-  O264  1  0.41236883  0.04181528  0.06449229  1
  O2-  O265  1  0.41684309  0.04317145  0.39685416  1
  O2-  O266  1  0.41016359  0.04527813  0.73197584  1
  O2-  O267  1  0.41742759  0.54300593  0.07301267  1
  O2-  O268  1  0.42255045  0.54216706  0.40062568  1
  O2-  O269  1  0.41708977  0.53783998  0.73214517  1
  O2-  O270  1  0.91818274  0.04909865  0.06316950  1
  O2-  O271  1  0.91289107  0.04684738  0.39375625  1
  O2-  O272  1  0.91863862  0.03766210  0.73682911  1
  O2-  O273  1  0.91645712  0.54912132  0.05965792  1
  O2-  O274  1  0.91349390  0.54325524  0.40049923  1
  O2-  O275  1  0.92716891  0.55120910  0.73108606  1
  O2-  O276  1  0.29607546  0.16173263  0.06632803  1
  O2-  O277  1  0.30036487  0.16523805  0.39551053  1
  O2-  O278  1  0.29038793  0.16370797  0.72913668  1
  O2-  O279  1  0.29497611  0.67408749  0.06559559  1
  O2-  O280  1  0.29472149  0.66937053  0.40440788  1
  O2-  O281  1  0.29008136  0.66733295  0.73573490  1
  O2-  O282  1  0.79327330  0.16293310  0.06565225  1
  O2-  O283  1  0.78925863  0.16200728  0.39767535  1
  O2-  O284  1  0.80153344  0.17174438  0.73084169  1
  O2-  O285  1  0.79310803  0.66563441  0.06080953  1
  O2-  O286  1  0.78669472  0.66792362  0.39958701  1
  O2-  O287  1  0.79379156  0.66924012  0.73597973  1
