# generated using pymatgen
data_Ca2Al2SiO7
_symmetry_space_group_name_H-M   'P 1'
_cell_length_a   15.45846076
_cell_length_b   15.46015335
_cell_length_c   15.28407402
_cell_angle_alpha   90.00038551
_cell_angle_beta   89.98593133
_cell_angle_gamma   89.99124933
_symmetry_Int_Tables_number   1
_chemical_formula_structural   Ca2Al2SiO7
_chemical_formula_sum   'Ca48 Al48 Si24 O168'
_cell_volume   3652.74335487
_cell_formula_units_Z   24
loop_
 _symmetry_equiv_pos_site_id
 _symmetry_equiv_pos_as_xyz
  1  'x, y, z'
loop_
 _atom_type_symbol
 _atom_type_oxidation_number
  Ca2+  2.0
  Al0+  0.0
  Si0+  0.0
  O2-  -2.0
loop_
 _atom_site_type_symbol
 _atom_site_label
 _atom_site_symmetry_multiplicity
 _atom_site_fract_x
 _atom_site_fract_y
 _atom_site_fract_z
 _atom_site_occupancy
  Ca2+  Ca0  1  0.17142741  0.07657385  0.17437398  1
  Ca2+  Ca1  1  0.17963406  0.08449627  0.50556739  1
  Ca2+  Ca2  1  0.17475674  0.07279704  0.83378441  1
  Ca2+  Ca3  1  0.16624640  0.58264959  0.17224368  1
  Ca2+  Ca4  1  0.16600064  0.57857487  0.50571374  1
  Ca2+  Ca5  1  0.16848249  0.57552062  0.83217982  1
  Ca2+  Ca6  1  0.67686914  0.08868150  0.17415148  1
  Ca2+  Ca7  1  0.66495556  0.09098420  0.50009149  1
  Ca2+  Ca8  1  0.67071488  0.08788032  0.83449378  1
  Ca2+  Ca9  1  0.67613109  0.58000190  0.17648346  1
  Ca2+  Ca10  1  0.67335939  0.58212598  0.50511930  1
  Ca2+  Ca11  1  0.67458314  0.59076499  0.83595433  1
  Ca2+  Ca12  1  0.08329751  0.32241970  0.16745069  1
  Ca2+  Ca13  1  0.07909701  0.33314334  0.49683194  1
  Ca2+  Ca14  1  0.07689421  0.33429059  0.82442642  1
  Ca2+  Ca15  1  0.07995335  0.82838560  0.16037690  1
  Ca2+  Ca16  1  0.08624451  0.82852433  0.49487307  1
  Ca2+  Ca17  1  0.08150166  0.83970972  0.83312100  1
  Ca2+  Ca18  1  0.57881334  0.33471001  0.16762478  1
  Ca2+  Ca19  1  0.57523895  0.32532868  0.49323061  1
  Ca2+  Ca20  1  0.57372345  0.32701185  0.82456397  1
  Ca2+  Ca21  1  0.57034542  0.84054588  0.16515077  1
  Ca2+  Ca22  1  0.57351127  0.83043343  0.49981634  1
  Ca2+  Ca23  1  0.57321197  0.83144775  0.82437488  1
  Ca2+  Ca24  1  0.33758358  0.41323597  0.17160167  1
  Ca2+  Ca25  1  0.32828504  0.40785052  0.50691925  1
  Ca2+  Ca26  1  0.33126428  0.40713869  0.83424972  1
  Ca2+  Ca27  1  0.33182487  0.91669182  0.17407996  1
  Ca2+  Ca28  1  0.33539637  0.92506689  0.50786910  1
  Ca2+  Ca29  1  0.32896908  0.91352661  0.83526243  1
  Ca2+  Ca30  1  0.82466908  0.42614368  0.17738670  1
  Ca2+  Ca31  1  0.82969371  0.42325253  0.50532666  1
  Ca2+  Ca32  1  0.83432706  0.42697784  0.83606029  1
  Ca2+  Ca33  1  0.83525676  0.92307706  0.16854688  1
  Ca2+  Ca34  1  0.83348050  0.92488423  0.50127727  1
  Ca2+  Ca35  1  0.83127392  0.92171581  0.84413070  1
  Ca2+  Ca36  1  0.41782922  0.17427535  0.16774053  1
  Ca2+  Ca37  1  0.42155345  0.16764536  0.49250084  1
  Ca2+  Ca38  1  0.41933928  0.17213378  0.82308110  1
  Ca2+  Ca39  1  0.41579611  0.67949097  0.16130437  1
  Ca2+  Ca40  1  0.41376981  0.67902034  0.49647289  1
  Ca2+  Ca41  1  0.42325783  0.67681372  0.82532624  1
  Ca2+  Ca42  1  0.92071407  0.15559097  0.16438481  1
  Ca2+  Ca43  1  0.92213449  0.17206581  0.49243534  1
  Ca2+  Ca44  1  0.91658711  0.17215703  0.82633808  1
  Ca2+  Ca45  1  0.91784611  0.66569597  0.16335451  1
  Ca2+  Ca46  1  0.92012823  0.66198120  0.49501955  1
  Ca2+  Ca47  1  0.91037720  0.67033544  0.82944509  1
  Al0+  Al48  1  0.00259315  -0.00290402  0.00235885  1
  Al0+  Al49  1  -0.00076820  -0.00135270  0.33478852  1
  Al0+  Al50  1  0.00070369  0.00033797  0.66920220  1
  Al0+  Al51  1  0.00160490  0.49821504  0.00539364  1
  Al0+  Al52  1  0.00106591  0.50019898  0.33077047  1
  Al0+  Al53  1  -0.00055347  0.50108509  0.67206767  1
  Al0+  Al54  1  0.50003330  0.00208731  -0.00504331  1
  Al0+  Al55  1  0.50021142  0.00161098  0.32791038  1
  Al0+  Al56  1  0.50203923  0.00047450  0.66476554  1
  Al0+  Al57  1  0.49865741  0.49911010  -0.00516061  1
  Al0+  Al58  1  0.49967886  0.50191232  0.33485098  1
  Al0+  Al59  1  0.50173761  0.49948085  0.66049748  1
  Al0+  Al60  1  0.24922120  0.24777959  -0.00321760  1
  Al0+  Al61  1  0.24810049  0.24821661  0.32886027  1
  Al0+  Al62  1  0.24766273  0.24795970  0.67504228  1
  Al0+  Al63  1  0.24900727  0.74759757  -0.00145694  1
  Al0+  Al64  1  0.24762972  0.74811895  0.32487294  1
  Al0+  Al65  1  0.24785349  0.74850467  0.66838387  1
  Al0+  Al66  1  0.75133103  0.25146701  0.00467691  1
  Al0+  Al67  1  0.74930288  0.25201328  0.33823724  1
  Al0+  Al68  1  0.75045382  0.25387692  0.66009759  1
  Al0+  Al69  1  0.75144100  0.75136653  0.00365841  1
  Al0+  Al70  1  0.74995107  0.75168389  0.33806430  1
  Al0+  Al71  1  0.75091215  0.75235315  0.66581296  1
  Al0+  Al72  1  0.06948525  0.17775990  0.32046429  1
  Al0+  Al73  1  0.17822589  0.92617686  0.68133544  1
  Al0+  Al74  1  0.93059952  0.81928358  0.98674755  1
  Al0+  Al75  1  0.18014342  0.42893959  0.67964452  1
  Al0+  Al76  1  0.67577707  0.42954068  0.35144827  1
  Al0+  Al77  1  0.42651405  0.81965733  0.65127111  1
  Al0+  Al78  1  0.42496628  0.31999611  0.65163477  1
  Al0+  Al79  1  0.57175685  0.17897960  0.65104207  1
  Al0+  Al80  1  0.82232563  0.07062963  0.34861860  1
  Al0+  Al81  1  0.82231737  0.57177975  0.35037914  1
  Al0+  Al82  1  0.93056261  0.32354111  0.65377319  1
  Al0+  Al83  1  0.42946902  0.82065157  0.31914715  1
  Al0+  Al84  1  0.18202868  0.92752859  0.01614441  1
  Al0+  Al85  1  0.42754941  0.32220472  0.31848786  1
  Al0+  Al86  1  0.32407606  0.06990390  0.68245985  1
  Al0+  Al87  1  0.42780045  0.82225432  0.98493747  1
  Al0+  Al88  1  0.32000473  0.07021016  0.34495063  1
  Al0+  Al89  1  0.81942423  0.57136224  0.68201146  1
  Al0+  Al90  1  0.82112505  0.57236744  0.01568541  1
  Al0+  Al91  1  0.82060199  0.07137822  0.01206497  1
  Al0+  Al92  1  0.57448941  0.67919658  0.65125476  1
  Al0+  Al93  1  0.57300646  0.17950363  0.31538093  1
  Al0+  Al94  1  0.42906586  0.32014699  0.98408804  1
  Al0+  Al95  1  0.06908366  0.67811097  0.31964603  1
  Si0+  Si96  1  0.57577243  0.17991266  0.98333863  1
  Si0+  Si97  1  0.67688801  0.42943752  0.01581918  1
  Si0+  Si98  1  0.17924253  0.42617837  0.01735621  1
  Si0+  Si99  1  0.57331176  0.67902415  0.31682145  1
  Si0+  Si100  1  0.92864255  0.32206419  0.31615780  1
  Si0+  Si101  1  0.32267962  0.07255810  0.01779804  1
  Si0+  Si102  1  0.92995665  0.32109316  0.98711173  1
  Si0+  Si103  1  0.32402819  0.57213355  0.68211539  1
  Si0+  Si104  1  0.06997919  0.17711966  0.98350908  1
  Si0+  Si105  1  0.82147780  0.07333739  0.68024494  1
  Si0+  Si106  1  0.32061389  0.56853503  0.01392608  1
  Si0+  Si107  1  0.67627606  0.92858657  0.01599014  1
  Si0+  Si108  1  0.17875834  0.92556476  0.34867946  1
  Si0+  Si109  1  0.68141560  0.92992632  0.68126649  1
  Si0+  Si110  1  0.67765628  0.42760593  0.68470571  1
  Si0+  Si111  1  0.92905201  0.82373910  0.65207576  1
  Si0+  Si112  1  0.67643339  0.92922151  0.35109596  1
  Si0+  Si113  1  0.07154174  0.67440406  0.98057451  1
  Si0+  Si114  1  0.06856245  0.67903561  0.65431978  1
  Si0+  Si115  1  0.31981727  0.57334922  0.34618963  1
  Si0+  Si116  1  0.92640886  0.82244260  0.31746822  1
  Si0+  Si117  1  0.57160911  0.67869132  0.98570901  1
  Si0+  Si118  1  0.06962959  0.17669436  0.65139396  1
  Si0+  Si119  1  0.18084460  0.42853049  0.34621299  1
  O2-  O120  1  0.25998043  -0.00140653  0.06265927  1
  O2-  O121  1  0.24703493  -0.00616066  0.39247713  1
  O2-  O122  1  0.25439556  -0.00591902  0.73099166  1
  O2-  O123  1  0.25139214  0.49635351  0.05832229  1
  O2-  O124  1  0.25403693  0.49736370  0.38811457  1
  O2-  O125  1  0.26086236  0.49774706  0.72667811  1
  O2-  O126  1  0.74388527  -0.00109569  0.05922343  1
  O2-  O127  1  0.74533476  -0.00165283  0.39530816  1
  O2-  O128  1  0.75017638  0.00354482  0.72342650  1
  O2-  O129  1  0.74441769  0.49926182  0.06037394  1
  O2-  O130  1  0.74915100  0.50150094  0.40014196  1
  O2-  O131  1  0.74213611  0.50005690  0.73035422  1
  O2-  O132  1  -0.00884159  0.24793768  0.27080578  1
  O2-  O133  1  0.00366410  0.24761742  0.60700292  1
  O2-  O134  1  -0.00181506  0.24837687  0.94272156  1
  O2-  O135  1  -0.00754746  0.75086502  0.27402656  1
  O2-  O136  1  0.00186250  0.75391434  0.61189944  1
  O2-  O137  1  0.00101733  0.74153307  0.93702994  1
  O2-  O138  1  0.50164981  0.25313657  0.26682576  1
  O2-  O139  1  0.49578304  0.24728753  0.60213379  1
  O2-  O140  1  0.50409385  0.24532865  0.93954304  1
  O2-  O141  1  0.50499317  0.74705229  0.27091534  1
  O2-  O142  1  0.49661435  0.74528498  0.60179417  1
  O2-  O143  1  0.50593956  0.74989536  0.94080441  1
  O2-  O144  1  0.07041707  0.17871352  0.08878673  1
  O2-  O145  1  0.07023974  0.18187092  0.43333923  1
  O2-  O146  1  0.06510220  0.17576270  0.75751493  1
  O2-  O147  1  0.07174307  0.67413610  0.08621808  1
  O2-  O148  1  0.07133745  0.67877937  0.43309108  1
  O2-  O149  1  0.06641864  0.67662442  0.75935911  1
  O2-  O150  1  0.57848619  0.18115265  0.08835107  1
  O2-  O151  1  0.56974852  0.17855241  0.42838159  1
  O2-  O152  1  0.57574967  0.18203034  0.76528892  1
  O2-  O153  1  0.56798818  0.67698245  0.09121923  1
  O2-  O154  1  0.57184351  0.68126468  0.42202871  1
  O2-  O155  1  0.57605530  0.68543529  0.76558565  1
  O2-  O156  1  0.18024981  0.42962224  0.24065596  1
  O2-  O157  1  0.17672822  0.43286402  0.56640194  1
  O2-  O158  1  0.17658464  0.42719244  0.91239183  1
  O2-  O159  1  0.17968195  0.92579345  0.24279932  1
  O2-  O160  1  0.17475732  0.92766720  0.56787781  1
  O2-  O161  1  0.18079909  0.93046984  0.90337313  1
  O2-  O162  1  0.67751855  0.43305081  0.23661758  1
  O2-  O163  1  0.68192002  0.42672535  0.57983565  1
  O2-  O164  1  0.67883832  0.42825666  0.91035457  1
  O2-  O165  1  0.67782434  0.92759869  0.24523634  1
  O2-  O166  1  0.68462732  0.92744308  0.57647707  1
  O2-  O167  1  0.67817896  0.92744899  0.91018083  1
  O2-  O168  1  0.42889650  0.32120381  0.09675735  1
  O2-  O169  1  0.42311449  0.31890175  0.43116118  1
  O2-  O170  1  0.42812410  0.31785134  0.76580977  1
  O2-  O171  1  0.42807940  0.82018808  0.09825757  1
  O2-  O172  1  0.42761716  0.81883581  0.43167500  1
  O2-  O173  1  0.42862966  0.81780497  0.76519145  1
  O2-  O174  1  0.93249991  0.32140498  0.09190420  1
  O2-  O175  1  0.93465437  0.32450300  0.42164765  1
  O2-  O176  1  0.93129564  0.32138150  0.76787071  1
  O2-  O177  1  0.93288793  0.81950965  0.09957791  1
  O2-  O178  1  0.92873825  0.82458106  0.42336130  1
  O2-  O179  1  0.92730750  0.82449135  0.75726082  1
  O2-  O180  1  0.31723794  0.06950304  0.23150406  1
  O2-  O181  1  0.32123531  0.07068879  0.56867877  1
  O2-  O182  1  0.31948014  0.07423704  0.91250759  1
  O2-  O183  1  0.31673995  0.57493207  0.24064549  1
  O2-  O184  1  0.31755925  0.57673195  0.57663905  1
  O2-  O185  1  0.31873939  0.56806693  0.90899292  1
  O2-  O186  1  0.82375188  0.06568952  0.23525869  1
  O2-  O187  1  0.82406156  0.06997861  0.57550419  1
  O2-  O188  1  0.81925406  0.07214383  0.89840053  1
  O2-  O189  1  0.82160203  0.57010935  0.23635509  1
  O2-  O190  1  0.82242580  0.57017067  0.56964183  1
  O2-  O191  1  0.82095440  0.57097482  0.90244063  1
  O2-  O192  1  0.04097996  0.07993013  0.26675215  1
  O2-  O193  1  0.04181791  0.08462974  0.60377553  1
  O2-  O194  1  0.04194402  0.08578016  0.93671759  1
  O2-  O195  1  0.04161679  0.58168617  0.26254567  1
  O2-  O196  1  0.03653841  0.58952448  0.60556479  1
  O2-  O197  1  0.04795602  0.57878902  0.93731952  1
  O2-  O198  1  0.54584156  0.08158290  0.26084969  1
  O2-  O199  1  0.55097556  0.07869264  0.59958046  1
  O2-  O200  1  0.55454252  0.08509602  0.93754315  1
  O2-  O201  1  0.54826062  0.58562847  0.27082429  1
  O2-  O202  1  0.55565194  0.57841121  0.60114305  1
  O2-  O203  1  0.54427944  0.58685908  0.93663604  1
  O2-  O204  1  0.16201964  0.21269296  0.26133994  1
  O2-  O205  1  0.16438690  0.20115561  0.60960187  1
  O2-  O206  1  0.16051545  0.20696189  0.93535092  1
  O2-  O207  1  0.16293237  0.70903831  0.25997922  1
  O2-  O208  1  0.16132442  0.70153191  0.60661904  1
  O2-  O209  1  0.16454494  0.70083582  0.93438752  1
  O2-  O210  1  0.67340935  0.20779326  0.26551700  1
  O2-  O211  1  0.66895795  0.20962226  0.59701914  1
  O2-  O212  1  0.66884019  0.20882535  0.93669266  1
  O2-  O213  1  0.66779339  0.70500570  0.27204515  1
  O2-  O214  1  0.67007980  0.71500545  0.59680110  1
  O2-  O215  1  0.66678517  0.70269868  0.94268230  1
  O2-  O216  1  0.08894819  0.45450982  0.06760736  1
  O2-  O217  1  0.08991634  0.45924237  0.39325931  1
  O2-  O218  1  0.08728439  0.46712544  0.73775596  1
  O2-  O219  1  0.08660483  0.96103459  0.07062813  1
  O2-  O220  1  0.08433268  0.94849124  0.39335690  1
  O2-  O221  1  0.08084203  0.95938975  0.73648753  1
  O2-  O222  1  0.58216914  0.45451909  0.05995801  1
  O2-  O223  1  0.57710388  0.45780433  0.40383073  1
  O2-  O224  1  0.58154887  0.44811639  0.72822871  1
  O2-  O225  1  0.58164114  0.95354540  0.06062533  1
  O2-  O226  1  0.58303056  0.95544773  0.39603025  1
  O2-  O227  1  0.58937680  0.95498414  0.72931279  1
  O2-  O228  1  0.20632209  0.33330335  0.06309792  1
  O2-  O229  1  0.20552696  0.33640169  0.39339531  1
  O2-  O230  1  0.20145668  0.33205872  0.73791016  1
  O2-  O231  1  0.20707419  0.82772727  0.06725994  1
  O2-  O232  1  0.20427435  0.83075666  0.39217375  1
  O2-  O233  1  0.20013929  0.82621038  0.73515659  1
  O2-  O234  1  0.70481754  0.33749014  0.06413959  1
  O2-  O235  1  0.70354316  0.33157742  0.40412609  1
  O2-  O236  1  0.70939987  0.33573047  0.73190005  1
  O2-  O237  1  0.70276517  0.83655281  0.06461956  1
  O2-  O238  1  0.70237342  0.83651641  0.39911102  1
  O2-  O239  1  0.71316600  0.84079193  0.73163804  1
  O2-  O240  1  0.45242295  0.42351154  0.26762678  1
  O2-  O241  1  0.44846643  0.42019791  0.60084399  1
  O2-  O242  1  0.45664540  0.41744760  0.92908415  1
  O2-  O243  1  0.46029090  0.91580471  0.26284396  1
  O2-  O244  1  0.45909709  0.91706604  0.60051810  1
  O2-  O245  1  0.45501909  0.92000861  0.93144894  1
  O2-  O246  1  0.96115965  0.41243849  0.26724603  1
  O2-  O247  1  0.96512213  0.41902748  0.60079920  1
  O2-  O248  1  0.96166497  0.41198959  0.93950003  1
  O2-  O249  1  0.95498412  0.91423487  0.26971205  1
  O2-  O250  1  0.95631402  0.91558632  0.60420835  1
  O2-  O251  1  0.96434723  0.91507216  0.93191130  1
  O2-  O252  1  0.33018077  0.29157510  0.26326391  1
  O2-  O253  1  0.32309211  0.29474659  0.60503175  1
  O2-  O254  1  0.33115567  0.28946484  0.93202074  1
  O2-  O255  1  0.33456787  0.78644073  0.26323113  1
  O2-  O256  1  0.32694534  0.79178518  0.60006541  1
  O2-  O257  1  0.33257525  0.78583511  0.93226639  1
  O2-  O258  1  0.83249366  0.30348484  0.27450009  1
  O2-  O259  1  0.83565581  0.29491146  0.59766894  1
  O2-  O260  1  0.83690418  0.29654486  0.94068739  1
  O2-  O261  1  0.83127507  0.80074616  0.27288034  1
  O2-  O262  1  0.83902370  0.79517325  0.60298508  1
  O2-  O263  1  0.83154202  0.79347267  0.93384610  1
  O2-  O264  1  0.41994095  0.05424047  0.05889197  1
  O2-  O265  1  0.41783880  0.04102597  0.39597268  1
  O2-  O266  1  0.42410139  0.04548402  0.73442797  1
  O2-  O267  1  0.41331379  0.54277844  0.06076837  1
  O2-  O268  1  0.41347898  0.55492520  0.39231171  1
  O2-  O269  1  0.42058944  0.55397510  0.72476442  1
  O2-  O270  1  0.91635073  0.03707371  0.06524001  1
  O2-  O271  1  0.91756762  0.03666213  0.40463856  1
  O2-  O272  1  0.91232709  0.04479239  0.72936734  1
  O2-  O273  1  0.91812014  0.53969392  0.06830568  1
  O2-  O274  1  0.92194091  0.54116527  0.40005643  1
  O2-  O275  1  0.91423278  0.53829217  0.73842362  1
  O2-  O276  1  0.28929607  0.16405212  0.06409708  1
  O2-  O277  1  0.28438016  0.16563153  0.39812336  1
  O2-  O278  1  0.28999311  0.16487500  0.73969968  1
  O2-  O279  1  0.29040360  0.65915838  0.06249472  1
  O2-  O280  1  0.28415794  0.66229485  0.39453160  1
  O2-  O281  1  0.29089430  0.66176829  0.73247203  1
  O2-  O282  1  0.79464928  0.16850367  0.06819303  1
  O2-  O283  1  0.79774308  0.16915391  0.40052250  1
  O2-  O284  1  0.79438740  0.16640691  0.72567528  1
  O2-  O285  1  0.79368192  0.66962718  0.07017343  1
  O2-  O286  1  0.79821607  0.67214233  0.40151776  1
  O2-  O287  1  0.79063708  0.67020791  0.73421535  1
