# generated using pymatgen
data_Ca2Al2SiO7
_symmetry_space_group_name_H-M   'P 1'
_cell_length_a   15.47034953
_cell_length_b   15.46634402
_cell_length_c   15.29053716
_cell_angle_alpha   90.00139974
_cell_angle_beta   90.01858427
_cell_angle_gamma   90.03301310
_symmetry_Int_Tables_number   1
_chemical_formula_structural   Ca2Al2SiO7
_chemical_formula_sum   'Ca48 Al48 Si24 O168'
_cell_volume   3658.56217143
_cell_formula_units_Z   24
loop_
 _symmetry_equiv_pos_site_id
 _symmetry_equiv_pos_as_xyz
  1  'x, y, z'
loop_
 _atom_type_symbol
 _atom_type_oxidation_number
  Ca2+  2.0
  Al0+  0.0
  Si0+  0.0
  O2-  -2.0
loop_
 _atom_site_type_symbol
 _atom_site_label
 _atom_site_symmetry_multiplicity
 _atom_site_fract_x
 _atom_site_fract_y
 _atom_site_fract_z
 _atom_site_occupancy
  Ca2+  Ca0  1  0.16128708  0.07716791  0.17270695  1
  Ca2+  Ca1  1  0.16740060  0.07557384  0.50523959  1
  Ca2+  Ca2  1  0.16234489  0.07667402  0.83342210  1
  Ca2+  Ca3  1  0.16605405  0.57267800  0.17041978  1
  Ca2+  Ca4  1  0.16532199  0.57421479  0.51269681  1
  Ca2+  Ca5  1  0.17427388  0.58502187  0.83805647  1
  Ca2+  Ca6  1  0.67783046  0.08373693  0.16753548  1
  Ca2+  Ca7  1  0.67133456  0.07542791  0.50916754  1
  Ca2+  Ca8  1  0.67395199  0.07525891  0.83568999  1
  Ca2+  Ca9  1  0.67282064  0.57381835  0.17317945  1
  Ca2+  Ca10  1  0.67075579  0.57920418  0.50495812  1
  Ca2+  Ca11  1  0.65839134  0.57441062  0.83442919  1
  Ca2+  Ca12  1  0.09566043  0.32340103  0.16270170  1
  Ca2+  Ca13  1  0.09866021  0.32301016  0.49607139  1
  Ca2+  Ca14  1  0.09655825  0.32393665  0.82795955  1
  Ca2+  Ca15  1  0.07569190  0.84114194  0.16219521  1
  Ca2+  Ca16  1  0.08691077  0.82940775  0.49639090  1
  Ca2+  Ca17  1  0.08223634  0.83464142  0.82785959  1
  Ca2+  Ca18  1  0.58523540  0.33785193  0.16135880  1
  Ca2+  Ca19  1  0.58302243  0.33854684  0.49656463  1
  Ca2+  Ca20  1  0.58438436  0.33631756  0.82706269  1
  Ca2+  Ca21  1  0.57767826  0.83023379  0.16128316  1
  Ca2+  Ca22  1  0.57736275  0.83411192  0.50237520  1
  Ca2+  Ca23  1  0.57451046  0.82654035  0.81787496  1
  Ca2+  Ca24  1  0.32370063  0.42006505  0.16536471  1
  Ca2+  Ca25  1  0.32233299  0.42164434  0.50514614  1
  Ca2+  Ca26  1  0.32207972  0.42804719  0.83272240  1
  Ca2+  Ca27  1  0.31576591  0.92203466  0.17384575  1
  Ca2+  Ca28  1  0.32716629  0.92689426  0.50920077  1
  Ca2+  Ca29  1  0.32098407  0.91243843  0.83170103  1
  Ca2+  Ca30  1  0.82384442  0.41966958  0.17480619  1
  Ca2+  Ca31  1  0.82511878  0.41931713  0.50243430  1
  Ca2+  Ca32  1  0.82299565  0.41557565  0.83593608  1
  Ca2+  Ca33  1  0.84480784  0.92009686  0.16814815  1
  Ca2+  Ca34  1  0.83058587  0.91242345  0.50341814  1
  Ca2+  Ca35  1  0.83332858  0.91890828  0.83890063  1
  Ca2+  Ca36  1  0.41540754  0.16614208  0.16531954  1
  Ca2+  Ca37  1  0.41204560  0.16289741  0.49542428  1
  Ca2+  Ca38  1  0.41425406  0.16882532  0.82469077  1
  Ca2+  Ca39  1  0.41614478  0.66239650  0.16137292  1
  Ca2+  Ca40  1  0.41651897  0.66667422  0.50482217  1
  Ca2+  Ca41  1  0.41670717  0.66649042  0.82034305  1
  Ca2+  Ca42  1  0.92923092  0.16564948  0.15818835  1
  Ca2+  Ca43  1  0.93122680  0.16860229  0.49641458  1
  Ca2+  Ca44  1  0.92665382  0.16610161  0.83138116  1
  Ca2+  Ca45  1  0.91203754  0.67697236  0.16511977  1
  Ca2+  Ca46  1  0.92027119  0.67010088  0.49503718  1
  Ca2+  Ca47  1  0.92468548  0.67226649  0.82795516  1
  Al0+  Al48  1  -0.00076248  0.00133045  -0.00230797  1
  Al0+  Al49  1  0.00021470  0.00031731  0.33154969  1
  Al0+  Al50  1  0.00001268  0.00341275  0.66437655  1
  Al0+  Al51  1  -0.00161268  0.49980612  0.00364316  1
  Al0+  Al52  1  -0.00180039  0.49874305  0.34064580  1
  Al0+  Al53  1  -0.00425761  0.49807019  0.66761972  1
  Al0+  Al54  1  0.50103220  -0.00057970  -0.00158928  1
  Al0+  Al55  1  0.50087316  -0.00002287  0.33123182  1
  Al0+  Al56  1  0.50210615  0.00068567  0.67005439  1
  Al0+  Al57  1  0.49970264  0.49868946  0.00666180  1
  Al0+  Al58  1  0.49964474  0.49889124  0.33386814  1
  Al0+  Al59  1  0.49957165  0.49914892  0.66743354  1
  Al0+  Al60  1  0.25389481  0.25064854  -0.00383735  1
  Al0+  Al61  1  0.25446541  0.25150639  0.33227375  1
  Al0+  Al62  1  0.25239293  0.25026526  0.66767476  1
  Al0+  Al63  1  0.25016901  0.75207432  0.01021951  1
  Al0+  Al64  1  0.25052946  0.74966882  0.33306397  1
  Al0+  Al65  1  0.24935022  0.75217927  0.66323881  1
  Al0+  Al66  1  0.75093004  0.24759761  0.00633854  1
  Al0+  Al67  1  0.74999436  0.24840864  0.33647026  1
  Al0+  Al68  1  0.75048814  0.25070710  0.66890512  1
  Al0+  Al69  1  0.74724402  0.74940007  -0.00595099  1
  Al0+  Al70  1  0.74986413  0.74914800  0.33068209  1
  Al0+  Al71  1  0.74906889  0.74887776  0.66773243  1
  Al0+  Al72  1  0.42822032  0.82337010  0.65055028  1
  Al0+  Al73  1  0.17603606  0.92930508  0.34964791  1
  Al0+  Al74  1  0.68098558  0.42940700  0.01367102  1
  Al0+  Al75  1  0.07203900  0.18192876  0.98478411  1
  Al0+  Al76  1  0.07171938  0.18199203  0.65157063  1
  Al0+  Al77  1  0.67835937  0.42797636  0.34976724  1
  Al0+  Al78  1  0.32201610  0.07188553  0.68239838  1
  Al0+  Al79  1  0.67958736  0.43024506  0.68075957  1
  Al0+  Al80  1  0.17529911  0.42805626  0.68093999  1
  Al0+  Al81  1  0.82050721  0.57332793  0.34925361  1
  Al0+  Al82  1  0.68032177  0.92722216  0.67952641  1
  Al0+  Al83  1  0.17869909  0.93170801  0.01399981  1
  Al0+  Al84  1  0.17692137  0.92959112  0.68150278  1
  Al0+  Al85  1  0.92917310  0.82056322  0.98514679  1
  Al0+  Al86  1  0.82025080  0.06765995  0.01356098  1
  Al0+  Al87  1  0.57107695  0.67652146  0.65020392  1
  Al0+  Al88  1  0.07179273  0.18259062  0.31915065  1
  Al0+  Al89  1  0.32251698  0.07000888  0.34642512  1
  Al0+  Al90  1  0.32007063  0.57218797  0.01538462  1
  Al0+  Al91  1  0.31834005  0.57183432  0.67844142  1
  Al0+  Al92  1  0.17969634  0.42981674  0.34678828  1
  Al0+  Al93  1  0.92973300  0.81870372  0.32025390  1
  Al0+  Al94  1  0.07061091  0.67833418  0.65536103  1
  Al0+  Al95  1  0.17737110  0.42719191  0.01450972  1
  Si0+  Si96  1  0.82157786  0.07199584  0.68285019  1
  Si0+  Si97  1  0.07300300  0.67725390  0.98669770  1
  Si0+  Si98  1  0.42793416  0.82157008  0.98609503  1
  Si0+  Si99  1  0.32262340  0.57271668  0.35048295  1
  Si0+  Si100  1  0.42894302  0.82271002  0.31594432  1
  Si0+  Si101  1  0.57362188  0.17806275  0.98405665  1
  Si0+  Si102  1  0.82178147  0.57508794  0.01577053  1
  Si0+  Si103  1  0.92503978  0.32288338  0.98486656  1
  Si0+  Si104  1  0.43113250  0.31978546  0.65044649  1
  Si0+  Si105  1  0.43256292  0.32087626  0.98281906  1
  Si0+  Si106  1  0.56896221  0.67900726  0.31679121  1
  Si0+  Si107  1  0.82151064  0.07013222  0.34889441  1
  Si0+  Si108  1  0.92538055  0.32180900  0.31692556  1
  Si0+  Si109  1  0.67858154  0.92879163  0.34592237  1
  Si0+  Si110  1  0.82223724  0.57346709  0.68606151  1
  Si0+  Si111  1  0.32535799  0.07245004  0.01550705  1
  Si0+  Si112  1  0.56754610  0.67781459  0.98543060  1
  Si0+  Si113  1  0.43210789  0.32133823  0.31597930  1
  Si0+  Si114  1  0.92804312  0.82285121  0.65121046  1
  Si0+  Si115  1  0.67679159  0.92624611  0.01705824  1
  Si0+  Si116  1  0.57324742  0.17945160  0.65197748  1
  Si0+  Si117  1  0.92380571  0.32136366  0.64935532  1
  Si0+  Si118  1  0.57335889  0.17692130  0.31718273  1
  Si0+  Si119  1  0.07354545  0.67460303  0.31717890  1
  O2-  O120  1  0.25367269  0.00740477  0.05916090  1
  O2-  O121  1  0.25022885  -0.00002217  0.39735961  1
  O2-  O122  1  0.25001101  0.00042262  0.73227510  1
  O2-  O123  1  0.24484210  0.50341646  0.06477698  1
  O2-  O124  1  0.24707530  0.51138876  0.39270022  1
  O2-  O125  1  0.23999689  0.50744689  0.72912687  1
  O2-  O126  1  0.74762510  -0.00863351  0.06276007  1
  O2-  O127  1  0.75036382  -0.00164436  0.38917769  1
  O2-  O128  1  0.75732952  -0.00112386  0.72646455  1
  O2-  O129  1  0.75752833  0.50186625  0.05961901  1
  O2-  O130  1  0.75053006  0.49914440  0.39900528  1
  O2-  O131  1  0.75159735  0.50593017  0.72929467  1
  O2-  O132  1  -0.00174264  0.25865331  0.27143072  1
  O2-  O133  1  -0.00046905  0.26020081  0.60574715  1
  O2-  O134  1  0.00036682  0.26180100  0.94023513  1
  O2-  O135  1  0.00632881  0.74535586  0.27313090  1
  O2-  O136  1  -0.00239791  0.75515161  0.60779117  1
  O2-  O137  1  0.00370592  0.74487891  0.94125159  1
  O2-  O138  1  0.50425000  0.24982421  0.27492356  1
  O2-  O139  1  0.50120989  0.24765169  0.60781754  1
  O2-  O140  1  0.50245877  0.24802716  0.94092300  1
  O2-  O141  1  0.49642190  0.74793652  0.27298936  1
  O2-  O142  1  0.49996069  0.74993119  0.60060883  1
  O2-  O143  1  0.49681035  0.74873329  0.94383794  1
  O2-  O144  1  0.07052692  0.18136833  0.09819903  1
  O2-  O145  1  0.06974487  0.18234307  0.43206500  1
  O2-  O146  1  0.06844225  0.18070594  0.76476673  1
  O2-  O147  1  0.07139581  0.67701088  0.09230685  1
  O2-  O148  1  0.07269985  0.67537594  0.42263214  1
  O2-  O149  1  0.06813731  0.67900524  0.76884098  1
  O2-  O150  1  0.57278411  0.17722194  0.08948005  1
  O2-  O151  1  0.57432372  0.17392782  0.42191698  1
  O2-  O152  1  0.57518816  0.18206041  0.75726342  1
  O2-  O153  1  0.56820314  0.67942717  0.09109330  1
  O2-  O154  1  0.56895004  0.67969483  0.42117792  1
  O2-  O155  1  0.56838796  0.67623773  0.76442696  1
  O2-  O156  1  0.18396833  0.42865531  0.23366383  1
  O2-  O157  1  0.18190649  0.42730094  0.56729068  1
  O2-  O158  1  0.18161730  0.42717525  0.90168259  1
  O2-  O159  1  0.17597160  0.93255718  0.23559785  1
  O2-  O160  1  0.17552658  0.93148017  0.56831697  1
  O2-  O161  1  0.17975403  0.92947348  0.90146861  1
  O2-  O162  1  0.67874901  0.42947142  0.23590046  1
  O2-  O163  1  0.68181805  0.42819816  0.56822699  1
  O2-  O164  1  0.67942209  0.43044840  0.90070417  1
  O2-  O165  1  0.67629221  0.93107171  0.24065503  1
  O2-  O166  1  0.68163823  0.93073831  0.56566883  1
  O2-  O167  1  0.67492241  0.92866907  0.91196733  1
  O2-  O168  1  0.43386076  0.31984419  0.08828884  1
  O2-  O169  1  0.43298283  0.32240652  0.42078357  1
  O2-  O170  1  0.43390923  0.31949606  0.75577954  1
  O2-  O171  1  0.43261196  0.82282082  0.09159461  1
  O2-  O172  1  0.43231941  0.82589116  0.42015750  1
  O2-  O173  1  0.43068670  0.82247457  0.76476795  1
  O2-  O174  1  0.92004243  0.31848517  0.09019658  1
  O2-  O175  1  0.92016331  0.31637695  0.42201898  1
  O2-  O176  1  0.91569290  0.31602727  0.75462398  1
  O2-  O177  1  0.92909361  0.81926554  0.09838509  1
  O2-  O178  1  0.92601444  0.81772475  0.43301106  1
  O2-  O179  1  0.92772428  0.82207853  0.75700596  1
  O2-  O180  1  0.32514619  0.06746302  0.23255382  1
  O2-  O181  1  0.32165028  0.07190535  0.56898979  1
  O2-  O182  1  0.32955705  0.07049079  0.91067794  1
  O2-  O183  1  0.32575561  0.56941679  0.24472709  1
  O2-  O184  1  0.32042277  0.56677794  0.56486048  1
  O2-  O185  1  0.32261531  0.57236082  0.90240139  1
  O2-  O186  1  0.81989875  0.07062275  0.24370997  1
  O2-  O187  1  0.81900756  0.07297672  0.57689219  1
  O2-  O188  1  0.81679728  0.06750968  0.90065283  1
  O2-  O189  1  0.81556491  0.57454165  0.23517499  1
  O2-  O190  1  0.82172110  0.57361091  0.58072361  1
  O2-  O191  1  0.81955116  0.57646352  0.91050257  1
  O2-  O192  1  0.03705715  0.08653432  0.26620749  1
  O2-  O193  1  0.03668028  0.08686655  0.59617093  1
  O2-  O194  1  0.03475596  0.08754765  0.93124992  1
  O2-  O195  1  0.04590454  0.58043244  0.27256449  1
  O2-  O196  1  0.03792346  0.58111262  0.60207862  1
  O2-  O197  1  0.04934808  0.58262690  0.94098569  1
  O2-  O198  1  0.54471951  0.08646738  0.26637939  1
  O2-  O199  1  0.54891325  0.08687381  0.60494272  1
  O2-  O200  1  0.54777804  0.08518677  0.93706675  1
  O2-  O201  1  0.54126277  0.58643351  0.26937674  1
  O2-  O202  1  0.54137416  0.57845520  0.59700010  1
  O2-  O203  1  0.53921916  0.58512766  0.94044310  1
  O2-  O204  1  0.16961955  0.21243656  0.26615939  1
  O2-  O205  1  0.16952071  0.21153304  0.59923326  1
  O2-  O206  1  0.17073912  0.20789619  0.93196070  1
  O2-  O207  1  0.16885403  0.69618373  0.27160282  1
  O2-  O208  1  0.16631004  0.70580741  0.59874615  1
  O2-  O209  1  0.16751360  0.70559220  0.94428522  1
  O2-  O210  1  0.66572178  0.20400684  0.26939798  1
  O2-  O211  1  0.66426553  0.20874726  0.60338705  1
  O2-  O212  1  0.66532620  0.20671013  0.93762581  1
  O2-  O213  1  0.65922019  0.70932534  0.26756436  1
  O2-  O214  1  0.67043160  0.70487197  0.59908397  1
  O2-  O215  1  0.65883955  0.70331182  0.93643560  1
  O2-  O216  1  0.07647842  0.44770536  0.06659083  1
  O2-  O217  1  0.08045226  0.44835593  0.39966859  1
  O2-  O218  1  0.07248684  0.44242398  0.72878625  1
  O2-  O219  1  0.08242037  0.96386307  0.06655152  1
  O2-  O220  1  0.07820231  0.95866115  0.40184417  1
  O2-  O221  1  0.07830796  0.96045926  0.73355068  1
  O2-  O222  1  0.58633424  0.46182290  0.06991731  1
  O2-  O223  1  0.57975310  0.45738514  0.40046986  1
  O2-  O224  1  0.58295370  0.45906395  0.73506350  1
  O2-  O225  1  0.58443202  0.95571184  0.06462891  1
  O2-  O226  1  0.58825322  0.95872643  0.39395914  1
  O2-  O227  1  0.58689318  0.96171766  0.73606018  1
  O2-  O228  1  0.21589282  0.33084552  0.06667347  1
  O2-  O229  1  0.22058121  0.33666613  0.39985892  1
  O2-  O230  1  0.21571550  0.33445654  0.73416750  1
  O2-  O231  1  0.20904625  0.83728807  0.07256803  1
  O2-  O232  1  0.20234066  0.82805508  0.39664211  1
  O2-  O233  1  0.20443617  0.83092480  0.73345376  1
  O2-  O234  1  0.70762068  0.33216638  0.06805208  1
  O2-  O235  1  0.70369972  0.32790729  0.40077861  1
  O2-  O236  1  0.71087961  0.33351597  0.73507292  1
  O2-  O237  1  0.69807385  0.83057989  0.06037870  1
  O2-  O238  1  0.70526249  0.83693380  0.39186253  1
  O2-  O239  1  0.70622781  0.83023156  0.73454300  1
  O2-  O240  1  0.46086073  0.41247508  0.26652211  1
  O2-  O241  1  0.46130953  0.40990190  0.60193765  1
  O2-  O242  1  0.46431027  0.41221659  0.93737778  1
  O2-  O243  1  0.46276171  0.91176692  0.26580935  1
  O2-  O244  1  0.46358199  0.92092613  0.59847575  1
  O2-  O245  1  0.45773120  0.91246440  0.93812478  1
  O2-  O246  1  0.94409621  0.41884596  0.27558109  1
  O2-  O247  1  0.93882739  0.41804331  0.60673749  1
  O2-  O248  1  0.94027056  0.42037356  0.94264448  1
  O2-  O249  1  0.95901949  0.91619082  0.26615461  1
  O2-  O250  1  0.94900943  0.91783461  0.60605699  1
  O2-  O251  1  0.95915751  0.91680468  0.93120319  1
  O2-  O252  1  0.34247334  0.29204561  0.26518577  1
  O2-  O253  1  0.34017503  0.29206829  0.60202236  1
  O2-  O254  1  0.34179308  0.29456674  0.93343357  1
  O2-  O255  1  0.33594072  0.79745451  0.26887972  1
  O2-  O256  1  0.33032470  0.79808537  0.59620936  1
  O2-  O257  1  0.33412924  0.79636186  0.94274702  1
  O2-  O258  1  0.83283557  0.29130454  0.26937461  1
  O2-  O259  1  0.83394074  0.28734407  0.59919016  1
  O2-  O260  1  0.83398610  0.28870637  0.93711715  1
  O2-  O261  1  0.83273840  0.78912025  0.26353756  1
  O2-  O262  1  0.83443683  0.79591884  0.60580596  1
  O2-  O263  1  0.83096973  0.79240517  0.93146466  1
  O2-  O264  1  0.41883914  0.04539488  0.06273331  1
  O2-  O265  1  0.42198860  0.04172857  0.39834073  1
  O2-  O266  1  0.42224345  0.04854801  0.73381925  1
  O2-  O267  1  0.41590846  0.53763296  0.07123605  1
  O2-  O268  1  0.41362650  0.53990540  0.39654936  1
  O2-  O269  1  0.41444067  0.53655476  0.73207172  1
  O2-  O270  1  0.91586391  0.03758305  0.06864911  1
  O2-  O271  1  0.91200970  0.04167717  0.39661828  1
  O2-  O272  1  0.91557206  0.04987159  0.72811368  1
  O2-  O273  1  0.91640393  0.55622443  0.06198503  1
  O2-  O274  1  0.91855159  0.54843589  0.40343101  1
  O2-  O275  1  0.91361978  0.54520595  0.73480615  1
  O2-  O276  1  0.30420098  0.16799471  0.05881641  1
  O2-  O277  1  0.30076634  0.17066239  0.39564402  1
  O2-  O278  1  0.29508395  0.17022252  0.73535015  1
  O2-  O279  1  0.29791190  0.67034605  0.07187399  1
  O2-  O280  1  0.30695699  0.66955931  0.39216068  1
  O2-  O281  1  0.29783279  0.67234979  0.72893999  1
  O2-  O282  1  0.78690434  0.16159479  0.07130887  1
  O2-  O283  1  0.79208419  0.16031318  0.39767515  1
  O2-  O284  1  0.78991489  0.16255511  0.73065244  1
  O2-  O285  1  0.78875613  0.66666145  0.06228767  1
  O2-  O286  1  0.78742724  0.67035334  0.40210036  1
  O2-  O287  1  0.79877502  0.66729712  0.73195834  1
