# generated using pymatgen
data_Ca2Al2SiO7
_symmetry_space_group_name_H-M   'P 1'
_cell_length_a   15.45493311
_cell_length_b   15.45476942
_cell_length_c   15.28136846
_cell_angle_alpha   90.01088692
_cell_angle_beta   89.99913040
_cell_angle_gamma   89.99987820
_symmetry_Int_Tables_number   1
_chemical_formula_structural   Ca2Al2SiO7
_chemical_formula_sum   'Ca48 Al48 Si24 O168'
_cell_volume   3649.99188662
_cell_formula_units_Z   24
loop_
 _symmetry_equiv_pos_site_id
 _symmetry_equiv_pos_as_xyz
  1  'x, y, z'
loop_
 _atom_type_symbol
 _atom_type_oxidation_number
  Ca2+  2.0
  Al0+  0.0
  Si0+  0.0
  O2-  -2.0
loop_
 _atom_site_type_symbol
 _atom_site_label
 _atom_site_symmetry_multiplicity
 _atom_site_fract_x
 _atom_site_fract_y
 _atom_site_fract_z
 _atom_site_occupancy
  Ca2+  Ca0  1  0.16235360  0.07998745  0.17081106  1
  Ca2+  Ca1  1  0.16485283  0.08068611  0.50474543  1
  Ca2+  Ca2  1  0.16005432  0.06995693  0.83467122  1
  Ca2+  Ca3  1  0.17073986  0.58177095  0.16670517  1
  Ca2+  Ca4  1  0.17948082  0.57771868  0.50806145  1
  Ca2+  Ca5  1  0.17427907  0.57621481  0.83979087  1
  Ca2+  Ca6  1  0.66537808  0.07601763  0.17338148  1
  Ca2+  Ca7  1  0.66325533  0.07739103  0.50647406  1
  Ca2+  Ca8  1  0.66781846  0.07778941  0.83253068  1
  Ca2+  Ca9  1  0.67529707  0.57595725  0.17920868  1
  Ca2+  Ca10  1  0.67021741  0.57834401  0.49576807  1
  Ca2+  Ca11  1  0.67069914  0.58137717  0.83536908  1
  Ca2+  Ca12  1  0.08133419  0.33155024  0.16012219  1
  Ca2+  Ca13  1  0.08265102  0.33067739  0.49819542  1
  Ca2+  Ca14  1  0.07664636  0.34181497  0.82828176  1
  Ca2+  Ca15  1  0.07718828  0.82694073  0.16022997  1
  Ca2+  Ca16  1  0.06973834  0.84126245  0.49606932  1
  Ca2+  Ca17  1  0.08763593  0.82957790  0.82733591  1
  Ca2+  Ca18  1  0.58262040  0.33568147  0.16885039  1
  Ca2+  Ca19  1  0.57740255  0.32510230  0.49306617  1
  Ca2+  Ca20  1  0.57553511  0.32532056  0.81931755  1
  Ca2+  Ca21  1  0.57939108  0.83924770  0.16644217  1
  Ca2+  Ca22  1  0.58067993  0.83643831  0.49144243  1
  Ca2+  Ca23  1  0.58672401  0.83521803  0.82923569  1
  Ca2+  Ca24  1  0.33331106  0.42712646  0.17523607  1
  Ca2+  Ca25  1  0.33665301  0.42154345  0.50746540  1
  Ca2+  Ca26  1  0.32560332  0.42088004  0.83728671  1
  Ca2+  Ca27  1  0.32692880  0.91326088  0.17063997  1
  Ca2+  Ca28  1  0.32825413  0.91592778  0.50528375  1
  Ca2+  Ca29  1  0.32146533  0.91668902  0.83642567  1
  Ca2+  Ca30  1  0.83200873  0.42117375  0.17442625  1
  Ca2+  Ca31  1  0.83200836  0.41645758  0.50219380  1
  Ca2+  Ca32  1  0.83709141  0.41117775  0.83786009  1
  Ca2+  Ca33  1  0.82186014  0.91138381  0.17499830  1
  Ca2+  Ca34  1  0.82647155  0.92035168  0.50889767  1
  Ca2+  Ca35  1  0.82764358  0.91972243  0.83190484  1
  Ca2+  Ca36  1  0.42273550  0.17172943  0.16912568  1
  Ca2+  Ca37  1  0.42470372  0.17609860  0.49293818  1
  Ca2+  Ca38  1  0.42249595  0.17246254  0.82259150  1
  Ca2+  Ca39  1  0.40987386  0.66753115  0.16704549  1
  Ca2+  Ca40  1  0.41295422  0.66901496  0.49364050  1
  Ca2+  Ca41  1  0.41377811  0.66203089  0.83106136  1
  Ca2+  Ca42  1  0.92146314  0.17288778  0.16514028  1
  Ca2+  Ca43  1  0.92005155  0.16599237  0.49899838  1
  Ca2+  Ca44  1  0.91320312  0.17631869  0.82587516  1
  Ca2+  Ca45  1  0.91872863  0.66768523  0.16315354  1
  Ca2+  Ca46  1  0.91280901  0.67879653  0.49388277  1
  Ca2+  Ca47  1  0.92794521  0.67267977  0.82723537  1
  Al0+  Al48  1  -0.00236525  0.00147922  0.00466439  1
  Al0+  Al49  1  -0.00245519  -0.00103986  0.32240700  1
  Al0+  Al50  1  -0.00221428  0.00002077  0.67247932  1
  Al0+  Al51  1  0.00135487  0.50196018  -0.00456048  1
  Al0+  Al52  1  0.00185528  0.50153913  0.33889651  1
  Al0+  Al53  1  0.00143672  0.50119023  0.66302426  1
  Al0+  Al54  1  0.50012237  -0.00019072  0.00197644  1
  Al0+  Al55  1  0.49749795  0.00047060  0.32835055  1
  Al0+  Al56  1  0.49931671  -0.00218673  0.66784575  1
  Al0+  Al57  1  0.50056911  0.50126989  0.00180759  1
  Al0+  Al58  1  0.50082665  0.50096724  0.33756085  1
  Al0+  Al59  1  0.50246431  0.50175228  0.66687541  1
  Al0+  Al60  1  0.25002261  0.24864978  0.00104718  1
  Al0+  Al61  1  0.25025614  0.24858500  0.32427103  1
  Al0+  Al62  1  0.24941340  0.25133282  0.66753626  1
  Al0+  Al63  1  0.24993341  0.75129615  0.00275911  1
  Al0+  Al64  1  0.24832325  0.74909022  0.33424297  1
  Al0+  Al65  1  0.25182541  0.74825114  0.67319106  1
  Al0+  Al66  1  0.74981975  0.24842131  -0.00313125  1
  Al0+  Al67  1  0.75120722  0.24821447  0.33267574  1
  Al0+  Al68  1  0.75099689  0.24893763  0.66155866  1
  Al0+  Al69  1  0.74829098  0.75053346  0.00274833  1
  Al0+  Al70  1  0.74845226  0.75028279  0.33638250  1
  Al0+  Al71  1  0.75022865  0.74926526  0.66673847  1
  Al0+  Al72  1  0.17787366  0.42749383  0.68154229  1
  Al0+  Al73  1  0.92663677  0.81953160  0.31842470  1
  Al0+  Al74  1  0.82397003  0.57153583  0.34936930  1
  Al0+  Al75  1  0.07141503  0.68188179  0.98528427  1
  Al0+  Al76  1  0.42685498  0.82051440  0.32014576  1
  Al0+  Al77  1  0.68012647  0.42613207  0.34926132  1
  Al0+  Al78  1  0.67716597  0.92720454  0.68177175  1
  Al0+  Al79  1  0.82067707  0.07266540  0.68194089  1
  Al0+  Al80  1  0.92973683  0.32287293  0.65095971  1
  Al0+  Al81  1  0.57056523  0.17652731  0.65122506  1
  Al0+  Al82  1  0.32409623  0.57016022  0.68358484  1
  Al0+  Al83  1  0.68002058  0.92950771  0.01604740  1
  Al0+  Al84  1  0.93032708  0.82084304  0.65441955  1
  Al0+  Al85  1  0.17833084  0.93005178  0.67772647  1
  Al0+  Al86  1  0.17689921  0.42837759  0.01642973  1
  Al0+  Al87  1  0.07076705  0.17879653  0.31947963  1
  Al0+  Al88  1  0.57296049  0.17833938  0.31647400  1
  Al0+  Al89  1  0.31914070  0.57094245  0.34856734  1
  Al0+  Al90  1  0.93078416  0.31971320  0.98744394  1
  Al0+  Al91  1  0.32231575  0.56978014  0.01804190  1
  Al0+  Al92  1  0.43031650  0.32377796  0.31657723  1
  Al0+  Al93  1  0.17782033  0.92981815  0.01607483  1
  Al0+  Al94  1  0.42763066  0.32261532  0.65256725  1
  Al0+  Al95  1  0.67704751  0.93164213  0.34727212  1
  Si0+  Si96  1  0.92501062  0.82263856  0.98295001  1
  Si0+  Si97  1  0.57119323  0.67911821  0.31646190  1
  Si0+  Si98  1  0.42827786  0.81901671  0.65394530  1
  Si0+  Si99  1  0.68175039  0.42940517  0.68127008  1
  Si0+  Si100  1  0.17887969  0.42423490  0.34988400  1
  Si0+  Si101  1  0.57208013  0.67865499  0.98561186  1
  Si0+  Si102  1  0.31929847  0.07118195  0.34703746  1
  Si0+  Si103  1  0.07154923  0.17674818  0.65270114  1
  Si0+  Si104  1  0.07348104  0.17599236  0.98147785  1
  Si0+  Si105  1  0.82015786  0.07482834  0.01927502  1
  Si0+  Si106  1  0.32294291  0.07153859  0.01777750  1
  Si0+  Si107  1  0.42981579  0.32273609  0.98494977  1
  Si0+  Si108  1  0.32224942  0.07223381  0.68130289  1
  Si0+  Si109  1  0.07181589  0.67817323  0.31792557  1
  Si0+  Si110  1  0.57316302  0.67902435  0.65092026  1
  Si0+  Si111  1  0.67959844  0.42778579  0.01179082  1
  Si0+  Si112  1  0.82154603  0.57183595  0.68241875  1
  Si0+  Si113  1  0.82418206  0.07046925  0.34885017  1
  Si0+  Si114  1  0.43009167  0.82141180  0.98424510  1
  Si0+  Si115  1  0.56974518  0.17833696  0.98344817  1
  Si0+  Si116  1  0.82068716  0.57078002  0.01173621  1
  Si0+  Si117  1  0.92959666  0.32437962  0.31805578  1
  Si0+  Si118  1  0.17741578  0.92970470  0.34669101  1
  Si0+  Si119  1  0.07447655  0.67950600  0.64845618  1
  O2-  O120  1  0.25013440  0.00703362  0.06248333  1
  O2-  O121  1  0.24769477  0.00072937  0.38988144  1
  O2-  O122  1  0.25150746  0.00579077  0.72594334  1
  O2-  O123  1  0.25170375  0.49644377  0.06785238  1
  O2-  O124  1  0.24899147  0.49162461  0.39371382  1
  O2-  O125  1  0.25236147  0.49713467  0.73124880  1
  O2-  O126  1  0.75629754  0.00163973  0.06328351  1
  O2-  O127  1  0.75134297  0.00651736  0.39319950  1
  O2-  O128  1  0.74758252  0.00087236  0.73132108  1
  O2-  O129  1  0.75187510  0.49750259  0.05355357  1
  O2-  O130  1  0.75516464  0.49589909  0.39878729  1
  O2-  O131  1  0.75519229  0.49689809  0.72616007  1
  O2-  O132  1  -0.00087242  0.25692775  0.27343653  1
  O2-  O133  1  0.00613770  0.24823519  0.60770620  1
  O2-  O134  1  0.00700307  0.24730488  0.93852402  1
  O2-  O135  1  -0.00095210  0.74224597  0.27286132  1
  O2-  O136  1  0.00662643  0.74918282  0.60466748  1
  O2-  O137  1  -0.00128558  0.75954651  0.93858916  1
  O2-  O138  1  0.50513983  0.25439475  0.26569646  1
  O2-  O139  1  0.49767071  0.24852118  0.60326051  1
  O2-  O140  1  0.49936295  0.25031001  0.94198426  1
  O2-  O141  1  0.50196493  0.74692813  0.27157549  1
  O2-  O142  1  0.50112605  0.75030134  0.61148450  1
  O2-  O143  1  0.50057341  0.74914590  0.94270994  1
  O2-  O144  1  0.07107698  0.17548158  0.08721100  1
  O2-  O145  1  0.07007333  0.17599144  0.43262660  1
  O2-  O146  1  0.06974276  0.17466269  0.75814646  1
  O2-  O147  1  0.06749935  0.68167590  0.09858553  1
  O2-  O148  1  0.07382850  0.68227132  0.42332740  1
  O2-  O149  1  0.07278236  0.68074483  0.75437095  1
  O2-  O150  1  0.57013510  0.17861319  0.08822824  1
  O2-  O151  1  0.56798596  0.17600611  0.42945905  1
  O2-  O152  1  0.56847434  0.17882703  0.76601734  1
  O2-  O153  1  0.57478049  0.67771093  0.09002740  1
  O2-  O154  1  0.57131246  0.68067858  0.42233618  1
  O2-  O155  1  0.57523204  0.67787900  0.75659380  1
  O2-  O156  1  0.17718298  0.42606868  0.24431578  1
  O2-  O157  1  0.17752025  0.42923013  0.56776989  1
  O2-  O158  1  0.17747927  0.43090452  0.90323277  1
  O2-  O159  1  0.17933828  0.93031598  0.24154394  1
  O2-  O160  1  0.17931293  0.93155637  0.56423274  1
  O2-  O161  1  0.18082692  0.92974317  0.90270078  1
  O2-  O162  1  0.68234973  0.42968041  0.23437183  1
  O2-  O163  1  0.68135942  0.43236290  0.57679142  1
  O2-  O164  1  0.67891113  0.42906823  0.90648349  1
  O2-  O165  1  0.67851151  0.93204504  0.23375661  1
  O2-  O166  1  0.67710241  0.92611265  0.56849973  1
  O2-  O167  1  0.67968600  0.92960008  0.90330212  1
  O2-  O168  1  0.43335402  0.32349110  0.08967185  1
  O2-  O169  1  0.42849099  0.32057440  0.42976760  1
  O2-  O170  1  0.43110990  0.32103470  0.76719895  1
  O2-  O171  1  0.43099370  0.82231089  0.08925842  1
  O2-  O172  1  0.42559453  0.81979108  0.43351259  1
  O2-  O173  1  0.42785588  0.81870961  0.75930671  1
  O2-  O174  1  0.92842516  0.31806295  0.10054334  1
  O2-  O175  1  0.93116366  0.32338774  0.42341664  1
  O2-  O176  1  0.92935895  0.32211142  0.76438171  1
  O2-  O177  1  0.92298239  0.81731801  0.08859486  1
  O2-  O178  1  0.92921283  0.82289744  0.43158387  1
  O2-  O179  1  0.93027710  0.81721665  0.76769905  1
  O2-  O180  1  0.31821182  0.06964262  0.24174665  1
  O2-  O181  1  0.32250064  0.06934227  0.57561161  1
  O2-  O182  1  0.32565226  0.06855927  0.91204512  1
  O2-  O183  1  0.31549187  0.57277927  0.23569906  1
  O2-  O184  1  0.32235167  0.57299351  0.57003550  1
  O2-  O185  1  0.32503780  0.56694159  0.90488766  1
  O2-  O186  1  0.82506558  0.06816066  0.24291630  1
  O2-  O187  1  0.82377836  0.06965086  0.56848008  1
  O2-  O188  1  0.81732686  0.07808889  0.91411985  1
  O2-  O189  1  0.82285607  0.56986642  0.23466656  1
  O2-  O190  1  0.81791713  0.57389637  0.57783380  1
  O2-  O191  1  0.81744406  0.57224438  0.90649180  1
  O2-  O192  1  0.03674192  0.08541343  0.26016065  1
  O2-  O193  1  0.04269532  0.08436001  0.60574551  1
  O2-  O194  1  0.04435908  0.08221137  0.93672323  1
  O2-  O195  1  0.05052396  0.58263236  0.27343969  1
  O2-  O196  1  0.04804151  0.58697409  0.60183754  1
  O2-  O197  1  0.03810513  0.58742797  0.92879933  1
  O2-  O198  1  0.53661042  0.08335502  0.26063665  1
  O2-  O199  1  0.54190804  0.07716080  0.60066351  1
  O2-  O200  1  0.53980962  0.08662437  0.93670029  1
  O2-  O201  1  0.54716213  0.58515932  0.27103615  1
  O2-  O202  1  0.54613662  0.58789295  0.60246644  1
  O2-  O203  1  0.54553505  0.58662314  0.93631939  1
  O2-  O204  1  0.16657621  0.20429746  0.26128207  1
  O2-  O205  1  0.16633872  0.19817608  0.60695291  1
  O2-  O206  1  0.16958126  0.19477031  0.93751408  1
  O2-  O207  1  0.16226009  0.70934262  0.26894258  1
  O2-  O208  1  0.16938117  0.70475089  0.60542822  1
  O2-  O209  1  0.16867324  0.71281573  0.93222791  1
  O2-  O210  1  0.67356842  0.20123068  0.26423677  1
  O2-  O211  1  0.66825624  0.20454308  0.59882661  1
  O2-  O212  1  0.66147293  0.20585994  0.93601399  1
  O2-  O213  1  0.66437246  0.70505649  0.26976075  1
  O2-  O214  1  0.66383514  0.70691952  0.60201904  1
  O2-  O215  1  0.66323895  0.70756790  0.93599506  1
  O2-  O216  1  0.07875822  0.46097244  0.06830380  1
  O2-  O217  1  0.08592213  0.45013034  0.39690063  1
  O2-  O218  1  0.07947676  0.46001143  0.73329277  1
  O2-  O219  1  0.07940395  0.95668338  0.06914537  1
  O2-  O220  1  0.08444927  0.95950279  0.39014197  1
  O2-  O221  1  0.08379626  0.95911902  0.73593698  1
  O2-  O222  1  0.58955831  0.45778545  0.06068893  1
  O2-  O223  1  0.58393796  0.45924358  0.40307185  1
  O2-  O224  1  0.59190329  0.46130131  0.73069952  1
  O2-  O225  1  0.58295367  0.96148704  0.06837910  1
  O2-  O226  1  0.57840312  0.96059971  0.39816550  1
  O2-  O227  1  0.57794920  0.95286713  0.73574270  1
  O2-  O228  1  0.19946386  0.32631774  0.06471300  1
  O2-  O229  1  0.20277096  0.32883807  0.39250628  1
  O2-  O230  1  0.20066765  0.32764645  0.73515534  1
  O2-  O231  1  0.21206062  0.83529596  0.07085662  1
  O2-  O232  1  0.20486120  0.83866833  0.39460657  1
  O2-  O233  1  0.21240827  0.83561930  0.73383596  1
  O2-  O234  1  0.70580554  0.33547576  0.05857975  1
  O2-  O235  1  0.70547084  0.32646727  0.40060771  1
  O2-  O236  1  0.70639447  0.33640464  0.72731189  1
  O2-  O237  1  0.70767745  0.83160907  0.06993728  1
  O2-  O238  1  0.70513681  0.83412759  0.39944258  1
  O2-  O239  1  0.70812114  0.82899274  0.73519074  1
  O2-  O240  1  0.45893616  0.42318461  0.26522899  1
  O2-  O241  1  0.46026254  0.42056811  0.60169728  1
  O2-  O242  1  0.46008719  0.41401602  0.93770296  1
  O2-  O243  1  0.45540318  0.91603594  0.26328868  1
  O2-  O244  1  0.45210557  0.91156405  0.60636045  1
  O2-  O245  1  0.45944903  0.91288388  0.93650833  1
  O2-  O246  1  0.95397648  0.41921763  0.27333297  1
  O2-  O247  1  0.95795276  0.42004164  0.59645182  1
  O2-  O248  1  0.95682693  0.41737208  0.93291956  1
  O2-  O249  1  0.95911340  0.91276594  0.25941066  1
  O2-  O250  1  0.96016885  0.91825073  0.60176688  1
  O2-  O251  1  0.94458209  0.92006555  0.94323992  1
  O2-  O252  1  0.33384675  0.29174290  0.26127442  1
  O2-  O253  1  0.32800252  0.29766503  0.60086301  1
  O2-  O254  1  0.33677633  0.29552024  0.93960491  1
  O2-  O255  1  0.33049974  0.78834418  0.26556320  1
  O2-  O256  1  0.33710438  0.78961215  0.60575962  1
  O2-  O257  1  0.33791317  0.79466441  0.93754085  1
  O2-  O258  1  0.83628740  0.29860350  0.27158026  1
  O2-  O259  1  0.83409689  0.29196058  0.59635216  1
  O2-  O260  1  0.83369589  0.28817291  0.93233061  1
  O2-  O261  1  0.82961973  0.78841270  0.26538366  1
  O2-  O262  1  0.83430181  0.78699637  0.60088186  1
  O2-  O263  1  0.83293517  0.79144274  0.93656805  1
  O2-  O264  1  0.41428979  0.04115749  0.06571768  1
  O2-  O265  1  0.41002059  0.04168617  0.39432641  1
  O2-  O266  1  0.41335374  0.04286309  0.73058341  1
  O2-  O267  1  0.42248008  0.54385931  0.07032334  1
  O2-  O268  1  0.41798242  0.54720560  0.40037246  1
  O2-  O269  1  0.42428824  0.54555605  0.73569225  1
  O2-  O270  1  0.91560164  0.05524304  0.06378841  1
  O2-  O271  1  0.91661253  0.03904561  0.39404510  1
  O2-  O272  1  0.91677468  0.04322420  0.73930154  1
  O2-  O273  1  0.91258620  0.54502841  0.05852414  1
  O2-  O274  1  0.92310947  0.54939368  0.40376742  1
  O2-  O275  1  0.91551326  0.54846448  0.72691955  1
  O2-  O276  1  0.30229051  0.16661516  0.06266464  1
  O2-  O277  1  0.29111100  0.16320894  0.39329009  1
  O2-  O278  1  0.30033633  0.16626798  0.72758117  1
  O2-  O279  1  0.29372143  0.66933778  0.06752682  1
  O2-  O280  1  0.28474081  0.66668030  0.40330266  1
  O2-  O281  1  0.29475968  0.66753939  0.73872100  1
  O2-  O282  1  0.78885502  0.16631908  0.06732507  1
  O2-  O283  1  0.80630590  0.16644318  0.39207701  1
  O2-  O284  1  0.79191868  0.17166981  0.73473248  1
  O2-  O285  1  0.79023510  0.66071320  0.06122893  1
  O2-  O286  1  0.78910747  0.66755195  0.40297576  1
  O2-  O287  1  0.78854770  0.66053761  0.73276109  1
