# generated using pymatgen
data_Ca2Al2SiO7
_symmetry_space_group_name_H-M   'P 1'
_cell_length_a   15.46126806
_cell_length_b   15.46118563
_cell_length_c   15.28526252
_cell_angle_alpha   89.99608455
_cell_angle_beta   90.00928901
_cell_angle_gamma   90.01026111
_symmetry_Int_Tables_number   1
_chemical_formula_structural   Ca2Al2SiO7
_chemical_formula_sum   'Ca48 Al48 Si24 O168'
_cell_volume   3653.93479116
_cell_formula_units_Z   24
loop_
 _symmetry_equiv_pos_site_id
 _symmetry_equiv_pos_as_xyz
  1  'x, y, z'
loop_
 _atom_type_symbol
 _atom_type_oxidation_number
  Ca2+  2.0
  Al0+  0.0
  Si0+  0.0
  O2-  -2.0
loop_
 _atom_site_type_symbol
 _atom_site_label
 _atom_site_symmetry_multiplicity
 _atom_site_fract_x
 _atom_site_fract_y
 _atom_site_fract_z
 _atom_site_occupancy
  Ca2+  Ca0  1  0.17017286  0.07074441  0.17598299  1
  Ca2+  Ca1  1  0.17818546  0.07572884  0.50690223  1
  Ca2+  Ca2  1  0.17127271  0.07125858  0.83593117  1
  Ca2+  Ca3  1  0.17241945  0.58510973  0.17192524  1
  Ca2+  Ca4  1  0.17794204  0.58343165  0.51013386  1
  Ca2+  Ca5  1  0.16752613  0.59202191  0.83325560  1
  Ca2+  Ca6  1  0.67223876  0.08593173  0.17419645  1
  Ca2+  Ca7  1  0.66670759  0.07986819  0.49821286  1
  Ca2+  Ca8  1  0.67175132  0.08204252  0.84106475  1
  Ca2+  Ca9  1  0.66098779  0.57852551  0.17530443  1
  Ca2+  Ca10  1  0.65707517  0.57429774  0.50629967  1
  Ca2+  Ca11  1  0.65915642  0.57929016  0.83427768  1
  Ca2+  Ca12  1  0.07410906  0.32832542  0.15751287  1
  Ca2+  Ca13  1  0.07853109  0.34063199  0.49990467  1
  Ca2+  Ca14  1  0.07228356  0.33589616  0.82294651  1
  Ca2+  Ca15  1  0.08917759  0.83250661  0.16153633  1
  Ca2+  Ca16  1  0.08657571  0.83821967  0.50180723  1
  Ca2+  Ca17  1  0.08494395  0.82983993  0.82512619  1
  Ca2+  Ca18  1  0.58640048  0.32306290  0.16675100  1
  Ca2+  Ca19  1  0.58676790  0.33077949  0.49320334  1
  Ca2+  Ca20  1  0.58541834  0.32669204  0.82949686  1
  Ca2+  Ca21  1  0.58753678  0.82476070  0.16386686  1
  Ca2+  Ca22  1  0.57797656  0.82402532  0.49382947  1
  Ca2+  Ca23  1  0.57912264  0.82115516  0.82126596  1
  Ca2+  Ca24  1  0.33506072  0.42504609  0.17352196  1
  Ca2+  Ca25  1  0.33189525  0.42884695  0.50901166  1
  Ca2+  Ca26  1  0.32657723  0.42286991  0.82906036  1
  Ca2+  Ca27  1  0.32255876  0.91760531  0.17375499  1
  Ca2+  Ca28  1  0.32875026  0.92168123  0.50842318  1
  Ca2+  Ca29  1  0.32608311  0.90789962  0.82983544  1
  Ca2+  Ca30  1  0.82823327  0.41726458  0.17061547  1
  Ca2+  Ca31  1  0.82131193  0.41527767  0.50630459  1
  Ca2+  Ca32  1  0.83284073  0.41297435  0.83354459  1
  Ca2+  Ca33  1  0.82695611  0.92994421  0.17584199  1
  Ca2+  Ca34  1  0.82992662  0.91691104  0.50132737  1
  Ca2+  Ca35  1  0.83711592  0.92050391  0.83765561  1
  Ca2+  Ca36  1  0.42850927  0.15623644  0.16759161  1
  Ca2+  Ca37  1  0.41550775  0.16592997  0.49194312  1
  Ca2+  Ca38  1  0.42179542  0.16156780  0.82781790  1
  Ca2+  Ca39  1  0.42574897  0.66395879  0.16583040  1
  Ca2+  Ca40  1  0.41843166  0.66473425  0.49807759  1
  Ca2+  Ca41  1  0.42359685  0.67040670  0.82398420  1
  Ca2+  Ca42  1  0.90827278  0.16945089  0.16129392  1
  Ca2+  Ca43  1  0.91441388  0.17032554  0.49729927  1
  Ca2+  Ca44  1  0.91221215  0.17562774  0.83007993  1
  Ca2+  Ca45  1  0.92489934  0.67145998  0.15864929  1
  Ca2+  Ca46  1  0.92292000  0.67238596  0.50276767  1
  Ca2+  Ca47  1  0.92974452  0.67374307  0.82226246  1
  Al0+  Al48  1  0.00043701  0.00180165  0.00985236  1
  Al0+  Al49  1  -0.00096976  0.00148795  0.33923721  1
  Al0+  Al50  1  0.00059304  0.00277281  0.66682058  1
  Al0+  Al51  1  -0.00071977  0.50021930  -0.00604906  1
  Al0+  Al52  1  -0.00192318  0.50154069  0.33016972  1
  Al0+  Al53  1  -0.00327187  0.50015964  0.65841922  1
  Al0+  Al54  1  0.49936892  -0.00111990  -0.00520852  1
  Al0+  Al55  1  0.50034428  -0.00087687  0.33323064  1
  Al0+  Al56  1  0.50347854  -0.00201623  0.66715276  1
  Al0+  Al57  1  0.49902212  0.49864265  -0.00283542  1
  Al0+  Al58  1  0.49923638  0.49937468  0.33583817  1
  Al0+  Al59  1  0.49945191  0.49508328  0.67453112  1
  Al0+  Al60  1  0.25023174  0.25092952  0.00144490  1
  Al0+  Al61  1  0.24645790  0.25056690  0.33216692  1
  Al0+  Al62  1  0.25159102  0.25033466  0.67522653  1
  Al0+  Al63  1  0.25171607  0.74921114  0.00254395  1
  Al0+  Al64  1  0.25038208  0.74852125  0.33945334  1
  Al0+  Al65  1  0.25228649  0.75110471  0.66668174  1
  Al0+  Al66  1  0.74810118  0.25067968  -0.00388958  1
  Al0+  Al67  1  0.74891254  0.25177743  0.33654550  1
  Al0+  Al68  1  0.75040366  0.25076607  0.66656543  1
  Al0+  Al69  1  0.75122447  0.74821745  -0.00391632  1
  Al0+  Al70  1  0.75245292  0.75020420  0.33055226  1
  Al0+  Al71  1  0.75181925  0.74819775  0.65936329  1
  Al0+  Al72  1  0.68107143  0.43203746  0.34504631  1
  Al0+  Al73  1  0.57082078  0.67794243  0.31948619  1
  Al0+  Al74  1  0.32068096  0.57190133  0.68432630  1
  Al0+  Al75  1  0.18159422  0.92922371  0.01481369  1
  Al0+  Al76  1  0.07168949  0.68107781  0.98777060  1
  Al0+  Al77  1  0.81786056  0.07153095  0.01287670  1
  Al0+  Al78  1  0.07260373  0.68010541  0.64959311  1
  Al0+  Al79  1  0.17554214  0.43014750  0.68126231  1
  Al0+  Al80  1  0.81917580  0.07285179  0.35070228  1
  Al0+  Al81  1  0.57006771  0.67475437  0.65058802  1
  Al0+  Al82  1  0.92839244  0.32041125  0.64990237  1
  Al0+  Al83  1  0.57244486  0.67785460  0.98608971  1
  Al0+  Al84  1  0.92952225  0.31919078  0.98610244  1
  Al0+  Al85  1  0.17906943  0.92793547  0.35047252  1
  Al0+  Al86  1  0.92932778  0.82547035  0.65075621  1
  Al0+  Al87  1  0.56990217  0.17861966  0.32138578  1
  Al0+  Al88  1  0.67824849  0.92546726  0.34796207  1
  Al0+  Al89  1  0.17873501  0.93031187  0.68331786  1
  Al0+  Al90  1  0.32176631  0.07271257  0.34602612  1
  Al0+  Al91  1  0.43049142  0.82166695  0.65005751  1
  Al0+  Al92  1  0.32024489  0.56806347  0.34615992  1
  Al0+  Al93  1  0.67980756  0.42827879  0.68323014  1
  Al0+  Al94  1  0.32567867  0.07139635  0.68359083  1
  Al0+  Al95  1  0.56873066  0.17952904  0.98589361  1
  Si0+  Si96  1  0.92881417  0.32083690  0.31718022  1
  Si0+  Si97  1  0.32069228  0.56880141  0.01625746  1
  Si0+  Si98  1  0.42852940  0.82049632  0.98439217  1
  Si0+  Si99  1  0.07035958  0.17842385  0.31782105  1
  Si0+  Si100  1  0.42592412  0.32356488  0.98202157  1
  Si0+  Si101  1  0.67671757  0.92532064  0.01381199  1
  Si0+  Si102  1  0.17388770  0.42802795  0.34657789  1
  Si0+  Si103  1  0.67870855  0.43082822  0.01571550  1
  Si0+  Si104  1  0.92901961  0.82461855  0.98672695  1
  Si0+  Si105  1  0.17570170  0.42885889  0.01507463  1
  Si0+  Si106  1  0.82532137  0.57363057  0.34923370  1
  Si0+  Si107  1  0.07388815  0.17669869  0.98447603  1
  Si0+  Si108  1  0.07378554  0.18006265  0.65055053  1
  Si0+  Si109  1  0.42552974  0.32212684  0.31801456  1
  Si0+  Si110  1  0.82099028  0.57288242  0.68342226  1
  Si0+  Si111  1  0.42846479  0.31799556  0.65292608  1
  Si0+  Si112  1  0.42684882  0.82101234  0.31573516  1
  Si0+  Si113  1  0.07116937  0.68003798  0.31772217  1
  Si0+  Si114  1  0.57212966  0.17870761  0.65143710  1
  Si0+  Si115  1  0.92971717  0.82356045  0.31605072  1
  Si0+  Si116  1  0.68164727  0.92660441  0.68131305  1
  Si0+  Si117  1  0.81982710  0.07165180  0.68208950  1
  Si0+  Si118  1  0.82295658  0.57108635  0.01341625  1
  Si0+  Si119  1  0.32416093  0.07484626  0.01791883  1
  O2-  O120  1  0.25407517  0.00694004  0.06072506  1
  O2-  O121  1  0.25290358  -0.00061472  0.39735406  1
  O2-  O122  1  0.25350118  -0.00031674  0.73361282  1
  O2-  O123  1  0.24864349  0.49774406  0.05807301  1
  O2-  O124  1  0.24500230  0.49311270  0.39026364  1
  O2-  O125  1  0.24196863  0.50601164  0.73406924  1
  O2-  O126  1  0.74385311  -0.00460506  0.05843988  1
  O2-  O127  1  0.74853768  -0.00102679  0.39916570  1
  O2-  O128  1  0.75413967  -0.00408009  0.72441165  1
  O2-  O129  1  0.74786153  0.50447374  0.05699697  1
  O2-  O130  1  0.75167799  0.51004490  0.39214453  1
  O2-  O131  1  0.75114034  0.50623405  0.72986610  1
  O2-  O132  1  -0.00038759  0.25000995  0.27452349  1
  O2-  O133  1  0.00749539  0.25027638  0.60381367  1
  O2-  O134  1  0.00575921  0.24568554  0.93991948  1
  O2-  O135  1  0.00220320  0.75289807  0.27460611  1
  O2-  O136  1  0.00392517  0.75608030  0.60025639  1
  O2-  O137  1  -0.00163119  0.75727897  0.94248643  1
  O2-  O138  1  0.49061769  0.24949989  0.27421486  1
  O2-  O139  1  0.49637122  0.24461122  0.61029940  1
  O2-  O140  1  0.49008956  0.24993200  0.93899270  1
  O2-  O141  1  0.49888469  0.75508327  0.27103635  1
  O2-  O142  1  0.49850420  0.74606785  0.59978914  1
  O2-  O143  1  0.50272755  0.75712138  0.94135392  1
  O2-  O144  1  0.07372146  0.17974691  0.09048017  1
  O2-  O145  1  0.07145213  0.18109959  0.42241993  1
  O2-  O146  1  0.06956266  0.18000971  0.75640073  1
  O2-  O147  1  0.07059088  0.68024910  0.10160495  1
  O2-  O148  1  0.06891474  0.67637168  0.42174993  1
  O2-  O149  1  0.06869418  0.68088830  0.76372574  1
  O2-  O150  1  0.57043633  0.18210091  0.09898071  1
  O2-  O151  1  0.57206072  0.18357893  0.43426631  1
  O2-  O152  1  0.57387768  0.18109385  0.75695808  1
  O2-  O153  1  0.57015810  0.67551466  0.09949940  1
  O2-  O154  1  0.56748729  0.67480532  0.43149833  1
  O2-  O155  1  0.56985663  0.67821243  0.76475219  1
  O2-  O156  1  0.17184400  0.43047893  0.24033135  1
  O2-  O157  1  0.18091307  0.42922201  0.56723095  1
  O2-  O158  1  0.17474235  0.42913209  0.91083935  1
  O2-  O159  1  0.17985612  0.92779651  0.23609286  1
  O2-  O160  1  0.17824484  0.93526972  0.57031966  1
  O2-  O161  1  0.18181725  0.92814224  0.90253415  1
  O2-  O162  1  0.68345043  0.43064496  0.23118182  1
  O2-  O163  1  0.68111904  0.42551855  0.57015064  1
  O2-  O164  1  0.67913102  0.43011128  0.91088965  1
  O2-  O165  1  0.68233904  0.92432374  0.23365649  1
  O2-  O166  1  0.68069026  0.92930391  0.57662196  1
  O2-  O167  1  0.67928364  0.92557267  0.90807515  1
  O2-  O168  1  0.42795682  0.32865888  0.08764021  1
  O2-  O169  1  0.42624461  0.32357524  0.42337500  1
  O2-  O170  1  0.43055740  0.31801934  0.75829617  1
  O2-  O171  1  0.42703119  0.81858028  0.09017436  1
  O2-  O172  1  0.42607081  0.81888583  0.42062199  1
  O2-  O173  1  0.43550390  0.82190433  0.76435775  1
  O2-  O174  1  0.92948491  0.31960677  0.09986644  1
  O2-  O175  1  0.93037869  0.32178834  0.42179414  1
  O2-  O176  1  0.92578085  0.31585907  0.76320491  1
  O2-  O177  1  0.92792381  0.82156789  0.09253531  1
  O2-  O178  1  0.92877009  0.82246070  0.42055845  1
  O2-  O179  1  0.92829065  0.82416773  0.76509140  1
  O2-  O180  1  0.31843090  0.07117024  0.23193757  1
  O2-  O181  1  0.32429782  0.07329067  0.57016800  1
  O2-  O182  1  0.32360658  0.07628798  0.91286195  1
  O2-  O183  1  0.31906697  0.56732796  0.23199245  1
  O2-  O184  1  0.32316487  0.56654129  0.57083367  1
  O2-  O185  1  0.32099465  0.56881602  0.91196669  1
  O2-  O186  1  0.81755575  0.07389105  0.23659261  1
  O2-  O187  1  0.81630838  0.07451747  0.57742049  1
  O2-  O188  1  0.81716975  0.07106235  0.89953061  1
  O2-  O189  1  0.83002050  0.56940723  0.24300934  1
  O2-  O190  1  0.82035672  0.57079039  0.57771133  1
  O2-  O191  1  0.82463352  0.56964966  0.90901849  1
  O2-  O192  1  0.04130988  0.08659169  0.27076356  1
  O2-  O193  1  0.04514712  0.08838543  0.60325313  1
  O2-  O194  1  0.04680745  0.08263148  0.94122962  1
  O2-  O195  1  0.04108098  0.58881852  0.26788555  1
  O2-  O196  1  0.03980147  0.58374954  0.59477344  1
  O2-  O197  1  0.04008674  0.58576858  0.93304145  1
  O2-  O198  1  0.54494970  0.08096406  0.26498827  1
  O2-  O199  1  0.55138479  0.08477005  0.60661629  1
  O2-  O200  1  0.54436161  0.08129604  0.93100353  1
  O2-  O201  1  0.53582735  0.58177961  0.26475446  1
  O2-  O202  1  0.54146627  0.57355067  0.60422982  1
  O2-  O203  1  0.53798611  0.58221161  0.93294596  1
  O2-  O204  1  0.16122608  0.20553998  0.26675221  1
  O2-  O205  1  0.16920549  0.20414453  0.60806539  1
  O2-  O206  1  0.16833325  0.20057744  0.93968203  1
  O2-  O207  1  0.16428834  0.70580049  0.27129076  1
  O2-  O208  1  0.17279762  0.70337753  0.59999738  1
  O2-  O209  1  0.16938583  0.70942614  0.93603036  1
  O2-  O210  1  0.66507865  0.21656569  0.26695743  1
  O2-  O211  1  0.66130620  0.21266361  0.60372108  1
  O2-  O212  1  0.66245909  0.21530420  0.92969039  1
  O2-  O213  1  0.67026333  0.70347741  0.26626713  1
  O2-  O214  1  0.66934465  0.70033239  0.59940092  1
  O2-  O215  1  0.67098474  0.70160318  0.93222783  1
  O2-  O216  1  0.08446988  0.45869278  0.06320979  1
  O2-  O217  1  0.08120855  0.45633543  0.39272070  1
  O2-  O218  1  0.07284825  0.45162043  0.72778908  1
  O2-  O219  1  0.08500890  0.95749141  0.07127217  1
  O2-  O220  1  0.08108367  0.95729237  0.40136027  1
  O2-  O221  1  0.08028078  0.96157082  0.73635194  1
  O2-  O222  1  0.58571154  0.45663411  0.06214672  1
  O2-  O223  1  0.58373487  0.45755757  0.39886451  1
  O2-  O224  1  0.58350878  0.45313731  0.74016649  1
  O2-  O225  1  0.58148624  0.94818740  0.05743083  1
  O2-  O226  1  0.57922991  0.95123659  0.39893039  1
  O2-  O227  1  0.59182990  0.95623114  0.73113178  1
  O2-  O228  1  0.20076740  0.33590319  0.06311548  1
  O2-  O229  1  0.19317804  0.33299580  0.39073780  1
  O2-  O230  1  0.20770702  0.33425920  0.73771134  1
  O2-  O231  1  0.21519509  0.83325775  0.07018376  1
  O2-  O232  1  0.20459137  0.82929132  0.40210249  1
  O2-  O233  1  0.20573059  0.83095401  0.73439452  1
  O2-  O234  1  0.71026302  0.33988703  0.06227578  1
  O2-  O235  1  0.71493278  0.33845259  0.40145859  1
  O2-  O236  1  0.71591069  0.33290589  0.73762812  1
  O2-  O237  1  0.70309027  0.83125683  0.05952141  1
  O2-  O238  1  0.70938798  0.82765711  0.40038661  1
  O2-  O239  1  0.70870530  0.83368752  0.72700329  1
  O2-  O240  1  0.45711434  0.41300509  0.26912450  1
  O2-  O241  1  0.45977454  0.40863651  0.60613191  1
  O2-  O242  1  0.45693174  0.41387358  0.93282009  1
  O2-  O243  1  0.44829615  0.91568281  0.26983390  1
  O2-  O244  1  0.46354721  0.91902921  0.59729339  1
  O2-  O245  1  0.44574606  0.91553809  0.93834630  1
  O2-  O246  1  0.95590980  0.41309420  0.26841272  1
  O2-  O247  1  0.95189979  0.41708036  0.59330792  1
  O2-  O248  1  0.95908484  0.41520762  0.93119375  1
  O2-  O249  1  0.95662246  0.91669780  0.27016209  1
  O2-  O250  1  0.95319263  0.92555269  0.59894240  1
  O2-  O251  1  0.95307199  0.91977075  0.94390085  1
  O2-  O252  1  0.32980947  0.30334594  0.27169601  1
  O2-  O253  1  0.33543330  0.29427898  0.60623496  1
  O2-  O254  1  0.32983375  0.30363878  0.93847484  1
  O2-  O255  1  0.33404318  0.78969479  0.26951830  1
  O2-  O256  1  0.33050907  0.79946622  0.59975104  1
  O2-  O257  1  0.33814208  0.78685411  0.93723144  1
  O2-  O258  1  0.83717154  0.29228477  0.27015946  1
  O2-  O259  1  0.83344646  0.28335629  0.59604583  1
  O2-  O260  1  0.83384450  0.28796091  0.93137875  1
  O2-  O261  1  0.83942194  0.79487113  0.26566637  1
  O2-  O262  1  0.83337069  0.79288948  0.59488800  1
  O2-  O263  1  0.83605059  0.79945899  0.93920684  1
  O2-  O264  1  0.41845154  0.04638394  0.06174409  1
  O2-  O265  1  0.42214292  0.05141056  0.39584805  1
  O2-  O266  1  0.42519430  0.04293421  0.73539509  1
  O2-  O267  1  0.41203181  0.53727783  0.06381263  1
  O2-  O268  1  0.41451307  0.53550078  0.40158130  1
  O2-  O269  1  0.41495179  0.53401157  0.74009393  1
  O2-  O270  1  0.91461422  0.04601080  0.06974482  1
  O2-  O271  1  0.91775482  0.04698506  0.40285019  1
  O2-  O272  1  0.91333881  0.05037713  0.72856748  1
  O2-  O273  1  0.91303185  0.53924684  0.06310011  1
  O2-  O274  1  0.91619388  0.54234695  0.39747648  1
  O2-  O275  1  0.91405659  0.54395195  0.72814049  1
  O2-  O276  1  0.30251667  0.17001663  0.06352440  1
  O2-  O277  1  0.29202341  0.17193474  0.39752475  1
  O2-  O278  1  0.29857115  0.16928908  0.73856836  1
  O2-  O279  1  0.29354531  0.65983286  0.06524942  1
  O2-  O280  1  0.29012632  0.66296897  0.40113077  1
  O2-  O281  1  0.29952770  0.67214410  0.73563482  1
  O2-  O282  1  0.78407726  0.16811176  0.06606075  1
  O2-  O283  1  0.79013531  0.17048167  0.40351968  1
  O2-  O284  1  0.78556268  0.16072061  0.73102749  1
  O2-  O285  1  0.80024084  0.66484855  0.06050301  1
  O2-  O286  1  0.80706005  0.66926897  0.39137862  1
  O2-  O287  1  0.79908931  0.66783118  0.72868182  1
