# generated using pymatgen
data_Ca2Al2SiO7
_symmetry_space_group_name_H-M   'P 1'
_cell_length_a   15.45926268
_cell_length_b   15.45965753
_cell_length_c   15.28496956
_cell_angle_alpha   90.00657188
_cell_angle_beta   89.99557571
_cell_angle_gamma   90.00536628
_symmetry_Int_Tables_number   1
_chemical_formula_structural   Ca2Al2SiO7
_chemical_formula_sum   'Ca48 Al48 Si24 O168'
_cell_volume   3653.02982264
_cell_formula_units_Z   24
loop_
 _symmetry_equiv_pos_site_id
 _symmetry_equiv_pos_as_xyz
  1  'x, y, z'
loop_
 _atom_type_symbol
 _atom_type_oxidation_number
  Ca2+  2.0
  Al0+  0.0
  Si0+  0.0
  O2-  -2.0
loop_
 _atom_site_type_symbol
 _atom_site_label
 _atom_site_symmetry_multiplicity
 _atom_site_fract_x
 _atom_site_fract_y
 _atom_site_fract_z
 _atom_site_occupancy
  Ca2+  Ca0  1  0.17434535  0.07206348  0.17400648  1
  Ca2+  Ca1  1  0.16710980  0.08019884  0.50102761  1
  Ca2+  Ca2  1  0.16166778  0.07892281  0.83525446  1
  Ca2+  Ca3  1  0.17981298  0.57898076  0.16732123  1
  Ca2+  Ca4  1  0.17863329  0.58274780  0.50966501  1
  Ca2+  Ca5  1  0.17249073  0.57716918  0.83640622  1
  Ca2+  Ca6  1  0.66919654  0.07812775  0.17104388  1
  Ca2+  Ca7  1  0.67332793  0.08211648  0.50204826  1
  Ca2+  Ca8  1  0.66773807  0.07521820  0.83912395  1
  Ca2+  Ca9  1  0.66307803  0.57653066  0.17283558  1
  Ca2+  Ca10  1  0.66342579  0.57857125  0.50883521  1
  Ca2+  Ca11  1  0.66915050  0.58409595  0.82638637  1
  Ca2+  Ca12  1  0.07827596  0.33332493  0.15594091  1
  Ca2+  Ca13  1  0.08240223  0.33564994  0.50323094  1
  Ca2+  Ca14  1  0.07991012  0.33675421  0.82283419  1
  Ca2+  Ca15  1  0.09047282  0.83586900  0.16397663  1
  Ca2+  Ca16  1  0.08325516  0.82964528  0.50054466  1
  Ca2+  Ca17  1  0.08075761  0.82693809  0.82405522  1
  Ca2+  Ca18  1  0.57911555  0.33254896  0.16269579  1
  Ca2+  Ca19  1  0.57934450  0.34515040  0.49941327  1
  Ca2+  Ca20  1  0.57127413  0.34243529  0.82855868  1
  Ca2+  Ca21  1  0.57121247  0.83189420  0.16040521  1
  Ca2+  Ca22  1  0.57710781  0.81623264  0.49200542  1
  Ca2+  Ca23  1  0.57835567  0.82891202  0.82803204  1
  Ca2+  Ca24  1  0.33921022  0.42654246  0.16767298  1
  Ca2+  Ca25  1  0.33290599  0.42751773  0.51164086  1
  Ca2+  Ca26  1  0.32856796  0.42372943  0.83661815  1
  Ca2+  Ca27  1  0.32743947  0.91185937  0.17434449  1
  Ca2+  Ca28  1  0.33522315  0.91810687  0.49736447  1
  Ca2+  Ca29  1  0.32785152  0.91666622  0.84353523  1
  Ca2+  Ca30  1  0.82827420  0.41506532  0.17249817  1
  Ca2+  Ca31  1  0.82026122  0.42069120  0.51148326  1
  Ca2+  Ca32  1  0.83784414  0.41815804  0.83273712  1
  Ca2+  Ca33  1  0.82525910  0.92281443  0.17225162  1
  Ca2+  Ca34  1  0.83955837  0.92029989  0.50517164  1
  Ca2+  Ca35  1  0.82848202  0.91244208  0.83754322  1
  Ca2+  Ca36  1  0.41244030  0.17192345  0.16130134  1
  Ca2+  Ca37  1  0.41305575  0.17436399  0.49791582  1
  Ca2+  Ca38  1  0.41278579  0.18139603  0.82870602  1
  Ca2+  Ca39  1  0.41350326  0.67064830  0.16656238  1
  Ca2+  Ca40  1  0.42315496  0.66017659  0.49320581  1
  Ca2+  Ca41  1  0.41520790  0.66617693  0.82921731  1
  Ca2+  Ca42  1  0.91454964  0.17118611  0.16193812  1
  Ca2+  Ca43  1  0.92098482  0.16874749  0.49945121  1
  Ca2+  Ca44  1  0.92479691  0.17963418  0.82489676  1
  Ca2+  Ca45  1  0.92180665  0.66732524  0.16232684  1
  Ca2+  Ca46  1  0.92058738  0.66305317  0.50418080  1
  Ca2+  Ca47  1  0.92403155  0.67016640  0.81863219  1
  Al0+  Al48  1  -0.00098329  0.00069743  0.00428719  1
  Al0+  Al49  1  0.00023829  0.00050523  0.33836470  1
  Al0+  Al50  1  0.00009165  0.00194562  0.66190984  1
  Al0+  Al51  1  0.00036899  0.50097679  0.00062563  1
  Al0+  Al52  1  -0.00122301  0.50013625  0.33005398  1
  Al0+  Al53  1  -0.00052443  0.50086493  0.66230266  1
  Al0+  Al54  1  0.50075197  -0.00167580  -0.00023845  1
  Al0+  Al55  1  0.49996672  0.00022580  0.33465670  1
  Al0+  Al56  1  0.49972324  0.00197485  0.66765537  1
  Al0+  Al57  1  0.50262932  0.50062144  -0.00008189  1
  Al0+  Al58  1  0.50015814  0.49917534  0.33439447  1
  Al0+  Al59  1  0.50037172  0.50137166  0.66821548  1
  Al0+  Al60  1  0.24857237  0.24901566  -0.00145821  1
  Al0+  Al61  1  0.24772370  0.24812933  0.33299937  1
  Al0+  Al62  1  0.25106658  0.24959604  0.66107896  1
  Al0+  Al63  1  0.25128824  0.74935946  0.00289440  1
  Al0+  Al64  1  0.24901860  0.74808505  0.33832101  1
  Al0+  Al65  1  0.24929553  0.75325557  0.66690715  1
  Al0+  Al66  1  0.75140146  0.25035458  -0.00548590  1
  Al0+  Al67  1  0.74881063  0.24987817  0.34059016  1
  Al0+  Al68  1  0.74907374  0.24813348  0.66991712  1
  Al0+  Al69  1  0.74949237  0.74959770  0.00645861  1
  Al0+  Al70  1  0.75175992  0.74822520  0.32714987  1
  Al0+  Al71  1  0.74761218  0.75065517  0.66168026  1
  Al0+  Al72  1  0.17968529  0.42783896  0.67934327  1
  Al0+  Al73  1  0.67788591  0.92741789  0.01425753  1
  Al0+  Al74  1  0.31920959  0.56760365  0.34768858  1
  Al0+  Al75  1  0.07190966  0.17955627  0.64941926  1
  Al0+  Al76  1  0.92943568  0.32222371  0.98622726  1
  Al0+  Al77  1  0.17880030  0.92925157  0.01179223  1
  Al0+  Al78  1  0.67869056  0.42725994  0.68503636  1
  Al0+  Al79  1  0.32323107  0.07321207  0.34931930  1
  Al0+  Al80  1  0.32327593  0.56961284  0.01634293  1
  Al0+  Al81  1  0.81932120  0.06986205  0.34775748  1
  Al0+  Al82  1  0.42893082  0.82040805  0.31845916  1
  Al0+  Al83  1  0.42905806  0.32136714  0.98709776  1
  Al0+  Al84  1  0.17720514  0.42728869  0.01477353  1
  Al0+  Al85  1  0.17976082  0.92793866  0.35158648  1
  Al0+  Al86  1  0.92692896  0.32281446  0.64937654  1
  Al0+  Al87  1  0.92779242  0.82088815  0.65254140  1
  Al0+  Al88  1  0.56765077  0.68109181  0.65419829  1
  Al0+  Al89  1  0.32195901  0.57401588  0.68262641  1
  Al0+  Al90  1  0.68057258  0.43087317  0.34575956  1
  Al0+  Al91  1  0.42854291  0.81983418  0.98563256  1
  Al0+  Al92  1  0.43175168  0.32069330  0.65284995  1
  Al0+  Al93  1  0.57208688  0.67568648  0.31546694  1
  Al0+  Al94  1  0.07329050  0.67817199  0.65140113  1
  Al0+  Al95  1  0.82030204  0.57241125  0.68032500  1
  Si0+  Si96  1  0.32238304  0.07111645  0.68294573  1
  Si0+  Si97  1  0.93023587  0.82366750  0.31573712  1
  Si0+  Si98  1  0.07032743  0.67842702  0.31617342  1
  Si0+  Si99  1  0.81987684  0.07225138  0.01560341  1
  Si0+  Si100  1  0.67881893  0.93010154  0.68010334  1
  Si0+  Si101  1  0.82290403  0.07024210  0.68410500  1
  Si0+  Si102  1  0.42662235  0.82619714  0.65081669  1
  Si0+  Si103  1  0.82492699  0.57347069  0.34894064  1
  Si0+  Si104  1  0.57288757  0.17925630  0.31976454  1
  Si0+  Si105  1  0.57283378  0.17735381  0.98370564  1
  Si0+  Si106  1  0.67807188  0.92570357  0.35047226  1
  Si0+  Si107  1  0.68090181  0.42831258  0.01461795  1
  Si0+  Si108  1  0.82227557  0.57154079  0.01561430  1
  Si0+  Si109  1  0.17819298  0.93168291  0.68230755  1
  Si0+  Si110  1  0.92765613  0.82171608  0.98849353  1
  Si0+  Si111  1  0.07027415  0.17767293  0.31527269  1
  Si0+  Si112  1  0.07050361  0.68095658  0.98673795  1
  Si0+  Si113  1  0.32265488  0.07212620  0.01441889  1
  Si0+  Si114  1  0.17455618  0.42664894  0.34849328  1
  Si0+  Si115  1  0.57472437  0.67829808  0.98193842  1
  Si0+  Si116  1  0.92811195  0.31898810  0.31856483  1
  Si0+  Si117  1  0.07078782  0.17635328  0.98504931  1
  Si0+  Si118  1  0.42827768  0.31963541  0.31887153  1
  Si0+  Si119  1  0.57185745  0.17486197  0.64996505  1
  O2-  O120  1  0.25542367  0.00201822  0.05825146  1
  O2-  O121  1  0.25347860  -0.00065709  0.40001085  1
  O2-  O122  1  0.25133563  0.00018432  0.72508131  1
  O2-  O123  1  0.25360600  0.49399077  0.06557410  1
  O2-  O124  1  0.24507253  0.49215495  0.39276752  1
  O2-  O125  1  0.24841228  0.50224516  0.73047995  1
  O2-  O126  1  0.75120749  0.00402465  0.06041495  1
  O2-  O127  1  0.74850871  -0.00801301  0.39589913  1
  O2-  O128  1  0.75101052  -0.00076488  0.72467752  1
  O2-  O129  1  0.75253331  0.49867284  0.05703540  1
  O2-  O130  1  0.75194599  0.50904426  0.39058268  1
  O2-  O131  1  0.75461327  0.49627691  0.73416093  1
  O2-  O132  1  0.00076557  0.25083060  0.27372484  1
  O2-  O133  1  0.00111747  0.25292539  0.59902713  1
  O2-  O134  1  0.00767499  0.25040063  0.94183315  1
  O2-  O135  1  0.00015879  0.75125590  0.27341793  1
  O2-  O136  1  -0.00143602  0.74842155  0.60168865  1
  O2-  O137  1  0.00000356  0.75346381  0.94566052  1
  O2-  O138  1  0.49709562  0.24527684  0.27728964  1
  O2-  O139  1  0.50891214  0.24821999  0.60548188  1
  O2-  O140  1  0.50258618  0.24459244  0.94060646  1
  O2-  O141  1  0.50250204  0.75065467  0.26648131  1
  O2-  O142  1  0.48945921  0.75224539  0.60796204  1
  O2-  O143  1  0.50411168  0.74596194  0.93924707  1
  O2-  O144  1  0.06701470  0.17352230  0.09079640  1
  O2-  O145  1  0.06983330  0.17744048  0.41978951  1
  O2-  O146  1  0.06828592  0.17478268  0.76334624  1
  O2-  O147  1  0.06782136  0.68097584  0.09237596  1
  O2-  O148  1  0.06795090  0.67620629  0.42055142  1
  O2-  O149  1  0.07383701  0.68326859  0.76576093  1
  O2-  O150  1  0.57571263  0.17917403  0.08972463  1
  O2-  O151  1  0.57581947  0.18112257  0.42444037  1
  O2-  O152  1  0.56693955  0.16789471  0.75539287  1
  O2-  O153  1  0.57698787  0.67879868  0.08734018  1
  O2-  O154  1  0.57103770  0.67578516  0.42885952  1
  O2-  O155  1  0.57051117  0.68606349  0.76748617  1
  O2-  O156  1  0.17270340  0.42831825  0.24273152  1
  O2-  O157  1  0.18477298  0.42760847  0.56537381  1
  O2-  O158  1  0.17417035  0.43100767  0.90197729  1
  O2-  O159  1  0.17896721  0.93079948  0.23740465  1
  O2-  O160  1  0.17796611  0.93254083  0.57772784  1
  O2-  O161  1  0.17670151  0.93139644  0.89854257  1
  O2-  O162  1  0.68352106  0.42759374  0.23168801  1
  O2-  O163  1  0.67789763  0.43013308  0.57140375  1
  O2-  O164  1  0.68038403  0.42844415  0.91033327  1
  O2-  O165  1  0.67973074  0.92957463  0.24457932  1
  O2-  O166  1  0.67822523  0.93393490  0.57532105  1
  O2-  O167  1  0.68136391  0.92768132  0.90075035  1
  O2-  O168  1  0.43313696  0.31953340  0.10092119  1
  O2-  O169  1  0.42983713  0.32020916  0.42365281  1
  O2-  O170  1  0.43116352  0.31807568  0.76616266  1
  O2-  O171  1  0.42831115  0.82063874  0.09830496  1
  O2-  O172  1  0.43174071  0.81992173  0.43203727  1
  O2-  O173  1  0.42982195  0.83071973  0.75662179  1
  O2-  O174  1  0.92602635  0.31828882  0.10019602  1
  O2-  O175  1  0.92860669  0.31826191  0.42273342  1
  O2-  O176  1  0.92794798  0.31873207  0.76334325  1
  O2-  O177  1  0.92758161  0.82038799  0.09375143  1
  O2-  O178  1  0.92965529  0.82425004  0.42026206  1
  O2-  O179  1  0.92969606  0.82221746  0.76712206  1
  O2-  O180  1  0.31920246  0.07775139  0.23551614  1
  O2-  O181  1  0.32539247  0.06879934  0.57827701  1
  O2-  O182  1  0.32175601  0.07193871  0.90864787  1
  O2-  O183  1  0.31889716  0.56669980  0.23446936  1
  O2-  O184  1  0.32252488  0.57184314  0.56886948  1
  O2-  O185  1  0.32115688  0.57088346  0.90341553  1
  O2-  O186  1  0.81648076  0.07071992  0.23410760  1
  O2-  O187  1  0.82211050  0.06962451  0.57890182  1
  O2-  O188  1  0.82022948  0.07054139  0.91024231  1
  O2-  O189  1  0.82952855  0.56939023  0.24269913  1
  O2-  O190  1  0.81525792  0.57380853  0.56675272  1
  O2-  O191  1  0.82318264  0.57513068  0.91129499  1
  O2-  O192  1  0.03927407  0.08618504  0.26871189  1
  O2-  O193  1  0.03893458  0.08342545  0.59431713  1
  O2-  O194  1  0.03876030  0.08475647  0.93720695  1
  O2-  O195  1  0.03978629  0.58776858  0.26599733  1
  O2-  O196  1  0.04776207  0.58088212  0.59605989  1
  O2-  O197  1  0.04027080  0.59039986  0.93953697  1
  O2-  O198  1  0.55093957  0.08573095  0.27275078  1
  O2-  O199  1  0.54149224  0.08413005  0.59980536  1
  O2-  O200  1  0.54982340  0.08296024  0.93834525  1
  O2-  O201  1  0.54038322  0.57774407  0.26237419  1
  O2-  O202  1  0.54061150  0.58407362  0.60052847  1
  O2-  O203  1  0.55192863  0.58383287  0.93732750  1
  O2-  O204  1  0.16246998  0.20344207  0.26687434  1
  O2-  O205  1  0.17069924  0.20309231  0.59554352  1
  O2-  O206  1  0.16624823  0.19336242  0.94013162  1
  O2-  O207  1  0.16204137  0.70650702  0.26948106  1
  O2-  O208  1  0.16973352  0.71272060  0.59737258  1
  O2-  O209  1  0.16198276  0.70828954  0.94022742  1
  O2-  O210  1  0.66261426  0.21244235  0.27019104  1
  O2-  O211  1  0.66827112  0.19342325  0.60804325  1
  O2-  O212  1  0.66550204  0.20288750  0.93564685  1
  O2-  O213  1  0.67337571  0.69823716  0.26370947  1
  O2-  O214  1  0.66133207  0.71497539  0.59687915  1
  O2-  O215  1  0.66837971  0.70738636  0.93722494  1
  O2-  O216  1  0.08013109  0.46039237  0.06988265  1
  O2-  O217  1  0.08097614  0.45434355  0.39337457  1
  O2-  O218  1  0.07865432  0.45184979  0.72773982  1
  O2-  O219  1  0.08230980  0.95917553  0.06804339  1
  O2-  O220  1  0.08207734  0.95912113  0.40361447  1
  O2-  O221  1  0.08672763  0.96240297  0.72934234  1
  O2-  O222  1  0.59033253  0.45684418  0.06399281  1
  O2-  O223  1  0.58374768  0.45855047  0.39920540  1
  O2-  O224  1  0.58272024  0.46250117  0.73807052  1
  O2-  O225  1  0.58201692  0.95889730  0.06913178  1
  O2-  O226  1  0.58582027  0.95310154  0.39676616  1
  O2-  O227  1  0.58808028  0.96070252  0.72941764  1
  O2-  O228  1  0.19834195  0.32552675  0.06479076  1
  O2-  O229  1  0.19550267  0.33115843  0.39100537  1
  O2-  O230  1  0.20892241  0.32852112  0.73082125  1
  O2-  O231  1  0.20809595  0.83336299  0.06704748  1
  O2-  O232  1  0.20424119  0.82920712  0.40400671  1
  O2-  O233  1  0.20314154  0.83971132  0.73035478  1
  O2-  O234  1  0.70854223  0.33533488  0.06080455  1
  O2-  O235  1  0.71191628  0.33644389  0.40233283  1
  O2-  O236  1  0.69917589  0.32559411  0.73568240  1
  O2-  O237  1  0.71065184  0.83333601  0.07185196  1
  O2-  O238  1  0.70350746  0.83024324  0.39181491  1
  O2-  O239  1  0.70552496  0.83874089  0.72770398  1
  O2-  O240  1  0.46104315  0.40898405  0.27017632  1
  O2-  O241  1  0.46233970  0.41707407  0.59942446  1
  O2-  O242  1  0.46383902  0.41677061  0.93385321  1
  O2-  O243  1  0.45453454  0.92143050  0.26722294  1
  O2-  O244  1  0.45841270  0.91757844  0.60346578  1
  O2-  O245  1  0.45853999  0.91751673  0.93202172  1
  O2-  O246  1  0.95265081  0.41208305  0.27040748  1
  O2-  O247  1  0.94935642  0.42181551  0.59613155  1
  O2-  O248  1  0.95603039  0.42067429  0.93459333  1
  O2-  O249  1  0.95881569  0.91570099  0.26855837  1
  O2-  O250  1  0.95853470  0.91809537  0.59899952  1
  O2-  O251  1  0.95115768  0.91542936  0.94285163  1
  O2-  O252  1  0.33526317  0.29437693  0.27177169  1
  O2-  O253  1  0.33792819  0.28663554  0.59657295  1
  O2-  O254  1  0.33185093  0.29136536  0.93365994  1
  O2-  O255  1  0.32907496  0.78994587  0.26874434  1
  O2-  O256  1  0.33073780  0.80890569  0.60800206  1
  O2-  O257  1  0.33137839  0.79009652  0.93187584  1
  O2-  O258  1  0.83649846  0.28715515  0.27207218  1
  O2-  O259  1  0.82783385  0.28943093  0.59986444  1
  O2-  O260  1  0.83464609  0.28942804  0.92999499  1
  O2-  O261  1  0.83823200  0.79756989  0.26669217  1
  O2-  O262  1  0.82950839  0.79702415  0.59786118  1
  O2-  O263  1  0.83584143  0.79234315  0.94224691  1
  O2-  O264  1  0.41745092  0.05038432  0.05929993  1
  O2-  O265  1  0.42323173  0.04967161  0.40175221  1
  O2-  O266  1  0.41372405  0.04379420  0.73227894  1
  O2-  O267  1  0.42304480  0.54264117  0.06849483  1
  O2-  O268  1  0.41559370  0.53581648  0.40008988  1
  O2-  O269  1  0.41919281  0.54422745  0.73562455  1
  O2-  O270  1  0.91229938  0.04663702  0.06426364  1
  O2-  O271  1  0.91573131  0.04146697  0.40185597  1
  O2-  O272  1  0.91418155  0.04085957  0.73125421  1
  O2-  O273  1  0.91336529  0.54460264  0.06516123  1
  O2-  O274  1  0.91685155  0.54385490  0.39575533  1
  O2-  O275  1  0.92138586  0.55052703  0.73038637  1
  O2-  O276  1  0.29602094  0.16475915  0.06180252  1
  O2-  O277  1  0.29083863  0.17080379  0.40262618  1
  O2-  O278  1  0.29339266  0.16268190  0.72913208  1
  O2-  O279  1  0.28947559  0.66611116  0.06995961  1
  O2-  O280  1  0.28850557  0.66297909  0.40195429  1
  O2-  O281  1  0.29542991  0.67450441  0.73322987  1
  O2-  O282  1  0.79312208  0.16600534  0.06150162  1
  O2-  O283  1  0.78542750  0.16353771  0.40438126  1
  O2-  O284  1  0.79495557  0.16087862  0.73309924  1
  O2-  O285  1  0.79394662  0.66170431  0.06684385  1
  O2-  O286  1  0.80624803  0.67004011  0.39048766  1
  O2-  O287  1  0.78739134  0.67070291  0.73322366  1
