# generated using pymatgen
data_Ca2Al2SiO7
_symmetry_space_group_name_H-M   'P 1'
_cell_length_a   15.46073483
_cell_length_b   15.46017990
_cell_length_c   15.28655487
_cell_angle_alpha   89.99768476
_cell_angle_beta   90.00397947
_cell_angle_gamma   90.01958299
_symmetry_Int_Tables_number   1
_chemical_formula_structural   Ca2Al2SiO7
_chemical_formula_sum   'Ca48 Al48 Si24 O168'
_cell_volume   3653.87989241
_cell_formula_units_Z   24
loop_
 _symmetry_equiv_pos_site_id
 _symmetry_equiv_pos_as_xyz
  1  'x, y, z'
loop_
 _atom_type_symbol
 _atom_type_oxidation_number
  Ca2+  2.0
  Al0+  0.0
  Si0+  0.0
  O2-  -2.0
loop_
 _atom_site_type_symbol
 _atom_site_label
 _atom_site_symmetry_multiplicity
 _atom_site_fract_x
 _atom_site_fract_y
 _atom_site_fract_z
 _atom_site_occupancy
  Ca2+  Ca0  1  0.16374297  0.08047116  0.16731162  1
  Ca2+  Ca1  1  0.16710775  0.08511194  0.51231842  1
  Ca2+  Ca2  1  0.16884774  0.07382220  0.83550128  1
  Ca2+  Ca3  1  0.16383206  0.57880433  0.17210569  1
  Ca2+  Ca4  1  0.16718003  0.57017913  0.51098228  1
  Ca2+  Ca5  1  0.15925743  0.58433203  0.83346214  1
  Ca2+  Ca6  1  0.66860801  0.08403437  0.15981543  1
  Ca2+  Ca7  1  0.66990740  0.08190961  0.50343023  1
  Ca2+  Ca8  1  0.67323307  0.07688066  0.84765328  1
  Ca2+  Ca9  1  0.67962605  0.57588682  0.17112017  1
  Ca2+  Ca10  1  0.67609063  0.57947379  0.50501152  1
  Ca2+  Ca11  1  0.67831064  0.58587709  0.83800455  1
  Ca2+  Ca12  1  0.07946532  0.33269558  0.16917032  1
  Ca2+  Ca13  1  0.08915228  0.32751644  0.49234672  1
  Ca2+  Ca14  1  0.08475972  0.32688077  0.82575979  1
  Ca2+  Ca15  1  0.07749858  0.82464776  0.15207808  1
  Ca2+  Ca16  1  0.08230778  0.83085724  0.50347265  1
  Ca2+  Ca17  1  0.07623925  0.83101323  0.82714286  1
  Ca2+  Ca18  1  0.58225090  0.33747791  0.15970066  1
  Ca2+  Ca19  1  0.57443720  0.33831810  0.49132219  1
  Ca2+  Ca20  1  0.58774632  0.32961877  0.83386185  1
  Ca2+  Ca21  1  0.58300358  0.83558301  0.15919891  1
  Ca2+  Ca22  1  0.58232256  0.82381216  0.50053909  1
  Ca2+  Ca23  1  0.58487484  0.83034626  0.82714680  1
  Ca2+  Ca24  1  0.32815480  0.41348840  0.17273803  1
  Ca2+  Ca25  1  0.32376325  0.41420202  0.50504523  1
  Ca2+  Ca26  1  0.32674208  0.42217718  0.82887536  1
  Ca2+  Ca27  1  0.32816493  0.92269979  0.16425104  1
  Ca2+  Ca28  1  0.32316846  0.92749269  0.51238720  1
  Ca2+  Ca29  1  0.32154863  0.92348966  0.83843178  1
  Ca2+  Ca30  1  0.82816705  0.42347772  0.17482187  1
  Ca2+  Ca31  1  0.83985406  0.42686362  0.50055018  1
  Ca2+  Ca32  1  0.83150928  0.43110783  0.84146973  1
  Ca2+  Ca33  1  0.83548998  0.91884343  0.16142469  1
  Ca2+  Ca34  1  0.83631285  0.91581149  0.50574175  1
  Ca2+  Ca35  1  0.83413089  0.91709771  0.84248261  1
  Ca2+  Ca36  1  0.42149031  0.17240954  0.15859443  1
  Ca2+  Ca37  1  0.41316579  0.17315440  0.49417950  1
  Ca2+  Ca38  1  0.41790917  0.15822404  0.83282705  1
  Ca2+  Ca39  1  0.41989437  0.66785868  0.16023235  1
  Ca2+  Ca40  1  0.42225997  0.65476822  0.50232388  1
  Ca2+  Ca41  1  0.42397580  0.66473662  0.82345868  1
  Ca2+  Ca42  1  0.91547068  0.17175067  0.16411907  1
  Ca2+  Ca43  1  0.93235695  0.17545100  0.49318017  1
  Ca2+  Ca44  1  0.91971435  0.16589664  0.82744213  1
  Ca2+  Ca45  1  0.91844054  0.66571920  0.15749017  1
  Ca2+  Ca46  1  0.91605674  0.66556962  0.50233682  1
  Ca2+  Ca47  1  0.92007096  0.67414303  0.82811150  1
  Al0+  Al48  1  0.00006092  0.00003371  0.00505441  1
  Al0+  Al49  1  -0.00005768  -0.00229053  0.33009139  1
  Al0+  Al50  1  -0.00077939  0.00178765  0.66129416  1
  Al0+  Al51  1  0.00090551  0.49867557  0.00006913  1
  Al0+  Al52  1  0.00145336  0.49935041  0.33796350  1
  Al0+  Al53  1  -0.00244182  0.50121490  0.67337730  1
  Al0+  Al54  1  0.49921822  0.00187106  0.00302963  1
  Al0+  Al55  1  0.49921600  -0.00115328  0.33480685  1
  Al0+  Al56  1  0.50108589  -0.00039451  0.66670056  1
  Al0+  Al57  1  0.49702775  0.49988374  0.00041797  1
  Al0+  Al58  1  0.50216435  0.50083266  0.32855431  1
  Al0+  Al59  1  0.49936768  0.49735244  0.66547749  1
  Al0+  Al60  1  0.25105354  0.25209764  0.00152659  1
  Al0+  Al61  1  0.25303528  0.24898004  0.32634465  1
  Al0+  Al62  1  0.25214144  0.25065819  0.67234142  1
  Al0+  Al63  1  0.25095444  0.74934051  0.00004715  1
  Al0+  Al64  1  0.25105079  0.75230417  0.33326295  1
  Al0+  Al65  1  0.25004838  0.75066347  0.66803694  1
  Al0+  Al66  1  0.74766441  0.24975730  0.00111750  1
  Al0+  Al67  1  0.74994051  0.24769225  0.33568828  1
  Al0+  Al68  1  0.74939057  0.24942408  0.66356301  1
  Al0+  Al69  1  0.75017811  0.74988991  0.00510070  1
  Al0+  Al70  1  0.74963008  0.75035370  0.33626428  1
  Al0+  Al71  1  0.74829694  0.74906146  0.66059617  1
  Al0+  Al72  1  0.92912432  0.32227957  0.31858536  1
  Al0+  Al73  1  0.17716587  0.42926007  0.68270773  1
  Al0+  Al74  1  0.67851449  0.92780412  0.01377406  1
  Al0+  Al75  1  0.82302272  0.07267329  0.01462214  1
  Al0+  Al76  1  0.56945909  0.18074370  0.98539314  1
  Al0+  Al77  1  0.32024911  0.07228392  0.01737243  1
  Al0+  Al78  1  0.92826804  0.82123202  0.98604003  1
  Al0+  Al79  1  0.82269281  0.57076171  0.01540121  1
  Al0+  Al80  1  0.67757877  0.42953214  0.01346676  1
  Al0+  Al81  1  0.32243540  0.57092052  0.68018747  1
  Al0+  Al82  1  0.07126694  0.18223168  0.65616514  1
  Al0+  Al83  1  0.92875263  0.82109763  0.65040931  1
  Al0+  Al84  1  0.43182880  0.32128104  0.31877144  1
  Al0+  Al85  1  0.17865063  0.92775882  0.01627210  1
  Al0+  Al86  1  0.67773313  0.42657555  0.34933191  1
  Al0+  Al87  1  0.07278529  0.67732338  0.65015860  1
  Al0+  Al88  1  0.07257378  0.67644533  0.98505246  1
  Al0+  Al89  1  0.17542643  0.92921643  0.68109828  1
  Al0+  Al90  1  0.56944880  0.67798230  0.65298357  1
  Al0+  Al91  1  0.18239523  0.42893237  0.34522880  1
  Al0+  Al92  1  0.32291227  0.07244876  0.68153213  1
  Al0+  Al93  1  0.81904355  0.57181454  0.68238846  1
  Al0+  Al94  1  0.07248951  0.17743357  0.31622563  1
  Al0+  Al95  1  0.82170760  0.57162223  0.35107827  1
  Si0+  Si96  1  0.07183106  0.68013799  0.32057367  1
  Si0+  Si97  1  0.43093840  0.31889245  0.65193605  1
  Si0+  Si98  1  0.92564061  0.32275769  0.65193698  1
  Si0+  Si99  1  0.17901239  0.42874391  0.01608224  1
  Si0+  Si100  1  0.92802540  0.32010974  0.98517284  1
  Si0+  Si101  1  0.42603487  0.32403532  0.97864433  1
  Si0+  Si102  1  0.17790742  0.92782603  0.34914907  1
  Si0+  Si103  1  0.32036367  0.06884206  0.34775632  1
  Si0+  Si104  1  0.57135596  0.68092616  0.31606766  1
  Si0+  Si105  1  0.07197204  0.18018579  0.98513936  1
  Si0+  Si106  1  0.57277629  0.17671723  0.65088274  1
  Si0+  Si107  1  0.67696907  0.42621024  0.68275612  1
  Si0+  Si108  1  0.32112621  0.57127853  0.01487029  1
  Si0+  Si109  1  0.42811089  0.82391757  0.64995532  1
  Si0+  Si110  1  0.32268904  0.57538328  0.34764002  1
  Si0+  Si111  1  0.42938394  0.82186108  0.98475482  1
  Si0+  Si112  1  0.67972414  0.92932154  0.67916906  1
  Si0+  Si113  1  0.67774605  0.92973253  0.35060675  1
  Si0+  Si114  1  0.82300774  0.06959086  0.35051390  1
  Si0+  Si115  1  0.56927569  0.67876911  0.98654743  1
  Si0+  Si116  1  0.57230424  0.17440015  0.31683684  1
  Si0+  Si117  1  0.42932679  0.82225184  0.31745150  1
  Si0+  Si118  1  0.92736358  0.82027550  0.31663316  1
  Si0+  Si119  1  0.81942593  0.07158488  0.67867496  1
  O2-  O120  1  0.24703171  0.00243661  0.06862488  1
  O2-  O121  1  0.24512442  0.00294963  0.39049054  1
  O2-  O122  1  0.25044277  -0.00024099  0.72870297  1
  O2-  O123  1  0.24764742  0.50308880  0.05652800  1
  O2-  O124  1  0.25612943  0.50503159  0.39104466  1
  O2-  O125  1  0.24378442  0.50752278  0.73211061  1
  O2-  O126  1  0.75193729  -0.00151267  0.06393312  1
  O2-  O127  1  0.74989135  -0.00034041  0.39269723  1
  O2-  O128  1  0.74997120  -0.00003180  0.72133694  1
  O2-  O129  1  0.75140189  0.49792121  0.06475922  1
  O2-  O130  1  0.75155450  0.49623605  0.39984346  1
  O2-  O131  1  0.74573060  0.49422742  0.72662871  1
  O2-  O132  1  -0.00068799  0.24889115  0.26678283  1
  O2-  O133  1  0.00010810  0.25982105  0.60865260  1
  O2-  O134  1  -0.00191568  0.24804912  0.94260558  1
  O2-  O135  1  -0.00140330  0.74839200  0.27736883  1
  O2-  O136  1  0.00107484  0.74965362  0.59900833  1
  O2-  O137  1  0.00115486  0.74996394  0.93691660  1
  O2-  O138  1  0.51045637  0.24965468  0.27386047  1
  O2-  O139  1  0.50130280  0.24689473  0.60923132  1
  O2-  O140  1  0.49513937  0.25482173  0.93609636  1
  O2-  O141  1  0.49827708  0.75005441  0.27379526  1
  O2-  O142  1  0.49120333  0.74974199  0.60497541  1
  O2-  O143  1  0.50190142  0.75245706  0.94292536  1
  O2-  O144  1  0.07318429  0.18383440  0.09015747  1
  O2-  O145  1  0.07313141  0.17712711  0.43009393  1
  O2-  O146  1  0.06728841  0.18094314  0.76946846  1
  O2-  O147  1  0.07306266  0.67623083  0.09978520  1
  O2-  O148  1  0.07503026  0.68321291  0.42508885  1
  O2-  O149  1  0.06872119  0.67870056  0.76315496  1
  O2-  O150  1  0.56727846  0.18141060  0.09856823  1
  O2-  O151  1  0.56706653  0.16890179  0.42278330  1
  O2-  O152  1  0.57561391  0.17641553  0.75541033  1
  O2-  O153  1  0.56458575  0.67888355  0.09195057  1
  O2-  O154  1  0.57019243  0.68212247  0.42121426  1
  O2-  O155  1  0.57034883  0.68170152  0.76627021  1
  O2-  O156  1  0.18327682  0.43203673  0.23173403  1
  O2-  O157  1  0.18233654  0.42467405  0.56906098  1
  O2-  O158  1  0.17991406  0.42580389  0.91139172  1
  O2-  O159  1  0.18101242  0.92433248  0.24451168  1
  O2-  O160  1  0.17725149  0.93371095  0.56646957  1
  O2-  O161  1  0.18009454  0.92819316  0.90319090  1
  O2-  O162  1  0.67633951  0.43182404  0.23615564  1
  O2-  O163  1  0.67610402  0.42582593  0.57726846  1
  O2-  O164  1  0.67889132  0.43203400  0.89955527  1
  O2-  O165  1  0.67521967  0.92935965  0.24613824  1
  O2-  O166  1  0.67799036  0.93219754  0.57344926  1
  O2-  O167  1  0.67708587  0.92879409  0.89986950  1
  O2-  O168  1  0.42567567  0.32518508  0.08437602  1
  O2-  O169  1  0.42972102  0.31780988  0.43226457  1
  O2-  O170  1  0.43290264  0.32085716  0.75663755  1
  O2-  O171  1  0.42947920  0.81878957  0.09064435  1
  O2-  O172  1  0.43092302  0.82477042  0.42214059  1
  O2-  O173  1  0.43458560  0.82776277  0.75522619  1
  O2-  O174  1  0.93036247  0.32092186  0.09019019  1
  O2-  O175  1  0.93244772  0.32024469  0.43232646  1
  O2-  O176  1  0.92053950  0.31668815  0.75752684  1
  O2-  O177  1  0.92949264  0.81871045  0.10040197  1
  O2-  O178  1  0.92741290  0.82307992  0.42155530  1
  O2-  O179  1  0.92500703  0.82288081  0.76318961  1
  O2-  O180  1  0.32378164  0.06472136  0.24328497  1
  O2-  O181  1  0.32385426  0.07245795  0.56700324  1
  O2-  O182  1  0.31932231  0.06912475  0.90420052  1
  O2-  O183  1  0.31982720  0.57888032  0.24174089  1
  O2-  O184  1  0.32626655  0.56223292  0.56653297  1
  O2-  O185  1  0.32619714  0.56990891  0.91046265  1
  O2-  O186  1  0.82321046  0.06833295  0.24586869  1
  O2-  O187  1  0.81579701  0.07217137  0.57325599  1
  O2-  O188  1  0.82124450  0.07356992  0.90044969  1
  O2-  O189  1  0.81956347  0.57486417  0.23784323  1
  O2-  O190  1  0.81726034  0.57109265  0.56938096  1
  O2-  O191  1  0.81996584  0.57153156  0.90191186  1
  O2-  O192  1  0.04281066  0.07825398  0.26473148  1
  O2-  O193  1  0.03781840  0.08870966  0.59799481  1
  O2-  O194  1  0.04689638  0.08661527  0.94128423  1
  O2-  O195  1  0.04718045  0.58708315  0.27493319  1
  O2-  O196  1  0.04269776  0.57700051  0.60069211  1
  O2-  O197  1  0.04548004  0.57722767  0.93313449  1
  O2-  O198  1  0.53941153  0.08316363  0.26949399  1
  O2-  O199  1  0.54665174  0.08464915  0.60225055  1
  O2-  O200  1  0.53848945  0.08309080  0.93236773  1
  O2-  O201  1  0.54552202  0.58984041  0.26694484  1
  O2-  O202  1  0.53951632  0.58084159  0.59835444  1
  O2-  O203  1  0.53697510  0.58881223  0.93835766  1
  O2-  O204  1  0.17036393  0.20494705  0.26254533  1
  O2-  O205  1  0.17005277  0.21000188  0.60423939  1
  O2-  O206  1  0.16284691  0.21229978  0.93836007  1
  O2-  O207  1  0.16351423  0.70975427  0.27221247  1
  O2-  O208  1  0.17350082  0.70190891  0.59839371  1
  O2-  O209  1  0.17319550  0.70140195  0.93489491  1
  O2-  O210  1  0.66920432  0.19051274  0.27553525  1
  O2-  O211  1  0.66373387  0.20430714  0.60052391  1
  O2-  O212  1  0.66648091  0.20963300  0.93000328  1
  O2-  O213  1  0.66204387  0.71355994  0.26981255  1
  O2-  O214  1  0.66152035  0.71369953  0.59383492  1
  O2-  O215  1  0.66236723  0.70423853  0.94196169  1
  O2-  O216  1  0.08706433  0.45378211  0.06386538  1
  O2-  O217  1  0.08677367  0.45720448  0.40078865  1
  O2-  O218  1  0.07740697  0.44944316  0.73578065  1
  O2-  O219  1  0.08088257  0.95419839  0.07066954  1
  O2-  O220  1  0.08386076  0.95064564  0.39379202  1
  O2-  O221  1  0.07796354  0.96237694  0.73258620  1
  O2-  O222  1  0.57852547  0.45911167  0.06511382  1
  O2-  O223  1  0.57916383  0.46020388  0.40075458  1
  O2-  O224  1  0.58341533  0.45027422  0.72826445  1
  O2-  O225  1  0.58155204  0.95869506  0.06878843  1
  O2-  O226  1  0.58632932  0.95841304  0.39948400  1
  O2-  O227  1  0.58847421  0.95644315  0.72714300  1
  O2-  O228  1  0.21076233  0.33939050  0.06553990  1
  O2-  O229  1  0.21595774  0.33143939  0.39616683  1
  O2-  O230  1  0.21391208  0.33485503  0.73852019  1
  O2-  O231  1  0.21251344  0.83030268  0.06975465  1
  O2-  O232  1  0.21120374  0.83823978  0.39806341  1
  O2-  O233  1  0.20087893  0.83008516  0.73204623  1
  O2-  O234  1  0.70116854  0.33033085  0.06506007  1
  O2-  O235  1  0.69656476  0.32447244  0.39955546  1
  O2-  O236  1  0.70230488  0.33126044  0.72708629  1
  O2-  O237  1  0.70295554  0.83033689  0.07040334  1
  O2-  O238  1  0.70529205  0.83814115  0.39841509  1
  O2-  O239  1  0.70534305  0.83687330  0.72426666  1
  O2-  O240  1  0.45699330  0.41934149  0.26341628  1
  O2-  O241  1  0.45922550  0.40896686  0.60140796  1
  O2-  O242  1  0.45248547  0.41771937  0.93285455  1
  O2-  O243  1  0.46035679  0.91272655  0.26881669  1
  O2-  O244  1  0.46136281  0.91447496  0.59978112  1
  O2-  O245  1  0.45594171  0.91398349  0.93899073  1
  O2-  O246  1  0.95970199  0.42075604  0.26623734  1
  O2-  O247  1  0.94544305  0.41875661  0.61079500  1
  O2-  O248  1  0.95845433  0.41071006  0.93702548  1
  O2-  O249  1  0.95541099  0.91136134  0.26850774  1
  O2-  O250  1  0.95629655  0.91961195  0.59506471  1
  O2-  O251  1  0.95421571  0.92210586  0.93633768  1
  O2-  O252  1  0.33851897  0.28718881  0.26084405  1
  O2-  O253  1  0.33933870  0.29036836  0.60468512  1
  O2-  O254  1  0.33235737  0.29767064  0.93331993  1
  O2-  O255  1  0.33723299  0.79577915  0.26924111  1
  O2-  O256  1  0.33251655  0.80640079  0.60582168  1
  O2-  O257  1  0.33907546  0.79162920  0.93704591  1
  O2-  O258  1  0.82903201  0.29311881  0.26846978  1
  O2-  O259  1  0.83488267  0.29193648  0.60169613  1
  O2-  O260  1  0.83605391  0.29392729  0.93813867  1
  O2-  O261  1  0.83396679  0.79445861  0.27158857  1
  O2-  O262  1  0.83051065  0.79264367  0.59526622  1
  O2-  O263  1  0.82782710  0.79475995  0.93569680  1
  O2-  O264  1  0.41717555  0.04137930  0.07127782  1
  O2-  O265  1  0.41062360  0.03719733  0.39716867  1
  O2-  O266  1  0.42195522  0.04234744  0.73291239  1
  O2-  O267  1  0.41067130  0.54077519  0.06598510  1
  O2-  O268  1  0.41815838  0.55128270  0.38902243  1
  O2-  O269  1  0.41832212  0.53489894  0.73536435  1
  O2-  O270  1  0.92015977  0.04746074  0.07094514  1
  O2-  O271  1  0.91408797  0.03779247  0.39763529  1
  O2-  O272  1  0.91156310  0.04599606  0.72441839  1
  O2-  O273  1  0.92119650  0.54109544  0.06745709  1
  O2-  O274  1  0.92062098  0.54501737  0.40355599  1
  O2-  O275  1  0.91457078  0.54418143  0.73841335  1
  O2-  O276  1  0.29482647  0.17259191  0.06796958  1
  O2-  O277  1  0.29713799  0.16277902  0.39194271  1
  O2-  O278  1  0.29825395  0.16967136  0.73624852  1
  O2-  O279  1  0.29833585  0.66360374  0.06358699  1
  O2-  O280  1  0.29857422  0.66892085  0.39495623  1
  O2-  O281  1  0.30845490  0.67376987  0.72798780  1
  O2-  O282  1  0.78946456  0.16861457  0.06922175  1
  O2-  O283  1  0.79715431  0.16098461  0.39942077  1
  O2-  O284  1  0.79059555  0.16289899  0.72651482  1
  O2-  O285  1  0.79281950  0.66746503  0.06982609  1
  O2-  O286  1  0.78845826  0.66957242  0.40362247  1
  O2-  O287  1  0.78189911  0.66791416  0.73295972  1
