# generated using pymatgen
data_Ca2Al2SiO7
_symmetry_space_group_name_H-M   'P 1'
_cell_length_a   15.45574445
_cell_length_b   15.45582753
_cell_length_c   15.28201943
_cell_angle_alpha   89.98011517
_cell_angle_beta   90.01039282
_cell_angle_gamma   90.00167820
_symmetry_Int_Tables_number   1
_chemical_formula_structural   Ca2Al2SiO7
_chemical_formula_sum   'Ca48 Al48 Si24 O168'
_cell_volume   3650.58870206
_cell_formula_units_Z   24
loop_
 _symmetry_equiv_pos_site_id
 _symmetry_equiv_pos_as_xyz
  1  'x, y, z'
loop_
 _atom_type_symbol
 _atom_type_oxidation_number
  Ca2+  2.0
  Al0+  0.0
  Si0+  0.0
  O2-  -2.0
loop_
 _atom_site_type_symbol
 _atom_site_label
 _atom_site_symmetry_multiplicity
 _atom_site_fract_x
 _atom_site_fract_y
 _atom_site_fract_z
 _atom_site_occupancy
  Ca2+  Ca0  1  0.16667242  0.07991748  0.17899597  1
  Ca2+  Ca1  1  0.17052179  0.08462911  0.50390120  1
  Ca2+  Ca2  1  0.16772639  0.08860036  0.83582771  1
  Ca2+  Ca3  1  0.16484502  0.58532866  0.16777817  1
  Ca2+  Ca4  1  0.16142192  0.58799416  0.50314021  1
  Ca2+  Ca5  1  0.16487536  0.58128568  0.84674046  1
  Ca2+  Ca6  1  0.67143206  0.09081534  0.17066025  1
  Ca2+  Ca7  1  0.67330193  0.07643021  0.51083583  1
  Ca2+  Ca8  1  0.67862504  0.08034182  0.83855412  1
  Ca2+  Ca9  1  0.67182977  0.57929263  0.17490938  1
  Ca2+  Ca10  1  0.66595062  0.57714708  0.51052964  1
  Ca2+  Ca11  1  0.67864958  0.58684474  0.83302074  1
  Ca2+  Ca12  1  0.08928456  0.32279869  0.16067768  1
  Ca2+  Ca13  1  0.07970136  0.32251653  0.49740844  1
  Ca2+  Ca14  1  0.08427934  0.32739115  0.83102300  1
  Ca2+  Ca15  1  0.08217585  0.82891857  0.16668518  1
  Ca2+  Ca16  1  0.07143683  0.82988753  0.49323446  1
  Ca2+  Ca17  1  0.07563090  0.82010025  0.82471016  1
  Ca2+  Ca18  1  0.58729757  0.32504971  0.16585144  1
  Ca2+  Ca19  1  0.58626991  0.33136858  0.49233922  1
  Ca2+  Ca20  1  0.58615914  0.33160406  0.83127777  1
  Ca2+  Ca21  1  0.58119092  0.82816207  0.16607359  1
  Ca2+  Ca22  1  0.59446634  0.82145210  0.49896541  1
  Ca2+  Ca23  1  0.58483054  0.82940127  0.82483748  1
  Ca2+  Ca24  1  0.32818155  0.41973995  0.16360205  1
  Ca2+  Ca25  1  0.33044947  0.41728752  0.50313650  1
  Ca2+  Ca26  1  0.32488990  0.42531931  0.84098128  1
  Ca2+  Ca27  1  0.32314579  0.92259096  0.17766931  1
  Ca2+  Ca28  1  0.32740369  0.92725267  0.50183781  1
  Ca2+  Ca29  1  0.33247249  0.92227378  0.83446526  1
  Ca2+  Ca30  1  0.83161820  0.42339340  0.16998496  1
  Ca2+  Ca31  1  0.82096789  0.42234334  0.50727625  1
  Ca2+  Ca32  1  0.83335210  0.42748388  0.83465951  1
  Ca2+  Ca33  1  0.83884616  0.92185616  0.16804684  1
  Ca2+  Ca34  1  0.83392918  0.91580201  0.50776266  1
  Ca2+  Ca35  1  0.83603206  0.92088768  0.82946770  1
  Ca2+  Ca36  1  0.42852645  0.15899332  0.16435833  1
  Ca2+  Ca37  1  0.42029035  0.16258766  0.49386378  1
  Ca2+  Ca38  1  0.42111513  0.16694464  0.82841003  1
  Ca2+  Ca39  1  0.42011166  0.66238116  0.16369579  1
  Ca2+  Ca40  1  0.43049001  0.66623714  0.49547483  1
  Ca2+  Ca41  1  0.41996200  0.66536238  0.82742563  1
  Ca2+  Ca42  1  0.92721190  0.16527767  0.15929954  1
  Ca2+  Ca43  1  0.92641464  0.15746241  0.49757998  1
  Ca2+  Ca44  1  0.92467728  0.15854202  0.82907437  1
  Ca2+  Ca45  1  0.92329954  0.67089462  0.16195856  1
  Ca2+  Ca46  1  0.91698156  0.67640246  0.49596663  1
  Ca2+  Ca47  1  0.92116876  0.66357651  0.82384247  1
  Al0+  Al48  1  -0.00092122  -0.00055703  -0.00098829  1
  Al0+  Al49  1  0.00025152  -0.00084672  0.32931072  1
  Al0+  Al50  1  0.00246487  -0.00248282  0.66303164  1
  Al0+  Al51  1  -0.00079488  0.49780767  0.00694696  1
  Al0+  Al52  1  -0.00030803  0.50117936  0.33279991  1
  Al0+  Al53  1  -0.00036258  0.49556377  0.66469755  1
  Al0+  Al54  1  0.50090168  -0.00161698  -0.00484857  1
  Al0+  Al55  1  0.50088611  -0.00029679  0.33315439  1
  Al0+  Al56  1  0.49831208  0.00080664  0.67432151  1
  Al0+  Al57  1  0.49927052  0.49917597  0.00284424  1
  Al0+  Al58  1  0.49951239  0.49855878  0.33126783  1
  Al0+  Al59  1  0.49708165  0.49826089  0.66724726  1
  Al0+  Al60  1  0.25302681  0.25098329  -0.00001866  1
  Al0+  Al61  1  0.25134885  0.25293073  0.33339088  1
  Al0+  Al62  1  0.25123919  0.25100565  0.66684614  1
  Al0+  Al63  1  0.25072337  0.75161121  -0.00005240  1
  Al0+  Al64  1  0.24983638  0.75084895  0.33700369  1
  Al0+  Al65  1  0.25156380  0.75164258  0.66260149  1
  Al0+  Al66  1  0.75108873  0.24895202  -0.00094679  1
  Al0+  Al67  1  0.74992739  0.25191066  0.33446685  1
  Al0+  Al68  1  0.75010899  0.24996556  0.67460019  1
  Al0+  Al69  1  0.74884176  0.75113691  0.00476338  1
  Al0+  Al70  1  0.75122804  0.75164689  0.32246591  1
  Al0+  Al71  1  0.74951283  0.74908525  0.66698327  1
  Al0+  Al72  1  0.57101285  0.17864139  0.32262405  1
  Al0+  Al73  1  0.57039592  0.67740963  0.31845568  1
  Al0+  Al74  1  0.82454786  0.07047006  0.68077486  1
  Al0+  Al75  1  0.82089881  0.57235394  0.01585872  1
  Al0+  Al76  1  0.06934861  0.67950025  0.98754532  1
  Al0+  Al77  1  0.07114377  0.18037395  0.65312756  1
  Al0+  Al78  1  0.92888902  0.81918195  0.65222427  1
  Al0+  Al79  1  0.67475090  0.42797236  0.68376503  1
  Al0+  Al80  1  0.07279374  0.67452689  0.65262374  1
  Al0+  Al81  1  0.67939168  0.43022010  0.34658630  1
  Al0+  Al82  1  0.07251339  0.67802188  0.31662886  1
  Al0+  Al83  1  0.31909018  0.07243022  0.68269444  1
  Al0+  Al84  1  0.17670533  0.92865896  0.35037091  1
  Al0+  Al85  1  0.07084064  0.18141893  0.32013474  1
  Al0+  Al86  1  0.32211843  0.07275705  0.34755851  1
  Al0+  Al87  1  0.32101874  0.57381378  0.01540726  1
  Al0+  Al88  1  0.56836529  0.67966554  0.65542391  1
  Al0+  Al89  1  0.57218243  0.17857568  0.98385365  1
  Al0+  Al90  1  0.92832339  0.82222225  0.31438070  1
  Al0+  Al91  1  0.17838730  0.42795525  0.01595995  1
  Al0+  Al92  1  0.07217256  0.17833018  0.98626943  1
  Al0+  Al93  1  0.67850477  0.92759699  0.68107708  1
  Al0+  Al94  1  0.82117925  0.56998852  0.67912818  1
  Al0+  Al95  1  0.82075235  0.06990180  0.01536943  1
  Si0+  Si96  1  0.42953580  0.31969578  0.65126036  1
  Si0+  Si97  1  0.67780843  0.42797833  0.01783675  1
  Si0+  Si98  1  0.42727914  0.32326219  0.31471849  1
  Si0+  Si99  1  0.42891764  0.82057642  0.98440208  1
  Si0+  Si100  1  0.92779952  0.32164579  0.98326120  1
  Si0+  Si101  1  0.67888466  0.92832695  0.34615572  1
  Si0+  Si102  1  0.42960167  0.32252347  0.98145159  1
  Si0+  Si103  1  0.57152112  0.17889563  0.65366757  1
  Si0+  Si104  1  0.17792714  0.42925551  0.35018137  1
  Si0+  Si105  1  0.92612419  0.82156472  0.98118652  1
  Si0+  Si106  1  0.32300512  0.07090257  0.01432128  1
  Si0+  Si107  1  0.17977366  0.42926088  0.67950490  1
  Si0+  Si108  1  0.57085901  0.67802901  0.98542101  1
  Si0+  Si109  1  0.82128177  0.57411318  0.34978630  1
  Si0+  Si110  1  0.32124977  0.57082692  0.34980296  1
  Si0+  Si111  1  0.92524752  0.32153250  0.64955407  1
  Si0+  Si112  1  0.42882672  0.82133701  0.31782526  1
  Si0+  Si113  1  0.17975577  0.93076751  0.01340609  1
  Si0+  Si114  1  0.82028498  0.07140521  0.34664211  1
  Si0+  Si115  1  0.17905966  0.92696067  0.68498277  1
  Si0+  Si116  1  0.42739981  0.82591896  0.64837345  1
  Si0+  Si117  1  0.67552871  0.92883537  0.01956152  1
  Si0+  Si118  1  0.92731856  0.32229787  0.31718858  1
  Si0+  Si119  1  0.31960605  0.57196984  0.67871787  1
  O2-  O120  1  0.24710356  0.00568301  0.05615254  1
  O2-  O121  1  0.24691261  0.00444205  0.39805015  1
  O2-  O122  1  0.24543291  -0.00247130  0.73081106  1
  O2-  O123  1  0.24671940  0.50428089  0.06562026  1
  O2-  O124  1  0.24668654  0.50319940  0.39215761  1
  O2-  O125  1  0.24074705  0.50980606  0.72028842  1
  O2-  O126  1  0.74396162  -0.00216377  0.06367962  1
  O2-  O127  1  0.74930105  -0.00001610  0.38774195  1
  O2-  O128  1  0.75030731  0.00009837  0.73050594  1
  O2-  O129  1  0.74450040  0.49852293  0.06195374  1
  O2-  O130  1  0.75036537  0.50763096  0.39384187  1
  O2-  O131  1  0.74796968  0.49967865  0.73136389  1
  O2-  O132  1  -0.00265546  0.25589802  0.27147826  1
  O2-  O133  1  -0.00947276  0.24872689  0.60615482  1
  O2-  O134  1  -0.00256038  0.25306423  0.93964726  1
  O2-  O135  1  0.00082557  0.74964558  0.26615434  1
  O2-  O136  1  -0.00003144  0.74550611  0.60317985  1
  O2-  O137  1  -0.00896208  0.74855176  0.93845277  1
  O2-  O138  1  0.49421144  0.25078508  0.27398898  1
  O2-  O139  1  0.50293800  0.25118227  0.60952395  1
  O2-  O140  1  0.49817492  0.25397429  0.93683695  1
  O2-  O141  1  0.49490121  0.75131310  0.27107416  1
  O2-  O142  1  0.49737672  0.75731823  0.60613855  1
  O2-  O143  1  0.49877767  0.74790766  0.94320537  1
  O2-  O144  1  0.07197868  0.17795438  0.09950215  1
  O2-  O145  1  0.07015703  0.18281436  0.43329748  1
  O2-  O146  1  0.07326543  0.18461450  0.76630891  1
  O2-  O147  1  0.07092225  0.68478628  0.10004736  1
  O2-  O148  1  0.06943832  0.67731291  0.42990121  1
  O2-  O149  1  0.07378519  0.67528351  0.76673318  1
  O2-  O150  1  0.56997529  0.17918904  0.09739619  1
  O2-  O151  1  0.57159758  0.17961928  0.43583551  1
  O2-  O152  1  0.56802462  0.18014719  0.75871223  1
  O2-  O153  1  0.56940715  0.67950667  0.09064371  1
  O2-  O154  1  0.56994113  0.67742151  0.43159800  1
  O2-  O155  1  0.56459790  0.67939818  0.76887601  1
  O2-  O156  1  0.18035805  0.42641905  0.24561962  1
  O2-  O157  1  0.18449067  0.42572986  0.57421708  1
  O2-  O158  1  0.18132674  0.42792480  0.90174212  1
  O2-  O159  1  0.17992725  0.93009194  0.23572424  1
  O2-  O160  1  0.18131776  0.92744200  0.57980778  1
  O2-  O161  1  0.18296347  0.92983409  0.90835917  1
  O2-  O162  1  0.68186007  0.42978959  0.23338143  1
  O2-  O163  1  0.67366933  0.42902596  0.56989267  1
  O2-  O164  1  0.67707012  0.42991201  0.91247293  1
  O2-  O165  1  0.67685056  0.92976900  0.24100125  1
  O2-  O166  1  0.67734886  0.92981037  0.56688890  1
  O2-  O167  1  0.67373521  0.92812742  0.91434830  1
  O2-  O168  1  0.42928895  0.32241161  0.08690568  1
  O2-  O169  1  0.42736961  0.32640709  0.42060245  1
  O2-  O170  1  0.42709444  0.31948655  0.75617761  1
  O2-  O171  1  0.43013435  0.82324520  0.08940374  1
  O2-  O172  1  0.43139391  0.82030813  0.42313983  1
  O2-  O173  1  0.42499403  0.82304691  0.75446536  1
  O2-  O174  1  0.92656082  0.31903518  0.08909432  1
  O2-  O175  1  0.92774516  0.32042125  0.42276728  1
  O2-  O176  1  0.92939199  0.32603194  0.75491683  1
  O2-  O177  1  0.92860218  0.82311552  0.08663351  1
  O2-  O178  1  0.92474873  0.82136880  0.42754023  1
  O2-  O179  1  0.93169987  0.81912114  0.76609370  1
  O2-  O180  1  0.32349354  0.06917652  0.23335756  1
  O2-  O181  1  0.31969792  0.07318917  0.56997321  1
  O2-  O182  1  0.32367554  0.06864959  0.90910631  1
  O2-  O183  1  0.32306751  0.56878164  0.24493897  1
  O2-  O184  1  0.32378518  0.56727831  0.57359183  1
  O2-  O185  1  0.32203320  0.57235137  0.90128743  1
  O2-  O186  1  0.81884510  0.07262332  0.24138201  1
  O2-  O187  1  0.82155530  0.07104648  0.56656014  1
  O2-  O188  1  0.82196609  0.06674278  0.90279156  1
  O2-  O189  1  0.82016326  0.57093424  0.24391239  1
  O2-  O190  1  0.81883603  0.56856340  0.56551430  1
  O2-  O191  1  0.81986208  0.57253273  0.90288268  1
  O2-  O192  1  0.04066108  0.08531666  0.26623961  1
  O2-  O193  1  0.04703939  0.08202444  0.60028069  1
  O2-  O194  1  0.04094102  0.08168865  0.93227732  1
  O2-  O195  1  0.04577046  0.57809626  0.26509018  1
  O2-  O196  1  0.04965687  0.57406307  0.60141859  1
  O2-  O197  1  0.04368183  0.57882027  0.93971197  1
  O2-  O198  1  0.54260825  0.08205926  0.26625499  1
  O2-  O199  1  0.54101190  0.08688334  0.60839109  1
  O2-  O200  1  0.54000563  0.08215074  0.93038124  1
  O2-  O201  1  0.53774148  0.58176248  0.26376136  1
  O2-  O202  1  0.53242995  0.58404836  0.60139970  1
  O2-  O203  1  0.54434552  0.58526870  0.94000579  1
  O2-  O204  1  0.16833308  0.21231414  0.26764972  1
  O2-  O205  1  0.16586063  0.21839142  0.59944938  1
  O2-  O206  1  0.17057124  0.20815607  0.93470188  1
  O2-  O207  1  0.17328550  0.70503287  0.26750057  1
  O2-  O208  1  0.17234465  0.70246290  0.60091607  1
  O2-  O209  1  0.16672189  0.71195591  0.93469146  1
  O2-  O210  1  0.66632911  0.21320810  0.26730440  1
  O2-  O211  1  0.66515034  0.20352248  0.60877373  1
  O2-  O212  1  0.66910425  0.20862725  0.93085441  1
  O2-  O213  1  0.66468465  0.70931472  0.26172733  1
  O2-  O214  1  0.66498293  0.70682656  0.60066920  1
  O2-  O215  1  0.66253498  0.70861438  0.93950024  1
  O2-  O216  1  0.07968843  0.44839131  0.07034327  1
  O2-  O217  1  0.08486632  0.45371149  0.39712319  1
  O2-  O218  1  0.08510584  0.44486126  0.72512245  1
  O2-  O219  1  0.08707374  0.95498470  0.05996447  1
  O2-  O220  1  0.07745339  0.95677302  0.40088341  1
  O2-  O221  1  0.08524100  0.95039717  0.73019678  1
  O2-  O222  1  0.58352036  0.45100091  0.06373115  1
  O2-  O223  1  0.58047299  0.45667832  0.39835651  1
  O2-  O224  1  0.57563462  0.45568119  0.73606532  1
  O2-  O225  1  0.58113142  0.95425485  0.06483863  1
  O2-  O226  1  0.58747084  0.95373314  0.39466940  1
  O2-  O227  1  0.58026500  0.95442585  0.73594314  1
  O2-  O228  1  0.21510349  0.33152984  0.07009454  1
  O2-  O229  1  0.20987841  0.33966539  0.40013379  1
  O2-  O230  1  0.21814064  0.34269718  0.72981262  1
  O2-  O231  1  0.21278880  0.84153687  0.06238848  1
  O2-  O232  1  0.20785281  0.83147340  0.40425738  1
  O2-  O233  1  0.20874548  0.83386135  0.73148719  1
  O2-  O234  1  0.70556024  0.33442576  0.06263486  1
  O2-  O235  1  0.71195917  0.33459676  0.40251777  1
  O2-  O236  1  0.70232083  0.33028407  0.73776797  1
  O2-  O237  1  0.70019866  0.83532561  0.06644087  1
  O2-  O238  1  0.70828576  0.83560960  0.39096143  1
  O2-  O239  1  0.70497269  0.82955115  0.73517147  1
  O2-  O240  1  0.45637800  0.41420343  0.26552392  1
  O2-  O241  1  0.45404296  0.41172586  0.60217282  1
  O2-  O242  1  0.45514916  0.41663649  0.93517190  1
  O2-  O243  1  0.45681620  0.91348345  0.26948125  1
  O2-  O244  1  0.45171706  0.92073892  0.60505114  1
  O2-  O245  1  0.45821133  0.91055201  0.93354633  1
  O2-  O246  1  0.95085374  0.41671530  0.27234459  1
  O2-  O247  1  0.95522565  0.41152337  0.59843463  1
  O2-  O248  1  0.95445064  0.41523110  0.93796217  1
  O2-  O249  1  0.95818275  0.91978901  0.26007509  1
  O2-  O250  1  0.95882357  0.91642134  0.59722850  1
  O2-  O251  1  0.95681263  0.91339119  0.93503405  1
  O2-  O252  1  0.33332972  0.30130396  0.26846819  1
  O2-  O253  1  0.33954537  0.28954549  0.60131389  1
  O2-  O254  1  0.33676840  0.29627489  0.93392253  1
  O2-  O255  1  0.33462186  0.79730799  0.27268007  1
  O2-  O256  1  0.33514850  0.79994334  0.60043015  1
  O2-  O257  1  0.33770171  0.79453812  0.93488261  1
  O2-  O258  1  0.83473232  0.29555557  0.26979046  1
  O2-  O259  1  0.82933910  0.29969839  0.60648855  1
  O2-  O260  1  0.83466179  0.29722019  0.93640078  1
  O2-  O261  1  0.83126598  0.79613411  0.25682731  1
  O2-  O262  1  0.82964638  0.79373065  0.59953811  1
  O2-  O263  1  0.82941843  0.80071357  0.93984216  1
  O2-  O264  1  0.41344274  0.03671629  0.06064099  1
  O2-  O265  1  0.41982373  0.04035307  0.40095483  1
  O2-  O266  1  0.41451737  0.04203884  0.73941219  1
  O2-  O267  1  0.41841992  0.54126384  0.06952342  1
  O2-  O268  1  0.41147440  0.53763990  0.39761293  1
  O2-  O269  1  0.40668878  0.53583226  0.72998530  1
  O2-  O270  1  0.91739969  0.03737008  0.06944289  1
  O2-  O271  1  0.91221399  0.04284658  0.39231401  1
  O2-  O272  1  0.92304257  0.03995319  0.73282397  1
  O2-  O273  1  0.91511578  0.53923101  0.07231874  1
  O2-  O274  1  0.91462576  0.54722129  0.39513539  1
  O2-  O275  1  0.91930007  0.53765639  0.73234237  1
  O2-  O276  1  0.30381786  0.16520935  0.05913438  1
  O2-  O277  1  0.29903750  0.17365870  0.39805454  1
  O2-  O278  1  0.28811285  0.16916065  0.73693882  1
  O2-  O279  1  0.29695039  0.67344554  0.06798337  1
  O2-  O280  1  0.29933505  0.66366258  0.39743876  1
  O2-  O281  1  0.30303978  0.66743057  0.72339322  1
  O2-  O282  1  0.79146608  0.16763011  0.06832518  1
  O2-  O283  1  0.79327152  0.16289728  0.39442330  1
  O2-  O284  1  0.79901619  0.16866957  0.73521886  1
  O2-  O285  1  0.78999329  0.66888140  0.07025417  1
  O2-  O286  1  0.79613742  0.66982715  0.39018012  1
  O2-  O287  1  0.79306543  0.66729756  0.73357222  1
