# generated using pymatgen
data_Ca2Al2SiO7
_symmetry_space_group_name_H-M   'P 1'
_cell_length_a   15.46273997
_cell_length_b   15.46332132
_cell_length_c   15.28673760
_cell_angle_alpha   89.99848812
_cell_angle_beta   89.99575270
_cell_angle_gamma   89.97939176
_symmetry_Int_Tables_number   1
_chemical_formula_structural   Ca2Al2SiO7
_chemical_formula_sum   'Ca48 Al48 Si24 O168'
_cell_volume   3655.13998579
_cell_formula_units_Z   24
loop_
 _symmetry_equiv_pos_site_id
 _symmetry_equiv_pos_as_xyz
  1  'x, y, z'
loop_
 _atom_type_symbol
 _atom_type_oxidation_number
  Ca2+  2.0
  Al0+  0.0
  Si0+  0.0
  O2-  -2.0
loop_
 _atom_site_type_symbol
 _atom_site_label
 _atom_site_symmetry_multiplicity
 _atom_site_fract_x
 _atom_site_fract_y
 _atom_site_fract_z
 _atom_site_occupancy
  Ca2+  Ca0  1  0.16516956  0.08479760  0.16653043  1
  Ca2+  Ca1  1  0.17164296  0.08134299  0.51153648  1
  Ca2+  Ca2  1  0.17011152  0.09088618  0.83548990  1
  Ca2+  Ca3  1  0.16323818  0.57074124  0.16702116  1
  Ca2+  Ca4  1  0.17340083  0.57601427  0.50717064  1
  Ca2+  Ca5  1  0.17157928  0.58327199  0.84027588  1
  Ca2+  Ca6  1  0.66979169  0.09002912  0.17030323  1
  Ca2+  Ca7  1  0.67776241  0.08057616  0.51074235  1
  Ca2+  Ca8  1  0.66375811  0.08024762  0.83652501  1
  Ca2+  Ca9  1  0.66551938  0.58120961  0.16019803  1
  Ca2+  Ca10  1  0.66514681  0.58402615  0.50709144  1
  Ca2+  Ca11  1  0.66747882  0.58220109  0.84405846  1
  Ca2+  Ca12  1  0.07561836  0.33640093  0.15785147  1
  Ca2+  Ca13  1  0.08025572  0.32684585  0.49451989  1
  Ca2+  Ca14  1  0.08195394  0.32873589  0.83413847  1
  Ca2+  Ca15  1  0.08032112  0.82451655  0.15831175  1
  Ca2+  Ca16  1  0.08992414  0.82461016  0.50221563  1
  Ca2+  Ca17  1  0.08282417  0.82037015  0.82956804  1
  Ca2+  Ca18  1  0.57346874  0.33189464  0.15627250  1
  Ca2+  Ca19  1  0.56759242  0.33616341  0.49688449  1
  Ca2+  Ca20  1  0.57614475  0.33677436  0.83193250  1
  Ca2+  Ca21  1  0.57249676  0.83075522  0.15782666  1
  Ca2+  Ca22  1  0.57787954  0.83548750  0.50249390  1
  Ca2+  Ca23  1  0.57860734  0.82471458  0.82755086  1
  Ca2+  Ca24  1  0.32262151  0.40673097  0.16935180  1
  Ca2+  Ca25  1  0.33062565  0.41614983  0.50797844  1
  Ca2+  Ca26  1  0.33314983  0.41950583  0.83927229  1
  Ca2+  Ca27  1  0.33713290  0.91478878  0.16912830  1
  Ca2+  Ca28  1  0.33990807  0.92105233  0.50911654  1
  Ca2+  Ca29  1  0.34451207  0.92100736  0.83434256  1
  Ca2+  Ca30  1  0.83294961  0.41464455  0.16507367  1
  Ca2+  Ca31  1  0.83165201  0.41359871  0.50115856  1
  Ca2+  Ca32  1  0.82631020  0.42083699  0.84631088  1
  Ca2+  Ca33  1  0.83068010  0.92681566  0.17465917  1
  Ca2+  Ca34  1  0.82805450  0.92855849  0.51146774  1
  Ca2+  Ca35  1  0.82843311  0.92007675  0.83311006  1
  Ca2+  Ca36  1  0.42152150  0.17729927  0.15813289  1
  Ca2+  Ca37  1  0.40947731  0.17652239  0.50009158  1
  Ca2+  Ca38  1  0.41685320  0.17862669  0.83135146  1
  Ca2+  Ca39  1  0.41933737  0.67875409  0.15777631  1
  Ca2+  Ca40  1  0.41668487  0.67429778  0.50134651  1
  Ca2+  Ca41  1  0.42536459  0.67082034  0.82335642  1
  Ca2+  Ca42  1  0.91901057  0.17750676  0.15906965  1
  Ca2+  Ca43  1  0.91771432  0.16508726  0.49623747  1
  Ca2+  Ca44  1  0.92523851  0.16869253  0.82936666  1
  Ca2+  Ca45  1  0.92146224  0.66308590  0.15619738  1
  Ca2+  Ca46  1  0.92424370  0.66505203  0.50012707  1
  Ca2+  Ca47  1  0.92821434  0.65408331  0.83226064  1
  Al0+  Al48  1  0.00116052  -0.00059143  -0.00122804  1
  Al0+  Al49  1  0.00107675  -0.00256040  0.33885369  1
  Al0+  Al50  1  0.00062140  -0.00030552  0.66743657  1
  Al0+  Al51  1  0.00090528  0.50025943  -0.00082513  1
  Al0+  Al52  1  0.00100134  0.49740273  0.33623120  1
  Al0+  Al53  1  -0.00046780  0.49797460  0.66027058  1
  Al0+  Al54  1  0.49999809  0.00253696  -0.00301972  1
  Al0+  Al55  1  0.50036425  -0.00173541  0.33068348  1
  Al0+  Al56  1  0.50128562  0.00091067  0.67226621  1
  Al0+  Al57  1  0.49974482  0.50305038  0.00079707  1
  Al0+  Al58  1  0.49996352  0.50123841  0.32852311  1
  Al0+  Al59  1  0.49854955  0.50067938  0.66177146  1
  Al0+  Al60  1  0.25051553  0.24949244  -0.00040767  1
  Al0+  Al61  1  0.24861199  0.24793722  0.33440615  1
  Al0+  Al62  1  0.24698089  0.24822214  0.66315483  1
  Al0+  Al63  1  0.24746970  0.75305586  -0.00499077  1
  Al0+  Al64  1  0.25088269  0.74821252  0.32887766  1
  Al0+  Al65  1  0.25034888  0.74808040  0.66218225  1
  Al0+  Al66  1  0.74947391  0.25034687  -0.00238785  1
  Al0+  Al67  1  0.75128300  0.25145588  0.33635360  1
  Al0+  Al68  1  0.75054263  0.25123034  0.67128127  1
  Al0+  Al69  1  0.74877262  0.75310418  0.00413351  1
  Al0+  Al70  1  0.75121337  0.74929173  0.33475566  1
  Al0+  Al71  1  0.75168528  0.75007782  0.66661581  1
  Al0+  Al72  1  0.18187403  0.42904657  0.01207997  1
  Al0+  Al73  1  0.42898626  0.32011754  0.65316117  1
  Al0+  Al74  1  0.17961895  0.42772969  0.34862742  1
  Al0+  Al75  1  0.06846587  0.67866646  0.98765780  1
  Al0+  Al76  1  0.43028922  0.82052802  0.31868951  1
  Al0+  Al77  1  0.92930579  0.32009523  0.31919958  1
  Al0+  Al78  1  0.57355642  0.67825119  0.65051269  1
  Al0+  Al79  1  0.42792520  0.32285383  0.98576030  1
  Al0+  Al80  1  0.57242397  0.17982115  0.98530920  1
  Al0+  Al81  1  0.57157272  0.68062749  0.98570094  1
  Al0+  Al82  1  0.32011702  0.07179602  0.68134665  1
  Al0+  Al83  1  0.67938832  0.92826278  0.68404103  1
  Al0+  Al84  1  0.42733983  0.82236775  0.98340159  1
  Al0+  Al85  1  0.07087520  0.17734095  0.98576431  1
  Al0+  Al86  1  0.32035713  0.56999528  0.67950430  1
  Al0+  Al87  1  0.67656336  0.42758572  0.01591382  1
  Al0+  Al88  1  0.43036723  0.82266758  0.65115474  1
  Al0+  Al89  1  0.06911997  0.17839861  0.65167346  1
  Al0+  Al90  1  0.07163778  0.67669772  0.65114661  1
  Al0+  Al91  1  0.82062398  0.07177555  0.34703539  1
  Al0+  Al92  1  0.82100656  0.57178021  0.01456509  1
  Al0+  Al93  1  0.92890731  0.32238189  0.98440269  1
  Al0+  Al94  1  0.42674036  0.32114466  0.31917107  1
  Al0+  Al95  1  0.82297526  0.07321858  0.68574652  1
  Si0+  Si96  1  0.92919020  0.82083069  0.32001273  1
  Si0+  Si97  1  0.32105513  0.06848878  0.34694904  1
  Si0+  Si98  1  0.17742135  0.92829616  0.01565751  1
  Si0+  Si99  1  0.92942054  0.82149109  0.64945648  1
  Si0+  Si100  1  0.17860175  0.92606186  0.68396775  1
  Si0+  Si101  1  0.32072759  0.06992697  0.01638870  1
  Si0+  Si102  1  0.67786546  0.43084248  0.67953019  1
  Si0+  Si103  1  0.06964785  0.67869649  0.31795752  1
  Si0+  Si104  1  0.67777069  0.43030539  0.34904491  1
  Si0+  Si105  1  0.17951053  0.92568485  0.34825237  1
  Si0+  Si106  1  0.57160212  0.17943840  0.32075186  1
  Si0+  Si107  1  0.82308245  0.07023546  0.01558956  1
  Si0+  Si108  1  0.32218856  0.57273587  0.34894319  1
  Si0+  Si109  1  0.17679607  0.42764560  0.68319507  1
  Si0+  Si110  1  0.57371273  0.17912356  0.65050709  1
  Si0+  Si111  1  0.82277637  0.56994165  0.67920827  1
  Si0+  Si112  1  0.07118977  0.17469127  0.31745106  1
  Si0+  Si113  1  0.67780928  0.93154439  0.01757265  1
  Si0+  Si114  1  0.57586084  0.67758482  0.31459267  1
  Si0+  Si115  1  0.92667737  0.82383450  0.98509049  1
  Si0+  Si116  1  0.32141859  0.57611014  0.01653199  1
  Si0+  Si117  1  0.67789054  0.92717817  0.35004490  1
  Si0+  Si118  1  0.92626499  0.32115969  0.64855151  1
  Si0+  Si119  1  0.82212619  0.57134152  0.34980908  1
  O2-  O120  1  0.24958919  -0.00181790  0.05844087  1
  O2-  O121  1  0.25073142  -0.00341084  0.38951805  1
  O2-  O122  1  0.24790482  -0.00607293  0.72812333  1
  O2-  O123  1  0.25723445  0.50294863  0.06116758  1
  O2-  O124  1  0.25850055  0.49918066  0.39341542  1
  O2-  O125  1  0.24504617  0.49643948  0.72686482  1
  O2-  O126  1  0.74957914  0.00229087  0.05977626  1
  O2-  O127  1  0.74575737  -0.00305173  0.39343604  1
  O2-  O128  1  0.74927405  0.00255206  0.73475778  1
  O2-  O129  1  0.75020425  0.49906171  0.06620666  1
  O2-  O130  1  0.74822508  0.50277313  0.39148097  1
  O2-  O131  1  0.74861791  0.50271833  0.72015188  1
  O2-  O132  1  0.00298736  0.24362949  0.27405859  1
  O2-  O133  1  -0.00780400  0.24997227  0.60426088  1
  O2-  O134  1  -0.00059753  0.24892808  0.93537309  1
  O2-  O135  1  -0.00242797  0.74874743  0.27569459  1
  O2-  O136  1  -0.00196869  0.75276899  0.60404174  1
  O2-  O137  1  -0.01031141  0.74966676  0.94181408  1
  O2-  O138  1  0.50255432  0.24660469  0.27515697  1
  O2-  O139  1  0.50310350  0.24494394  0.60477339  1
  O2-  O140  1  0.50459074  0.25588179  0.93622634  1
  O2-  O141  1  0.50626476  0.74684085  0.27319604  1
  O2-  O142  1  0.50265454  0.75127561  0.60031165  1
  O2-  O143  1  0.49615327  0.74756778  0.93484509  1
  O2-  O144  1  0.06784742  0.17452946  0.09987450  1
  O2-  O145  1  0.07088617  0.17396178  0.42303486  1
  O2-  O146  1  0.07012812  0.18157420  0.76415162  1
  O2-  O147  1  0.06861006  0.68176818  0.10153882  1
  O2-  O148  1  0.06938610  0.68067303  0.42306580  1
  O2-  O149  1  0.06858870  0.67557755  0.76382959  1
  O2-  O150  1  0.56835750  0.17716776  0.09988633  1
  O2-  O151  1  0.57040649  0.18016325  0.42631676  1
  O2-  O152  1  0.57444598  0.18331864  0.75556528  1
  O2-  O153  1  0.57143171  0.68546125  0.09990175  1
  O2-  O154  1  0.57797591  0.67725526  0.41993359  1
  O2-  O155  1  0.57392545  0.67675221  0.76334174  1
  O2-  O156  1  0.17722853  0.43033760  0.23564307  1
  O2-  O157  1  0.17735637  0.42911186  0.57692655  1
  O2-  O158  1  0.18239201  0.43045001  0.89920469  1
  O2-  O159  1  0.17707688  0.92539036  0.24320470  1
  O2-  O160  1  0.17883504  0.92781042  0.57741906  1
  O2-  O161  1  0.17365331  0.92731136  0.91148624  1
  O2-  O162  1  0.67785773  0.42963027  0.24474612  1
  O2-  O163  1  0.67963644  0.43031108  0.57364651  1
  O2-  O164  1  0.67784358  0.42950519  0.90199700  1
  O2-  O165  1  0.67958496  0.92710237  0.24427263  1
  O2-  O166  1  0.68227444  0.93045853  0.56951608  1
  O2-  O167  1  0.67928829  0.93088603  0.91322105  1
  O2-  O168  1  0.42577194  0.31674248  0.09980007  1
  O2-  O169  1  0.42732399  0.32002351  0.43248571  1
  O2-  O170  1  0.43054699  0.32151784  0.76545880  1
  O2-  O171  1  0.42915132  0.82219311  0.09792208  1
  O2-  O172  1  0.42963415  0.82240566  0.43100753  1
  O2-  O173  1  0.43060800  0.81972311  0.76388705  1
  O2-  O174  1  0.93073709  0.32040376  0.09857366  1
  O2-  O175  1  0.92970334  0.31989448  0.43232070  1
  O2-  O176  1  0.92725496  0.32480964  0.75339259  1
  O2-  O177  1  0.93116004  0.82700617  0.09144596  1
  O2-  O178  1  0.93040015  0.81957297  0.42470626  1
  O2-  O179  1  0.93030114  0.82088626  0.75487030  1
  O2-  O180  1  0.32008219  0.06801406  0.24184840  1
  O2-  O181  1  0.31744759  0.07169310  0.56720358  1
  O2-  O182  1  0.31986621  0.07010223  0.91167290  1
  O2-  O183  1  0.31800543  0.57706243  0.24359674  1
  O2-  O184  1  0.31892274  0.56823236  0.56575713  1
  O2-  O185  1  0.31810309  0.57759350  0.91107682  1
  O2-  O186  1  0.82019941  0.06969852  0.23363446  1
  O2-  O187  1  0.82140998  0.07156292  0.57136847  1
  O2-  O188  1  0.82585418  0.06568101  0.91131927  1
  O2-  O189  1  0.82429055  0.57342906  0.24550254  1
  O2-  O190  1  0.82422612  0.56754545  0.57337481  1
  O2-  O191  1  0.82115198  0.57061275  0.90071188  1
  O2-  O192  1  0.04723308  0.07942108  0.27335196  1
  O2-  O193  1  0.04301691  0.07974389  0.59832957  1
  O2-  O194  1  0.04405297  0.07875934  0.93259276  1
  O2-  O195  1  0.04047914  0.58668274  0.27309181  1
  O2-  O196  1  0.03758614  0.58216653  0.59399428  1
  O2-  O197  1  0.04111790  0.58343351  0.93133075  1
  O2-  O198  1  0.54898808  0.08507862  0.27447182  1
  O2-  O199  1  0.55136583  0.08407556  0.60729804  1
  O2-  O200  1  0.53960960  0.08412507  0.93104175  1
  O2-  O201  1  0.55071584  0.58432261  0.26824344  1
  O2-  O202  1  0.54272216  0.58160785  0.59478540  1
  O2-  O203  1  0.54952410  0.58059139  0.93545925  1
  O2-  O204  1  0.16523391  0.19881102  0.27235558  1
  O2-  O205  1  0.16372364  0.21027901  0.59421360  1
  O2-  O206  1  0.16925870  0.20522688  0.93478077  1
  O2-  O207  1  0.16036064  0.70751106  0.26981301  1
  O2-  O208  1  0.16607291  0.70850985  0.59390682  1
  O2-  O209  1  0.16190161  0.71409531  0.93197879  1
  O2-  O210  1  0.66498309  0.20606696  0.27532024  1
  O2-  O211  1  0.66723813  0.20710233  0.60450429  1
  O2-  O212  1  0.67230986  0.19888877  0.93336314  1
  O2-  O213  1  0.67022934  0.70287038  0.26944363  1
  O2-  O214  1  0.67337072  0.70488528  0.59790663  1
  O2-  O215  1  0.67012356  0.71181017  0.93501361  1
  O2-  O216  1  0.08606590  0.46257159  0.06673736  1
  O2-  O217  1  0.08462848  0.46187753  0.40446256  1
  O2-  O218  1  0.08189924  0.45362328  0.72575214  1
  O2-  O219  1  0.08650527  0.95715600  0.06656445  1
  O2-  O220  1  0.08851130  0.95143420  0.39877349  1
  O2-  O221  1  0.08472968  0.95043696  0.72894278  1
  O2-  O222  1  0.57853848  0.45811091  0.07081294  1
  O2-  O223  1  0.58515216  0.45824816  0.39615750  1
  O2-  O224  1  0.58613865  0.45821327  0.72551196  1
  O2-  O225  1  0.58624546  0.96176297  0.06518053  1
  O2-  O226  1  0.58359863  0.95205226  0.39487794  1
  O2-  O227  1  0.58145719  0.95432113  0.73765793  1
  O2-  O228  1  0.21075008  0.33204407  0.06815379  1
  O2-  O229  1  0.20637074  0.32914784  0.40156184  1
  O2-  O230  1  0.20177756  0.33361963  0.72640690  1
  O2-  O231  1  0.20435072  0.83679319  0.06552794  1
  O2-  O232  1  0.20732771  0.83323805  0.39462472  1
  O2-  O233  1  0.20163547  0.83106226  0.72712388  1
  O2-  O234  1  0.70357859  0.32777750  0.06836463  1
  O2-  O235  1  0.70705663  0.33989426  0.39859058  1
  O2-  O236  1  0.70508498  0.33999116  0.72806409  1
  O2-  O237  1  0.70500744  0.84099070  0.06820318  1
  O2-  O238  1  0.70455111  0.83368358  0.39591401  1
  O2-  O239  1  0.71238830  0.83029277  0.73610138  1
  O2-  O240  1  0.45518454  0.41851983  0.26637994  1
  O2-  O241  1  0.46131016  0.41460578  0.59582521  1
  O2-  O242  1  0.44923580  0.42397334  0.93746711  1
  O2-  O243  1  0.45946384  0.91737657  0.26289516  1
  O2-  O244  1  0.45911434  0.92269170  0.60024469  1
  O2-  O245  1  0.45884825  0.91990609  0.93346282  1
  O2-  O246  1  0.96106535  0.41729411  0.26706607  1
  O2-  O247  1  0.95391332  0.41280009  0.59862597  1
  O2-  O248  1  0.95835513  0.41957409  0.93147716  1
  O2-  O249  1  0.95954005  0.91194165  0.27212976  1
  O2-  O250  1  0.95583946  0.91446793  0.60251389  1
  O2-  O251  1  0.95894328  0.91337385  0.93608201  1
  O2-  O252  1  0.33055304  0.28699451  0.26666484  1
  O2-  O253  1  0.33273451  0.28806067  0.59890032  1
  O2-  O254  1  0.33256656  0.28827785  0.93195737  1
  O2-  O255  1  0.33336486  0.78982009  0.26388300  1
  O2-  O256  1  0.33173195  0.79444273  0.59781612  1
  O2-  O257  1  0.32670774  0.80265229  0.93352031  1
  O2-  O258  1  0.83139444  0.29152519  0.26673948  1
  O2-  O259  1  0.83135501  0.29780591  0.60321298  1
  O2-  O260  1  0.83011275  0.29670899  0.93327781  1
  O2-  O261  1  0.83623905  0.79652983  0.27284325  1
  O2-  O262  1  0.83703800  0.79508594  0.60162586  1
  O2-  O263  1  0.83098773  0.80562286  0.94289012  1
  O2-  O264  1  0.41230228  0.04155984  0.06481004  1
  O2-  O265  1  0.41357207  0.04159062  0.39362235  1
  O2-  O266  1  0.41754571  0.04654110  0.73521883  1
  O2-  O267  1  0.41661763  0.55771054  0.06160952  1
  O2-  O268  1  0.41873795  0.55300280  0.39129150  1
  O2-  O269  1  0.41733696  0.53898745  0.73196745  1
  O2-  O270  1  0.91356711  0.03841231  0.06470710  1
  O2-  O271  1  0.91678759  0.03838022  0.40144298  1
  O2-  O272  1  0.92127085  0.04135557  0.73635955  1
  O2-  O273  1  0.91987550  0.54390750  0.06760166  1
  O2-  O274  1  0.91239114  0.54069907  0.39901743  1
  O2-  O275  1  0.91363694  0.53781144  0.72601068  1
  O2-  O276  1  0.29119436  0.16034993  0.06574507  1
  O2-  O277  1  0.29238283  0.15945939  0.39554596  1
  O2-  O278  1  0.28424593  0.16711267  0.73467125  1
  O2-  O279  1  0.28940120  0.66867994  0.06259537  1
  O2-  O280  1  0.29010798  0.66433702  0.39657112  1
  O2-  O281  1  0.28945762  0.66699289  0.73177121  1
  O2-  O282  1  0.79733313  0.16316839  0.06144055  1
  O2-  O283  1  0.79127401  0.16802805  0.40261369  1
  O2-  O284  1  0.79743325  0.17281429  0.73668220  1
  O2-  O285  1  0.79472608  0.67154555  0.06893357  1
  O2-  O286  1  0.79741455  0.66426318  0.39813249  1
  O2-  O287  1  0.80272030  0.66356155  0.72457294  1
