# generated using pymatgen
data_Ca2Al2SiO7
_symmetry_space_group_name_H-M   'P 1'
_cell_length_a   15.45658227
_cell_length_b   15.45659930
_cell_length_c   15.28252043
_cell_angle_alpha   89.99292061
_cell_angle_beta   90.00549672
_cell_angle_gamma   90.00575588
_symmetry_Int_Tables_number   1
_chemical_formula_structural   Ca2Al2SiO7
_chemical_formula_sum   'Ca48 Al48 Si24 O168'
_cell_volume   3651.08879794
_cell_formula_units_Z   24
loop_
 _symmetry_equiv_pos_site_id
 _symmetry_equiv_pos_as_xyz
  1  'x, y, z'
loop_
 _atom_type_symbol
 _atom_type_oxidation_number
  Ca2+  2.0
  Al0+  0.0
  Si0+  0.0
  O2-  -2.0
loop_
 _atom_site_type_symbol
 _atom_site_label
 _atom_site_symmetry_multiplicity
 _atom_site_fract_x
 _atom_site_fract_y
 _atom_site_fract_z
 _atom_site_occupancy
  Ca2+  Ca0  1  0.17400898  0.07744185  0.17007186  1
  Ca2+  Ca1  1  0.16437549  0.07851498  0.50358660  1
  Ca2+  Ca2  1  0.17175085  0.08710362  0.83949886  1
  Ca2+  Ca3  1  0.17001345  0.57235798  0.17830240  1
  Ca2+  Ca4  1  0.16621746  0.58550206  0.50020984  1
  Ca2+  Ca5  1  0.16502996  0.57882191  0.83847582  1
  Ca2+  Ca6  1  0.67765602  0.09192860  0.16799150  1
  Ca2+  Ca7  1  0.67655741  0.08052752  0.51120613  1
  Ca2+  Ca8  1  0.67230004  0.08378923  0.83801524  1
  Ca2+  Ca9  1  0.67108365  0.57860225  0.16936118  1
  Ca2+  Ca10  1  0.66619024  0.57923002  0.50216718  1
  Ca2+  Ca11  1  0.66817056  0.58269142  0.84353320  1
  Ca2+  Ca12  1  0.08613210  0.33749984  0.16323474  1
  Ca2+  Ca13  1  0.08421100  0.32768560  0.49569301  1
  Ca2+  Ca14  1  0.08220300  0.32931102  0.82906882  1
  Ca2+  Ca15  1  0.08053442  0.82800221  0.16408446  1
  Ca2+  Ca16  1  0.07969206  0.82618173  0.49353521  1
  Ca2+  Ca17  1  0.06868298  0.82949178  0.82559830  1
  Ca2+  Ca18  1  0.57549712  0.33853481  0.15885739  1
  Ca2+  Ca19  1  0.58307527  0.32992711  0.49259867  1
  Ca2+  Ca20  1  0.58605454  0.32417733  0.83410856  1
  Ca2+  Ca21  1  0.58451395  0.82470222  0.15962480  1
  Ca2+  Ca22  1  0.59013171  0.82918033  0.50202905  1
  Ca2+  Ca23  1  0.59096413  0.82330910  0.82808363  1
  Ca2+  Ca24  1  0.32789642  0.41421815  0.17313988  1
  Ca2+  Ca25  1  0.33383506  0.41787857  0.49451679  1
  Ca2+  Ca26  1  0.32641713  0.41165779  0.84101799  1
  Ca2+  Ca27  1  0.33144369  0.92344085  0.17163513  1
  Ca2+  Ca28  1  0.32329555  0.90999693  0.50176452  1
  Ca2+  Ca29  1  0.33166114  0.92503705  0.83943796  1
  Ca2+  Ca30  1  0.82033541  0.42633556  0.17141229  1
  Ca2+  Ca31  1  0.83171120  0.42290976  0.49715796  1
  Ca2+  Ca32  1  0.82587010  0.42587407  0.84487363  1
  Ca2+  Ca33  1  0.83840593  0.92509327  0.16633269  1
  Ca2+  Ca34  1  0.83217854  0.92500652  0.50862332  1
  Ca2+  Ca35  1  0.83580788  0.92168569  0.83468954  1
  Ca2+  Ca36  1  0.42146753  0.17775964  0.15574966  1
  Ca2+  Ca37  1  0.42657089  0.17168828  0.49355958  1
  Ca2+  Ca38  1  0.42659451  0.16732522  0.83365330  1
  Ca2+  Ca39  1  0.41980303  0.66239232  0.16365812  1
  Ca2+  Ca40  1  0.42034941  0.66256845  0.49570703  1
  Ca2+  Ca41  1  0.43098886  0.66288447  0.83093837  1
  Ca2+  Ca42  1  0.91452372  0.16466880  0.16248348  1
  Ca2+  Ca43  1  0.91796869  0.15875600  0.49836422  1
  Ca2+  Ca44  1  0.91786551  0.16477695  0.82721120  1
  Ca2+  Ca45  1  0.91619740  0.66553247  0.16066450  1
  Ca2+  Ca46  1  0.92370929  0.66995474  0.49363556  1
  Ca2+  Ca47  1  0.91329049  0.67781579  0.82709671  1
  Al0+  Al48  1  -0.00041229  -0.00165080  -0.00053006  1
  Al0+  Al49  1  0.00123655  -0.00098681  0.33898222  1
  Al0+  Al50  1  0.00057363  0.00065674  0.66340358  1
  Al0+  Al51  1  0.00063855  0.49913703  0.00611909  1
  Al0+  Al52  1  0.00003172  0.49812098  0.33640288  1
  Al0+  Al53  1  0.00020740  0.49929753  0.66495672  1
  Al0+  Al54  1  0.50001039  0.00052496  0.00237060  1
  Al0+  Al55  1  0.50208365  -0.00047040  0.33135965  1
  Al0+  Al56  1  0.49947108  -0.00002102  0.66504772  1
  Al0+  Al57  1  0.49719236  0.49993501  -0.00688280  1
  Al0+  Al58  1  0.49894314  0.49822329  0.33611517  1
  Al0+  Al59  1  0.49817572  0.50090353  0.66418718  1
  Al0+  Al60  1  0.25065616  0.24893522  0.00483707  1
  Al0+  Al61  1  0.25159996  0.24913009  0.33330860  1
  Al0+  Al62  1  0.24849983  0.25096042  0.66178245  1
  Al0+  Al63  1  0.24891569  0.74960104  -0.00208984  1
  Al0+  Al64  1  0.24964490  0.74977001  0.33466728  1
  Al0+  Al65  1  0.25063150  0.74859037  0.66925167  1
  Al0+  Al66  1  0.75028456  0.25081810  0.00369329  1
  Al0+  Al67  1  0.75291856  0.24960881  0.34146150  1
  Al0+  Al68  1  0.74923182  0.25181710  0.66626751  1
  Al0+  Al69  1  0.75137492  0.75262718  -0.00386079  1
  Al0+  Al70  1  0.75110676  0.75179421  0.33443865  1
  Al0+  Al71  1  0.74938657  0.75083620  0.65939293  1
  Al0+  Al72  1  0.07072025  0.18042813  0.65353176  1
  Al0+  Al73  1  0.82153567  0.07071331  0.01319608  1
  Al0+  Al74  1  0.17968067  0.42895201  0.01275692  1
  Al0+  Al75  1  0.67811473  0.43018664  0.34942136  1
  Al0+  Al76  1  0.57130441  0.17881297  0.65232278  1
  Al0+  Al77  1  0.42674102  0.32105984  0.98343723  1
  Al0+  Al78  1  0.82038095  0.06945457  0.34795345  1
  Al0+  Al79  1  0.32049007  0.57097547  0.34856248  1
  Al0+  Al80  1  0.57382935  0.17865164  0.98575981  1
  Al0+  Al81  1  0.07059249  0.67810531  0.31769724  1
  Al0+  Al82  1  0.56935101  0.68050692  0.98820169  1
  Al0+  Al83  1  0.17828795  0.42628668  0.35138379  1
  Al0+  Al84  1  0.57031988  0.67890173  0.65099088  1
  Al0+  Al85  1  0.43071062  0.31951439  0.31846679  1
  Al0+  Al86  1  0.67655483  0.42947987  0.01305525  1
  Al0+  Al87  1  0.92872646  0.82142560  0.64815530  1
  Al0+  Al88  1  0.82141194  0.57352839  0.34946281  1
  Al0+  Al89  1  0.82172581  0.07201540  0.68429042  1
  Al0+  Al90  1  0.82042385  0.57483740  0.01311214  1
  Al0+  Al91  1  0.07185261  0.67764452  0.65172397  1
  Al0+  Al92  1  0.32239876  0.07002979  0.01361332  1
  Al0+  Al93  1  0.67780719  0.92821049  0.68279695  1
  Al0+  Al94  1  0.18127852  0.92973953  0.34672865  1
  Al0+  Al95  1  0.93077902  0.82128470  0.98602426  1
  Si0+  Si96  1  0.42793428  0.82178644  0.31823272  1
  Si0+  Si97  1  0.82100025  0.56997125  0.68028987  1
  Si0+  Si98  1  0.42702886  0.82258872  0.65050728  1
  Si0+  Si99  1  0.07071186  0.17728841  0.31712559  1
  Si0+  Si100  1  0.67777771  0.92773548  0.01667469  1
  Si0+  Si101  1  0.92685297  0.32314215  0.65012270  1
  Si0+  Si102  1  0.31973271  0.07276547  0.68006075  1
  Si0+  Si103  1  0.07219105  0.67533779  0.98426978  1
  Si0+  Si104  1  0.17960167  0.92809853  0.68284813  1
  Si0+  Si105  1  0.17928336  0.42851160  0.68181468  1
  Si0+  Si106  1  0.32168188  0.57107225  0.68435447  1
  Si0+  Si107  1  0.32391611  0.07145538  0.35081789  1
  Si0+  Si108  1  0.92873526  0.82294739  0.31496809  1
  Si0+  Si109  1  0.57089252  0.67952549  0.31871437  1
  Si0+  Si110  1  0.67555688  0.92712444  0.34948674  1
  Si0+  Si111  1  0.32128020  0.57363193  0.01428191  1
  Si0+  Si112  1  0.17766010  0.92764066  0.01491244  1
  Si0+  Si113  1  0.06983140  0.17892581  0.98813252  1
  Si0+  Si114  1  0.42709994  0.32139057  0.64821985  1
  Si0+  Si115  1  0.92889937  0.31982898  0.31741211  1
  Si0+  Si116  1  0.57504189  0.17756174  0.31682978  1
  Si0+  Si117  1  0.92921567  0.32196797  0.98769148  1
  Si0+  Si118  1  0.67631306  0.43041057  0.68264292  1
  Si0+  Si119  1  0.42535363  0.82366633  0.98403392  1
  O2-  O120  1  0.25056881  -0.00824274  0.05917608  1
  O2-  O121  1  0.25701723  0.00223595  0.39648139  1
  O2-  O122  1  0.24945880  0.00111540  0.72394823  1
  O2-  O123  1  0.25232086  0.50579627  0.05808260  1
  O2-  O124  1  0.24733342  0.50122340  0.40113908  1
  O2-  O125  1  0.24871248  0.50086083  0.72447890  1
  O2-  O126  1  0.74322930  -0.00018862  0.06037814  1
  O2-  O127  1  0.74278977  -0.00268843  0.39224877  1
  O2-  O128  1  0.74868809  0.00077756  0.73397116  1
  O2-  O129  1  0.74680591  0.50386499  0.06180916  1
  O2-  O130  1  0.74772753  0.50396774  0.40078513  1
  O2-  O131  1  0.74819350  0.50125113  0.72368949  1
  O2-  O132  1  0.00140390  0.24961630  0.27461738  1
  O2-  O133  1  -0.00759899  0.25077327  0.60645472  1
  O2-  O134  1  -0.00091820  0.24968593  0.94509883  1
  O2-  O135  1  -0.00717687  0.74981522  0.27053851  1
  O2-  O136  1  0.00120398  0.74907201  0.59964450  1
  O2-  O137  1  0.00306120  0.74323510  0.94032827  1
  O2-  O138  1  0.50597374  0.24507216  0.27237444  1
  O2-  O139  1  0.49773508  0.25438052  0.60501772  1
  O2-  O140  1  0.50148490  0.25075063  0.93524059  1
  O2-  O141  1  0.50023839  0.75169304  0.27683412  1
  O2-  O142  1  0.49684792  0.75564964  0.60533132  1
  O2-  O143  1  0.49407415  0.75520620  0.94042254  1
  O2-  O144  1  0.06877748  0.17762407  0.09337716  1
  O2-  O145  1  0.06964962  0.17708246  0.42230130  1
  O2-  O146  1  0.07544763  0.18438188  0.76704825  1
  O2-  O147  1  0.07441825  0.67714610  0.08961453  1
  O2-  O148  1  0.07100705  0.68242775  0.43062892  1
  O2-  O149  1  0.07062721  0.67773826  0.76575899  1
  O2-  O150  1  0.57275291  0.17949736  0.09936391  1
  O2-  O151  1  0.57207815  0.17680133  0.42265753  1
  O2-  O152  1  0.57010385  0.17976856  0.76512640  1
  O2-  O153  1  0.56767950  0.68185473  0.10175353  1
  O2-  O154  1  0.56997384  0.68135053  0.42386482  1
  O2-  O155  1  0.56869689  0.67657249  0.76404826  1
  O2-  O156  1  0.18086848  0.42592997  0.23778300  1
  O2-  O157  1  0.18047170  0.42637151  0.57738440  1
  O2-  O158  1  0.17866116  0.42874230  0.89884704  1
  O2-  O159  1  0.18256501  0.93252945  0.23337749  1
  O2-  O160  1  0.18258717  0.92728044  0.57775152  1
  O2-  O161  1  0.17784172  0.92995949  0.90909113  1
  O2-  O162  1  0.67773855  0.43174487  0.23606618  1
  O2-  O163  1  0.67557969  0.43134013  0.57764793  1
  O2-  O164  1  0.68094062  0.42961709  0.89877278  1
  O2-  O165  1  0.67344777  0.92504626  0.24396722  1
  O2-  O166  1  0.67839735  0.93097372  0.56883063  1
  O2-  O167  1  0.67849291  0.92579725  0.91151717  1
  O2-  O168  1  0.42546032  0.31973453  0.09687185  1
  O2-  O169  1  0.43161944  0.31619331  0.43200841  1
  O2-  O170  1  0.42396669  0.32015526  0.75350874  1
  O2-  O171  1  0.42398045  0.82250999  0.08986737  1
  O2-  O172  1  0.42810598  0.82328981  0.42322354  1
  O2-  O173  1  0.42422966  0.82097951  0.75605765  1
  O2-  O174  1  0.93069888  0.32151139  0.09271670  1
  O2-  O175  1  0.92882873  0.31784830  0.42271135  1
  O2-  O176  1  0.93016171  0.32654991  0.75606676  1
  O2-  O177  1  0.93483660  0.82470960  0.09903087  1
  O2-  O178  1  0.93123320  0.82432264  0.42018843  1
  O2-  O179  1  0.93048090  0.82030978  0.76212229  1
  O2-  O180  1  0.32241243  0.06953790  0.24523570  1
  O2-  O181  1  0.31746436  0.07213291  0.57496287  1
  O2-  O182  1  0.31870436  0.06978802  0.89980602  1
  O2-  O183  1  0.32081999  0.57076770  0.23482468  1
  O2-  O184  1  0.32359237  0.57161349  0.57971314  1
  O2-  O185  1  0.31886557  0.57511560  0.90835409  1
  O2-  O186  1  0.82170480  0.06893640  0.23451718  1
  O2-  O187  1  0.82070830  0.07046266  0.57064298  1
  O2-  O188  1  0.82556579  0.06976731  0.90094243  1
  O2-  O189  1  0.81838142  0.57326867  0.23595253  1
  O2-  O190  1  0.82155251  0.56613232  0.57549041  1
  O2-  O191  1  0.82042203  0.57271878  0.89869705  1
  O2-  O192  1  0.04116104  0.08554248  0.27040689  1
  O2-  O193  1  0.04557285  0.08324375  0.59864023  1
  O2-  O194  1  0.04348449  0.08759420  0.93929544  1
  O2-  O195  1  0.04358354  0.57864738  0.26751075  1
  O2-  O196  1  0.04549045  0.57835628  0.59981798  1
  O2-  O197  1  0.04822251  0.58066739  0.93951161  1
  O2-  O198  1  0.55208765  0.08264768  0.27128141  1
  O2-  O199  1  0.53885142  0.08290769  0.59744185  1
  O2-  O200  1  0.54427493  0.07927315  0.93457546  1
  O2-  O201  1  0.54126599  0.58809723  0.27309900  1
  O2-  O202  1  0.53522711  0.58363600  0.59629105  1
  O2-  O203  1  0.53860178  0.58593180  0.93006257  1
  O2-  O204  1  0.16396295  0.20263753  0.27128629  1
  O2-  O205  1  0.16488423  0.21387122  0.59536724  1
  O2-  O206  1  0.16141099  0.20754816  0.94118259  1
  O2-  O207  1  0.16713333  0.71229479  0.26467325  1
  O2-  O208  1  0.17205519  0.70525050  0.60220078  1
  O2-  O209  1  0.16594444  0.70055530  0.93680131  1
  O2-  O210  1  0.67017354  0.20368601  0.27512632  1
  O2-  O211  1  0.66782072  0.21034041  0.59852039  1
  O2-  O212  1  0.67248395  0.20765239  0.93269705  1
  O2-  O213  1  0.66285555  0.70833368  0.27168220  1
  O2-  O214  1  0.66558210  0.70740211  0.59434972  1
  O2-  O215  1  0.66500384  0.71231099  0.93313946  1
  O2-  O216  1  0.08375202  0.45632100  0.06947675  1
  O2-  O217  1  0.07869774  0.44937300  0.40274662  1
  O2-  O218  1  0.08646129  0.45403265  0.72912596  1
  O2-  O219  1  0.08733252  0.95851522  0.06328464  1
  O2-  O220  1  0.08710946  0.96224908  0.40340291  1
  O2-  O221  1  0.08783941  0.95637007  0.72859464  1
  O2-  O222  1  0.57623114  0.45667971  0.06161466  1
  O2-  O223  1  0.58040203  0.45693330  0.40379902  1
  O2-  O224  1  0.58392489  0.45861719  0.72857614  1
  O2-  O225  1  0.58253138  0.94693608  0.06245900  1
  O2-  O226  1  0.58114361  0.94960274  0.39630721  1
  O2-  O227  1  0.57648978  0.95210613  0.73280022  1
  O2-  O228  1  0.20926173  0.33323703  0.06842716  1
  O2-  O229  1  0.20988662  0.32775917  0.40336056  1
  O2-  O230  1  0.20963202  0.33702920  0.72954515  1
  O2-  O231  1  0.19908842  0.83205874  0.05923575  1
  O2-  O232  1  0.21302580  0.83470649  0.40230620  1
  O2-  O233  1  0.20903158  0.83734803  0.73205280  1
  O2-  O234  1  0.70697032  0.33320458  0.06800474  1
  O2-  O235  1  0.71032450  0.33344317  0.40393002  1
  O2-  O236  1  0.70433854  0.33863354  0.72920240  1
  O2-  O237  1  0.70827203  0.83647690  0.06472717  1
  O2-  O238  1  0.70211899  0.83447532  0.39652764  1
  O2-  O239  1  0.70650167  0.82769091  0.73183157  1
  O2-  O240  1  0.45905878  0.41750738  0.26601308  1
  O2-  O241  1  0.45186114  0.41563519  0.60360777  1
  O2-  O242  1  0.44858811  0.41997029  0.92870612  1
  O2-  O243  1  0.45516193  0.91398218  0.26939834  1
  O2-  O244  1  0.44745804  0.91663121  0.60320154  1
  O2-  O245  1  0.44947352  0.91766640  0.93885588  1
  O2-  O246  1  0.95486821  0.41187073  0.27028864  1
  O2-  O247  1  0.95748834  0.41395623  0.60135836  1
  O2-  O248  1  0.95881493  0.41306604  0.93893422  1
  O2-  O249  1  0.96152106  0.91523061  0.26962515  1
  O2-  O250  1  0.95903118  0.91953417  0.59667606  1
  O2-  O251  1  0.96622165  0.91572974  0.92949861  1
  O2-  O252  1  0.33360631  0.28756474  0.26538195  1
  O2-  O253  1  0.33481522  0.29399334  0.60043016  1
  O2-  O254  1  0.32886691  0.28665791  0.93113547  1
  O2-  O255  1  0.33726032  0.79419976  0.26926702  1
  O2-  O256  1  0.33441251  0.79286652  0.60411297  1
  O2-  O257  1  0.33140959  0.79984545  0.93625339  1
  O2-  O258  1  0.83741404  0.28897098  0.27088388  1
  O2-  O259  1  0.83234732  0.30265009  0.60453181  1
  O2-  O260  1  0.83785067  0.29560117  0.93945588  1
  O2-  O261  1  0.83250417  0.80366408  0.27100176  1
  O2-  O262  1  0.83107458  0.79453296  0.59441389  1
  O2-  O263  1  0.83426009  0.79459028  0.93040788  1
  O2-  O264  1  0.41822651  0.04160229  0.07040658  1
  O2-  O265  1  0.41904974  0.04686473  0.39448417  1
  O2-  O266  1  0.41124921  0.04513377  0.72734346  1
  O2-  O267  1  0.41509567  0.54888553  0.05869870  1
  O2-  O268  1  0.41726809  0.54019073  0.40362142  1
  O2-  O269  1  0.41262385  0.54029765  0.73230199  1
  O2-  O270  1  0.91736743  0.03657332  0.06810874  1
  O2-  O271  1  0.91618518  0.03764986  0.40232904  1
  O2-  O272  1  0.92264134  0.04459976  0.73360128  1
  O2-  O273  1  0.91779870  0.54467606  0.06642256  1
  O2-  O274  1  0.91797561  0.54071512  0.40256081  1
  O2-  O275  1  0.91251727  0.54086428  0.72830081  1
  O2-  O276  1  0.28672634  0.16294297  0.07055611  1
  O2-  O277  1  0.29660110  0.16369254  0.39724394  1
  O2-  O278  1  0.28924401  0.16430155  0.72672892  1
  O2-  O279  1  0.29872882  0.66847555  0.06045626  1
  O2-  O280  1  0.29576190  0.67025745  0.40150255  1
  O2-  O281  1  0.29614110  0.66297503  0.73323658  1
  O2-  O282  1  0.79473072  0.16774887  0.06849457  1
  O2-  O283  1  0.79476289  0.16563230  0.40463705  1
  O2-  O284  1  0.79576646  0.17332612  0.73331927  1
  O2-  O285  1  0.79420566  0.67368260  0.06539342  1
  O2-  O286  1  0.79627179  0.67339649  0.40091251  1
  O2-  O287  1  0.79416652  0.66346195  0.72338330  1
