# generated using pymatgen
data_Ca2Al2SiO7
_symmetry_space_group_name_H-M   'P 1'
_cell_length_a   15.46154762
_cell_length_b   15.46200129
_cell_length_c   15.28679878
_cell_angle_alpha   89.99626536
_cell_angle_beta   89.98614276
_cell_angle_gamma   90.00590127
_symmetry_Int_Tables_number   1
_chemical_formula_structural   Ca2Al2SiO7
_chemical_formula_sum   'Ca48 Al48 Si24 O168'
_cell_volume   3654.56087862
_cell_formula_units_Z   24
loop_
 _symmetry_equiv_pos_site_id
 _symmetry_equiv_pos_as_xyz
  1  'x, y, z'
loop_
 _atom_type_symbol
 _atom_type_oxidation_number
  Ca2+  2.0
  Al0+  0.0
  Si0+  0.0
  O2-  -2.0
loop_
 _atom_site_type_symbol
 _atom_site_label
 _atom_site_symmetry_multiplicity
 _atom_site_fract_x
 _atom_site_fract_y
 _atom_site_fract_z
 _atom_site_occupancy
  Ca2+  Ca0  1  0.16873833  0.08322404  0.17024919  1
  Ca2+  Ca1  1  0.16940875  0.07948856  0.50772614  1
  Ca2+  Ca2  1  0.15430072  0.08219315  0.83182663  1
  Ca2+  Ca3  1  0.17487481  0.58807901  0.17370338  1
  Ca2+  Ca4  1  0.17486024  0.59575266  0.50543832  1
  Ca2+  Ca5  1  0.17729897  0.59274051  0.83544727  1
  Ca2+  Ca6  1  0.67782604  0.07334624  0.17294277  1
  Ca2+  Ca7  1  0.67620806  0.07194075  0.50603228  1
  Ca2+  Ca8  1  0.68072553  0.07239998  0.83673176  1
  Ca2+  Ca9  1  0.67149882  0.58915534  0.16070965  1
  Ca2+  Ca10  1  0.66754079  0.57675088  0.50684573  1
  Ca2+  Ca11  1  0.67177119  0.57926112  0.83958627  1
  Ca2+  Ca12  1  0.07719127  0.32295630  0.15595437  1
  Ca2+  Ca13  1  0.07861852  0.32877723  0.50212692  1
  Ca2+  Ca14  1  0.07146349  0.32221326  0.82781688  1
  Ca2+  Ca15  1  0.07719411  0.82844688  0.16317091  1
  Ca2+  Ca16  1  0.08420601  0.82889117  0.50352067  1
  Ca2+  Ca17  1  0.07060966  0.83320604  0.82391920  1
  Ca2+  Ca18  1  0.58046409  0.33055375  0.16265594  1
  Ca2+  Ca19  1  0.58037694  0.33574007  0.50208078  1
  Ca2+  Ca20  1  0.57933933  0.33716513  0.82293015  1
  Ca2+  Ca21  1  0.58192626  0.83617419  0.16116164  1
  Ca2+  Ca22  1  0.57945793  0.84169245  0.49418032  1
  Ca2+  Ca23  1  0.59093217  0.82999276  0.83219518  1
  Ca2+  Ca24  1  0.33108534  0.42968371  0.17076516  1
  Ca2+  Ca25  1  0.33373493  0.42938892  0.50955372  1
  Ca2+  Ca26  1  0.33378045  0.42539581  0.83515541  1
  Ca2+  Ca27  1  0.33349077  0.92064258  0.17622858  1
  Ca2+  Ca28  1  0.33037467  0.91905557  0.50352506  1
  Ca2+  Ca29  1  0.32165757  0.91540912  0.83434384  1
  Ca2+  Ca30  1  0.84144657  0.42184405  0.16443304  1
  Ca2+  Ca31  1  0.82842134  0.41547956  0.50933758  1
  Ca2+  Ca32  1  0.83523768  0.41607557  0.83663442  1
  Ca2+  Ca33  1  0.82773686  0.92052429  0.16852144  1
  Ca2+  Ca34  1  0.83001097  0.92324956  0.51006635  1
  Ca2+  Ca35  1  0.83526472  0.92044819  0.84050962  1
  Ca2+  Ca36  1  0.41692609  0.16442580  0.16255028  1
  Ca2+  Ca37  1  0.41416220  0.17126481  0.49530653  1
  Ca2+  Ca38  1  0.42105232  0.17622486  0.82387065  1
  Ca2+  Ca39  1  0.41965569  0.66953803  0.16353164  1
  Ca2+  Ca40  1  0.41389462  0.67201275  0.49410104  1
  Ca2+  Ca41  1  0.42212326  0.65882267  0.83075462  1
  Ca2+  Ca42  1  0.91566889  0.16743546  0.15631705  1
  Ca2+  Ca43  1  0.91231421  0.16361247  0.50274669  1
  Ca2+  Ca44  1  0.91779649  0.16753173  0.82576807  1
  Ca2+  Ca45  1  0.91953061  0.67110862  0.15697544  1
  Ca2+  Ca46  1  0.92759124  0.67246875  0.49722187  1
  Ca2+  Ca47  1  0.91417969  0.67748108  0.82698467  1
  Al0+  Al48  1  0.00091544  -0.00221148  -0.00029440  1
  Al0+  Al49  1  0.00007342  -0.00002423  0.33557618  1
  Al0+  Al50  1  0.00151993  -0.00025886  0.66445173  1
  Al0+  Al51  1  0.00231402  0.49738462  0.00009679  1
  Al0+  Al52  1  0.00087706  0.49893364  0.32918406  1
  Al0+  Al53  1  0.00317920  0.49862349  0.65876023  1
  Al0+  Al54  1  0.49789211  -0.00006061  -0.00030508  1
  Al0+  Al55  1  0.49932594  0.00195341  0.33543496  1
  Al0+  Al56  1  0.50119058  0.00052241  0.67144595  1
  Al0+  Al57  1  0.49883794  0.50199412  0.00278697  1
  Al0+  Al58  1  0.49908901  0.50067002  0.33491661  1
  Al0+  Al59  1  0.50050582  0.50051324  0.66886948  1
  Al0+  Al60  1  0.24951312  0.25063054  -0.00390479  1
  Al0+  Al61  1  0.24840554  0.25209126  0.33468037  1
  Al0+  Al62  1  0.25065611  0.25406335  0.65857085  1
  Al0+  Al63  1  0.25167852  0.75216075  0.00636987  1
  Al0+  Al64  1  0.25153176  0.75055103  0.32769718  1
  Al0+  Al65  1  0.25298832  0.75245304  0.67353394  1
  Al0+  Al66  1  0.74765845  0.24946928  0.00041523  1
  Al0+  Al67  1  0.74906841  0.24997079  0.33469897  1
  Al0+  Al68  1  0.74776586  0.24862967  0.67050327  1
  Al0+  Al69  1  0.74780374  0.74709173  -0.00006913  1
  Al0+  Al70  1  0.74931291  0.74759641  0.33728227  1
  Al0+  Al71  1  0.74917875  0.74794611  0.66225023  1
  Al0+  Al72  1  0.82250815  0.56877413  0.01117502  1
  Al0+  Al73  1  0.07072593  0.67956671  0.31805312  1
  Al0+  Al74  1  0.68052881  0.43009098  0.67930111  1
  Al0+  Al75  1  0.32068776  0.57142065  0.01673812  1
  Al0+  Al76  1  0.92682559  0.82091951  0.65046229  1
  Al0+  Al77  1  0.07067963  0.17825933  0.64820921  1
  Al0+  Al78  1  0.92912118  0.81735159  0.98861481  1
  Al0+  Al79  1  0.92650231  0.32186848  0.98497431  1
  Al0+  Al80  1  0.67796811  0.92724145  0.01558178  1
  Al0+  Al81  1  0.67716989  0.92513053  0.68360223  1
  Al0+  Al82  1  0.82177453  0.06857753  0.68310405  1
  Al0+  Al83  1  0.67902110  0.92713461  0.34830088  1
  Al0+  Al84  1  0.92579076  0.32030226  0.65013737  1
  Al0+  Al85  1  0.07131186  0.17747554  0.98533656  1
  Al0+  Al86  1  0.56808727  0.68017342  0.98594938  1
  Al0+  Al87  1  0.31941911  0.57138738  0.68124185  1
  Al0+  Al88  1  0.43044713  0.32294023  0.65191331  1
  Al0+  Al89  1  0.07481622  0.67984097  0.65429774  1
  Al0+  Al90  1  0.18126602  0.93107591  0.68001032  1
  Al0+  Al91  1  0.82232917  0.07182576  0.34967579  1
  Al0+  Al92  1  0.31936682  0.57090579  0.34831988  1
  Al0+  Al93  1  0.32027455  0.07322972  0.34609329  1
  Al0+  Al94  1  0.82271072  0.07085643  0.01540210  1
  Al0+  Al95  1  0.43183927  0.82201138  0.32068716  1
  Si0+  Si96  1  0.42630098  0.82449462  0.98149170  1
  Si0+  Si97  1  0.82526397  0.57066657  0.67992592  1
  Si0+  Si98  1  0.67589558  0.42765048  0.01731159  1
  Si0+  Si99  1  0.56965259  0.18139441  0.31807163  1
  Si0+  Si100  1  0.57003970  0.17706874  0.64898853  1
  Si0+  Si101  1  0.67908358  0.42915384  0.34686842  1
  Si0+  Si102  1  0.17719434  0.42636723  0.68405806  1
  Si0+  Si103  1  0.17649850  0.42861088  0.35122135  1
  Si0+  Si104  1  0.07161173  0.17877390  0.31826680  1
  Si0+  Si105  1  0.17896380  0.92941497  0.01701635  1
  Si0+  Si106  1  0.32220025  0.07581644  0.68281838  1
  Si0+  Si107  1  0.92632263  0.82133218  0.31640699  1
  Si0+  Si108  1  0.57014843  0.17703021  0.98496637  1
  Si0+  Si109  1  0.82349411  0.56979430  0.34802204  1
  Si0+  Si110  1  0.32036199  0.07268544  0.01279295  1
  Si0+  Si111  1  0.42785767  0.32288845  0.31696978  1
  Si0+  Si112  1  0.92682800  0.31965677  0.31710054  1
  Si0+  Si113  1  0.17997093  0.42632918  0.01702321  1
  Si0+  Si114  1  0.43052989  0.82200352  0.65417232  1
  Si0+  Si115  1  0.57305436  0.67468868  0.31642841  1
  Si0+  Si116  1  0.57029613  0.67815168  0.65157813  1
  Si0+  Si117  1  0.07500422  0.67737342  0.98523983  1
  Si0+  Si118  1  0.17885453  0.92805325  0.34919082  1
  Si0+  Si119  1  0.43054298  0.32092059  0.98628850  1
  O2-  O120  1  0.25006136  0.00206591  0.05651792  1
  O2-  O121  1  0.24603909  -0.00111180  0.39251972  1
  O2-  O122  1  0.25159376  0.01033130  0.72818080  1
  O2-  O123  1  0.24305559  0.49956938  0.06301080  1
  O2-  O124  1  0.24334230  0.49857764  0.39600422  1
  O2-  O125  1  0.24204403  0.49921770  0.72791046  1
  O2-  O126  1  0.75011077  -0.00082871  0.06505792  1
  O2-  O127  1  0.75513684  -0.00543828  0.39780321  1
  O2-  O128  1  0.75468995  -0.00865309  0.73206095  1
  O2-  O129  1  0.75021735  0.49116903  0.06018987  1
  O2-  O130  1  0.75009833  0.50022217  0.38842672  1
  O2-  O131  1  0.75966432  0.49949427  0.72510709  1
  O2-  O132  1  -0.00345818  0.24613121  0.27672662  1
  O2-  O133  1  -0.00386640  0.24779289  0.59782865  1
  O2-  O134  1  -0.00586396  0.24489803  0.93718315  1
  O2-  O135  1  -0.00594421  0.75191473  0.27125867  1
  O2-  O136  1  -0.00019467  0.74789162  0.60285348  1
  O2-  O137  1  0.00230034  0.74072603  0.94162568  1
  O2-  O138  1  0.49652925  0.25029778  0.27357955  1
  O2-  O139  1  0.50075624  0.24505958  0.60335467  1
  O2-  O140  1  0.50227475  0.25162820  0.94310131  1
  O2-  O141  1  0.50874119  0.74878934  0.27475150  1
  O2-  O142  1  0.50490225  0.75492093  0.61127293  1
  O2-  O143  1  0.49489914  0.75586575  0.93785800  1
  O2-  O144  1  0.07600507  0.18093758  0.09968947  1
  O2-  O145  1  0.07521463  0.18126980  0.42256778  1
  O2-  O146  1  0.07183058  0.18171170  0.76146950  1
  O2-  O147  1  0.07508231  0.68078989  0.09122523  1
  O2-  O148  1  0.07057572  0.68112205  0.43072950  1
  O2-  O149  1  0.07533659  0.68303686  0.76794779  1
  O2-  O150  1  0.56656348  0.17805952  0.09061118  1
  O2-  O151  1  0.56883595  0.18535668  0.42278064  1
  O2-  O152  1  0.56630287  0.17845496  0.75479506  1
  O2-  O153  1  0.56572573  0.67875019  0.09919367  1
  O2-  O154  1  0.57084557  0.66838761  0.42181953  1
  O2-  O155  1  0.56821152  0.67436314  0.75653418  1
  O2-  O156  1  0.17932738  0.42707981  0.24545171  1
  O2-  O157  1  0.18079058  0.42436149  0.57832843  1
  O2-  O158  1  0.18442447  0.42320545  0.91206297  1
  O2-  O159  1  0.17904079  0.93024174  0.24308425  1
  O2-  O160  1  0.18733367  0.92882995  0.56679825  1
  O2-  O161  1  0.18078289  0.92650556  0.91222927  1
  O2-  O162  1  0.67805095  0.42726214  0.24188853  1
  O2-  O163  1  0.67775965  0.43426846  0.56551451  1
  O2-  O164  1  0.67028115  0.43054551  0.91221579  1
  O2-  O165  1  0.67877801  0.92966628  0.23484590  1
  O2-  O166  1  0.67302660  0.92988472  0.57022791  1
  O2-  O167  1  0.67810432  0.92933942  0.90257715  1
  O2-  O168  1  0.43076440  0.31882001  0.09191436  1
  O2-  O169  1  0.43049789  0.32438291  0.42161635  1
  O2-  O170  1  0.43294413  0.32268074  0.76566105  1
  O2-  O171  1  0.42560855  0.82590907  0.08714924  1
  O2-  O172  1  0.43047056  0.82019114  0.43412024  1
  O2-  O173  1  0.42863772  0.82074315  0.75912571  1
  O2-  O174  1  0.93063802  0.32208519  0.09955870  1
  O2-  O175  1  0.92556820  0.32200740  0.42163148  1
  O2-  O176  1  0.92690976  0.32060691  0.76319817  1
  O2-  O177  1  0.93221921  0.81694928  0.10224145  1
  O2-  O178  1  0.92713227  0.81974127  0.42160735  1
  O2-  O179  1  0.92658332  0.81871423  0.76429086  1
  O2-  O180  1  0.31825255  0.07368865  0.23232162  1
  O2-  O181  1  0.32344171  0.07239476  0.57710554  1
  O2-  O182  1  0.32245216  0.07313198  0.90812256  1
  O2-  O183  1  0.32027443  0.56785571  0.23523241  1
  O2-  O184  1  0.32042924  0.57215747  0.56804928  1
  O2-  O185  1  0.32169580  0.56878981  0.90377828  1
  O2-  O186  1  0.82031464  0.07512233  0.23623007  1
  O2-  O187  1  0.81721968  0.06914538  0.56940767  1
  O2-  O188  1  0.82223187  0.07035444  0.90259277  1
  O2-  O189  1  0.82436828  0.56920433  0.24281715  1
  O2-  O190  1  0.82073383  0.57017519  0.57373155  1
  O2-  O191  1  0.81961008  0.56910182  0.89846020  1
  O2-  O192  1  0.04975921  0.08457342  0.27252828  1
  O2-  O193  1  0.04802978  0.07880506  0.59584803  1
  O2-  O194  1  0.04963868  0.07704631  0.93568007  1
  O2-  O195  1  0.04284899  0.58137864  0.26419882  1
  O2-  O196  1  0.05476561  0.58020867  0.59995568  1
  O2-  O197  1  0.05834117  0.58067289  0.94372819  1
  O2-  O198  1  0.54167021  0.09023116  0.27033234  1
  O2-  O199  1  0.54329503  0.08350488  0.60320353  1
  O2-  O200  1  0.53741199  0.08778755  0.93626592  1
  O2-  O201  1  0.54192489  0.58335441  0.26780008  1
  O2-  O202  1  0.53605173  0.58940705  0.60208694  1
  O2-  O203  1  0.53468685  0.58345350  0.93240517  1
  O2-  O204  1  0.16211493  0.21092261  0.26906428  1
  O2-  O205  1  0.16886072  0.20938546  0.59480228  1
  O2-  O206  1  0.16867164  0.20909539  0.93085832  1
  O2-  O207  1  0.16606246  0.71215831  0.26244729  1
  O2-  O208  1  0.17246765  0.71550843  0.60231948  1
  O2-  O209  1  0.16816085  0.70854814  0.94156990  1
  O2-  O210  1  0.65991369  0.21335226  0.26931390  1
  O2-  O211  1  0.66243475  0.20491783  0.60330533  1
  O2-  O212  1  0.66226662  0.20156674  0.93832216  1
  O2-  O213  1  0.66928868  0.69467857  0.27290016  1
  O2-  O214  1  0.66306410  0.69728505  0.60243103  1
  O2-  O215  1  0.66503035  0.70591662  0.93109111  1
  O2-  O216  1  0.08508935  0.44593186  0.06285963  1
  O2-  O217  1  0.08153814  0.45145716  0.39519959  1
  O2-  O218  1  0.08153422  0.44707118  0.72705653  1
  O2-  O219  1  0.08854876  0.95617563  0.06686061  1
  O2-  O220  1  0.08510875  0.95107122  0.39512694  1
  O2-  O221  1  0.08399063  0.95768555  0.73351088  1
  O2-  O222  1  0.58535240  0.45931522  0.06725809  1
  O2-  O223  1  0.58742507  0.45710657  0.39476470  1
  O2-  O224  1  0.58638801  0.46570375  0.73500255  1
  O2-  O225  1  0.57774334  0.95737338  0.06590468  1
  O2-  O226  1  0.58214955  0.96158389  0.40053173  1
  O2-  O227  1  0.58005584  0.95718354  0.73836721  1
  O2-  O228  1  0.21208065  0.33487922  0.06567963  1
  O2-  O229  1  0.20365998  0.33595136  0.39778057  1
  O2-  O230  1  0.20935606  0.33489420  0.73057429  1
  O2-  O231  1  0.20876757  0.83968635  0.06804927  1
  O2-  O232  1  0.20880082  0.83564593  0.39348049  1
  O2-  O233  1  0.21755663  0.83891465  0.73878447  1
  O2-  O234  1  0.69396229  0.33207324  0.06242012  1
  O2-  O235  1  0.70645673  0.33836084  0.39581717  1
  O2-  O236  1  0.70166251  0.33210383  0.73372522  1
  O2-  O237  1  0.70354141  0.82797252  0.06732572  1
  O2-  O238  1  0.69760414  0.82530323  0.39905386  1
  O2-  O239  1  0.69835098  0.82230462  0.72968312  1
  O2-  O240  1  0.45978348  0.41327122  0.26839381  1
  O2-  O241  1  0.46694373  0.41769571  0.59719373  1
  O2-  O242  1  0.45809888  0.41303953  0.94055049  1
  O2-  O243  1  0.45834541  0.92035372  0.26630293  1
  O2-  O244  1  0.45420816  0.91577065  0.60776451  1
  O2-  O245  1  0.44843159  0.91874873  0.93495368  1
  O2-  O246  1  0.95703515  0.41060237  0.26859055  1
  O2-  O247  1  0.95492213  0.41813454  0.59455793  1
  O2-  O248  1  0.95887986  0.41907785  0.93143260  1
  O2-  O249  1  0.95377630  0.91543769  0.27167723  1
  O2-  O250  1  0.95808755  0.91775560  0.59769903  1
  O2-  O251  1  0.96307493  0.91246053  0.93505434  1
  O2-  O252  1  0.33503952  0.29699694  0.27039475  1
  O2-  O253  1  0.33451097  0.29775332  0.59494578  1
  O2-  O254  1  0.33988128  0.29265871  0.93779584  1
  O2-  O255  1  0.33683019  0.79088934  0.26334410  1
  O2-  O256  1  0.34086066  0.79021421  0.60577306  1
  O2-  O257  1  0.33199792  0.79712357  0.93764836  1
  O2-  O258  1  0.83404033  0.29471822  0.26973452  1
  O2-  O259  1  0.82522809  0.29372790  0.59940883  1
  O2-  O260  1  0.82382333  0.30299186  0.93750259  1
  O2-  O261  1  0.83201098  0.79439369  0.27218128  1
  O2-  O262  1  0.82906652  0.79186116  0.59548735  1
  O2-  O263  1  0.83286949  0.78707096  0.93531565  1
  O2-  O264  1  0.41143113  0.04517142  0.06232929  1
  O2-  O265  1  0.41646845  0.04525570  0.40089631  1
  O2-  O266  1  0.41467987  0.04892045  0.73032631  1
  O2-  O267  1  0.41529053  0.53603148  0.07197918  1
  O2-  O268  1  0.41605652  0.53832497  0.40132831  1
  O2-  O269  1  0.41436819  0.53515608  0.73486184  1
  O2-  O270  1  0.92159447  0.04219560  0.06798292  1
  O2-  O271  1  0.92305299  0.04929391  0.40015586  1
  O2-  O272  1  0.92267953  0.04644253  0.73165852  1
  O2-  O273  1  0.92004855  0.54083736  0.06708303  1
  O2-  O274  1  0.91449510  0.53911771  0.39483626  1
  O2-  O275  1  0.92098114  0.54990344  0.72242551  1
  O2-  O276  1  0.29381209  0.16491754  0.06084902  1
  O2-  O277  1  0.29134395  0.17057746  0.39952862  1
  O2-  O278  1  0.30046703  0.17208717  0.72453670  1
  O2-  O279  1  0.29380815  0.66931664  0.07055815  1
  O2-  O280  1  0.29018308  0.66942171  0.39857117  1
  O2-  O281  1  0.29312379  0.66731655  0.73822308  1
  O2-  O282  1  0.79253216  0.17025914  0.06725289  1
  O2-  O283  1  0.78837831  0.16940690  0.40167431  1
  O2-  O284  1  0.78769280  0.16534933  0.73575653  1
  O2-  O285  1  0.78677211  0.66208872  0.06870699  1
  O2-  O286  1  0.79776507  0.66099364  0.39691694  1
  O2-  O287  1  0.79499213  0.66280422  0.72534080  1
