# generated using pymatgen
data_Ca2Al2SiO7
_symmetry_space_group_name_H-M   'P 1'
_cell_length_a   15.46417594
_cell_length_b   15.46415533
_cell_length_c   15.28782273
_cell_angle_alpha   89.98887696
_cell_angle_beta   89.99139144
_cell_angle_gamma   90.02481875
_symmetry_Int_Tables_number   1
_chemical_formula_structural   Ca2Al2SiO7
_chemical_formula_sum   'Ca48 Al48 Si24 O168'
_cell_volume   3655.93587691
_cell_formula_units_Z   24
loop_
 _symmetry_equiv_pos_site_id
 _symmetry_equiv_pos_as_xyz
  1  'x, y, z'
loop_
 _atom_type_symbol
 _atom_type_oxidation_number
  Ca2+  2.0
  Al0+  0.0
  Si0+  0.0
  O2-  -2.0
loop_
 _atom_site_type_symbol
 _atom_site_label
 _atom_site_symmetry_multiplicity
 _atom_site_fract_x
 _atom_site_fract_y
 _atom_site_fract_z
 _atom_site_occupancy
  Ca2+  Ca0  1  0.16935849  0.07885116  0.17630608  1
  Ca2+  Ca1  1  0.17712201  0.07573244  0.50272694  1
  Ca2+  Ca2  1  0.16756491  0.07978733  0.83718741  1
  Ca2+  Ca3  1  0.17752202  0.57535429  0.17485778  1
  Ca2+  Ca4  1  0.16391306  0.58227224  0.49618188  1
  Ca2+  Ca5  1  0.16733304  0.57615479  0.84199222  1
  Ca2+  Ca6  1  0.67306056  0.08251999  0.17662297  1
  Ca2+  Ca7  1  0.66525353  0.08399022  0.49434090  1
  Ca2+  Ca8  1  0.67516203  0.08320135  0.84081794  1
  Ca2+  Ca9  1  0.67283147  0.58138958  0.17175054  1
  Ca2+  Ca10  1  0.67966570  0.59099563  0.49931356  1
  Ca2+  Ca11  1  0.67945790  0.58022073  0.84266050  1
  Ca2+  Ca12  1  0.08316110  0.33349290  0.16477043  1
  Ca2+  Ca13  1  0.07744116  0.33550567  0.48851192  1
  Ca2+  Ca14  1  0.08933325  0.32779776  0.83640020  1
  Ca2+  Ca15  1  0.09179272  0.82535513  0.16660954  1
  Ca2+  Ca16  1  0.09184784  0.82513690  0.49498551  1
  Ca2+  Ca17  1  0.08239059  0.82451948  0.82410631  1
  Ca2+  Ca18  1  0.57362955  0.33433389  0.16403984  1
  Ca2+  Ca19  1  0.57425837  0.32480363  0.48540220  1
  Ca2+  Ca20  1  0.57954698  0.34117610  0.83678703  1
  Ca2+  Ca21  1  0.58219768  0.82971603  0.16603850  1
  Ca2+  Ca22  1  0.58387170  0.82870325  0.48818018  1
  Ca2+  Ca23  1  0.57553746  0.83423307  0.83345089  1
  Ca2+  Ca24  1  0.32699209  0.41573125  0.17294168  1
  Ca2+  Ca25  1  0.33268322  0.41772606  0.49451603  1
  Ca2+  Ca26  1  0.32861335  0.42407235  0.84745810  1
  Ca2+  Ca27  1  0.33101005  0.92118468  0.17599512  1
  Ca2+  Ca28  1  0.32534925  0.92442015  0.50079584  1
  Ca2+  Ca29  1  0.32993113  0.91883384  0.83529861  1
  Ca2+  Ca30  1  0.83061469  0.42254627  0.17174943  1
  Ca2+  Ca31  1  0.84085902  0.42754321  0.49804135  1
  Ca2+  Ca32  1  0.82808542  0.42714028  0.84221391  1
  Ca2+  Ca33  1  0.83002673  0.92976049  0.17528143  1
  Ca2+  Ca34  1  0.82808685  0.91808821  0.49386071  1
  Ca2+  Ca35  1  0.83231465  0.92133878  0.84091668  1
  Ca2+  Ca36  1  0.41255174  0.17691584  0.16584130  1
  Ca2+  Ca37  1  0.41565078  0.16736010  0.48807772  1
  Ca2+  Ca38  1  0.41291109  0.17448881  0.83068092  1
  Ca2+  Ca39  1  0.41539054  0.66767236  0.16187009  1
  Ca2+  Ca40  1  0.42421707  0.66591907  0.48644480  1
  Ca2+  Ca41  1  0.40922018  0.67236142  0.83480335  1
  Ca2+  Ca42  1  0.91699885  0.16920470  0.16094501  1
  Ca2+  Ca43  1  0.91582264  0.17548943  0.48749089  1
  Ca2+  Ca44  1  0.92235000  0.16384131  0.83513810  1
  Ca2+  Ca45  1  0.91973229  0.66055044  0.16775068  1
  Ca2+  Ca46  1  0.92609044  0.66197526  0.49086767  1
  Ca2+  Ca47  1  0.92038661  0.66004465  0.82626763  1
  Al0+  Al48  1  0.00024223  -0.00103836  -0.00135423  1
  Al0+  Al49  1  -0.00161623  -0.00147701  0.34325640  1
  Al0+  Al50  1  -0.00060310  -0.00113377  0.66764801  1
  Al0+  Al51  1  0.00040208  0.49812493  0.00457549  1
  Al0+  Al52  1  0.00069167  0.50022060  0.33021277  1
  Al0+  Al53  1  0.00043894  0.49987165  0.66801080  1
  Al0+  Al54  1  0.49919417  -0.00057999  -0.00684375  1
  Al0+  Al55  1  0.50105799  -0.00067582  0.33649364  1
  Al0+  Al56  1  0.50005453  0.00152232  0.67097049  1
  Al0+  Al57  1  0.50205172  0.50200541  -0.00052297  1
  Al0+  Al58  1  0.50039010  0.49977644  0.32839752  1
  Al0+  Al59  1  0.49969143  0.49980596  0.66556239  1
  Al0+  Al60  1  0.24997579  0.24839161  -0.00655929  1
  Al0+  Al61  1  0.24763333  0.25021823  0.33813745  1
  Al0+  Al62  1  0.25011783  0.25024402  0.66820318  1
  Al0+  Al63  1  0.24941203  0.75018617  -0.00397880  1
  Al0+  Al64  1  0.25108340  0.74799968  0.33546083  1
  Al0+  Al65  1  0.24985871  0.75052778  0.66456711  1
  Al0+  Al66  1  0.75055643  0.25093122  0.00433850  1
  Al0+  Al67  1  0.74966416  0.25154418  0.32876252  1
  Al0+  Al68  1  0.74835914  0.25040385  0.66692506  1
  Al0+  Al69  1  0.75014431  0.75152825  0.00149888  1
  Al0+  Al70  1  0.75116762  0.75080854  0.33521068  1
  Al0+  Al71  1  0.75037261  0.75130159  0.67233519  1
  Al0+  Al72  1  0.07207488  0.68039890  0.31756570  1
  Al0+  Al73  1  0.32055056  0.07175447  0.34521567  1
  Al0+  Al74  1  0.92935781  0.32166587  0.31868655  1
  Al0+  Al75  1  0.17746426  0.92584836  0.34733410  1
  Al0+  Al76  1  0.82086484  0.07494063  0.34918689  1
  Al0+  Al77  1  0.82104669  0.56987757  0.67988261  1
  Al0+  Al78  1  0.82227504  0.57327225  0.01716852  1
  Al0+  Al79  1  0.42814152  0.82103755  0.98539839  1
  Al0+  Al80  1  0.42987606  0.32176995  0.98506300  1
  Al0+  Al81  1  0.57079672  0.17641470  0.31732032  1
  Al0+  Al82  1  0.06978973  0.67869377  0.65240003  1
  Al0+  Al83  1  0.67785617  0.42903530  0.01660256  1
  Al0+  Al84  1  0.07015110  0.17737688  0.98678795  1
  Al0+  Al85  1  0.17884625  0.92777704  0.68438510  1
  Al0+  Al86  1  0.82005403  0.56986361  0.34697966  1
  Al0+  Al87  1  0.32382047  0.57020289  0.34849271  1
  Al0+  Al88  1  0.67910208  0.92918976  0.34703824  1
  Al0+  Al89  1  0.82213653  0.06914597  0.01239556  1
  Al0+  Al90  1  0.57376098  0.67909547  0.31946801  1
  Al0+  Al91  1  0.18070200  0.42528366  0.01510948  1
  Al0+  Al92  1  0.17859629  0.42969580  0.34925473  1
  Al0+  Al93  1  0.31999261  0.57387903  0.01338013  1
  Al0+  Al94  1  0.32130527  0.07184208  0.68520926  1
  Al0+  Al95  1  0.42612925  0.32005163  0.31776093  1
  Si0+  Si96  1  0.67902274  0.92901784  0.68382433  1
  Si0+  Si97  1  0.92919206  0.31898712  0.65377364  1
  Si0+  Si98  1  0.92899084  0.82116570  0.98598304  1
  Si0+  Si99  1  0.92735632  0.32224677  0.98186489  1
  Si0+  Si100  1  0.42854087  0.32171570  0.65141898  1
  Si0+  Si101  1  0.81987022  0.07354636  0.68195272  1
  Si0+  Si102  1  0.92535488  0.82354412  0.64914849  1
  Si0+  Si103  1  0.07126161  0.17784611  0.65097332  1
  Si0+  Si104  1  0.67551415  0.92949077  0.01552467  1
  Si0+  Si105  1  0.32399223  0.57025076  0.68084236  1
  Si0+  Si106  1  0.57448014  0.67934346  0.98133609  1
  Si0+  Si107  1  0.57140227  0.68012801  0.65320444  1
  Si0+  Si108  1  0.32154734  0.07008824  0.01336298  1
  Si0+  Si109  1  0.67663544  0.42722617  0.68191876  1
  Si0+  Si110  1  0.06998807  0.17590270  0.32025093  1
  Si0+  Si111  1  0.06927368  0.67857293  0.98519013  1
  Si0+  Si112  1  0.17892490  0.42983115  0.68197369  1
  Si0+  Si113  1  0.42862150  0.82081471  0.31855470  1
  Si0+  Si114  1  0.92816464  0.82253469  0.31649916  1
  Si0+  Si115  1  0.67695533  0.42806820  0.35010240  1
  Si0+  Si116  1  0.43027384  0.82199229  0.65043880  1
  Si0+  Si117  1  0.57145353  0.17909548  0.65245795  1
  Si0+  Si118  1  0.17922321  0.92908410  0.01342227  1
  Si0+  Si119  1  0.57294087  0.17832997  0.98180701  1
  O2-  O120  1  0.25111120  -0.00118222  0.05517872  1
  O2-  O121  1  0.24836978  -0.00008146  0.39527442  1
  O2-  O122  1  0.24862100  0.00085794  0.73644346  1
  O2-  O123  1  0.25395288  0.49678659  0.06290460  1
  O2-  O124  1  0.25145631  0.49997865  0.40093392  1
  O2-  O125  1  0.25135425  0.50045582  0.72258929  1
  O2-  O126  1  0.74363481  -0.00121024  0.05789304  1
  O2-  O127  1  0.74758205  0.00383601  0.39905218  1
  O2-  O128  1  0.75122317  -0.00007760  0.72434666  1
  O2-  O129  1  0.74982233  0.50140752  0.06544811  1
  O2-  O130  1  0.74510819  0.49649322  0.39616090  1
  O2-  O131  1  0.74463818  0.49686313  0.72550653  1
  O2-  O132  1  -0.00003608  0.24185337  0.27451455  1
  O2-  O133  1  -0.00117463  0.24753753  0.60987034  1
  O2-  O134  1  -0.00343221  0.25330802  0.93785572  1
  O2-  O135  1  0.00007326  0.75811914  0.27091541  1
  O2-  O136  1  -0.00497498  0.75497271  0.60715737  1
  O2-  O137  1  -0.00598368  0.74519797  0.94253298  1
  O2-  O138  1  0.49732066  0.24687005  0.26810515  1
  O2-  O139  1  0.49858062  0.24867069  0.61149750  1
  O2-  O140  1  0.50577613  0.24815665  0.93624340  1
  O2-  O141  1  0.49672875  0.75194940  0.27394598  1
  O2-  O142  1  0.50054094  0.75007985  0.60895382  1
  O2-  O143  1  0.50239090  0.74548951  0.93725931  1
  O2-  O144  1  0.06841241  0.17273306  0.09913557  1
  O2-  O145  1  0.06846176  0.17888676  0.42643664  1
  O2-  O146  1  0.07032208  0.17876408  0.75629767  1
  O2-  O147  1  0.07219112  0.68217243  0.08960008  1
  O2-  O148  1  0.06916076  0.68034463  0.43101695  1
  O2-  O149  1  0.06742993  0.67740212  0.76624657  1
  O2-  O150  1  0.57053600  0.17441644  0.08627173  1
  O2-  O151  1  0.56943791  0.17935343  0.43216681  1
  O2-  O152  1  0.57496960  0.18021417  0.75749350  1
  O2-  O153  1  0.57794345  0.68314457  0.08623599  1
  O2-  O154  1  0.57391020  0.68203294  0.43381056  1
  O2-  O155  1  0.57078570  0.68160164  0.75816878  1
  O2-  O156  1  0.17903087  0.42942789  0.23620697  1
  O2-  O157  1  0.17688208  0.42876713  0.57761227  1
  O2-  O158  1  0.18065376  0.42855055  0.90010562  1
  O2-  O159  1  0.17978539  0.92719884  0.23290134  1
  O2-  O160  1  0.18207808  0.92856246  0.57161965  1
  O2-  O161  1  0.17888421  0.92918890  0.90836078  1
  O2-  O162  1  0.67838305  0.42982150  0.24491221  1
  O2-  O163  1  0.67549649  0.42522461  0.57705217  1
  O2-  O164  1  0.68113981  0.43121285  0.90159050  1
  O2-  O165  1  0.68219035  0.92816315  0.23351975  1
  O2-  O166  1  0.67785844  0.92705025  0.57949877  1
  O2-  O167  1  0.67741457  0.93009612  0.90891114  1
  O2-  O168  1  0.42693047  0.31754051  0.09693288  1
  O2-  O169  1  0.42876442  0.31912300  0.43242268  1
  O2-  O170  1  0.42990614  0.32384041  0.75653269  1
  O2-  O171  1  0.42838924  0.82344566  0.09777497  1
  O2-  O172  1  0.43055055  0.81946945  0.42469892  1
  O2-  O173  1  0.43141017  0.82062571  0.75587202  1
  O2-  O174  1  0.92719998  0.32142456  0.08678551  1
  O2-  O175  1  0.93150674  0.32211154  0.43316426  1
  O2-  O176  1  0.92883423  0.31740368  0.75879116  1
  O2-  O177  1  0.93187405  0.82492209  0.09028527  1
  O2-  O178  1  0.92593404  0.81929126  0.42226695  1
  O2-  O179  1  0.92409087  0.82381598  0.75536376  1
  O2-  O180  1  0.31856186  0.07068083  0.23107374  1
  O2-  O181  1  0.32172758  0.07133513  0.57227228  1
  O2-  O182  1  0.32047282  0.06897846  0.90812934  1
  O2-  O183  1  0.32185247  0.57195820  0.23539714  1
  O2-  O184  1  0.32944158  0.56756968  0.57667103  1
  O2-  O185  1  0.31387974  0.57472126  0.89840760  1
  O2-  O186  1  0.82256890  0.07166950  0.23569157  1
  O2-  O187  1  0.81744185  0.07736779  0.57781078  1
  O2-  O188  1  0.82133596  0.06569159  0.89812525  1
  O2-  O189  1  0.81902222  0.56915913  0.23467228  1
  O2-  O190  1  0.82130811  0.56923739  0.56724189  1
  O2-  O191  1  0.82192914  0.57210987  0.90252825  1
  O2-  O192  1  0.04769298  0.07997604  0.27776348  1
  O2-  O193  1  0.04517826  0.08495977  0.60566327  1
  O2-  O194  1  0.03603470  0.08220346  0.92895212  1
  O2-  O195  1  0.03809446  0.58575372  0.26345799  1
  O2-  O196  1  0.03779124  0.58182794  0.59934719  1
  O2-  O197  1  0.04476221  0.58476518  0.93915429  1
  O2-  O198  1  0.54779191  0.07582963  0.26697212  1
  O2-  O199  1  0.54615127  0.08564233  0.60726385  1
  O2-  O200  1  0.54665171  0.08554320  0.93250439  1
  O2-  O201  1  0.54647094  0.58269688  0.26527757  1
  O2-  O202  1  0.54510953  0.58744036  0.60672442  1
  O2-  O203  1  0.55401115  0.58500644  0.93488765  1
  O2-  O204  1  0.16284598  0.20279033  0.27454348  1
  O2-  O205  1  0.16317550  0.20730458  0.60524342  1
  O2-  O206  1  0.16510831  0.20719362  0.92778167  1
  O2-  O207  1  0.16938214  0.71028482  0.26417285  1
  O2-  O208  1  0.16763156  0.70755026  0.59953535  1
  O2-  O209  1  0.15835774  0.71091362  0.93450258  1
  O2-  O210  1  0.66851440  0.20552642  0.26472619  1
  O2-  O211  1  0.66251795  0.20795619  0.60357683  1
  O2-  O212  1  0.66774531  0.20380556  0.93635016  1
  O2-  O213  1  0.66872509  0.71385890  0.26529667  1
  O2-  O214  1  0.66400109  0.70953255  0.60792117  1
  O2-  O215  1  0.66667345  0.71022585  0.93247187  1
  O2-  O216  1  0.08169991  0.45114249  0.06535366  1
  O2-  O217  1  0.08140107  0.46217272  0.40240640  1
  O2-  O218  1  0.08827330  0.45836216  0.73134168  1
  O2-  O219  1  0.08807310  0.95685689  0.06038789  1
  O2-  O220  1  0.07952170  0.94878366  0.40313236  1
  O2-  O221  1  0.07777294  0.95327722  0.73493301  1
  O2-  O222  1  0.57930081  0.45601381  0.06783737  1
  O2-  O223  1  0.58325280  0.45256629  0.39554242  1
  O2-  O224  1  0.58305875  0.45376728  0.72867787  1
  O2-  O225  1  0.58112244  0.95387772  0.05892759  1
  O2-  O226  1  0.58104679  0.95273972  0.40310286  1
  O2-  O227  1  0.58833724  0.95824303  0.73281262  1
  O2-  O228  1  0.20737452  0.32542303  0.06427526  1
  O2-  O229  1  0.20347925  0.33145264  0.40448075  1
  O2-  O230  1  0.20600634  0.33765997  0.72912214  1
  O2-  O231  1  0.20725630  0.83723150  0.05907879  1
  O2-  O232  1  0.20964984  0.82987334  0.40188026  1
  O2-  O233  1  0.20932466  0.82875059  0.73649104  1
  O2-  O234  1  0.70387543  0.33034460  0.06815658  1
  O2-  O235  1  0.70263218  0.33446339  0.39546185  1
  O2-  O236  1  0.70333622  0.33440322  0.73001011  1
  O2-  O237  1  0.70086093  0.83612653  0.06001476  1
  O2-  O238  1  0.71296914  0.83380364  0.40394202  1
  O2-  O239  1  0.70623265  0.83847722  0.73467086  1
  O2-  O240  1  0.45508500  0.41767205  0.26487208  1
  O2-  O241  1  0.45728238  0.41307287  0.60322542  1
  O2-  O242  1  0.45975920  0.41951573  0.93022976  1
  O2-  O243  1  0.45425546  0.91425167  0.27304674  1
  O2-  O244  1  0.46038817  0.91437963  0.60613678  1
  O2-  O245  1  0.46035737  0.91590403  0.92606938  1
  O2-  O246  1  0.96361176  0.41539748  0.26304819  1
  O2-  O247  1  0.95924684  0.41030081  0.60706622  1
  O2-  O248  1  0.95439802  0.41600129  0.93531063  1
  O2-  O249  1  0.94982330  0.91894134  0.27443280  1
  O2-  O250  1  0.94822437  0.91820538  0.60388880  1
  O2-  O251  1  0.96135244  0.90969760  0.93388343  1
  O2-  O252  1  0.32668443  0.29099780  0.26736357  1
  O2-  O253  1  0.33572176  0.29546719  0.60562936  1
  O2-  O254  1  0.33514481  0.28845572  0.92745843  1
  O2-  O255  1  0.33546071  0.79598082  0.27216741  1
  O2-  O256  1  0.33810392  0.79611069  0.60428353  1
  O2-  O257  1  0.33234315  0.78946366  0.92758253  1
  O2-  O258  1  0.83238958  0.29574833  0.26461029  1
  O2-  O259  1  0.83655908  0.29268493  0.60681454  1
  O2-  O260  1  0.83382149  0.29562740  0.93500242  1
  O2-  O261  1  0.83661161  0.79362449  0.26898856  1
  O2-  O262  1  0.83082792  0.79770525  0.60508486  1
  O2-  O263  1  0.83483190  0.80004407  0.93848989  1
  O2-  O264  1  0.41421421  0.04223692  0.05762166  1
  O2-  O265  1  0.41810156  0.04378537  0.39965342  1
  O2-  O266  1  0.42031058  0.04390924  0.73828532  1
  O2-  O267  1  0.42301786  0.55711958  0.05759181  1
  O2-  O268  1  0.42282127  0.54172629  0.40124159  1
  O2-  O269  1  0.41482081  0.54182291  0.73106313  1
  O2-  O270  1  0.91663498  0.03383733  0.06618972  1
  O2-  O271  1  0.91680708  0.04525173  0.40659532  1
  O2-  O272  1  0.91268833  0.04725101  0.72810856  1
  O2-  O273  1  0.92073606  0.54547751  0.06787563  1
  O2-  O274  1  0.91596189  0.53633640  0.40006745  1
  O2-  O275  1  0.91617254  0.53595934  0.73519891  1
  O2-  O276  1  0.29257959  0.16160156  0.05805786  1
  O2-  O277  1  0.29127237  0.16756340  0.40243753  1
  O2-  O278  1  0.29213005  0.17133502  0.73677446  1
  O2-  O279  1  0.28722554  0.67083631  0.06564936  1
  O2-  O280  1  0.29656066  0.66825619  0.40234081  1
  O2-  O281  1  0.29768677  0.66372032  0.72499117  1
  O2-  O282  1  0.79759585  0.16721780  0.06353483  1
  O2-  O283  1  0.79240554  0.17382666  0.40132128  1
  O2-  O284  1  0.78901736  0.16373079  0.73185581  1
  O2-  O285  1  0.79601085  0.67328381  0.06690411  1
  O2-  O286  1  0.79016785  0.66611549  0.40192494  1
  O2-  O287  1  0.79236897  0.66709652  0.73472326  1
