# generated using pymatgen
data_Ca2Al2SiO7
_symmetry_space_group_name_H-M   'P 1'
_cell_length_a   15.45890517
_cell_length_b   15.46121254
_cell_length_c   15.28497317
_cell_angle_alpha   90.01381245
_cell_angle_beta   89.98863659
_cell_angle_gamma   90.00523796
_symmetry_Int_Tables_number   1
_chemical_formula_structural   Ca2Al2SiO7
_chemical_formula_sum   'Ca48 Al48 Si24 O168'
_cell_volume   3653.31349589
_cell_formula_units_Z   24
loop_
 _symmetry_equiv_pos_site_id
 _symmetry_equiv_pos_as_xyz
  1  'x, y, z'
loop_
 _atom_type_symbol
 _atom_type_oxidation_number
  Ca2+  2.0
  Al0+  0.0
  Si0+  0.0
  O2-  -2.0
loop_
 _atom_site_type_symbol
 _atom_site_label
 _atom_site_symmetry_multiplicity
 _atom_site_fract_x
 _atom_site_fract_y
 _atom_site_fract_z
 _atom_site_occupancy
  Ca2+  Ca0  1  0.17813743  0.07789509  0.16542249  1
  Ca2+  Ca1  1  0.17513422  0.08066773  0.50983256  1
  Ca2+  Ca2  1  0.17193591  0.08116411  0.83516547  1
  Ca2+  Ca3  1  0.17517082  0.58339417  0.16563231  1
  Ca2+  Ca4  1  0.17282592  0.58563357  0.50094727  1
  Ca2+  Ca5  1  0.17166095  0.57454139  0.84296416  1
  Ca2+  Ca6  1  0.66664696  0.06720754  0.16907820  1
  Ca2+  Ca7  1  0.67137956  0.07886907  0.50689689  1
  Ca2+  Ca8  1  0.67087035  0.08252197  0.83403567  1
  Ca2+  Ca9  1  0.66290706  0.58047402  0.17031282  1
  Ca2+  Ca10  1  0.66386168  0.56964455  0.50461352  1
  Ca2+  Ca11  1  0.66462144  0.57902941  0.83676477  1
  Ca2+  Ca12  1  0.07978745  0.33473739  0.15644454  1
  Ca2+  Ca13  1  0.08257509  0.32471872  0.50053977  1
  Ca2+  Ca14  1  0.07673743  0.32998214  0.82593079  1
  Ca2+  Ca15  1  0.07269367  0.84019007  0.15970035  1
  Ca2+  Ca16  1  0.07180930  0.84762467  0.50037407  1
  Ca2+  Ca17  1  0.07838133  0.84600855  0.82925109  1
  Ca2+  Ca18  1  0.58445339  0.33145283  0.16376688  1
  Ca2+  Ca19  1  0.58645468  0.32826010  0.50365219  1
  Ca2+  Ca20  1  0.57616616  0.32571847  0.82000146  1
  Ca2+  Ca21  1  0.57568698  0.83359804  0.15718432  1
  Ca2+  Ca22  1  0.57755843  0.83608096  0.49069076  1
  Ca2+  Ca23  1  0.57964604  0.83292598  0.83782995  1
  Ca2+  Ca24  1  0.33220346  0.43065029  0.16739361  1
  Ca2+  Ca25  1  0.34063720  0.42400195  0.50490093  1
  Ca2+  Ca26  1  0.32951266  0.41762930  0.84119068  1
  Ca2+  Ca27  1  0.34030639  0.92263567  0.17093912  1
  Ca2+  Ca28  1  0.33162889  0.92621971  0.50745340  1
  Ca2+  Ca29  1  0.32424512  0.92656013  0.84255516  1
  Ca2+  Ca30  1  0.82879947  0.41803490  0.17270879  1
  Ca2+  Ca31  1  0.82330794  0.41085170  0.50822764  1
  Ca2+  Ca32  1  0.83031565  0.40747760  0.83549533  1
  Ca2+  Ca33  1  0.82273197  0.90336263  0.16858765  1
  Ca2+  Ca34  1  0.83012854  0.91502162  0.50712800  1
  Ca2+  Ca35  1  0.83502890  0.92114877  0.83843319  1
  Ca2+  Ca36  1  0.41429804  0.16200010  0.16278944  1
  Ca2+  Ca37  1  0.41546366  0.16630491  0.49986883  1
  Ca2+  Ca38  1  0.41788857  0.16682690  0.82333340  1
  Ca2+  Ca39  1  0.41725898  0.67489548  0.15858261  1
  Ca2+  Ca40  1  0.41570611  0.67481589  0.49128626  1
  Ca2+  Ca41  1  0.41686933  0.66802829  0.83588407  1
  Ca2+  Ca42  1  0.91876382  0.17461421  0.15921565  1
  Ca2+  Ca43  1  0.92000864  0.16188369  0.50529556  1
  Ca2+  Ca44  1  0.92174183  0.17304232  0.82219074  1
  Ca2+  Ca45  1  0.91705563  0.67620925  0.16062311  1
  Ca2+  Ca46  1  0.91897373  0.67807514  0.49681358  1
  Ca2+  Ca47  1  0.91844805  0.68020227  0.82988914  1
  Al0+  Al48  1  0.00156115  0.00467340  0.00080723  1
  Al0+  Al49  1  0.00028089  0.00267005  0.32442513  1
  Al0+  Al50  1  -0.00232055  0.00129730  0.66486232  1
  Al0+  Al51  1  -0.00319032  0.50105635  -0.00055511  1
  Al0+  Al52  1  0.00054410  0.49997074  0.33365099  1
  Al0+  Al53  1  -0.00050178  0.50346211  0.66116075  1
  Al0+  Al54  1  0.50277363  -0.00089673  0.00148390  1
  Al0+  Al55  1  0.50215278  0.00109904  0.33802715  1
  Al0+  Al56  1  0.50061296  -0.00098448  0.66659486  1
  Al0+  Al57  1  0.50079219  0.49890300  0.00043409  1
  Al0+  Al58  1  0.49933493  0.49838032  0.34136968  1
  Al0+  Al59  1  0.50170753  0.49979284  0.66835876  1
  Al0+  Al60  1  0.24932220  0.24970183  0.00844314  1
  Al0+  Al61  1  0.25045689  0.24990661  0.33415115  1
  Al0+  Al62  1  0.25005609  0.25300072  0.66108262  1
  Al0+  Al63  1  0.24823521  0.75069665  0.00271992  1
  Al0+  Al64  1  0.24814365  0.75024700  0.33377117  1
  Al0+  Al65  1  0.24990935  0.74980065  0.67077315  1
  Al0+  Al66  1  0.74979845  0.24942118  -0.00186495  1
  Al0+  Al67  1  0.74986048  0.24889541  0.33530122  1
  Al0+  Al68  1  0.74739627  0.24849670  0.66794896  1
  Al0+  Al69  1  0.75008584  0.74841116  -0.00554944  1
  Al0+  Al70  1  0.75004106  0.74761516  0.33537097  1
  Al0+  Al71  1  0.74950757  0.74665437  0.66261939  1
  Al0+  Al72  1  0.92794381  0.32241364  0.98686614  1
  Al0+  Al73  1  0.42967319  0.82245391  0.32136846  1
  Al0+  Al74  1  0.07124135  0.17921378  0.65110948  1
  Al0+  Al75  1  0.32216790  0.07330946  0.68136899  1
  Al0+  Al76  1  0.68005829  0.42775497  0.34809569  1
  Al0+  Al77  1  0.31911134  0.57177260  0.34815046  1
  Al0+  Al78  1  0.17644760  0.92880919  0.01628146  1
  Al0+  Al79  1  0.93059742  0.82234170  0.98541299  1
  Al0+  Al80  1  0.42658539  0.82296889  0.98408895  1
  Al0+  Al81  1  0.68290020  0.92795965  0.01162712  1
  Al0+  Al82  1  0.57050022  0.67695962  0.98487789  1
  Al0+  Al83  1  0.92770947  0.32271220  0.65045922  1
  Al0+  Al84  1  0.68136305  0.92735149  0.34681219  1
  Al0+  Al85  1  0.57015028  0.17603159  0.65062105  1
  Al0+  Al86  1  0.32320075  0.57121954  0.01441450  1
  Al0+  Al87  1  0.42832466  0.32246504  0.65152960  1
  Al0+  Al88  1  0.32330302  0.06977553  0.01524041  1
  Al0+  Al89  1  0.17625611  0.42901778  0.01359285  1
  Al0+  Al90  1  0.92886343  0.82073299  0.31829669  1
  Al0+  Al91  1  0.32127862  0.07038480  0.34930927  1
  Al0+  Al92  1  0.81878126  0.06881120  0.67993458  1
  Al0+  Al93  1  0.17869507  0.92933999  0.68071612  1
  Al0+  Al94  1  0.68093802  0.42964226  0.68319826  1
  Al0+  Al95  1  0.92958132  0.82096597  0.65327022  1
  Si0+  Si96  1  0.92881998  0.32016474  0.31864350  1
  Si0+  Si97  1  0.82392817  0.57110068  0.35125379  1
  Si0+  Si98  1  0.17543422  0.92911636  0.34894138  1
  Si0+  Si99  1  0.42883858  0.32168675  0.31676987  1
  Si0+  Si100  1  0.07338668  0.18141872  0.98324089  1
  Si0+  Si101  1  0.57120584  0.17839764  0.98632723  1
  Si0+  Si102  1  0.82295465  0.57291428  0.68449992  1
  Si0+  Si103  1  0.67964580  0.42727135  0.01471338  1
  Si0+  Si104  1  0.82304425  0.07210214  0.34832491  1
  Si0+  Si105  1  0.42843658  0.81908758  0.65266505  1
  Si0+  Si106  1  0.17690983  0.42790351  0.35159016  1
  Si0+  Si107  1  0.07365389  0.18048156  0.31445089  1
  Si0+  Si108  1  0.32196171  0.57124832  0.68249615  1
  Si0+  Si109  1  0.07152686  0.67734394  0.98356815  1
  Si0+  Si110  1  0.57214067  0.18024621  0.31684010  1
  Si0+  Si111  1  0.07166991  0.67554711  0.31455754  1
  Si0+  Si112  1  0.57040855  0.67807217  0.64985339  1
  Si0+  Si113  1  0.42934211  0.31982052  0.98890880  1
  Si0+  Si114  1  0.17722261  0.43098016  0.67898944  1
  Si0+  Si115  1  0.81936434  0.57136960  0.01441147  1
  Si0+  Si116  1  0.57003069  0.67565471  0.31929468  1
  Si0+  Si117  1  0.82181854  0.07400520  0.01696574  1
  Si0+  Si118  1  0.67713764  0.92309794  0.68393559  1
  Si0+  Si119  1  0.07476971  0.67833440  0.64921518  1
  O2-  O120  1  0.25570936  -0.00664119  0.06593282  1
  O2-  O121  1  0.24761324  -0.00633741  0.39351708  1
  O2-  O122  1  0.25021598  0.00152253  0.73060871  1
  O2-  O123  1  0.24834319  0.50107305  0.06346495  1
  O2-  O124  1  0.24525531  0.49661311  0.39628033  1
  O2-  O125  1  0.25040383  0.49956254  0.72188492  1
  O2-  O126  1  0.75934267  -0.00006604  0.06126254  1
  O2-  O127  1  0.76029073  -0.00204460  0.39200715  1
  O2-  O128  1  0.74606578  -0.00794421  0.72676001  1
  O2-  O129  1  0.74939507  0.49905692  0.05729972  1
  O2-  O130  1  0.75550834  0.50183321  0.39453973  1
  O2-  O131  1  0.75923240  0.50038265  0.73026119  1
  O2-  O132  1  0.00164314  0.25244886  0.27455367  1
  O2-  O133  1  -0.00059188  0.25135719  0.59925204  1
  O2-  O134  1  0.00487952  0.25100397  0.94053618  1
  O2-  O135  1  0.00387562  0.74589759  0.27170067  1
  O2-  O136  1  0.00768954  0.74945758  0.60625397  1
  O2-  O137  1  0.01007457  0.75245546  0.93892552  1
  O2-  O138  1  0.49933291  0.24990878  0.27417235  1
  O2-  O139  1  0.49622953  0.24671168  0.60068110  1
  O2-  O140  1  0.49653238  0.24618226  0.94602387  1
  O2-  O141  1  0.50393104  0.74630422  0.27523325  1
  O2-  O142  1  0.50146849  0.75091677  0.60823967  1
  O2-  O143  1  0.49657626  0.74744776  0.93496745  1
  O2-  O144  1  0.07134785  0.18280486  0.08943811  1
  O2-  O145  1  0.07369715  0.17961910  0.41915384  1
  O2-  O146  1  0.07103061  0.18224402  0.76463240  1
  O2-  O147  1  0.06563874  0.67308226  0.08908784  1
  O2-  O148  1  0.06971429  0.67153120  0.42008162  1
  O2-  O149  1  0.07426804  0.67359655  0.75434015  1
  O2-  O150  1  0.57466979  0.18146004  0.09189654  1
  O2-  O151  1  0.57435293  0.18151503  0.42130868  1
  O2-  O152  1  0.57013946  0.17868017  0.76480360  1
  O2-  O153  1  0.57145018  0.67559353  0.09877372  1
  O2-  O154  1  0.56781812  0.67548290  0.42522775  1
  O2-  O155  1  0.57005733  0.67652020  0.75461692  1
  O2-  O156  1  0.17569632  0.42894446  0.24620060  1
  O2-  O157  1  0.17671137  0.43427793  0.57374734  1
  O2-  O158  1  0.17772113  0.42896236  0.89957475  1
  O2-  O159  1  0.17359536  0.93206905  0.24371053  1
  O2-  O160  1  0.18168185  0.92838857  0.56655322  1
  O2-  O161  1  0.17399008  0.93574388  0.90319177  1
  O2-  O162  1  0.68186595  0.42736774  0.23427323  1
  O2-  O163  1  0.68023271  0.43285333  0.56991816  1
  O2-  O164  1  0.68009926  0.42598678  0.91016870  1
  O2-  O165  1  0.68083309  0.92835199  0.23360366  1
  O2-  O166  1  0.67810634  0.92214947  0.57791390  1
  O2-  O167  1  0.68339769  0.93084145  0.89880258  1
  O2-  O168  1  0.43376886  0.32159676  0.09438110  1
  O2-  O169  1  0.42899034  0.32231680  0.42142014  1
  O2-  O170  1  0.42994246  0.32509415  0.76567516  1
  O2-  O171  1  0.43216397  0.82393199  0.09803353  1
  O2-  O172  1  0.43139681  0.82065759  0.43515024  1
  O2-  O173  1  0.42812478  0.81643166  0.75726476  1
  O2-  O174  1  0.92558946  0.31997918  0.10093510  1
  O2-  O175  1  0.92840079  0.31903411  0.42308181  1
  O2-  O176  1  0.93118120  0.32188091  0.76406116  1
  O2-  O177  1  0.92823196  0.81669470  0.09865545  1
  O2-  O178  1  0.93030404  0.82058163  0.43143999  1
  O2-  O179  1  0.92872674  0.81905337  0.76619241  1
  O2-  O180  1  0.32065930  0.07131057  0.23642511  1
  O2-  O181  1  0.32161789  0.06939772  0.56750159  1
  O2-  O182  1  0.32203495  0.07461130  0.90232252  1
  O2-  O183  1  0.31992992  0.56948524  0.23562416  1
  O2-  O184  1  0.32137155  0.57284236  0.57712691  1
  O2-  O185  1  0.32359035  0.56524151  0.90044022  1
  O2-  O186  1  0.81930228  0.07732443  0.24272430  1
  O2-  O187  1  0.81837342  0.06555330  0.56631275  1
  O2-  O188  1  0.81860088  0.07685572  0.91173733  1
  O2-  O189  1  0.82435371  0.56980324  0.24528496  1
  O2-  O190  1  0.81906464  0.57502207  0.57885290  1
  O2-  O191  1  0.81916912  0.57140259  0.90968309  1
  O2-  O192  1  0.04509317  0.09061871  0.26380602  1
  O2-  O193  1  0.03972118  0.08267760  0.59586268  1
  O2-  O194  1  0.04655827  0.08901612  0.93682121  1
  O2-  O195  1  0.04473563  0.58217205  0.26716466  1
  O2-  O196  1  0.04693560  0.58746970  0.59803015  1
  O2-  O197  1  0.03835469  0.58700008  0.93455566  1
  O2-  O198  1  0.54449681  0.08801223  0.27053983  1
  O2-  O199  1  0.54666030  0.07613531  0.59740747  1
  O2-  O200  1  0.54846060  0.08622010  0.93909785  1
  O2-  O201  1  0.54323449  0.58159180  0.27438746  1
  O2-  O202  1  0.53954594  0.58754037  0.60198303  1
  O2-  O203  1  0.54338872  0.57752892  0.93132787  1
  O2-  O204  1  0.16480025  0.21034178  0.26669944  1
  O2-  O205  1  0.16773378  0.20984400  0.59511547  1
  O2-  O206  1  0.16752382  0.20733392  0.93905132  1
  O2-  O207  1  0.16580390  0.69974685  0.26982474  1
  O2-  O208  1  0.16931165  0.70214939  0.60344171  1
  O2-  O209  1  0.16816290  0.69265714  0.94088683  1
  O2-  O210  1  0.66302655  0.21080050  0.26801743  1
  O2-  O211  1  0.66688331  0.20854126  0.59696403  1
  O2-  O212  1  0.66091571  0.21038226  0.93741794  1
  O2-  O213  1  0.66594098  0.69604194  0.27599089  1
  O2-  O214  1  0.66271107  0.70139254  0.60112912  1
  O2-  O215  1  0.66751423  0.70563687  0.92918416  1
  O2-  O216  1  0.07737613  0.45800851  0.06656889  1
  O2-  O217  1  0.08293972  0.45297570  0.39770950  1
  O2-  O218  1  0.08578034  0.46123251  0.72600107  1
  O2-  O219  1  0.08064228  0.96538289  0.07177632  1
  O2-  O220  1  0.08259076  0.96154663  0.39367543  1
  O2-  O221  1  0.07934481  0.95732258  0.73009389  1
  O2-  O222  1  0.58822885  0.45396798  0.06331741  1
  O2-  O223  1  0.58469898  0.45787186  0.40405444  1
  O2-  O224  1  0.58536499  0.46485702  0.73708821  1
  O2-  O225  1  0.58829867  0.96144507  0.06769847  1
  O2-  O226  1  0.58782162  0.96286266  0.40306486  1
  O2-  O227  1  0.58364095  0.94893331  0.72909745  1
  O2-  O228  1  0.20412098  0.33278236  0.07062002  1
  O2-  O229  1  0.20338858  0.33437472  0.39630060  1
  O2-  O230  1  0.20259517  0.33873155  0.72525285  1
  O2-  O231  1  0.19127848  0.82633862  0.06519721  1
  O2-  O232  1  0.19304292  0.83306907  0.39242068  1
  O2-  O233  1  0.20513269  0.83035295  0.73423000  1
  O2-  O234  1  0.70892135  0.33614853  0.06358793  1
  O2-  O235  1  0.71229378  0.33170612  0.40199942  1
  O2-  O236  1  0.70678091  0.33204913  0.73633018  1
  O2-  O237  1  0.71206440  0.83021992  0.06465552  1
  O2-  O238  1  0.70658240  0.82921038  0.40106926  1
  O2-  O239  1  0.70222856  0.82850994  0.72748807  1
  O2-  O240  1  0.45982338  0.41351835  0.27087857  1
  O2-  O241  1  0.46304256  0.41982003  0.59837619  1
  O2-  O242  1  0.45929961  0.40967383  0.93979558  1
  O2-  O243  1  0.46370885  0.91885737  0.26903525  1
  O2-  O244  1  0.45459250  0.91133985  0.60576213  1
  O2-  O245  1  0.46192831  0.91959359  0.93100591  1
  O2-  O246  1  0.95374844  0.41382798  0.27253011  1
  O2-  O247  1  0.95345163  0.42238254  0.59773257  1
  O2-  O248  1  0.95234151  0.42043801  0.93342510  1
  O2-  O249  1  0.95613295  0.91805593  0.26328511  1
  O2-  O250  1  0.95678440  0.91710285  0.59724596  1
  O2-  O251  1  0.95611724  0.92263482  0.93638233  1
  O2-  O252  1  0.33622656  0.29531614  0.27003876  1
  O2-  O253  1  0.32931613  0.30303620  0.59649215  1
  O2-  O254  1  0.33506994  0.29611811  0.94522160  1
  O2-  O255  1  0.33116776  0.79418958  0.27018985  1
  O2-  O256  1  0.33734921  0.78844094  0.60509037  1
  O2-  O257  1  0.32597447  0.79832014  0.93406246  1
  O2-  O258  1  0.83742570  0.29001892  0.27067019  1
  O2-  O259  1  0.82908474  0.29226911  0.60064060  1
  O2-  O260  1  0.83228090  0.28851241  0.93279212  1
  O2-  O261  1  0.83188625  0.78605380  0.26619876  1
  O2-  O262  1  0.83404249  0.78574037  0.59831565  1
  O2-  O263  1  0.83663343  0.78635767  0.93041539  1
  O2-  O264  1  0.42318455  0.04558808  0.06792633  1
  O2-  O265  1  0.41855455  0.04273868  0.40260683  1
  O2-  O266  1  0.42137003  0.04473830  0.73235831  1
  O2-  O267  1  0.41984581  0.53778700  0.06911748  1
  O2-  O268  1  0.41442623  0.53994094  0.40442478  1
  O2-  O269  1  0.41343892  0.54327189  0.72919243  1
  O2-  O270  1  0.91748478  0.05681128  0.06099313  1
  O2-  O271  1  0.91962796  0.05183000  0.38975528  1
  O2-  O272  1  0.91538740  0.04097222  0.73443610  1
  O2-  O273  1  0.91013112  0.54450275  0.06427692  1
  O2-  O274  1  0.91775729  0.54644622  0.39717155  1
  O2-  O275  1  0.91940945  0.55405599  0.72697912  1
  O2-  O276  1  0.29188019  0.16638237  0.07183660  1
  O2-  O277  1  0.28969259  0.16809683  0.40074199  1
  O2-  O278  1  0.29555766  0.17443860  0.72933978  1
  O2-  O279  1  0.29769760  0.67022362  0.06651413  1
  O2-  O280  1  0.28749192  0.66800733  0.40372502  1
  O2-  O281  1  0.29386128  0.66180416  0.73138628  1
  O2-  O282  1  0.78890097  0.16499488  0.06575502  1
  O2-  O283  1  0.79232554  0.16277465  0.39709844  1
  O2-  O284  1  0.78703014  0.16435184  0.73498121  1
  O2-  O285  1  0.78962616  0.66166610  0.06340438  1
  O2-  O286  1  0.79792911  0.66377221  0.39847945  1
  O2-  O287  1  0.79095691  0.66428363  0.73190162  1
