# generated using pymatgen
data_Ca2Al2SiO7
_symmetry_space_group_name_H-M   'P 1'
_cell_length_a   15.45721770
_cell_length_b   15.45712992
_cell_length_c   15.28324460
_cell_angle_alpha   90.00050221
_cell_angle_beta   90.01103322
_cell_angle_gamma   89.99206491
_symmetry_Int_Tables_number   1
_chemical_formula_structural   Ca2Al2SiO7
_chemical_formula_sum   'Ca48 Al48 Si24 O168'
_cell_volume   3651.53722549
_cell_formula_units_Z   24
loop_
 _symmetry_equiv_pos_site_id
 _symmetry_equiv_pos_as_xyz
  1  'x, y, z'
loop_
 _atom_type_symbol
 _atom_type_oxidation_number
  Ca2+  2.0
  Al0+  0.0
  Si0+  0.0
  O2-  -2.0
loop_
 _atom_site_type_symbol
 _atom_site_label
 _atom_site_symmetry_multiplicity
 _atom_site_fract_x
 _atom_site_fract_y
 _atom_site_fract_z
 _atom_site_occupancy
  Ca2+  Ca0  1  0.15514754  0.06953698  0.16635757  1
  Ca2+  Ca1  1  0.16354999  0.07969765  0.50510832  1
  Ca2+  Ca2  1  0.16344945  0.08071442  0.84260542  1
  Ca2+  Ca3  1  0.16589947  0.58369144  0.17784617  1
  Ca2+  Ca4  1  0.16907535  0.57502027  0.50125453  1
  Ca2+  Ca5  1  0.16628101  0.58381038  0.83407818  1
  Ca2+  Ca6  1  0.66724017  0.07757121  0.16735495  1
  Ca2+  Ca7  1  0.66373267  0.07772745  0.50360769  1
  Ca2+  Ca8  1  0.66959222  0.07703224  0.84229910  1
  Ca2+  Ca9  1  0.67750409  0.58147614  0.17388766  1
  Ca2+  Ca10  1  0.67550320  0.58428369  0.50246013  1
  Ca2+  Ca11  1  0.66760910  0.58006427  0.83724946  1
  Ca2+  Ca12  1  0.07476934  0.33359624  0.16111800  1
  Ca2+  Ca13  1  0.08748918  0.33352521  0.49543730  1
  Ca2+  Ca14  1  0.08214838  0.32364975  0.83013308  1
  Ca2+  Ca15  1  0.08612176  0.82445342  0.15772359  1
  Ca2+  Ca16  1  0.07748590  0.82933809  0.49298043  1
  Ca2+  Ca17  1  0.07228392  0.83809146  0.83291446  1
  Ca2+  Ca18  1  0.58533040  0.31966304  0.16123875  1
  Ca2+  Ca19  1  0.58541280  0.32036876  0.49305431  1
  Ca2+  Ca20  1  0.58609791  0.31829918  0.82907779  1
  Ca2+  Ca21  1  0.57995056  0.83910661  0.16151908  1
  Ca2+  Ca22  1  0.57770866  0.84159284  0.49808555  1
  Ca2+  Ca23  1  0.57385820  0.84510371  0.82888277  1
  Ca2+  Ca24  1  0.32395740  0.42577422  0.17879078  1
  Ca2+  Ca25  1  0.32545225  0.42716092  0.50892773  1
  Ca2+  Ca26  1  0.32896677  0.42096592  0.83439661  1
  Ca2+  Ca27  1  0.32249398  0.91233653  0.16669452  1
  Ca2+  Ca28  1  0.32640299  0.91332780  0.50170552  1
  Ca2+  Ca29  1  0.33031116  0.91219564  0.83974579  1
  Ca2+  Ca30  1  0.84274141  0.41950780  0.17341601  1
  Ca2+  Ca31  1  0.84367745  0.42295933  0.49674283  1
  Ca2+  Ca32  1  0.83693248  0.41596913  0.83822304  1
  Ca2+  Ca33  1  0.82731384  0.91895105  0.16795930  1
  Ca2+  Ca34  1  0.82043793  0.91196836  0.50763511  1
  Ca2+  Ca35  1  0.82607236  0.91756016  0.84389911  1
  Ca2+  Ca36  1  0.42842822  0.15952790  0.16436425  1
  Ca2+  Ca37  1  0.42879445  0.16258198  0.49622145  1
  Ca2+  Ca38  1  0.43006908  0.15894574  0.82860378  1
  Ca2+  Ca39  1  0.41409685  0.67184183  0.16131156  1
  Ca2+  Ca40  1  0.40806436  0.66822646  0.49930315  1
  Ca2+  Ca41  1  0.41399767  0.67837393  0.82821844  1
  Ca2+  Ca42  1  0.91680663  0.17684558  0.15707025  1
  Ca2+  Ca43  1  0.92341229  0.17443511  0.49620674  1
  Ca2+  Ca44  1  0.92619205  0.15963148  0.83447730  1
  Ca2+  Ca45  1  0.92821344  0.66880254  0.16122231  1
  Ca2+  Ca46  1  0.92017389  0.67011817  0.49275964  1
  Ca2+  Ca47  1  0.91997069  0.67994133  0.83344816  1
  Al0+  Al48  1  -0.00167272  0.00024713  0.00371283  1
  Al0+  Al49  1  -0.00320255  0.00072631  0.33921349  1
  Al0+  Al50  1  -0.00224996  0.00090586  0.65618848  1
  Al0+  Al51  1  0.00126145  0.50022499  -0.00880925  1
  Al0+  Al52  1  0.00098202  0.50150776  0.33495464  1
  Al0+  Al53  1  0.00047632  0.50030253  0.67319966  1
  Al0+  Al54  1  0.49899079  -0.00035644  -0.00338488  1
  Al0+  Al55  1  0.49990386  -0.00092588  0.33186080  1
  Al0+  Al56  1  0.49891065  -0.00176559  0.66030638  1
  Al0+  Al57  1  0.50000895  0.50013120  0.00215172  1
  Al0+  Al58  1  0.50121492  0.50055650  0.33677660  1
  Al0+  Al59  1  0.50061225  0.50110933  0.67211609  1
  Al0+  Al60  1  0.25113010  0.25219147  0.00082890  1
  Al0+  Al61  1  0.25198377  0.24785059  0.33482197  1
  Al0+  Al62  1  0.25100044  0.24990746  0.66716363  1
  Al0+  Al63  1  0.25209430  0.74943846  -0.00468843  1
  Al0+  Al64  1  0.24905086  0.75175285  0.33763798  1
  Al0+  Al65  1  0.24935832  0.74992130  0.66598359  1
  Al0+  Al66  1  0.74876247  0.24993411  -0.00493452  1
  Al0+  Al67  1  0.75101459  0.24853003  0.32490104  1
  Al0+  Al68  1  0.75251427  0.25001764  0.66112833  1
  Al0+  Al69  1  0.74956972  0.74699617  0.00234424  1
  Al0+  Al70  1  0.74746233  0.75066029  0.34120580  1
  Al0+  Al71  1  0.74796030  0.75002565  0.66908407  1
  Al0+  Al72  1  0.93345620  0.32003937  0.32049563  1
  Al0+  Al73  1  0.92668242  0.82071310  0.65183961  1
  Al0+  Al74  1  0.92848506  0.32161967  0.98311935  1
  Al0+  Al75  1  0.56988110  0.17839853  0.31679230  1
  Al0+  Al76  1  0.17708152  0.93011695  0.34766205  1
  Al0+  Al77  1  0.07217013  0.17832998  0.98780069  1
  Al0+  Al78  1  0.07344922  0.67932737  0.98342952  1
  Al0+  Al79  1  0.56859118  0.17944395  0.98497971  1
  Al0+  Al80  1  0.07273172  0.17959903  0.65193152  1
  Al0+  Al81  1  0.67709069  0.92763417  0.01534275  1
  Al0+  Al82  1  0.17843514  0.42763193  0.34692893  1
  Al0+  Al83  1  0.82104025  0.57023730  0.34610335  1
  Al0+  Al84  1  0.17852084  0.42725373  0.68595592  1
  Al0+  Al85  1  0.57158271  0.17930668  0.65138386  1
  Al0+  Al86  1  0.67897246  0.93102291  0.34870582  1
  Al0+  Al87  1  0.06968945  0.68309104  0.32199332  1
  Al0+  Al88  1  0.92686681  0.82156468  0.98853976  1
  Al0+  Al89  1  0.32130810  0.57276032  0.68587460  1
  Al0+  Al90  1  0.42842557  0.81922409  0.65019474  1
  Al0+  Al91  1  0.17918993  0.92907221  0.01073469  1
  Al0+  Al92  1  0.43151666  0.81938027  0.98769854  1
  Al0+  Al93  1  0.67829255  0.93076868  0.68167211  1
  Al0+  Al94  1  0.82127281  0.07236158  0.01546576  1
  Al0+  Al95  1  0.32298455  0.57253086  0.34841676  1
  Si0+  Si96  1  0.57280418  0.67509349  0.98490740  1
  Si0+  Si97  1  0.67897951  0.42573694  0.34849973  1
  Si0+  Si98  1  0.32071517  0.57072483  0.01552264  1
  Si0+  Si99  1  0.67828315  0.42875379  0.01461080  1
  Si0+  Si100  1  0.82234521  0.56892883  0.01451437  1
  Si0+  Si101  1  0.17859309  0.42932918  0.01582500  1
  Si0+  Si102  1  0.92386936  0.82307866  0.31787904  1
  Si0+  Si103  1  0.17650324  0.93072022  0.68043116  1
  Si0+  Si104  1  0.07004032  0.67827190  0.64884092  1
  Si0+  Si105  1  0.82077441  0.07520327  0.35211664  1
  Si0+  Si106  1  0.32320261  0.06972861  0.34975551  1
  Si0+  Si107  1  0.42956429  0.81870204  0.31792472  1
  Si0+  Si108  1  0.42956216  0.32351825  0.65066786  1
  Si0+  Si109  1  0.32090192  0.06938554  0.68003345  1
  Si0+  Si110  1  0.92944051  0.32422950  0.64856912  1
  Si0+  Si111  1  0.82072053  0.57155291  0.68403511  1
  Si0+  Si112  1  0.68007085  0.42722316  0.68074363  1
  Si0+  Si113  1  0.82236163  0.07308716  0.68191833  1
  Si0+  Si114  1  0.57328461  0.67749449  0.31955178  1
  Si0+  Si115  1  0.32250615  0.07395496  0.01557473  1
  Si0+  Si116  1  0.57207734  0.67545337  0.64947441  1
  Si0+  Si117  1  0.07501252  0.17475129  0.31666893  1
  Si0+  Si118  1  0.42820561  0.32533183  0.98374876  1
  Si0+  Si119  1  0.42811187  0.32394882  0.31778520  1
  O2-  O120  1  0.24986265  0.00846592  0.05814027  1
  O2-  O121  1  0.24806249  0.00873754  0.39460200  1
  O2-  O122  1  0.24641156  0.00266263  0.72294225  1
  O2-  O123  1  0.24929760  0.50074553  0.05783193  1
  O2-  O124  1  0.25440526  0.49622228  0.39615836  1
  O2-  O125  1  0.24972786  0.50048978  0.73619813  1
  O2-  O126  1  0.75038202  -0.00160293  0.06520928  1
  O2-  O127  1  0.75511610  0.00362233  0.39626794  1
  O2-  O128  1  0.75390175  0.00479132  0.72678783  1
  O2-  O129  1  0.75206777  0.49673849  0.05677112  1
  O2-  O130  1  0.74672087  0.49469661  0.39389601  1
  O2-  O131  1  0.75030205  0.49847579  0.72437325  1
  O2-  O132  1  0.00917761  0.24644267  0.27381225  1
  O2-  O133  1  0.00107419  0.25803402  0.60621112  1
  O2-  O134  1  -0.00066040  0.24788088  0.93483829  1
  O2-  O135  1  -0.00332012  0.75911799  0.27405752  1
  O2-  O136  1  0.00110816  0.74625252  0.60424326  1
  O2-  O137  1  0.00203987  0.75368733  0.93646807  1
  O2-  O138  1  0.49588467  0.25532614  0.27175449  1
  O2-  O139  1  0.49866383  0.25623087  0.60477985  1
  O2-  O140  1  0.49301802  0.25376372  0.93842431  1
  O2-  O141  1  0.49878955  0.74474368  0.27742494  1
  O2-  O142  1  0.50236099  0.74264058  0.60469937  1
  O2-  O143  1  0.50937363  0.74791747  0.94074974  1
  O2-  O144  1  0.07297407  0.18172592  0.10128667  1
  O2-  O145  1  0.07310574  0.17490538  0.42254295  1
  O2-  O146  1  0.07117321  0.17646148  0.76462343  1
  O2-  O147  1  0.07309635  0.67735247  0.09738959  1
  O2-  O148  1  0.06717955  0.68333034  0.43513610  1
  O2-  O149  1  0.06838050  0.67982282  0.75439004  1
  O2-  O150  1  0.56708293  0.18027441  0.09815510  1
  O2-  O151  1  0.56827199  0.17900366  0.43012651  1
  O2-  O152  1  0.57050285  0.18002017  0.76435824  1
  O2-  O153  1  0.57004108  0.67006247  0.09053167  1
  O2-  O154  1  0.57583252  0.67807827  0.42438454  1
  O2-  O155  1  0.57316198  0.67397630  0.75507498  1
  O2-  O156  1  0.17855715  0.43086966  0.23280764  1
  O2-  O157  1  0.17937046  0.42849495  0.57236503  1
  O2-  O158  1  0.18124113  0.42775696  0.91107350  1
  O2-  O159  1  0.18013320  0.92762592  0.23456292  1
  O2-  O160  1  0.17844321  0.93171174  0.57508238  1
  O2-  O161  1  0.18176367  0.92959261  0.89727392  1
  O2-  O162  1  0.67842641  0.42816368  0.24276987  1
  O2-  O163  1  0.68023388  0.42788031  0.57570961  1
  O2-  O164  1  0.67585693  0.43206026  0.90919237  1
  O2-  O165  1  0.67747369  0.93077824  0.23598480  1
  O2-  O166  1  0.67816792  0.93255392  0.56829451  1
  O2-  O167  1  0.67597248  0.93059532  0.90176481  1
  O2-  O168  1  0.43186620  0.32876043  0.08923771  1
  O2-  O169  1  0.43096959  0.32311135  0.42330600  1
  O2-  O170  1  0.43214613  0.32191833  0.75646833  1
  O2-  O171  1  0.42919005  0.81627695  0.10114622  1
  O2-  O172  1  0.43036490  0.81996006  0.42304058  1
  O2-  O173  1  0.42947992  0.82086593  0.76314592  1
  O2-  O174  1  0.93166644  0.32532494  0.09671414  1
  O2-  O175  1  0.93299090  0.31901811  0.43374689  1
  O2-  O176  1  0.92602850  0.32328001  0.75361071  1
  O2-  O177  1  0.92584962  0.81637694  0.10209818  1
  O2-  O178  1  0.92379292  0.81923886  0.42382779  1
  O2-  O179  1  0.92766382  0.82107817  0.76476347  1
  O2-  O180  1  0.32738693  0.06608528  0.24440708  1
  O2-  O181  1  0.32120164  0.06736976  0.57474310  1
  O2-  O182  1  0.32454006  0.07293772  0.90971499  1
  O2-  O183  1  0.32236489  0.57280879  0.23419947  1
  O2-  O184  1  0.32056014  0.57052878  0.57253726  1
  O2-  O185  1  0.32323209  0.56865629  0.91092512  1
  O2-  O186  1  0.82025708  0.07619004  0.24690446  1
  O2-  O187  1  0.82040952  0.07403283  0.57616780  1
  O2-  O188  1  0.81929282  0.07220915  0.90147234  1
  O2-  O189  1  0.81977405  0.56969312  0.23291958  1
  O2-  O190  1  0.82079281  0.57091255  0.57877680  1
  O2-  O191  1  0.81884308  0.56899435  0.90913418  1
  O2-  O192  1  0.04469243  0.08129222  0.27264520  1
  O2-  O193  1  0.03898770  0.08614285  0.59322910  1
  O2-  O194  1  0.04555581  0.07923459  0.93557445  1
  O2-  O195  1  0.03809755  0.58687042  0.26820756  1
  O2-  O196  1  0.04280954  0.58350941  0.60604653  1
  O2-  O197  1  0.04218181  0.58358274  0.92766173  1
  O2-  O198  1  0.53444772  0.08297322  0.26332441  1
  O2-  O199  1  0.53544375  0.08541693  0.59616342  1
  O2-  O200  1  0.53657843  0.08421355  0.92991615  1
  O2-  O201  1  0.55126072  0.58355056  0.27259924  1
  O2-  O202  1  0.54971912  0.58037271  0.60406392  1
  O2-  O203  1  0.54317066  0.58314681  0.93631910  1
  O2-  O204  1  0.17161551  0.19233492  0.27377227  1
  O2-  O205  1  0.17119109  0.20608411  0.59868057  1
  O2-  O206  1  0.17179138  0.20637027  0.93561611  1
  O2-  O207  1  0.16707588  0.71316380  0.26853542  1
  O2-  O208  1  0.16369680  0.70394671  0.60420519  1
  O2-  O209  1  0.17134243  0.70541087  0.92982187  1
  O2-  O210  1  0.66537427  0.20894512  0.26152028  1
  O2-  O211  1  0.66814236  0.21010512  0.59687078  1
  O2-  O212  1  0.66317010  0.21240455  0.92939333  1
  O2-  O213  1  0.66351029  0.70911414  0.27090635  1
  O2-  O214  1  0.66557812  0.70180748  0.60384953  1
  O2-  O215  1  0.66819297  0.69335523  0.94031497  1
  O2-  O216  1  0.08566126  0.45833878  0.05955239  1
  O2-  O217  1  0.08314294  0.46058859  0.40251536  1
  O2-  O218  1  0.07959782  0.45482150  0.73885598  1
  O2-  O219  1  0.08282828  0.95461777  0.06739246  1
  O2-  O220  1  0.07925191  0.95595173  0.40265856  1
  O2-  O221  1  0.08327984  0.95916783  0.72403935  1
  O2-  O222  1  0.58792335  0.45891262  0.06449551  1
  O2-  O223  1  0.58571063  0.44968593  0.39605215  1
  O2-  O224  1  0.58911077  0.45342112  0.73077087  1
  O2-  O225  1  0.57836892  0.95892527  0.06698431  1
  O2-  O226  1  0.58220906  0.96402014  0.40157729  1
  O2-  O227  1  0.58027513  0.96314819  0.73170344  1
  O2-  O228  1  0.20620512  0.33800163  0.06490494  1
  O2-  O229  1  0.20260462  0.32670269  0.39772366  1
  O2-  O230  1  0.20950757  0.32849035  0.73776859  1
  O2-  O231  1  0.21644263  0.83354691  0.06418521  1
  O2-  O232  1  0.21295360  0.83701683  0.40463727  1
  O2-  O233  1  0.20446597  0.83870356  0.72598179  1
  O2-  O234  1  0.70227436  0.33594216  0.06025947  1
  O2-  O235  1  0.70583814  0.33177642  0.39260194  1
  O2-  O236  1  0.70985847  0.33550612  0.72784850  1
  O2-  O237  1  0.70082873  0.82651862  0.06634188  1
  O2-  O238  1  0.70569309  0.83435264  0.40505065  1
  O2-  O239  1  0.70455034  0.83203920  0.73366491  1
  O2-  O240  1  0.45328017  0.41823492  0.27191706  1
  O2-  O241  1  0.45510708  0.41814985  0.60677425  1
  O2-  O242  1  0.45748499  0.41741459  0.93585940  1
  O2-  O243  1  0.46032189  0.90914793  0.27027242  1
  O2-  O244  1  0.46032649  0.91401634  0.59334722  1
  O2-  O245  1  0.45707038  0.91618538  0.93173401  1
  O2-  O246  1  0.96212431  0.41747513  0.26725891  1
  O2-  O247  1  0.95298251  0.41993056  0.60553633  1
  O2-  O248  1  0.95801716  0.41809780  0.92737059  1
  O2-  O249  1  0.94385817  0.92011406  0.27745153  1
  O2-  O250  1  0.95528103  0.91588953  0.59443756  1
  O2-  O251  1  0.95143340  0.92073751  0.93654847  1
  O2-  O252  1  0.33405090  0.29917846  0.27159522  1
  O2-  O253  1  0.33632237  0.29752553  0.60520407  1
  O2-  O254  1  0.33329826  0.30408653  0.93945729  1
  O2-  O255  1  0.33725710  0.79220716  0.27146757  1
  O2-  O256  1  0.33084318  0.78976173  0.59649076  1
  O2-  O257  1  0.33812037  0.78551525  0.93011448  1
  O2-  O258  1  0.83666870  0.29172727  0.26488668  1
  O2-  O259  1  0.83718977  0.29761462  0.59952134  1
  O2-  O260  1  0.82848822  0.29887226  0.93136272  1
  O2-  O261  1  0.83062001  0.79362304  0.27407877  1
  O2-  O262  1  0.82981266  0.78708832  0.59956217  1
  O2-  O263  1  0.82984809  0.78772482  0.93424030  1
  O2-  O264  1  0.41349400  0.04203516  0.06312912  1
  O2-  O265  1  0.41315276  0.03615067  0.39879940  1
  O2-  O266  1  0.41107776  0.03640880  0.72739553  1
  O2-  O267  1  0.41288769  0.54290529  0.06387506  1
  O2-  O268  1  0.42330627  0.54900641  0.40129847  1
  O2-  O269  1  0.42121243  0.54612255  0.73842471  1
  O2-  O270  1  0.91938747  0.04820143  0.07086335  1
  O2-  O271  1  0.91513568  0.05420648  0.39907505  1
  O2-  O272  1  0.91688528  0.04607414  0.72489043  1
  O2-  O273  1  0.91529002  0.54095334  0.05919964  1
  O2-  O274  1  0.91545648  0.53880486  0.40320105  1
  O2-  O275  1  0.91171727  0.54498123  0.73292145  1
  O2-  O276  1  0.30434830  0.16958616  0.06148354  1
  O2-  O277  1  0.30742566  0.16615882  0.39424826  1
  O2-  O278  1  0.30067047  0.16300628  0.72672144  1
  O2-  O279  1  0.29426361  0.66289966  0.06193397  1
  O2-  O280  1  0.29193385  0.66916120  0.40198144  1
  O2-  O281  1  0.29113549  0.67190148  0.73696469  1
  O2-  O282  1  0.78962587  0.17161195  0.06619362  1
  O2-  O283  1  0.79096751  0.16795676  0.39788174  1
  O2-  O284  1  0.79869695  0.16807166  0.72630112  1
  O2-  O285  1  0.79374683  0.65887861  0.06466252  1
  O2-  O286  1  0.78707478  0.66408109  0.40373113  1
  O2-  O287  1  0.78921073  0.66127875  0.73295808  1
