# generated using pymatgen
data_Ca2Al2SiO7
_symmetry_space_group_name_H-M   'P 1'
_cell_length_a   15.45973301
_cell_length_b   15.46098081
_cell_length_c   15.28566692
_cell_angle_alpha   89.99194395
_cell_angle_beta   90.00192336
_cell_angle_gamma   89.98632329
_symmetry_Int_Tables_number   1
_chemical_formula_structural   Ca2Al2SiO7
_chemical_formula_sum   'Ca48 Al48 Si24 O168'
_cell_volume   3653.62024905
_cell_formula_units_Z   24
loop_
 _symmetry_equiv_pos_site_id
 _symmetry_equiv_pos_as_xyz
  1  'x, y, z'
loop_
 _atom_type_symbol
 _atom_type_oxidation_number
  Ca2+  2.0
  Al0+  0.0
  Si0+  0.0
  O2-  -2.0
loop_
 _atom_site_type_symbol
 _atom_site_label
 _atom_site_symmetry_multiplicity
 _atom_site_fract_x
 _atom_site_fract_y
 _atom_site_fract_z
 _atom_site_occupancy
  Ca2+  Ca0  1  0.16707955  0.07992044  0.17660105  1
  Ca2+  Ca1  1  0.16647263  0.08172964  0.51064034  1
  Ca2+  Ca2  1  0.16657641  0.08698325  0.83300804  1
  Ca2+  Ca3  1  0.17438448  0.58787671  0.17430733  1
  Ca2+  Ca4  1  0.16876717  0.57824727  0.50275639  1
  Ca2+  Ca5  1  0.17135692  0.57240592  0.83635314  1
  Ca2+  Ca6  1  0.66436665  0.08614347  0.17111922  1
  Ca2+  Ca7  1  0.67115140  0.09333480  0.50582965  1
  Ca2+  Ca8  1  0.67318136  0.09947894  0.83442944  1
  Ca2+  Ca9  1  0.67500561  0.57239203  0.17231174  1
  Ca2+  Ca10  1  0.67409054  0.58395993  0.50480373  1
  Ca2+  Ca11  1  0.66425596  0.57564259  0.83979404  1
  Ca2+  Ca12  1  0.07619881  0.32462971  0.16255296  1
  Ca2+  Ca13  1  0.08002931  0.32681238  0.49629046  1
  Ca2+  Ca14  1  0.07841520  0.32653076  0.82324756  1
  Ca2+  Ca15  1  0.08504965  0.82902890  0.16469022  1
  Ca2+  Ca16  1  0.09292572  0.83149282  0.49492824  1
  Ca2+  Ca17  1  0.08193037  0.83452171  0.83165871  1
  Ca2+  Ca18  1  0.58560108  0.32372817  0.16246556  1
  Ca2+  Ca19  1  0.57477953  0.32248949  0.50003124  1
  Ca2+  Ca20  1  0.57844020  0.32991227  0.82826603  1
  Ca2+  Ca21  1  0.57252287  0.82988696  0.15865775  1
  Ca2+  Ca22  1  0.58404483  0.82712771  0.49929573  1
  Ca2+  Ca23  1  0.57533270  0.82573450  0.82869494  1
  Ca2+  Ca24  1  0.33465818  0.43099743  0.17133448  1
  Ca2+  Ca25  1  0.32809155  0.41618348  0.50745120  1
  Ca2+  Ca26  1  0.32917620  0.41302644  0.83495925  1
  Ca2+  Ca27  1  0.32764899  0.92052284  0.17644074  1
  Ca2+  Ca28  1  0.32054978  0.93013167  0.50279594  1
  Ca2+  Ca29  1  0.33084671  0.92029520  0.83313906  1
  Ca2+  Ca30  1  0.83210946  0.40831789  0.17003146  1
  Ca2+  Ca31  1  0.84278493  0.41735292  0.50258630  1
  Ca2+  Ca32  1  0.82781869  0.40675250  0.83969889  1
  Ca2+  Ca33  1  0.83235076  0.91481344  0.16846886  1
  Ca2+  Ca34  1  0.83218801  0.92852674  0.50937621  1
  Ca2+  Ca35  1  0.83498934  0.92508537  0.83618919  1
  Ca2+  Ca36  1  0.42633960  0.15778827  0.16406558  1
  Ca2+  Ca37  1  0.41837062  0.16015352  0.49720918  1
  Ca2+  Ca38  1  0.42746683  0.16834935  0.82219802  1
  Ca2+  Ca39  1  0.40717077  0.67222233  0.15881561  1
  Ca2+  Ca40  1  0.41976047  0.66418202  0.49611517  1
  Ca2+  Ca41  1  0.41531664  0.66884500  0.83024680  1
  Ca2+  Ca42  1  0.92933512  0.17303976  0.16171002  1
  Ca2+  Ca43  1  0.92541953  0.17372416  0.49728098  1
  Ca2+  Ca44  1  0.92479763  0.17561016  0.82688548  1
  Ca2+  Ca45  1  0.92024404  0.66894639  0.16711707  1
  Ca2+  Ca46  1  0.92470826  0.66779535  0.49003740  1
  Ca2+  Ca47  1  0.91074819  0.67706802  0.83090239  1
  Al0+  Al48  1  0.00041064  -0.00132467  -0.00516544  1
  Al0+  Al49  1  -0.00347087  -0.00086200  0.33410600  1
  Al0+  Al50  1  -0.00306544  0.00057505  0.67336724  1
  Al0+  Al51  1  -0.00016445  0.50062246  -0.00182816  1
  Al0+  Al52  1  -0.00057546  0.50284578  0.32707313  1
  Al0+  Al53  1  0.00119424  0.50383538  0.67072777  1
  Al0+  Al54  1  0.50110986  -0.00229982  -0.00980748  1
  Al0+  Al55  1  0.49865696  -0.00302239  0.33397550  1
  Al0+  Al56  1  0.49976584  -0.00395739  0.66547767  1
  Al0+  Al57  1  0.50192482  0.49864621  0.01201544  1
  Al0+  Al58  1  0.50302316  0.49864553  0.33745802  1
  Al0+  Al59  1  0.50303055  0.50129124  0.65776171  1
  Al0+  Al60  1  0.25195411  0.24921903  0.00127143  1
  Al0+  Al61  1  0.25273452  0.25260387  0.33037814  1
  Al0+  Al62  1  0.25004869  0.25084979  0.66976152  1
  Al0+  Al63  1  0.24938492  0.75145787  -0.00296051  1
  Al0+  Al64  1  0.25050145  0.75070363  0.33855639  1
  Al0+  Al65  1  0.24999285  0.75161526  0.67058541  1
  Al0+  Al66  1  0.75157512  0.24912332  0.00151749  1
  Al0+  Al67  1  0.74645314  0.24906231  0.32752718  1
  Al0+  Al68  1  0.74921283  0.25315358  0.66377180  1
  Al0+  Al69  1  0.74975893  0.75020500  -0.00239965  1
  Al0+  Al70  1  0.74899338  0.74711849  0.33632023  1
  Al0+  Al71  1  0.74976589  0.75119032  0.66331242  1
  Al0+  Al72  1  0.07200821  0.68191768  0.32082462  1
  Al0+  Al73  1  0.31852783  0.57019548  0.01236744  1
  Al0+  Al74  1  0.92991218  0.32159829  0.98449701  1
  Al0+  Al75  1  0.32153547  0.07291507  0.34596840  1
  Al0+  Al76  1  0.17613341  0.93131547  0.34655141  1
  Al0+  Al77  1  0.92947869  0.32122818  0.31755501  1
  Al0+  Al78  1  0.56646737  0.17789186  0.31860886  1
  Al0+  Al79  1  0.07021963  0.17828557  0.65218809  1
  Al0+  Al80  1  0.17749309  0.92891044  0.68555967  1
  Al0+  Al81  1  0.68157640  0.42764748  0.01504576  1
  Al0+  Al82  1  0.57028940  0.17755025  0.65160693  1
  Al0+  Al83  1  0.42720476  0.82004598  0.98542195  1
  Al0+  Al84  1  0.92893676  0.32468171  0.65173327  1
  Al0+  Al85  1  0.56987797  0.17885145  0.98594934  1
  Al0+  Al86  1  0.32238743  0.07210194  0.68383998  1
  Al0+  Al87  1  0.42737779  0.32156401  0.65270510  1
  Al0+  Al88  1  0.81708083  0.07349245  0.68089866  1
  Al0+  Al89  1  0.82100691  0.56949648  0.34737332  1
  Al0+  Al90  1  0.07387824  0.17625551  0.31972998  1
  Al0+  Al91  1  0.32208208  0.57192941  0.34854719  1
  Al0+  Al92  1  0.17878185  0.42943011  0.67949089  1
  Al0+  Al93  1  0.57094023  0.67982565  0.65245981  1
  Al0+  Al94  1  0.07427221  0.17842587  0.98383235  1
  Al0+  Al95  1  0.92810407  0.81911710  0.98644298  1
  Si0+  Si96  1  0.92413814  0.82217304  0.31884562  1
  Si0+  Si97  1  0.42533531  0.82068744  0.64622396  1
  Si0+  Si98  1  0.17638964  0.42594676  0.01816673  1
  Si0+  Si99  1  0.82254063  0.57565838  0.01640081  1
  Si0+  Si100  1  0.82194559  0.57382493  0.68259089  1
  Si0+  Si101  1  0.92860264  0.82120566  0.65118479  1
  Si0+  Si102  1  0.57398983  0.67658120  0.31644832  1
  Si0+  Si103  1  0.32448846  0.57107606  0.68191413  1
  Si0+  Si104  1  0.57082291  0.67650757  0.98694067  1
  Si0+  Si105  1  0.42985368  0.32458916  0.98681075  1
  Si0+  Si106  1  0.32428459  0.06986985  0.01377138  1
  Si0+  Si107  1  0.68010075  0.43238374  0.68039624  1
  Si0+  Si108  1  0.67882745  0.92503661  0.68427611  1
  Si0+  Si109  1  0.17784767  0.42974299  0.34747822  1
  Si0+  Si110  1  0.43171709  0.81612075  0.31943005  1
  Si0+  Si111  1  0.07127532  0.68127167  0.65316900  1
  Si0+  Si112  1  0.81782979  0.07056390  0.34618899  1
  Si0+  Si113  1  0.17885801  0.93055947  0.01572200  1
  Si0+  Si114  1  0.07351191  0.67844540  0.98182495  1
  Si0+  Si115  1  0.82080434  0.06869267  0.01642698  1
  Si0+  Si116  1  0.67983933  0.42506279  0.35414758  1
  Si0+  Si117  1  0.67750866  0.92679679  0.34727173  1
  Si0+  Si118  1  0.42785433  0.32594407  0.31446082  1
  Si0+  Si119  1  0.67813528  0.92725936  0.01408808  1
  O2-  O120  1  0.24902579  0.00307909  0.05665287  1
  O2-  O121  1  0.23898912  0.01225239  0.39505476  1
  O2-  O122  1  0.24835795  0.00223360  0.73534348  1
  O2-  O123  1  0.24371939  0.49690692  0.06164769  1
  O2-  O124  1  0.24971084  0.49489035  0.39335863  1
  O2-  O125  1  0.25827214  0.50057605  0.72602434  1
  O2-  O126  1  0.74823309  -0.00198134  0.05842876  1
  O2-  O127  1  0.74867728  -0.00262854  0.38858198  1
  O2-  O128  1  0.73900633  0.00096067  0.72866147  1
  O2-  O129  1  0.75947712  0.50129664  0.05958265  1
  O2-  O130  1  0.75047914  0.49266590  0.39716950  1
  O2-  O131  1  0.75325777  0.50094229  0.72434263  1
  O2-  O132  1  0.00278675  0.24936693  0.26955327  1
  O2-  O133  1  0.00091497  0.25289859  0.60245079  1
  O2-  O134  1  0.00645077  0.25498740  0.93516985  1
  O2-  O135  1  -0.00266790  0.75785940  0.27548048  1
  O2-  O136  1  0.00300367  0.75427843  0.60955918  1
  O2-  O137  1  -0.00044536  0.74203430  0.93837881  1
  O2-  O138  1  0.49067588  0.25105006  0.27115500  1
  O2-  O139  1  0.49175119  0.24250506  0.60200790  1
  O2-  O140  1  0.49428355  0.25285716  0.94153952  1
  O2-  O141  1  0.49922398  0.74286113  0.27385380  1
  O2-  O142  1  0.49530457  0.75215531  0.60331304  1
  O2-  O143  1  0.49995223  0.74179508  0.94147820  1
  O2-  O144  1  0.07239486  0.17568794  0.09768483  1
  O2-  O145  1  0.07024672  0.17536779  0.43278688  1
  O2-  O146  1  0.06747012  0.17958851  0.76560357  1
  O2-  O147  1  0.07670579  0.68238266  0.08746656  1
  O2-  O148  1  0.07106980  0.68235389  0.43419487  1
  O2-  O149  1  0.06858850  0.68103344  0.75829303  1
  O2-  O150  1  0.56795930  0.17613987  0.09927842  1
  O2-  O151  1  0.56814278  0.17800288  0.43104941  1
  O2-  O152  1  0.57271154  0.18481726  0.76508754  1
  O2-  O153  1  0.57216560  0.68062870  0.09263345  1
  O2-  O154  1  0.57625814  0.68083208  0.42143623  1
  O2-  O155  1  0.57058817  0.68005010  0.76590196  1
  O2-  O156  1  0.17921915  0.43312000  0.24166960  1
  O2-  O157  1  0.17546301  0.43521042  0.56646641  1
  O2-  O158  1  0.17822323  0.42721908  0.91258794  1
  O2-  O159  1  0.18067602  0.92681709  0.23239295  1
  O2-  O160  1  0.17926122  0.92566397  0.57227056  1
  O2-  O161  1  0.17957515  0.92857407  0.91114133  1
  O2-  O162  1  0.67964150  0.42669676  0.24822326  1
  O2-  O163  1  0.68025458  0.43500073  0.57561852  1
  O2-  O164  1  0.67865467  0.43102006  0.90163561  1
  O2-  O165  1  0.67703969  0.92535262  0.24175698  1
  O2-  O166  1  0.68537963  0.91933125  0.57854130  1
  O2-  O167  1  0.67961666  0.92396833  0.90957772  1
  O2-  O168  1  0.43203527  0.32527021  0.09243329  1
  O2-  O169  1  0.43079742  0.33057172  0.41949829  1
  O2-  O170  1  0.43391595  0.32715369  0.76656321  1
  O2-  O171  1  0.42842108  0.82035150  0.09910106  1
  O2-  O172  1  0.43613398  0.81473747  0.42398403  1
  O2-  O173  1  0.42555717  0.81798789  0.75214004  1
  O2-  O174  1  0.92969386  0.31701391  0.09796706  1
  O2-  O175  1  0.93045240  0.32045912  0.43090230  1
  O2-  O176  1  0.92857503  0.32372479  0.76507107  1
  O2-  O177  1  0.92820549  0.81876596  0.09961985  1
  O2-  O178  1  0.91932298  0.81993961  0.42416079  1
  O2-  O179  1  0.92494817  0.81715852  0.75636344  1
  O2-  O180  1  0.32720739  0.06364169  0.23203809  1
  O2-  O181  1  0.32227064  0.06825508  0.57033431  1
  O2-  O182  1  0.32587996  0.06752370  0.90935479  1
  O2-  O183  1  0.31983601  0.57392750  0.23511093  1
  O2-  O184  1  0.32167363  0.57200894  0.57628358  1
  O2-  O185  1  0.31892993  0.56896117  0.89927018  1
  O2-  O186  1  0.81674219  0.06789362  0.24078864  1
  O2-  O187  1  0.81658113  0.07008686  0.56721646  1
  O2-  O188  1  0.81876578  0.06814847  0.91148380  1
  O2-  O189  1  0.81634820  0.57475881  0.23458394  1
  O2-  O190  1  0.82169777  0.57614720  0.57756380  1
  O2-  O191  1  0.81715495  0.58103178  0.91085619  1
  O2-  O192  1  0.04171031  0.07778046  0.26680174  1
  O2-  O193  1  0.03767158  0.07920206  0.60281356  1
  O2-  O194  1  0.04224252  0.08119985  0.93168400  1
  O2-  O195  1  0.04058979  0.58828064  0.26220733  1
  O2-  O196  1  0.04083380  0.59131406  0.60478065  1
  O2-  O197  1  0.05416356  0.58269624  0.93836417  1
  O2-  O198  1  0.53865540  0.07897498  0.26557911  1
  O2-  O199  1  0.55343665  0.07419548  0.60379007  1
  O2-  O200  1  0.54392286  0.08263118  0.92976650  1
  O2-  O201  1  0.55196714  0.58201699  0.27304982  1
  O2-  O202  1  0.54455506  0.58538269  0.59310780  1
  O2-  O203  1  0.54712937  0.58135667  0.94442629  1
  O2-  O204  1  0.17363815  0.20169059  0.26715039  1
  O2-  O205  1  0.17048819  0.20327807  0.60353037  1
  O2-  O206  1  0.17563870  0.20157676  0.93457413  1
  O2-  O207  1  0.16862167  0.71418954  0.26681168  1
  O2-  O208  1  0.16447461  0.70651178  0.60730592  1
  O2-  O209  1  0.16318738  0.71049001  0.93229815  1
  O2-  O210  1  0.66186104  0.20954616  0.26227181  1
  O2-  O211  1  0.66544062  0.21408656  0.59738676  1
  O2-  O212  1  0.66689971  0.21128975  0.93587061  1
  O2-  O213  1  0.66361096  0.70902597  0.26767334  1
  O2-  O214  1  0.66637719  0.71427704  0.59649435  1
  O2-  O215  1  0.66261870  0.70451768  0.93879697  1
  O2-  O216  1  0.08154937  0.45057824  0.06224326  1
  O2-  O217  1  0.08552485  0.46037210  0.39204174  1
  O2-  O218  1  0.08580523  0.46799460  0.73768651  1
  O2-  O219  1  0.08564708  0.95546232  0.06215285  1
  O2-  O220  1  0.07324171  0.94500059  0.39650932  1
  O2-  O221  1  0.07744613  0.95215805  0.73733695  1
  O2-  O222  1  0.58813475  0.45946729  0.07530407  1
  O2-  O223  1  0.58757655  0.45387213  0.40061883  1
  O2-  O224  1  0.58920444  0.46463294  0.72757511  1
  O2-  O225  1  0.58553387  0.95535207  0.06041474  1
  O2-  O226  1  0.58660803  0.95336118  0.39606966  1
  O2-  O227  1  0.58111047  0.93826379  0.72456996  1
  O2-  O228  1  0.20340405  0.33285134  0.06498330  1
  O2-  O229  1  0.20019121  0.33502935  0.39238197  1
  O2-  O230  1  0.20565769  0.33392010  0.73657927  1
  O2-  O231  1  0.20858350  0.83863441  0.06223686  1
  O2-  O232  1  0.21458987  0.83718609  0.40197291  1
  O2-  O233  1  0.20864493  0.83044307  0.73966680  1
  O2-  O234  1  0.71275141  0.33149417  0.07092001  1
  O2-  O235  1  0.70285758  0.33015052  0.39772809  1
  O2-  O236  1  0.70542346  0.34056879  0.72839826  1
  O2-  O237  1  0.70608554  0.83571414  0.06348986  1
  O2-  O238  1  0.70482043  0.83535597  0.39588062  1
  O2-  O239  1  0.71299867  0.83479382  0.73323158  1
  O2-  O240  1  0.46190068  0.41739944  0.26714454  1
  O2-  O241  1  0.46220413  0.41661374  0.59595067  1
  O2-  O242  1  0.45974842  0.41734686  0.94177827  1
  O2-  O243  1  0.46263856  0.90616530  0.27019772  1
  O2-  O244  1  0.45171332  0.91330853  0.59980252  1
  O2-  O245  1  0.46309707  0.91176683  0.92671892  1
  O2-  O246  1  0.95422442  0.42029813  0.26409492  1
  O2-  O247  1  0.95699093  0.42544678  0.60285443  1
  O2-  O248  1  0.94637882  0.42462408  0.93561882  1
  O2-  O249  1  0.94277444  0.91686573  0.27275105  1
  O2-  O250  1  0.95143362  0.91479901  0.60681276  1
  O2-  O251  1  0.95998261  0.91373016  0.93053919  1
  O2-  O252  1  0.33233491  0.31062082  0.26889395  1
  O2-  O253  1  0.32627892  0.30319040  0.60269353  1
  O2-  O254  1  0.33455635  0.30351081  0.94326843  1
  O2-  O255  1  0.33926418  0.78992542  0.27294384  1
  O2-  O256  1  0.33220855  0.79267579  0.60108971  1
  O2-  O257  1  0.33188583  0.79004881  0.92948412  1
  O2-  O258  1  0.83085411  0.29051144  0.26600548  1
  O2-  O259  1  0.83040675  0.29827835  0.59924003  1
  O2-  O260  1  0.83283224  0.28748111  0.93301409  1
  O2-  O261  1  0.83247858  0.79073856  0.27053655  1
  O2-  O262  1  0.83893080  0.79016276  0.60171479  1
  O2-  O263  1  0.83126532  0.79050688  0.93019048  1
  O2-  O264  1  0.41547748  0.03563644  0.05944823  1
  O2-  O265  1  0.41534409  0.03167516  0.40107014  1
  O2-  O266  1  0.42158582  0.03909737  0.73514710  1
  O2-  O267  1  0.41468957  0.54287457  0.07014109  1
  O2-  O268  1  0.42134133  0.54547809  0.39961608  1
  O2-  O269  1  0.42049607  0.54909290  0.72415747  1
  O2-  O270  1  0.91217474  0.03658773  0.06239816  1
  O2-  O271  1  0.90900853  0.04483145  0.39537829  1
  O2-  O272  1  0.91026061  0.03820425  0.73817721  1
  O2-  O273  1  0.91967731  0.55799937  0.05825363  1
  O2-  O274  1  0.92004656  0.54463484  0.39933621  1
  O2-  O275  1  0.91410063  0.55249656  0.73146312  1
  O2-  O276  1  0.30414706  0.16397315  0.06066630  1
  O2-  O277  1  0.31054601  0.17723276  0.39148168  1
  O2-  O278  1  0.30049694  0.17205227  0.73598420  1
  O2-  O279  1  0.28650592  0.66806269  0.06489234  1
  O2-  O280  1  0.29029973  0.66657447  0.40460632  1
  O2-  O281  1  0.29633741  0.66374429  0.72863220  1
  O2-  O282  1  0.79259305  0.15932272  0.06497492  1
  O2-  O283  1  0.78541787  0.16106565  0.39238481  1
  O2-  O284  1  0.78678754  0.17071355  0.73456134  1
  O2-  O285  1  0.79149758  0.66698289  0.06515385  1
  O2-  O286  1  0.78665575  0.66475186  0.40390147  1
  O2-  O287  1  0.78897156  0.66479722  0.72956146  1
