# generated using pymatgen
data_Ca2Al2SiO7
_symmetry_space_group_name_H-M   'P 1'
_cell_length_a   15.45997521
_cell_length_b   15.46180673
_cell_length_c   15.28653533
_cell_angle_alpha   89.98888114
_cell_angle_beta   89.99859374
_cell_angle_gamma   90.00050694
_symmetry_Int_Tables_number   1
_chemical_formula_structural   Ca2Al2SiO7
_chemical_formula_sum   'Ca48 Al48 Si24 O168'
_cell_volume   3654.08031983
_cell_formula_units_Z   24
loop_
 _symmetry_equiv_pos_site_id
 _symmetry_equiv_pos_as_xyz
  1  'x, y, z'
loop_
 _atom_type_symbol
 _atom_type_oxidation_number
  Ca2+  2.0
  Al0+  0.0
  Si0+  0.0
  O2-  -2.0
loop_
 _atom_site_type_symbol
 _atom_site_label
 _atom_site_symmetry_multiplicity
 _atom_site_fract_x
 _atom_site_fract_y
 _atom_site_fract_z
 _atom_site_occupancy
  Ca2+  Ca0  1  0.17063678  0.09014434  0.17070544  1
  Ca2+  Ca1  1  0.16244316  0.08014775  0.51076675  1
  Ca2+  Ca2  1  0.17321096  0.08875816  0.82909940  1
  Ca2+  Ca3  1  0.16851225  0.57715137  0.17982447  1
  Ca2+  Ca4  1  0.17169807  0.57347194  0.50668570  1
  Ca2+  Ca5  1  0.16932222  0.57914189  0.83503375  1
  Ca2+  Ca6  1  0.67453130  0.08365214  0.16727118  1
  Ca2+  Ca7  1  0.67465397  0.08194710  0.50716969  1
  Ca2+  Ca8  1  0.68116210  0.09397378  0.83591454  1
  Ca2+  Ca9  1  0.67199509  0.57958151  0.17436418  1
  Ca2+  Ca10  1  0.66855152  0.58364102  0.50466041  1
  Ca2+  Ca11  1  0.66465948  0.57262510  0.83300988  1
  Ca2+  Ca12  1  0.08091529  0.33221648  0.16387215  1
  Ca2+  Ca13  1  0.09493551  0.32429656  0.49930824  1
  Ca2+  Ca14  1  0.06932025  0.33016075  0.82197990  1
  Ca2+  Ca15  1  0.08206332  0.81881419  0.16725735  1
  Ca2+  Ca16  1  0.08097501  0.82942359  0.49267331  1
  Ca2+  Ca17  1  0.08995068  0.82978215  0.83077833  1
  Ca2+  Ca18  1  0.57113626  0.34157201  0.16159867  1
  Ca2+  Ca19  1  0.57093927  0.34177035  0.50057290  1
  Ca2+  Ca20  1  0.57414709  0.34153919  0.82689748  1
  Ca2+  Ca21  1  0.58419992  0.82554861  0.16699197  1
  Ca2+  Ca22  1  0.58269605  0.81985423  0.49490949  1
  Ca2+  Ca23  1  0.58184547  0.82549160  0.82561960  1
  Ca2+  Ca24  1  0.32924523  0.41782283  0.17667460  1
  Ca2+  Ca25  1  0.32651834  0.41971130  0.50337369  1
  Ca2+  Ca26  1  0.33049568  0.41322966  0.83153245  1
  Ca2+  Ca27  1  0.33451472  0.92602193  0.16843159  1
  Ca2+  Ca28  1  0.32363964  0.92529146  0.51205270  1
  Ca2+  Ca29  1  0.32958150  0.92873948  0.83529889  1
  Ca2+  Ca30  1  0.82875530  0.41767374  0.16895105  1
  Ca2+  Ca31  1  0.82917621  0.42103385  0.50731124  1
  Ca2+  Ca32  1  0.82088846  0.40202203  0.83752284  1
  Ca2+  Ca33  1  0.84091936  0.91984387  0.17011114  1
  Ca2+  Ca34  1  0.83848353  0.92063117  0.50562105  1
  Ca2+  Ca35  1  0.83529815  0.93087743  0.83550115  1
  Ca2+  Ca36  1  0.41412514  0.18016017  0.15959435  1
  Ca2+  Ca37  1  0.40351502  0.18145945  0.49946089  1
  Ca2+  Ca38  1  0.41049773  0.17464027  0.82778534  1
  Ca2+  Ca39  1  0.42185449  0.65778063  0.16724788  1
  Ca2+  Ca40  1  0.42448981  0.65154513  0.49780839  1
  Ca2+  Ca41  1  0.42217548  0.66275347  0.82241164  1
  Ca2+  Ca42  1  0.92330890  0.17114874  0.16011321  1
  Ca2+  Ca43  1  0.92513832  0.17120830  0.50008293  1
  Ca2+  Ca44  1  0.91539034  0.17211880  0.82425899  1
  Ca2+  Ca45  1  0.92803930  0.65842353  0.16759078  1
  Ca2+  Ca46  1  0.92188388  0.67184833  0.48750847  1
  Ca2+  Ca47  1  0.92462480  0.66670484  0.83198661  1
  Al0+  Al48  1  0.00154964  -0.00289419  0.00516198  1
  Al0+  Al49  1  0.00174613  0.00200226  0.32444555  1
  Al0+  Al50  1  -0.00066370  -0.00028228  0.67327243  1
  Al0+  Al51  1  -0.00039388  0.49927536  -0.00978153  1
  Al0+  Al52  1  -0.00198638  0.49762740  0.33955976  1
  Al0+  Al53  1  -0.00130731  0.50228692  0.66650386  1
  Al0+  Al54  1  0.50047165  -0.00051697  0.00475878  1
  Al0+  Al55  1  0.50257892  0.00063863  0.33444992  1
  Al0+  Al56  1  0.50016676  -0.00106538  0.66947266  1
  Al0+  Al57  1  0.49995007  0.49929526  -0.00095921  1
  Al0+  Al58  1  0.49970657  0.49951851  0.32674804  1
  Al0+  Al59  1  0.50198813  0.50015911  0.66552055  1
  Al0+  Al60  1  0.24971993  0.25068397  0.00022294  1
  Al0+  Al61  1  0.25060478  0.25104498  0.32692733  1
  Al0+  Al62  1  0.24791034  0.25078696  0.66713622  1
  Al0+  Al63  1  0.25180339  0.75034639  -0.00283803  1
  Al0+  Al64  1  0.25248408  0.75266558  0.33345904  1
  Al0+  Al65  1  0.25124799  0.75053760  0.67313132  1
  Al0+  Al66  1  0.74840967  0.24921525  0.01033920  1
  Al0+  Al67  1  0.74930278  0.24826546  0.33477651  1
  Al0+  Al68  1  0.74851390  0.25108798  0.66771419  1
  Al0+  Al69  1  0.75177225  0.74972428  -0.00173887  1
  Al0+  Al70  1  0.74836413  0.75147456  0.32818351  1
  Al0+  Al71  1  0.75004125  0.74955267  0.66448330  1
  Al0+  Al72  1  0.31939071  0.07190464  0.01589913  1
  Al0+  Al73  1  0.56986182  0.68030040  0.65277182  1
  Al0+  Al74  1  0.17624189  0.42844186  0.68421213  1
  Al0+  Al75  1  0.81998862  0.57154055  0.34596669  1
  Al0+  Al76  1  0.42923777  0.32090903  0.98374272  1
  Al0+  Al77  1  0.56873339  0.67975934  0.31791810  1
  Al0+  Al78  1  0.17780862  0.42725396  0.34752798  1
  Al0+  Al79  1  0.32226563  0.07302394  0.68040956  1
  Al0+  Al80  1  0.17711691  0.92817128  0.68209865  1
  Al0+  Al81  1  0.81912815  0.07019699  0.67818108  1
  Al0+  Al82  1  0.06841737  0.17970335  0.65315576  1
  Al0+  Al83  1  0.42906188  0.31962525  0.65281704  1
  Al0+  Al84  1  0.67804258  0.43036770  0.01541063  1
  Al0+  Al85  1  0.07234848  0.67873277  0.98505260  1
  Al0+  Al86  1  0.32228814  0.57280322  0.34684895  1
  Al0+  Al87  1  0.07266673  0.67618067  0.32213653  1
  Al0+  Al88  1  0.92782627  0.31827696  0.98748557  1
  Al0+  Al89  1  0.82179635  0.07021843  0.01632278  1
  Al0+  Al90  1  0.68118419  0.43118808  0.67875159  1
  Al0+  Al91  1  0.32159947  0.56857405  0.68217260  1
  Al0+  Al92  1  0.92479248  0.32334373  0.65005335  1
  Al0+  Al93  1  0.07017151  0.18136023  0.31843298  1
  Al0+  Al94  1  0.92897825  0.82179659  0.31838830  1
  Al0+  Al95  1  0.43173314  0.31872789  0.31870033  1
  Si0+  Si96  1  0.92850121  0.82262774  0.98115219  1
  Si0+  Si97  1  0.67829734  0.92548579  0.68240809  1
  Si0+  Si98  1  0.57093404  0.17634724  0.98486534  1
  Si0+  Si99  1  0.42682983  0.82350344  0.65037498  1
  Si0+  Si100  1  0.07370116  0.67961351  0.65164004  1
  Si0+  Si101  1  0.32082878  0.57165154  0.01451328  1
  Si0+  Si102  1  0.82292272  0.57289728  0.01549191  1
  Si0+  Si103  1  0.42841283  0.82717238  0.31634645  1
  Si0+  Si104  1  0.93015684  0.81999607  0.65410058  1
  Si0+  Si105  1  0.82299035  0.06984099  0.34876250  1
  Si0+  Si106  1  0.07197050  0.17605765  0.98299478  1
  Si0+  Si107  1  0.67877073  0.92490615  0.01790865  1
  Si0+  Si108  1  0.57266425  0.17572722  0.65099120  1
  Si0+  Si109  1  0.57491656  0.17514939  0.31573943  1
  Si0+  Si110  1  0.57121700  0.67929625  0.98433700  1
  Si0+  Si111  1  0.17984795  0.92471521  0.02095125  1
  Si0+  Si112  1  0.67760817  0.42794877  0.34990399  1
  Si0+  Si113  1  0.17939043  0.93117283  0.34611628  1
  Si0+  Si114  1  0.17747387  0.43096619  0.01371611  1
  Si0+  Si115  1  0.43051758  0.82271582  0.98458262  1
  Si0+  Si116  1  0.32200293  0.07145351  0.34683524  1
  Si0+  Si117  1  0.82243457  0.57583029  0.68401620  1
  Si0+  Si118  1  0.67881336  0.92919566  0.34916204  1
  Si0+  Si119  1  0.92321512  0.32187877  0.31697922  1
  O2-  O120  1  0.24368505  -0.00145379  0.06457051  1
  O2-  O121  1  0.25215080  -0.00017940  0.38878779  1
  O2-  O122  1  0.25029141  0.00038933  0.72994263  1
  O2-  O123  1  0.24836659  0.50226663  0.05626995  1
  O2-  O124  1  0.24527427  0.50532979  0.39494665  1
  O2-  O125  1  0.24863735  0.49980569  0.73535458  1
  O2-  O126  1  0.74845549  -0.00729659  0.06207507  1
  O2-  O127  1  0.75194324  -0.00157412  0.39073603  1
  O2-  O128  1  0.74152522  -0.00140544  0.72670018  1
  O2-  O129  1  0.75400857  0.50481198  0.06006372  1
  O2-  O130  1  0.74740114  0.49531893  0.39373715  1
  O2-  O131  1  0.75993293  0.50116415  0.72730911  1
  O2-  O132  1  -0.00472542  0.25645073  0.27323448  1
  O2-  O133  1  0.00103818  0.25520310  0.60082233  1
  O2-  O134  1  -0.00061558  0.24079504  0.94022307  1
  O2-  O135  1  -0.00239708  0.74508442  0.27054002  1
  O2-  O136  1  0.00131268  0.75013518  0.61101879  1
  O2-  O137  1  -0.00187863  0.75468146  0.93783198  1
  O2-  O138  1  0.50738784  0.24461088  0.27196506  1
  O2-  O139  1  0.50006195  0.23991646  0.60663018  1
  O2-  O140  1  0.50271618  0.24387133  0.93890151  1
  O2-  O141  1  0.49137120  0.75285629  0.27183477  1
  O2-  O142  1  0.49419768  0.75412796  0.60564910  1
  O2-  O143  1  0.50118960  0.75129395  0.94248720  1
  O2-  O144  1  0.07223236  0.17978926  0.08903957  1
  O2-  O145  1  0.06917889  0.17606850  0.43084713  1
  O2-  O146  1  0.06550602  0.17823048  0.76683490  1
  O2-  O147  1  0.07229209  0.67765749  0.09804475  1
  O2-  O148  1  0.07212629  0.68144455  0.43555238  1
  O2-  O149  1  0.07242359  0.68098412  0.75710779  1
  O2-  O150  1  0.56855918  0.17579946  0.09069494  1
  O2-  O151  1  0.57704541  0.17191727  0.42095085  1
  O2-  O152  1  0.57518669  0.17744458  0.75659673  1
  O2-  O153  1  0.57046965  0.68015628  0.08940542  1
  O2-  O154  1  0.56968295  0.68139898  0.43069773  1
  O2-  O155  1  0.57034174  0.68268051  0.76654109  1
  O2-  O156  1  0.17998166  0.42639860  0.23289288  1
  O2-  O157  1  0.17841400  0.42950929  0.57082132  1
  O2-  O158  1  0.17799384  0.43169892  0.90908129  1
  O2-  O159  1  0.18095022  0.93173480  0.24099477  1
  O2-  O160  1  0.17645608  0.92807717  0.56779292  1
  O2-  O161  1  0.18271697  0.92206420  0.91580251  1
  O2-  O162  1  0.67832504  0.42951763  0.24399076  1
  O2-  O163  1  0.67972201  0.43457438  0.56566069  1
  O2-  O164  1  0.67671651  0.43234683  0.90244285  1
  O2-  O165  1  0.67587385  0.93142348  0.24405454  1
  O2-  O166  1  0.68141456  0.92353580  0.57672868  1
  O2-  O167  1  0.67853346  0.92221523  0.91252562  1
  O2-  O168  1  0.42971785  0.32184150  0.09692756  1
  O2-  O169  1  0.43159030  0.31786420  0.43162532  1
  O2-  O170  1  0.43186686  0.31967383  0.76597389  1
  O2-  O171  1  0.43129634  0.82273228  0.08978812  1
  O2-  O172  1  0.43302776  0.83593256  0.42098992  1
  O2-  O173  1  0.43038733  0.82402335  0.75636451  1
  O2-  O174  1  0.93151619  0.31990697  0.10088117  1
  O2-  O175  1  0.91569085  0.31727535  0.42159943  1
  O2-  O176  1  0.92235098  0.31686442  0.76392687  1
  O2-  O177  1  0.92731592  0.82168834  0.08633416  1
  O2-  O178  1  0.93190924  0.82476142  0.43250008  1
  O2-  O179  1  0.92829427  0.81793995  0.75922671  1
  O2-  O180  1  0.32141751  0.06965017  0.24143310  1
  O2-  O181  1  0.32140808  0.07020614  0.56626167  1
  O2-  O182  1  0.32008060  0.06995191  0.90346615  1
  O2-  O183  1  0.32257872  0.56894060  0.23230268  1
  O2-  O184  1  0.32042650  0.56796381  0.56891312  1
  O2-  O185  1  0.32190454  0.57217371  0.90975946  1
  O2-  O186  1  0.82080272  0.06934600  0.24363769  1
  O2-  O187  1  0.81965412  0.06610957  0.56479132  1
  O2-  O188  1  0.81932859  0.06967316  0.90323557  1
  O2-  O189  1  0.81877806  0.56930160  0.23236280  1
  O2-  O190  1  0.81862688  0.58116621  0.57862452  1
  O2-  O191  1  0.82055971  0.57665531  0.91014718  1
  O2-  O192  1  0.03961205  0.08700887  0.25965006  1
  O2-  O193  1  0.03665457  0.08040381  0.60224461  1
  O2-  O194  1  0.05196869  0.07886360  0.94296131  1
  O2-  O195  1  0.04433948  0.57655753  0.27053446  1
  O2-  O196  1  0.04670745  0.58803883  0.60478324  1
  O2-  O197  1  0.03973330  0.58502377  0.92688108  1
  O2-  O198  1  0.54912878  0.08188348  0.26851995  1
  O2-  O199  1  0.55421287  0.07897093  0.60733460  1
  O2-  O200  1  0.54923112  0.08107352  0.94023621  1
  O2-  O201  1  0.54008129  0.58423436  0.26081102  1
  O2-  O202  1  0.54034089  0.58464077  0.59782541  1
  O2-  O203  1  0.54071621  0.58876209  0.93702532  1
  O2-  O204  1  0.16563242  0.21179187  0.26181839  1
  O2-  O205  1  0.16800590  0.20367393  0.60032300  1
  O2-  O206  1  0.16456387  0.20484584  0.93803312  1
  O2-  O207  1  0.17060514  0.70811664  0.26837669  1
  O2-  O208  1  0.16584074  0.70852609  0.60648659  1
  O2-  O209  1  0.16906405  0.71053156  0.93116800  1
  O2-  O210  1  0.66894497  0.19960790  0.26922456  1
  O2-  O211  1  0.66404023  0.20473616  0.60254223  1
  O2-  O212  1  0.66560026  0.20345932  0.94303985  1
  O2-  O213  1  0.66278884  0.71461520  0.26115575  1
  O2-  O214  1  0.66592633  0.71344108  0.59816903  1
  O2-  O215  1  0.66383413  0.70578015  0.93767240  1
  O2-  O216  1  0.08490294  0.45940589  0.05926880  1
  O2-  O217  1  0.07760484  0.44510443  0.40010292  1
  O2-  O218  1  0.07692340  0.45838087  0.73557324  1
  O2-  O219  1  0.08404477  0.94356318  0.06476801  1
  O2-  O220  1  0.08765046  0.96190827  0.39166900  1
  O2-  O221  1  0.08039768  0.95492620  0.73877661  1
  O2-  O222  1  0.58240267  0.46531159  0.06952066  1
  O2-  O223  1  0.58442417  0.45678651  0.39341626  1
  O2-  O224  1  0.58742792  0.46702256  0.73469583  1
  O2-  O225  1  0.58598840  0.95095886  0.06584082  1
  O2-  O226  1  0.58857937  0.95881322  0.39924661  1
  O2-  O227  1  0.58292653  0.94376495  0.72731481  1
  O2-  O228  1  0.20468912  0.33881546  0.06066774  1
  O2-  O229  1  0.21509985  0.33057167  0.39902025  1
  O2-  O230  1  0.20313606  0.32988845  0.73625800  1
  O2-  O231  1  0.21264975  0.83316273  0.06785899  1
  O2-  O232  1  0.20416963  0.83926228  0.39461757  1
  O2-  O233  1  0.20735733  0.83185286  0.73817755  1
  O2-  O234  1  0.70550799  0.33467180  0.07250421  1
  O2-  O235  1  0.69942227  0.33241536  0.39395804  1
  O2-  O236  1  0.70601506  0.33355660  0.73396261  1
  O2-  O237  1  0.70478842  0.83104913  0.06444714  1
  O2-  O238  1  0.70428098  0.83687665  0.39569322  1
  O2-  O239  1  0.70957596  0.83459512  0.73123179  1
  O2-  O240  1  0.46229529  0.41391157  0.26179285  1
  O2-  O241  1  0.46594167  0.41402744  0.59922960  1
  O2-  O242  1  0.46212724  0.41735963  0.93064429  1
  O2-  O243  1  0.46187878  0.91747169  0.26598102  1
  O2-  O244  1  0.45231252  0.91716452  0.60376316  1
  O2-  O245  1  0.46009312  0.91409277  0.93718473  1
  O2-  O246  1  0.94540572  0.41704063  0.27370658  1
  O2-  O247  1  0.94577851  0.42581814  0.60283957  1
  O2-  O248  1  0.95632974  0.41360871  0.93055090  1
  O2-  O249  1  0.96220319  0.91692090  0.26158003  1
  O2-  O250  1  0.95692214  0.91218500  0.60776740  1
  O2-  O251  1  0.95466832  0.91685474  0.93628115  1
  O2-  O252  1  0.33721601  0.28614017  0.26177647  1
  O2-  O253  1  0.33183967  0.29121163  0.59928068  1
  O2-  O254  1  0.33149563  0.29032007  0.93242490  1
  O2-  O255  1  0.33317644  0.80869862  0.27110977  1
  O2-  O256  1  0.33202128  0.80003511  0.60651477  1
  O2-  O257  1  0.33904257  0.79613001  0.93700378  1
  O2-  O258  1  0.83117219  0.29229193  0.26814535  1
  O2-  O259  1  0.82757687  0.29113225  0.59678848  1
  O2-  O260  1  0.82860055  0.28722442  0.93904413  1
  O2-  O261  1  0.82890651  0.80116411  0.26606706  1
  O2-  O262  1  0.83865412  0.79315969  0.60514370  1
  O2-  O263  1  0.83469553  0.79724308  0.93444241  1
  O2-  O264  1  0.41613435  0.03885111  0.06999330  1
  O2-  O265  1  0.41495722  0.04613085  0.39268765  1
  O2-  O266  1  0.42115432  0.04547523  0.73450811  1
  O2-  O267  1  0.41243669  0.54219818  0.06125108  1
  O2-  O268  1  0.42006251  0.53814358  0.39710711  1
  O2-  O269  1  0.42016611  0.53994763  0.73448855  1
  O2-  O270  1  0.91900195  0.03986903  0.07032076  1
  O2-  O271  1  0.91540932  0.04076179  0.39317751  1
  O2-  O272  1  0.91175813  0.03625455  0.73664365  1
  O2-  O273  1  0.91706114  0.54426831  0.05856166  1
  O2-  O274  1  0.91586341  0.54526644  0.40294109  1
  O2-  O275  1  0.91829474  0.55836319  0.72753715  1
  O2-  O276  1  0.28827536  0.16873592  0.07036288  1
  O2-  O277  1  0.29215556  0.16305491  0.39119242  1
  O2-  O278  1  0.29188383  0.16955805  0.73453230  1
  O2-  O279  1  0.29728339  0.66526094  0.06054962  1
  O2-  O280  1  0.30641064  0.67572975  0.39580284  1
  O2-  O281  1  0.29771398  0.66848198  0.73504958  1
  O2-  O282  1  0.78821424  0.16334287  0.07512473  1
  O2-  O283  1  0.79406683  0.16122964  0.39619554  1
  O2-  O284  1  0.78749585  0.16573151  0.73327320  1
  O2-  O285  1  0.79794767  0.66681037  0.06193975  1
  O2-  O286  1  0.78787664  0.66955619  0.39693263  1
  O2-  O287  1  0.79033986  0.66662794  0.73305729  1
