# generated using pymatgen
data_Ca2Al2SiO7
_symmetry_space_group_name_H-M   'P 1'
_cell_length_a   15.45704958
_cell_length_b   15.45709610
_cell_length_c   15.28334632
_cell_angle_alpha   90.01381512
_cell_angle_beta   89.98915682
_cell_angle_gamma   90.02260450
_symmetry_Int_Tables_number   1
_chemical_formula_structural   Ca2Al2SiO7
_chemical_formula_sum   'Ca48 Al48 Si24 O168'
_cell_volume   3651.51347126
_cell_formula_units_Z   24
loop_
 _symmetry_equiv_pos_site_id
 _symmetry_equiv_pos_as_xyz
  1  'x, y, z'
loop_
 _atom_type_symbol
 _atom_type_oxidation_number
  Ca2+  2.0
  Al0+  0.0
  Si0+  0.0
  O2-  -2.0
loop_
 _atom_site_type_symbol
 _atom_site_label
 _atom_site_symmetry_multiplicity
 _atom_site_fract_x
 _atom_site_fract_y
 _atom_site_fract_z
 _atom_site_occupancy
  Ca2+  Ca0  1  0.16137105  0.08103842  0.17033176  1
  Ca2+  Ca1  1  0.17126283  0.07158478  0.50461199  1
  Ca2+  Ca2  1  0.16534454  0.08273376  0.83138280  1
  Ca2+  Ca3  1  0.17088256  0.56942013  0.17701931  1
  Ca2+  Ca4  1  0.17600968  0.57366382  0.50356648  1
  Ca2+  Ca5  1  0.16803032  0.57273850  0.83400976  1
  Ca2+  Ca6  1  0.67268315  0.07899320  0.17136615  1
  Ca2+  Ca7  1  0.67943079  0.07939324  0.50742027  1
  Ca2+  Ca8  1  0.67127185  0.07298433  0.83453352  1
  Ca2+  Ca9  1  0.67180641  0.58302408  0.17473172  1
  Ca2+  Ca10  1  0.67306494  0.58308569  0.50240067  1
  Ca2+  Ca11  1  0.67289244  0.58024212  0.82822112  1
  Ca2+  Ca12  1  0.07702759  0.33515611  0.15898552  1
  Ca2+  Ca13  1  0.08214559  0.33574462  0.49414818  1
  Ca2+  Ca14  1  0.08552694  0.33269821  0.83343810  1
  Ca2+  Ca15  1  0.07861094  0.83578719  0.16873885  1
  Ca2+  Ca16  1  0.07675147  0.83869222  0.49430764  1
  Ca2+  Ca17  1  0.07697990  0.83291899  0.82110849  1
  Ca2+  Ca18  1  0.56888683  0.33692275  0.16382589  1
  Ca2+  Ca19  1  0.57960799  0.33603343  0.49366959  1
  Ca2+  Ca20  1  0.57753341  0.33838946  0.82701712  1
  Ca2+  Ca21  1  0.58314380  0.82832356  0.16710338  1
  Ca2+  Ca22  1  0.57795086  0.82837449  0.49116065  1
  Ca2+  Ca23  1  0.58751494  0.83694497  0.82668578  1
  Ca2+  Ca24  1  0.32510016  0.41313794  0.17528920  1
  Ca2+  Ca25  1  0.32864698  0.42209231  0.50356119  1
  Ca2+  Ca26  1  0.32404596  0.41652179  0.83661476  1
  Ca2+  Ca27  1  0.32658819  0.91766393  0.17746981  1
  Ca2+  Ca28  1  0.32391093  0.91321611  0.50523949  1
  Ca2+  Ca29  1  0.33031472  0.92376195  0.83281505  1
  Ca2+  Ca30  1  0.83892457  0.41925218  0.17658428  1
  Ca2+  Ca31  1  0.83332311  0.42859948  0.50521087  1
  Ca2+  Ca32  1  0.83343212  0.41832350  0.83486164  1
  Ca2+  Ca33  1  0.83164726  0.92259723  0.17560781  1
  Ca2+  Ca34  1  0.83609167  0.92466777  0.50733648  1
  Ca2+  Ca35  1  0.82668369  0.91558965  0.83168004  1
  Ca2+  Ca36  1  0.41140931  0.17997393  0.16320971  1
  Ca2+  Ca37  1  0.41645696  0.16984545  0.49563401  1
  Ca2+  Ca38  1  0.41327403  0.17088528  0.82880082  1
  Ca2+  Ca39  1  0.41670455  0.66666699  0.17131785  1
  Ca2+  Ca40  1  0.42027094  0.66396938  0.48888703  1
  Ca2+  Ca41  1  0.41754052  0.66571738  0.82586167  1
  Ca2+  Ca42  1  0.92109349  0.17668172  0.16302988  1
  Ca2+  Ca43  1  0.91369389  0.16987452  0.49186650  1
  Ca2+  Ca44  1  0.91990224  0.16861178  0.83015610  1
  Ca2+  Ca45  1  0.91375052  0.67045058  0.16845603  1
  Ca2+  Ca46  1  0.90878657  0.67679073  0.49471040  1
  Ca2+  Ca47  1  0.91693027  0.67122915  0.82308370  1
  Al0+  Al48  1  -0.00081603  0.00067231  -0.00413170  1
  Al0+  Al49  1  -0.00040022  0.00023284  0.33559727  1
  Al0+  Al50  1  0.00040177  0.00158166  0.66933201  1
  Al0+  Al51  1  0.00090441  0.50184141  0.00002534  1
  Al0+  Al52  1  -0.00080734  0.50110517  0.33870347  1
  Al0+  Al53  1  0.00137021  0.50048394  0.67240591  1
  Al0+  Al54  1  0.49962568  -0.00087444  0.00612258  1
  Al0+  Al55  1  0.50041148  -0.00064024  0.32814942  1
  Al0+  Al56  1  0.50020605  0.00128137  0.67074732  1
  Al0+  Al57  1  0.50183020  0.50272031  -0.00556416  1
  Al0+  Al58  1  0.50045787  0.49913909  0.32592384  1
  Al0+  Al59  1  0.50007374  0.50106316  0.67130468  1
  Al0+  Al60  1  0.24935003  0.24998555  -0.00443070  1
  Al0+  Al61  1  0.24943694  0.24690214  0.33362431  1
  Al0+  Al62  1  0.24943939  0.24992377  0.66971494  1
  Al0+  Al63  1  0.25113840  0.75063827  -0.00114884  1
  Al0+  Al64  1  0.24912310  0.74873434  0.33555186  1
  Al0+  Al65  1  0.24936560  0.74881177  0.67346984  1
  Al0+  Al66  1  0.74891284  0.24999026  -0.00244041  1
  Al0+  Al67  1  0.75080766  0.24888287  0.33141674  1
  Al0+  Al68  1  0.74900902  0.24976600  0.67320596  1
  Al0+  Al69  1  0.74831305  0.75007034  0.00370785  1
  Al0+  Al70  1  0.74923844  0.74990692  0.32710261  1
  Al0+  Al71  1  0.74997470  0.74949019  0.66799200  1
  Al0+  Al72  1  0.57115029  0.67859046  0.31710220  1
  Al0+  Al73  1  0.81992737  0.07091017  0.34546375  1
  Al0+  Al74  1  0.32235771  0.57114279  0.68222743  1
  Al0+  Al75  1  0.42580184  0.82178716  0.31897922  1
  Al0+  Al76  1  0.67923400  0.92867891  0.01750673  1
  Al0+  Al77  1  0.92771980  0.32408927  0.98347018  1
  Al0+  Al78  1  0.82316395  0.07305893  0.68348392  1
  Al0+  Al79  1  0.82123715  0.57174838  0.68127665  1
  Al0+  Al80  1  0.82054489  0.57222558  0.34598682  1
  Al0+  Al81  1  0.43025069  0.32141881  0.98368505  1
  Al0+  Al82  1  0.42884540  0.31873299  0.32156662  1
  Al0+  Al83  1  0.17863135  0.42776465  0.68328957  1
  Al0+  Al84  1  0.18092169  0.42984585  0.01564438  1
  Al0+  Al85  1  0.17791792  0.42536459  0.34833236  1
  Al0+  Al86  1  0.32162564  0.07097788  0.68084280  1
  Al0+  Al87  1  0.32277312  0.56892224  0.34632211  1
  Al0+  Al88  1  0.92988449  0.82224975  0.31944982  1
  Al0+  Al89  1  0.17823960  0.92852247  0.68246520  1
  Al0+  Al90  1  0.67957207  0.92884100  0.67827692  1
  Al0+  Al91  1  0.92977392  0.32281866  0.32327849  1
  Al0+  Al92  1  0.17943945  0.92881871  0.34522866  1
  Al0+  Al93  1  0.07012606  0.17826074  0.98292783  1
  Al0+  Al94  1  0.67870382  0.42853810  0.68036832  1
  Al0+  Al95  1  0.92986838  0.82011468  0.65253550  1
  Si0+  Si96  1  0.67761338  0.42864392  0.01528742  1
  Si0+  Si97  1  0.07179961  0.67764455  0.31753031  1
  Si0+  Si98  1  0.42869072  0.82184788  0.98351132  1
  Si0+  Si99  1  0.31991972  0.07015692  0.01634304  1
  Si0+  Si100  1  0.57410533  0.17688042  0.31611249  1
  Si0+  Si101  1  0.07089497  0.17778108  0.31892844  1
  Si0+  Si102  1  0.57238655  0.68146028  0.98111327  1
  Si0+  Si103  1  0.92764084  0.32154034  0.65169122  1
  Si0+  Si104  1  0.32434751  0.07155090  0.34795398  1
  Si0+  Si105  1  0.42956847  0.32102814  0.65147003  1
  Si0+  Si106  1  0.32411798  0.57357406  0.01790344  1
  Si0+  Si107  1  0.07220453  0.68033578  0.98564734  1
  Si0+  Si108  1  0.82289677  0.07216351  0.01797101  1
  Si0+  Si109  1  0.82027356  0.57002706  0.01591716  1
  Si0+  Si110  1  0.17782192  0.92771856  0.01493188  1
  Si0+  Si111  1  0.57168612  0.17829908  0.65209940  1
  Si0+  Si112  1  0.67744837  0.92769301  0.34906955  1
  Si0+  Si113  1  0.57069318  0.17598833  0.98270960  1
  Si0+  Si114  1  0.42830658  0.82230971  0.65400008  1
  Si0+  Si115  1  0.67800824  0.42727726  0.34595806  1
  Si0+  Si116  1  0.56971311  0.67911269  0.65173011  1
  Si0+  Si117  1  0.07363152  0.67633514  0.64902189  1
  Si0+  Si118  1  0.07131977  0.18019646  0.64914888  1
  Si0+  Si119  1  0.92850128  0.81962985  0.98528244  1
  O2-  O120  1  0.24755984  -0.00028168  0.05752805  1
  O2-  O121  1  0.26009672  -0.00178836  0.39017436  1
  O2-  O122  1  0.25070296  -0.00053845  0.73340700  1
  O2-  O123  1  0.25779509  0.50299008  0.06169311  1
  O2-  O124  1  0.25256277  0.49567835  0.39623136  1
  O2-  O125  1  0.25059371  0.50007145  0.73295571  1
  O2-  O126  1  0.75361720  0.00415670  0.06262588  1
  O2-  O127  1  0.74536430  -0.00356221  0.39280964  1
  O2-  O128  1  0.75224576  -0.00144671  0.73097018  1
  O2-  O129  1  0.75378013  0.49405034  0.05732684  1
  O2-  O130  1  0.74726920  0.49494141  0.39003531  1
  O2-  O131  1  0.75376463  0.49613884  0.73239862  1
  O2-  O132  1  0.00721970  0.25146681  0.27558003  1
  O2-  O133  1  -0.00120896  0.25077400  0.60835494  1
  O2-  O134  1  -0.00170336  0.25087291  0.93305111  1
  O2-  O135  1  0.00339111  0.74661419  0.27156661  1
  O2-  O136  1  0.00534442  0.74584116  0.60536301  1
  O2-  O137  1  0.00198233  0.75190090  0.94287139  1
  O2-  O138  1  0.50277150  0.24347932  0.27287202  1
  O2-  O139  1  0.50155014  0.25044050  0.60959688  1
  O2-  O140  1  0.50613604  0.24749771  0.93649837  1
  O2-  O141  1  0.49804606  0.75053855  0.26728759  1
  O2-  O142  1  0.49762294  0.74997297  0.61144512  1
  O2-  O143  1  0.49985621  0.75167381  0.93996610  1
  O2-  O144  1  0.06796541  0.17565064  0.09675393  1
  O2-  O145  1  0.06974728  0.17591729  0.42446861  1
  O2-  O146  1  0.07166344  0.18088173  0.75413794  1
  O2-  O147  1  0.07190634  0.68139581  0.09063768  1
  O2-  O148  1  0.07143787  0.67859792  0.42274154  1
  O2-  O149  1  0.07177837  0.67813799  0.75550156  1
  O2-  O150  1  0.56821409  0.17683085  0.08843923  1
  O2-  O151  1  0.57488743  0.17727093  0.42180354  1
  O2-  O152  1  0.56972890  0.17747939  0.75718874  1
  O2-  O153  1  0.57386520  0.68087428  0.08569806  1
  O2-  O154  1  0.57196174  0.67970468  0.43093984  1
  O2-  O155  1  0.56952147  0.67991323  0.75738526  1
  O2-  O156  1  0.17815843  0.42583202  0.23437605  1
  O2-  O157  1  0.18042054  0.42679825  0.56995214  1
  O2-  O158  1  0.18149076  0.43265554  0.90295737  1
  O2-  O159  1  0.17786810  0.93314101  0.23126784  1
  O2-  O160  1  0.17933488  0.92959397  0.56894691  1
  O2-  O161  1  0.18004908  0.92576156  0.91030026  1
  O2-  O162  1  0.67860482  0.42767699  0.23986797  1
  O2-  O163  1  0.67689554  0.42992974  0.56672796  1
  O2-  O164  1  0.67566662  0.43258204  0.91046312  1
  O2-  O165  1  0.67898773  0.93001427  0.24307131  1
  O2-  O166  1  0.67771446  0.93085980  0.56503077  1
  O2-  O167  1  0.68102958  0.92796719  0.90458219  1
  O2-  O168  1  0.43037863  0.32021625  0.09700124  1
  O2-  O169  1  0.43114621  0.31758802  0.43489824  1
  O2-  O170  1  0.43095749  0.31972005  0.75675302  1
  O2-  O171  1  0.42643664  0.82060927  0.08810969  1
  O2-  O172  1  0.42823748  0.82295611  0.43278187  1
  O2-  O173  1  0.43100000  0.82229580  0.75965105  1
  O2-  O174  1  0.92898741  0.32443426  0.09735828  1
  O2-  O175  1  0.92769933  0.32086704  0.43639870  1
  O2-  O176  1  0.92831851  0.32023406  0.75672674  1
  O2-  O177  1  0.92954034  0.81940648  0.09049871  1
  O2-  O178  1  0.93019279  0.82325932  0.43211445  1
  O2-  O179  1  0.92994420  0.81685967  0.76663056  1
  O2-  O180  1  0.32188982  0.07392485  0.24203425  1
  O2-  O181  1  0.32161770  0.07011358  0.56721937  1
  O2-  O182  1  0.32273072  0.06726652  0.91152682  1
  O2-  O183  1  0.32027640  0.56741217  0.23231671  1
  O2-  O184  1  0.32509902  0.56914545  0.56903314  1
  O2-  O185  1  0.32222226  0.57535450  0.91245327  1
  O2-  O186  1  0.81873692  0.07038014  0.23210341  1
  O2-  O187  1  0.82097696  0.07458946  0.56970286  1
  O2-  O188  1  0.82263537  0.06999010  0.91269609  1
  O2-  O189  1  0.81988657  0.57072455  0.23213340  1
  O2-  O190  1  0.81771995  0.57302289  0.56793268  1
  O2-  O191  1  0.81794490  0.57341453  0.91109934  1
  O2-  O192  1  0.03943711  0.08715850  0.26998832  1
  O2-  O193  1  0.04473107  0.08763014  0.60289849  1
  O2-  O194  1  0.04212017  0.07943453  0.92833759  1
  O2-  O195  1  0.04361090  0.58486864  0.27078048  1
  O2-  O196  1  0.04896044  0.58173138  0.60502775  1
  O2-  O197  1  0.04270511  0.59003300  0.93699304  1
  O2-  O198  1  0.55161229  0.08303164  0.26875396  1
  O2-  O199  1  0.54220389  0.08734344  0.60341611  1
  O2-  O200  1  0.54065760  0.08260724  0.93819106  1
  O2-  O201  1  0.54487649  0.58100238  0.26037814  1
  O2-  O202  1  0.54199861  0.58697712  0.60494559  1
  O2-  O203  1  0.54621478  0.58991007  0.93214322  1
  O2-  O204  1  0.16614689  0.19596978  0.27283453  1
  O2-  O205  1  0.16349806  0.20841400  0.60205024  1
  O2-  O206  1  0.16873135  0.20475547  0.92979857  1
  O2-  O207  1  0.16458177  0.70281241  0.26954837  1
  O2-  O208  1  0.16871344  0.70128541  0.60572016  1
  O2-  O209  1  0.16426818  0.70738252  0.93752370  1
  O2-  O210  1  0.66565563  0.20447308  0.26678257  1
  O2-  O211  1  0.66413775  0.20560551  0.60528840  1
  O2-  O212  1  0.66615067  0.19627799  0.93853717  1
  O2-  O213  1  0.66710806  0.70938361  0.25951035  1
  O2-  O214  1  0.66124326  0.70699878  0.60480138  1
  O2-  O215  1  0.66380884  0.71200810  0.93391397  1
  O2-  O216  1  0.08394528  0.46404174  0.06776206  1
  O2-  O217  1  0.08150747  0.45677576  0.40237880  1
  O2-  O218  1  0.08141394  0.45604647  0.73822035  1
  O2-  O219  1  0.08450475  0.95450472  0.06011495  1
  O2-  O220  1  0.08586269  0.96466583  0.40075391  1
  O2-  O221  1  0.08176996  0.95941938  0.73670658  1
  O2-  O222  1  0.58745468  0.46325040  0.06259744  1
  O2-  O223  1  0.58476634  0.45364346  0.39125604  1
  O2-  O224  1  0.58341257  0.46178714  0.73677728  1
  O2-  O225  1  0.58205455  0.95799644  0.07163741  1
  O2-  O226  1  0.58228762  0.95171886  0.39264642  1
  O2-  O227  1  0.58306881  0.95891133  0.73468093  1
  O2-  O228  1  0.20949668  0.33085323  0.06571899  1
  O2-  O229  1  0.20417432  0.32583492  0.39969259  1
  O2-  O230  1  0.20868392  0.33065844  0.73669869  1
  O2-  O231  1  0.20721097  0.83622627  0.06250030  1
  O2-  O232  1  0.20388699  0.83148389  0.39942925  1
  O2-  O233  1  0.20391796  0.83053137  0.73696495  1
  O2-  O234  1  0.69672246  0.33356233  0.05982091  1
  O2-  O235  1  0.70051014  0.33307794  0.39138531  1
  O2-  O236  1  0.70078703  0.33033371  0.73580109  1
  O2-  O237  1  0.71101289  0.83226712  0.07143025  1
  O2-  O238  1  0.70195856  0.83332752  0.39162665  1
  O2-  O239  1  0.70659760  0.83129623  0.73352908  1
  O2-  O240  1  0.45997110  0.41271143  0.26293564  1
  O2-  O241  1  0.45886477  0.41339351  0.60627013  1
  O2-  O242  1  0.46138406  0.41864459  0.93039691  1
  O2-  O243  1  0.45251963  0.92045558  0.26352607  1
  O2-  O244  1  0.45644769  0.91409396  0.60703286  1
  O2-  O245  1  0.45713108  0.91465966  0.93843271  1
  O2-  O246  1  0.95709743  0.42053643  0.26945015  1
  O2-  O247  1  0.95552045  0.41502675  0.60737052  1
  O2-  O248  1  0.95650258  0.42328389  0.93183952  1
  O2-  O249  1  0.96369783  0.91764821  0.26378845  1
  O2-  O250  1  0.95959884  0.91882220  0.60188995  1
  O2-  O251  1  0.95283356  0.91208844  0.93819980  1
  O2-  O252  1  0.33283306  0.28562741  0.26617167  1
  O2-  O253  1  0.33778250  0.29184981  0.60526492  1
  O2-  O254  1  0.33507083  0.28801771  0.92984424  1
  O2-  O255  1  0.32729091  0.79367133  0.26486790  1
  O2-  O256  1  0.33457405  0.79637663  0.60998872  1
  O2-  O257  1  0.33675873  0.79476557  0.93489672  1
  O2-  O258  1  0.83415461  0.29064123  0.26680236  1
  O2-  O259  1  0.83427029  0.29440552  0.60698732  1
  O2-  O260  1  0.82710912  0.29828905  0.93264318  1
  O2-  O261  1  0.83433182  0.79205553  0.26312345  1
  O2-  O262  1  0.83265290  0.78859865  0.59975416  1
  O2-  O263  1  0.83702745  0.78751228  0.93989836  1
  O2-  O264  1  0.41044080  0.04188157  0.06593414  1
  O2-  O265  1  0.42053479  0.05210828  0.39127950  1
  O2-  O266  1  0.41877786  0.04366275  0.73699369  1
  O2-  O267  1  0.42051799  0.55121705  0.05927610  1
  O2-  O268  1  0.42271830  0.54167492  0.39636544  1
  O2-  O269  1  0.41949159  0.54321385  0.73768564  1
  O2-  O270  1  0.91638186  0.04411779  0.06303703  1
  O2-  O271  1  0.91536308  0.04032842  0.40034915  1
  O2-  O272  1  0.92090985  0.04635002  0.73640885  1
  O2-  O273  1  0.91386308  0.54838579  0.06209681  1
  O2-  O274  1  0.91592443  0.54512464  0.40253636  1
  O2-  O275  1  0.91997907  0.54821257  0.73475432  1
  O2-  O276  1  0.29174752  0.16233011  0.06204535  1
  O2-  O277  1  0.29514341  0.16220258  0.39723717  1
  O2-  O278  1  0.29270074  0.16820347  0.73478561  1
  O2-  O279  1  0.29691349  0.66779728  0.06264347  1
  O2-  O280  1  0.29549017  0.66727025  0.39891340  1
  O2-  O281  1  0.29620631  0.66894116  0.73774964  1
  O2-  O282  1  0.79715480  0.16700795  0.06212375  1
  O2-  O283  1  0.78869760  0.16711816  0.40032172  1
  O2-  O284  1  0.79181935  0.16878355  0.73898292  1
  O2-  O285  1  0.78673053  0.65979328  0.06433470  1
  O2-  O286  1  0.78689920  0.66886018  0.39767028  1
  O2-  O287  1  0.78723317  0.66685946  0.73728885  1
