# generated using pymatgen
data_Ca2Al2SiO7
_symmetry_space_group_name_H-M   'P 1'
_cell_length_a   15.46180612
_cell_length_b   15.46087443
_cell_length_c   15.28572536
_cell_angle_alpha   89.99321861
_cell_angle_beta   89.98891328
_cell_angle_gamma   89.99010951
_symmetry_Int_Tables_number   1
_chemical_formula_structural   Ca2Al2SiO7
_chemical_formula_sum   'Ca48 Al48 Si24 O168'
_cell_volume   3654.09901319
_cell_formula_units_Z   24
loop_
 _symmetry_equiv_pos_site_id
 _symmetry_equiv_pos_as_xyz
  1  'x, y, z'
loop_
 _atom_type_symbol
 _atom_type_oxidation_number
  Ca2+  2.0
  Al0+  0.0
  Si0+  0.0
  O2-  -2.0
loop_
 _atom_site_type_symbol
 _atom_site_label
 _atom_site_symmetry_multiplicity
 _atom_site_fract_x
 _atom_site_fract_y
 _atom_site_fract_z
 _atom_site_occupancy
  Ca2+  Ca0  1  0.17221802  0.08703712  0.16951399  1
  Ca2+  Ca1  1  0.16618008  0.08600160  0.50980488  1
  Ca2+  Ca2  1  0.17643741  0.08880161  0.83481404  1
  Ca2+  Ca3  1  0.17277978  0.58057402  0.17116767  1
  Ca2+  Ca4  1  0.17083469  0.57253544  0.50891238  1
  Ca2+  Ca5  1  0.17083326  0.58659564  0.83625094  1
  Ca2+  Ca6  1  0.66432302  0.08705955  0.16918532  1
  Ca2+  Ca7  1  0.66586479  0.07750662  0.50514920  1
  Ca2+  Ca8  1  0.66294017  0.07840098  0.83880856  1
  Ca2+  Ca9  1  0.67067277  0.57308448  0.16924429  1
  Ca2+  Ca10  1  0.67953867  0.58854953  0.50514876  1
  Ca2+  Ca11  1  0.67452819  0.57652137  0.83710941  1
  Ca2+  Ca12  1  0.08253085  0.33487099  0.16691248  1
  Ca2+  Ca13  1  0.09614599  0.32705665  0.49964326  1
  Ca2+  Ca14  1  0.08369398  0.33316150  0.82730312  1
  Ca2+  Ca15  1  0.07367935  0.82464655  0.15709286  1
  Ca2+  Ca16  1  0.07257797  0.82618322  0.49694448  1
  Ca2+  Ca17  1  0.07666200  0.82097835  0.82862224  1
  Ca2+  Ca18  1  0.58235229  0.32546918  0.15447078  1
  Ca2+  Ca19  1  0.57349137  0.33159052  0.49587770  1
  Ca2+  Ca20  1  0.57336783  0.33525818  0.83388924  1
  Ca2+  Ca21  1  0.57532163  0.82675075  0.16001782  1
  Ca2+  Ca22  1  0.58347216  0.83435101  0.49998166  1
  Ca2+  Ca23  1  0.57877936  0.83572461  0.83147391  1
  Ca2+  Ca24  1  0.33164519  0.42544373  0.17083907  1
  Ca2+  Ca25  1  0.32485319  0.42095198  0.50817629  1
  Ca2+  Ca26  1  0.33248576  0.42206357  0.83664486  1
  Ca2+  Ca27  1  0.33634534  0.92104340  0.16421002  1
  Ca2+  Ca28  1  0.32859604  0.92681136  0.50870227  1
  Ca2+  Ca29  1  0.33753091  0.92946407  0.84177933  1
  Ca2+  Ca30  1  0.83155997  0.41651838  0.16822476  1
  Ca2+  Ca31  1  0.83535260  0.42969432  0.50461215  1
  Ca2+  Ca32  1  0.83326711  0.41886123  0.84103641  1
  Ca2+  Ca33  1  0.83688050  0.91319493  0.17060215  1
  Ca2+  Ca34  1  0.82970300  0.91031223  0.50857032  1
  Ca2+  Ca35  1  0.83339549  0.91126558  0.83365777  1
  Ca2+  Ca36  1  0.42628444  0.17389889  0.15590320  1
  Ca2+  Ca37  1  0.41542010  0.17324379  0.49957472  1
  Ca2+  Ca38  1  0.41024448  0.17744326  0.83012227  1
  Ca2+  Ca39  1  0.40908801  0.66870949  0.15717297  1
  Ca2+  Ca40  1  0.41171710  0.66257254  0.49858383  1
  Ca2+  Ca41  1  0.40964937  0.66849719  0.82984466  1
  Ca2+  Ca42  1  0.92530595  0.17299326  0.16060652  1
  Ca2+  Ca43  1  0.93191140  0.16591708  0.49541651  1
  Ca2+  Ca44  1  0.92233804  0.17567363  0.82949995  1
  Ca2+  Ca45  1  0.91919947  0.67213452  0.15945362  1
  Ca2+  Ca46  1  0.91460945  0.66923649  0.49815648  1
  Ca2+  Ca47  1  0.92698142  0.66835489  0.82452584  1
  Al0+  Al48  1  -0.00020448  -0.00087047  -0.00305415  1
  Al0+  Al49  1  0.00013847  0.00066667  0.32480030  1
  Al0+  Al50  1  -0.00196264  0.00045924  0.66116951  1
  Al0+  Al51  1  0.00141725  0.49969176  -0.00515218  1
  Al0+  Al52  1  0.00048171  0.49926039  0.34150542  1
  Al0+  Al53  1  0.00033059  0.50027805  0.67002951  1
  Al0+  Al54  1  0.50159879  -0.00183087  0.00049129  1
  Al0+  Al55  1  0.50047373  -0.00052424  0.33023236  1
  Al0+  Al56  1  0.50037209  -0.00025851  0.67348633  1
  Al0+  Al57  1  0.50211703  0.49867716  0.00591589  1
  Al0+  Al58  1  0.50087146  0.50104120  0.33585074  1
  Al0+  Al59  1  0.49999103  0.50068677  0.66313885  1
  Al0+  Al60  1  0.25229966  0.25028359  0.00447851  1
  Al0+  Al61  1  0.25225045  0.25015800  0.33025976  1
  Al0+  Al62  1  0.25099925  0.25132782  0.66620600  1
  Al0+  Al63  1  0.24933736  0.75222287  -0.00400837  1
  Al0+  Al64  1  0.24863182  0.75329061  0.33645702  1
  Al0+  Al65  1  0.24822322  0.75104697  0.66290240  1
  Al0+  Al66  1  0.75176915  0.24781918  -0.00402607  1
  Al0+  Al67  1  0.75044358  0.24795792  0.33346374  1
  Al0+  Al68  1  0.74917310  0.24849168  0.66465548  1
  Al0+  Al69  1  0.74888484  0.75094194  -0.00096495  1
  Al0+  Al70  1  0.74705316  0.75065684  0.33159390  1
  Al0+  Al71  1  0.74743769  0.74971125  0.67433455  1
  Al0+  Al72  1  0.81999932  0.56965655  0.68206456  1
  Al0+  Al73  1  0.31946456  0.07023862  0.67971105  1
  Al0+  Al74  1  0.07142953  0.67830338  0.98558644  1
  Al0+  Al75  1  0.42882512  0.32274581  0.98548440  1
  Al0+  Al76  1  0.42977855  0.81917255  0.98651820  1
  Al0+  Al77  1  0.92664964  0.81845746  0.65087653  1
  Al0+  Al78  1  0.92730003  0.81883828  0.31877585  1
  Al0+  Al79  1  0.31996054  0.57192284  0.01248935  1
  Al0+  Al80  1  0.81847474  0.57149707  0.34515781  1
  Al0+  Al81  1  0.92674614  0.82210981  0.98335389  1
  Al0+  Al82  1  0.06977144  0.18199278  0.65503867  1
  Al0+  Al83  1  0.18035403  0.42778010  0.34895887  1
  Al0+  Al84  1  0.57219840  0.17811959  0.98326775  1
  Al0+  Al85  1  0.07243608  0.67672175  0.64745645  1
  Al0+  Al86  1  0.67997612  0.93012007  0.68164682  1
  Al0+  Al87  1  0.32205339  0.57265306  0.68277447  1
  Al0+  Al88  1  0.43044679  0.32191178  0.65181407  1
  Al0+  Al89  1  0.93049210  0.32007909  0.98790399  1
  Al0+  Al90  1  0.68124001  0.42727961  0.01274725  1
  Al0+  Al91  1  0.07312286  0.17955336  0.31797817  1
  Al0+  Al92  1  0.18016219  0.42851062  0.68431655  1
  Al0+  Al93  1  0.32201361  0.57454827  0.34868923  1
  Al0+  Al94  1  0.57078138  0.17877184  0.32049095  1
  Al0+  Al95  1  0.32197914  0.07172601  0.01629983  1
  Si0+  Si96  1  0.92469166  0.32325001  0.64902219  1
  Si0+  Si97  1  0.82307653  0.57171765  0.01604093  1
  Si0+  Si98  1  0.82356985  0.07310794  0.68314938  1
  Si0+  Si99  1  0.17498305  0.92853114  0.68223552  1
  Si0+  Si100  1  0.17761293  0.92990911  0.01686771  1
  Si0+  Si101  1  0.42789648  0.82124443  0.31972926  1
  Si0+  Si102  1  0.82210389  0.06971640  0.01560483  1
  Si0+  Si103  1  0.57230278  0.67626919  0.98377174  1
  Si0+  Si104  1  0.42884437  0.82380061  0.65152920  1
  Si0+  Si105  1  0.42987205  0.32316285  0.31554481  1
  Si0+  Si106  1  0.67923751  0.92793926  0.01862871  1
  Si0+  Si107  1  0.17646987  0.42730723  0.01770285  1
  Si0+  Si108  1  0.82293476  0.07108768  0.34736608  1
  Si0+  Si109  1  0.32189717  0.06838899  0.34727475  1
  Si0+  Si110  1  0.17619660  0.93112245  0.34797829  1
  Si0+  Si111  1  0.56937298  0.68031657  0.65223490  1
  Si0+  Si112  1  0.07372512  0.17779349  0.98412814  1
  Si0+  Si113  1  0.67838009  0.42474597  0.35067498  1
  Si0+  Si114  1  0.57161151  0.17536983  0.64999289  1
  Si0+  Si115  1  0.67729222  0.42584214  0.68141991  1
  Si0+  Si116  1  0.67912543  0.93061969  0.34726234  1
  Si0+  Si117  1  0.92785786  0.32286071  0.31883780  1
  Si0+  Si118  1  0.07199241  0.67720137  0.31764570  1
  Si0+  Si119  1  0.57045246  0.67955508  0.31924133  1
  O2-  O120  1  0.24506815  -0.00095144  0.06359986  1
  O2-  O121  1  0.24655211  0.00289788  0.39088694  1
  O2-  O122  1  0.24495415  -0.00446281  0.72692140  1
  O2-  O123  1  0.24608535  0.49654518  0.05975040  1
  O2-  O124  1  0.25138431  0.50146329  0.39790251  1
  O2-  O125  1  0.24892673  0.50346838  0.73419696  1
  O2-  O126  1  0.75233602  -0.00249154  0.05963719  1
  O2-  O127  1  0.75180469  -0.00021741  0.38948561  1
  O2-  O128  1  0.75422726  0.00539325  0.72773673  1
  O2-  O129  1  0.75591951  0.50186447  0.06084901  1
  O2-  O130  1  0.74586571  0.49484507  0.39391772  1
  O2-  O131  1  0.75072631  0.48866963  0.72629341  1
  O2-  O132  1  -0.00158273  0.25580039  0.27449792  1
  O2-  O133  1  -0.00543325  0.25533481  0.60569741  1
  O2-  O134  1  0.00822841  0.24912922  0.94061490  1
  O2-  O135  1  0.00074470  0.74301331  0.27262668  1
  O2-  O136  1  -0.00235750  0.74724462  0.59864510  1
  O2-  O137  1  -0.00452411  0.74681586  0.93612317  1
  O2-  O138  1  0.50186800  0.25732652  0.27257560  1
  O2-  O139  1  0.50637667  0.24686077  0.60574991  1
  O2-  O140  1  0.49794753  0.24787759  0.93466685  1
  O2-  O141  1  0.49149759  0.74272937  0.27875153  1
  O2-  O142  1  0.49580134  0.74902577  0.60882876  1
  O2-  O143  1  0.50079415  0.74154038  0.93907243  1
  O2-  O144  1  0.07064471  0.17679786  0.09005672  1
  O2-  O145  1  0.07148688  0.17650575  0.43088184  1
  O2-  O146  1  0.06801926  0.18222766  0.76807073  1
  O2-  O147  1  0.07013288  0.67913637  0.10011489  1
  O2-  O148  1  0.07230260  0.68099639  0.42269216  1
  O2-  O149  1  0.07271146  0.67981793  0.76075011  1
  O2-  O150  1  0.57195137  0.17990771  0.09748960  1
  O2-  O151  1  0.56732286  0.17582132  0.43353235  1
  O2-  O152  1  0.57155265  0.17410327  0.75489169  1
  O2-  O153  1  0.57437161  0.68019291  0.08994807  1
  O2-  O154  1  0.57500647  0.68416010  0.42422119  1
  O2-  O155  1  0.56979671  0.68131805  0.75708864  1
  O2-  O156  1  0.18042741  0.42884369  0.23506102  1
  O2-  O157  1  0.18422096  0.42632260  0.57071047  1
  O2-  O158  1  0.17574920  0.42523042  0.91276785  1
  O2-  O159  1  0.17816782  0.92964965  0.24304672  1
  O2-  O160  1  0.17735576  0.93130336  0.57581159  1
  O2-  O161  1  0.17835766  0.93228489  0.91158044  1
  O2-  O162  1  0.67941936  0.42438878  0.24510677  1
  O2-  O163  1  0.67756650  0.42792036  0.57544397  1
  O2-  O164  1  0.68248652  0.43004704  0.89972759  1
  O2-  O165  1  0.67762605  0.93058674  0.24241377  1
  O2-  O166  1  0.67782855  0.93164665  0.56759237  1
  O2-  O167  1  0.67787364  0.92802593  0.91385335  1
  O2-  O168  1  0.43118265  0.32214937  0.09949121  1
  O2-  O169  1  0.42998341  0.32068623  0.42135263  1
  O2-  O170  1  0.43159213  0.32253406  0.76435313  1
  O2-  O171  1  0.43228463  0.81887096  0.10052878  1
  O2-  O172  1  0.43174682  0.82715380  0.42467846  1
  O2-  O173  1  0.43183039  0.82619735  0.75622827  1
  O2-  O174  1  0.93041538  0.31811275  0.10150444  1
  O2-  O175  1  0.92387682  0.31951888  0.42402943  1
  O2-  O176  1  0.92176729  0.31945483  0.75460032  1
  O2-  O177  1  0.92812820  0.82083046  0.09766264  1
  O2-  O178  1  0.92574746  0.81932229  0.43130137  1
  O2-  O179  1  0.92811826  0.81715007  0.76389005  1
  O2-  O180  1  0.32297826  0.06425258  0.24242855  1
  O2-  O181  1  0.32018213  0.06788381  0.56559269  1
  O2-  O182  1  0.32011315  0.07126354  0.90340361  1
  O2-  O183  1  0.32039139  0.57527653  0.23487308  1
  O2-  O184  1  0.32287856  0.56976558  0.56916296  1
  O2-  O185  1  0.31943993  0.57217565  0.90013500  1
  O2-  O186  1  0.82204867  0.07137375  0.24222787  1
  O2-  O187  1  0.82250596  0.07325580  0.57716976  1
  O2-  O188  1  0.82192295  0.06948376  0.91072293  1
  O2-  O189  1  0.81545569  0.57131583  0.23208213  1
  O2-  O190  1  0.81544008  0.57164319  0.56841744  1
  O2-  O191  1  0.82044298  0.57121021  0.91072929  1
  O2-  O192  1  0.04045832  0.08522233  0.26060626  1
  O2-  O193  1  0.03958783  0.08577018  0.59825026  1
  O2-  O194  1  0.04557583  0.08559965  0.93768619  1
  O2-  O195  1  0.04913196  0.58149845  0.27544030  1
  O2-  O196  1  0.04388596  0.57693340  0.59790647  1
  O2-  O197  1  0.04793230  0.57985584  0.93192086  1
  O2-  O198  1  0.53801836  0.08303264  0.26500637  1
  O2-  O199  1  0.54204049  0.08244397  0.60396680  1
  O2-  O200  1  0.54742927  0.07755680  0.93504941  1
  O2-  O201  1  0.55236905  0.58446074  0.27390102  1
  O2-  O202  1  0.54652945  0.58891243  0.60162874  1
  O2-  O203  1  0.55197219  0.58129454  0.94071977  1
  O2-  O204  1  0.17019102  0.20798804  0.26355915  1
  O2-  O205  1  0.16602841  0.21130137  0.59952731  1
  O2-  O206  1  0.16899433  0.20036837  0.94198140  1
  O2-  O207  1  0.16479489  0.70806867  0.27189887  1
  O2-  O208  1  0.17005010  0.70807800  0.59321287  1
  O2-  O209  1  0.16647233  0.71255840  0.93074875  1
  O2-  O210  1  0.67006178  0.20337163  0.26803782  1
  O2-  O211  1  0.66708092  0.19595174  0.60405844  1
  O2-  O212  1  0.67008541  0.20526028  0.93013081  1
  O2-  O213  1  0.65685509  0.71558000  0.26705195  1
  O2-  O214  1  0.65924317  0.71402146  0.60442183  1
  O2-  O215  1  0.66400428  0.70621953  0.93650984  1
  O2-  O216  1  0.08268589  0.45397408  0.06408914  1
  O2-  O217  1  0.08099435  0.44991593  0.40297894  1
  O2-  O218  1  0.07903572  0.44994849  0.73368482  1
  O2-  O219  1  0.08327671  0.95486630  0.06325650  1
  O2-  O220  1  0.08410880  0.95972894  0.39406667  1
  O2-  O221  1  0.08146838  0.95534899  0.72668569  1
  O2-  O222  1  0.58723592  0.45868328  0.07201241  1
  O2-  O223  1  0.58443106  0.45015439  0.39582219  1
  O2-  O224  1  0.58638413  0.45851571  0.72736085  1
  O2-  O225  1  0.58860947  0.95635999  0.06825958  1
  O2-  O226  1  0.58780120  0.96036830  0.39577863  1
  O2-  O227  1  0.58467381  0.96064868  0.73817223  1
  O2-  O228  1  0.20109158  0.33387210  0.06517133  1
  O2-  O229  1  0.21177931  0.32853437  0.40018764  1
  O2-  O230  1  0.21125479  0.33112505  0.73685346  1
  O2-  O231  1  0.20551283  0.83726070  0.06357996  1
  O2-  O232  1  0.20444513  0.84068748  0.39778945  1
  O2-  O233  1  0.19998043  0.83458771  0.72588576  1
  O2-  O234  1  0.71405098  0.33049590  0.06611752  1
  O2-  O235  1  0.70345147  0.33124504  0.39764725  1
  O2-  O236  1  0.69587705  0.32941637  0.72478014  1
  O2-  O237  1  0.70459174  0.83507995  0.06678081  1
  O2-  O238  1  0.70481138  0.83865622  0.39521540  1
  O2-  O239  1  0.70754073  0.83484178  0.73884675  1
  O2-  O240  1  0.45252132  0.41892099  0.27248849  1
  O2-  O241  1  0.46286415  0.41707485  0.59477202  1
  O2-  O242  1  0.46177020  0.42034532  0.93423826  1
  O2-  O243  1  0.46411398  0.90872831  0.26877829  1
  O2-  O244  1  0.46267024  0.91367254  0.60280089  1
  O2-  O245  1  0.46584795  0.91364342  0.93279671  1
  O2-  O246  1  0.95212803  0.41736190  0.27392396  1
  O2-  O247  1  0.94867287  0.41762222  0.60563931  1
  O2-  O248  1  0.95551168  0.41677276  0.93278346  1
  O2-  O249  1  0.95823424  0.91501369  0.26403919  1
  O2-  O250  1  0.95215391  0.91827516  0.59842415  1
  O2-  O251  1  0.95593758  0.92019016  0.93068750  1
  O2-  O252  1  0.33833166  0.29444734  0.26835048  1
  O2-  O253  1  0.33615911  0.28647774  0.59674524  1
  O2-  O254  1  0.32929845  0.29481296  0.93502172  1
  O2-  O255  1  0.33360482  0.80199769  0.27342908  1
  O2-  O256  1  0.33602459  0.80214251  0.60341713  1
  O2-  O257  1  0.33273331  0.79634015  0.93175241  1
  O2-  O258  1  0.83518108  0.29448086  0.27158893  1
  O2-  O259  1  0.83105035  0.29786897  0.60143392  1
  O2-  O260  1  0.83750146  0.28489184  0.93079921  1
  O2-  O261  1  0.82936420  0.79070117  0.26513566  1
  O2-  O262  1  0.82580822  0.78976041  0.60195151  1
  O2-  O263  1  0.82566960  0.79949976  0.93442001  1
  O2-  O264  1  0.41782625  0.03541928  0.06947891  1
  O2-  O265  1  0.41169082  0.03437896  0.39533871  1
  O2-  O266  1  0.41445343  0.03854101  0.73501474  1
  O2-  O267  1  0.41764051  0.54462032  0.06743276  1
  O2-  O268  1  0.42338245  0.55102417  0.39900488  1
  O2-  O269  1  0.42245489  0.54527616  0.73211351  1
  O2-  O270  1  0.91465616  0.04302964  0.06346729  1
  O2-  O271  1  0.91541641  0.04309918  0.39289532  1
  O2-  O272  1  0.91657734  0.04693222  0.72958784  1
  O2-  O273  1  0.91726326  0.54659244  0.06069650  1
  O2-  O274  1  0.91471150  0.54430329  0.40113603  1
  O2-  O275  1  0.91721606  0.54367949  0.73516140  1
  O2-  O276  1  0.29350864  0.16800856  0.07275734  1
  O2-  O277  1  0.29973665  0.16275568  0.39086862  1
  O2-  O278  1  0.28779463  0.16570632  0.73321169  1
  O2-  O279  1  0.28941328  0.67015098  0.06506588  1
  O2-  O280  1  0.29730042  0.67508442  0.40006473  1
  O2-  O281  1  0.29744456  0.67480569  0.72995643  1
  O2-  O282  1  0.79315251  0.16059627  0.06405387  1
  O2-  O283  1  0.79561359  0.16202029  0.39690662  1
  O2-  O284  1  0.79887068  0.16750656  0.72868293  1
  O2-  O285  1  0.79455637  0.66543396  0.06120305  1
  O2-  O286  1  0.78140224  0.66660694  0.39944625  1
  O2-  O287  1  0.78194198  0.66211681  0.73803849  1
