# generated using pymatgen
data_Ca2Al2SiO7
_symmetry_space_group_name_H-M   'P 1'
_cell_length_a   15.46492903
_cell_length_b   15.46767843
_cell_length_c   15.29061104
_cell_angle_alpha   90.00330317
_cell_angle_beta   89.98769738
_cell_angle_gamma   90.00734293
_symmetry_Int_Tables_number   1
_chemical_formula_structural   Ca2Al2SiO7
_chemical_formula_sum   'Ca48 Al48 Si24 O168'
_cell_volume   3657.61418053
_cell_formula_units_Z   24
loop_
 _symmetry_equiv_pos_site_id
 _symmetry_equiv_pos_as_xyz
  1  'x, y, z'
loop_
 _atom_type_symbol
 _atom_type_oxidation_number
  Ca2+  2.0
  Al0+  0.0
  Si0+  0.0
  O2-  -2.0
loop_
 _atom_site_type_symbol
 _atom_site_label
 _atom_site_symmetry_multiplicity
 _atom_site_fract_x
 _atom_site_fract_y
 _atom_site_fract_z
 _atom_site_occupancy
  Ca2+  Ca0  1  0.17957173  0.08438521  0.17064376  1
  Ca2+  Ca1  1  0.17544745  0.07789540  0.50574059  1
  Ca2+  Ca2  1  0.17427264  0.09025677  0.83602303  1
  Ca2+  Ca3  1  0.17206076  0.57346325  0.17117356  1
  Ca2+  Ca4  1  0.17392098  0.58189689  0.49814246  1
  Ca2+  Ca5  1  0.16804406  0.57119032  0.84028401  1
  Ca2+  Ca6  1  0.66781040  0.08477935  0.16861277  1
  Ca2+  Ca7  1  0.66882373  0.08458054  0.50873257  1
  Ca2+  Ca8  1  0.67107592  0.08131893  0.83656425  1
  Ca2+  Ca9  1  0.66891373  0.57564717  0.17039670  1
  Ca2+  Ca10  1  0.66243091  0.57256611  0.49965945  1
  Ca2+  Ca11  1  0.67286051  0.58102812  0.84039115  1
  Ca2+  Ca12  1  0.08427443  0.32813334  0.15840643  1
  Ca2+  Ca13  1  0.07585253  0.32362742  0.49751889  1
  Ca2+  Ca14  1  0.08639210  0.31969805  0.83221113  1
  Ca2+  Ca15  1  0.08131495  0.83863132  0.16726773  1
  Ca2+  Ca16  1  0.08206276  0.84308492  0.49162422  1
  Ca2+  Ca17  1  0.08387205  0.83515873  0.82639302  1
  Ca2+  Ca18  1  0.57417957  0.33067726  0.16865256  1
  Ca2+  Ca19  1  0.57798928  0.32032535  0.49227577  1
  Ca2+  Ca20  1  0.57146975  0.32535070  0.82562446  1
  Ca2+  Ca21  1  0.57083867  0.83877046  0.16071393  1
  Ca2+  Ca22  1  0.57876354  0.83551441  0.49372822  1
  Ca2+  Ca23  1  0.58340248  0.84345604  0.83515201  1
  Ca2+  Ca24  1  0.33413714  0.41443967  0.17228311  1
  Ca2+  Ca25  1  0.34853700  0.42002308  0.49996273  1
  Ca2+  Ca26  1  0.33037096  0.40772744  0.84102244  1
  Ca2+  Ca27  1  0.33491587  0.92594131  0.17537453  1
  Ca2+  Ca28  1  0.33077008  0.92818250  0.50289489  1
  Ca2+  Ca29  1  0.33431880  0.93261562  0.83740195  1
  Ca2+  Ca30  1  0.83111669  0.41878815  0.17620042  1
  Ca2+  Ca31  1  0.82623482  0.40520325  0.49710472  1
  Ca2+  Ca32  1  0.83267129  0.42317781  0.84186971  1
  Ca2+  Ca33  1  0.82992557  0.92082022  0.16787004  1
  Ca2+  Ca34  1  0.82750310  0.92147740  0.50880683  1
  Ca2+  Ca35  1  0.82200749  0.92897561  0.83706714  1
  Ca2+  Ca36  1  0.41820528  0.16637123  0.16185901  1
  Ca2+  Ca37  1  0.42459147  0.16482408  0.49448616  1
  Ca2+  Ca38  1  0.41305891  0.17337325  0.82630470  1
  Ca2+  Ca39  1  0.40729224  0.67916228  0.16550132  1
  Ca2+  Ca40  1  0.41481981  0.67403281  0.48985967  1
  Ca2+  Ca41  1  0.41521607  0.67738773  0.83278506  1
  Ca2+  Ca42  1  0.92342056  0.16956332  0.16126369  1
  Ca2+  Ca43  1  0.92312803  0.16039659  0.49585241  1
  Ca2+  Ca44  1  0.92669113  0.15129917  0.83096465  1
  Ca2+  Ca45  1  0.91291262  0.67168158  0.16330864  1
  Ca2+  Ca46  1  0.92145934  0.67806745  0.49119796  1
  Ca2+  Ca47  1  0.91525144  0.66665973  0.83099607  1
  Al0+  Al48  1  -0.00137963  -0.00128556  -0.00134901  1
  Al0+  Al49  1  -0.00061172  -0.00061284  0.32902497  1
  Al0+  Al50  1  -0.00106200  -0.00189941  0.66698973  1
  Al0+  Al51  1  0.00066775  0.50084640  0.00810523  1
  Al0+  Al52  1  0.00018125  0.50182700  0.33267783  1
  Al0+  Al53  1  0.00173778  0.50190038  0.66396463  1
  Al0+  Al54  1  0.49974622  0.00032032  0.00147676  1
  Al0+  Al55  1  0.50182933  -0.00120650  0.32947067  1
  Al0+  Al56  1  0.49793022  0.00008455  0.66988520  1
  Al0+  Al57  1  0.49987306  0.50299566  -0.00475152  1
  Al0+  Al58  1  0.50242134  0.49818608  0.33855124  1
  Al0+  Al59  1  0.50142281  0.50358996  0.66699966  1
  Al0+  Al60  1  0.24816820  0.24920153  0.00191446  1
  Al0+  Al61  1  0.24998285  0.25015190  0.33737126  1
  Al0+  Al62  1  0.24591989  0.25365293  0.65860278  1
  Al0+  Al63  1  0.24903749  0.74944573  -0.00768676  1
  Al0+  Al64  1  0.24839384  0.74685021  0.33562266  1
  Al0+  Al65  1  0.25009535  0.74715905  0.66941146  1
  Al0+  Al66  1  0.74936598  0.25145882  0.00304333  1
  Al0+  Al67  1  0.75104184  0.24978604  0.32919441  1
  Al0+  Al68  1  0.74903432  0.25212311  0.67213485  1
  Al0+  Al69  1  0.74941416  0.74921384  0.00683444  1
  Al0+  Al70  1  0.75190237  0.74949247  0.32929986  1
  Al0+  Al71  1  0.75020564  0.74916182  0.66865478  1
  Al0+  Al72  1  0.06804547  0.17729937  0.65168448  1
  Al0+  Al73  1  0.68144129  0.42825742  0.34758255  1
  Al0+  Al74  1  0.17911305  0.92724839  0.68164990  1
  Al0+  Al75  1  0.06859348  0.17887704  0.98709754  1
  Al0+  Al76  1  0.18189832  0.42861452  0.01298987  1
  Al0+  Al77  1  0.32051273  0.56808663  0.34601890  1
  Al0+  Al78  1  0.67713844  0.92699242  0.68025930  1
  Al0+  Al79  1  0.31874089  0.07428246  0.68160531  1
  Al0+  Al80  1  0.67894759  0.93058206  0.01821409  1
  Al0+  Al81  1  0.42795585  0.82285308  0.98437415  1
  Al0+  Al82  1  0.42851177  0.32145860  0.31841745  1
  Al0+  Al83  1  0.82092507  0.07366239  0.68007762  1
  Al0+  Al84  1  0.31906986  0.07073894  0.01329145  1
  Al0+  Al85  1  0.42931496  0.32079150  0.98765543  1
  Al0+  Al86  1  0.42885314  0.81872067  0.32159317  1
  Al0+  Al87  1  0.93020620  0.32040487  0.32064930  1
  Al0+  Al88  1  0.32451473  0.07232447  0.34928510  1
  Al0+  Al89  1  0.92892911  0.82185040  0.31788815  1
  Al0+  Al90  1  0.82306734  0.07253195  0.01801008  1
  Al0+  Al91  1  0.57116979  0.17775692  0.65337217  1
  Al0+  Al92  1  0.57159183  0.17698613  0.31671574  1
  Al0+  Al93  1  0.42759385  0.32305117  0.65094189  1
  Al0+  Al94  1  0.17842157  0.92997256  0.34543512  1
  Al0+  Al95  1  0.82125434  0.56947332  0.01498159  1
  Si0+  Si96  1  0.92759961  0.81916832  0.98280486  1
  Si0+  Si97  1  0.92962757  0.81809968  0.65274276  1
  Si0+  Si98  1  0.57351250  0.68006991  0.65108403  1
  Si0+  Si99  1  0.17720942  0.43240437  0.68070098  1
  Si0+  Si100  1  0.07214893  0.67761926  0.31428214  1
  Si0+  Si101  1  0.07203339  0.67738221  0.65028107  1
  Si0+  Si102  1  0.32314731  0.57073691  0.68363548  1
  Si0+  Si103  1  0.57279679  0.67969875  0.98279063  1
  Si0+  Si104  1  0.07200288  0.17769075  0.31619189  1
  Si0+  Si105  1  0.06984893  0.67760109  0.98369949  1
  Si0+  Si106  1  0.92739871  0.32425763  0.98520553  1
  Si0+  Si107  1  0.67827564  0.43054904  0.68343682  1
  Si0+  Si108  1  0.42826759  0.81936058  0.65198379  1
  Si0+  Si109  1  0.57328397  0.17817497  0.98257937  1
  Si0+  Si110  1  0.68006901  0.92702283  0.34721306  1
  Si0+  Si111  1  0.82178202  0.57040714  0.67955112  1
  Si0+  Si112  1  0.17508789  0.42677002  0.35248633  1
  Si0+  Si113  1  0.32251671  0.57405689  0.01469123  1
  Si0+  Si114  1  0.57305108  0.67652492  0.31710108  1
  Si0+  Si115  1  0.17771813  0.92460574  0.01468938  1
  Si0+  Si116  1  0.67518422  0.42884009  0.01638170  1
  Si0+  Si117  1  0.82022747  0.07008742  0.34697325  1
  Si0+  Si118  1  0.82302062  0.57351201  0.35250828  1
  Si0+  Si119  1  0.92827322  0.32666662  0.65303438  1
  O2-  O120  1  0.24727658  -0.00815336  0.05801708  1
  O2-  O121  1  0.25075919  0.00011260  0.39661707  1
  O2-  O122  1  0.24675019  0.00202956  0.73284552  1
  O2-  O123  1  0.25902368  0.50116571  0.05864735  1
  O2-  O124  1  0.24958578  0.49042302  0.39559137  1
  O2-  O125  1  0.25554636  0.49567968  0.72343951  1
  O2-  O126  1  0.74906912  0.00362817  0.06935493  1
  O2-  O127  1  0.74953602  -0.00096761  0.38951392  1
  O2-  O128  1  0.74439454  0.00478659  0.72779638  1
  O2-  O129  1  0.74885993  0.49266400  0.06023853  1
  O2-  O130  1  0.75685703  0.50281401  0.39687740  1
  O2-  O131  1  0.75378744  0.49806824  0.72395704  1
  O2-  O132  1  0.00855965  0.25161565  0.27241081  1
  O2-  O133  1  -0.01160664  0.25015144  0.60951489  1
  O2-  O134  1  -0.00991032  0.25114908  0.93977332  1
  O2-  O135  1  0.00401048  0.74728406  0.27105942  1
  O2-  O136  1  0.00582075  0.75298591  0.60920977  1
  O2-  O137  1  0.00034720  0.74947583  0.94001877  1
  O2-  O138  1  0.49458856  0.24470953  0.26780992  1
  O2-  O139  1  0.49702870  0.24762719  0.60302657  1
  O2-  O140  1  0.50425234  0.24734283  0.93970248  1
  O2-  O141  1  0.50369870  0.74418048  0.27331496  1
  O2-  O142  1  0.50396893  0.75255833  0.61013160  1
  O2-  O143  1  0.50494866  0.74906054  0.93819182  1
  O2-  O144  1  0.06964673  0.18240214  0.09997281  1
  O2-  O145  1  0.06744144  0.17586310  0.42188431  1
  O2-  O146  1  0.06930989  0.18044223  0.76484858  1
  O2-  O147  1  0.07080786  0.67773461  0.08823059  1
  O2-  O148  1  0.07034912  0.67545796  0.42025097  1
  O2-  O149  1  0.06856997  0.67266524  0.75542146  1
  O2-  O150  1  0.57358666  0.17939607  0.08796596  1
  O2-  O151  1  0.57570833  0.17714882  0.43028309  1
  O2-  O152  1  0.57321765  0.18257427  0.76691376  1
  O2-  O153  1  0.57217494  0.67686148  0.08789323  1
  O2-  O154  1  0.57414922  0.67905836  0.42333587  1
  O2-  O155  1  0.57415304  0.67621635  0.75594635  1
  O2-  O156  1  0.17187705  0.43027995  0.24698046  1
  O2-  O157  1  0.16978611  0.43857466  0.57644715  1
  O2-  O158  1  0.18061773  0.43075262  0.89930038  1
  O2-  O159  1  0.17847049  0.93160794  0.23165305  1
  O2-  O160  1  0.18168215  0.92540392  0.56840923  1
  O2-  O161  1  0.17848303  0.92359045  0.90911328  1
  O2-  O162  1  0.68286054  0.43224828  0.23460879  1
  O2-  O163  1  0.67812208  0.43209176  0.57857619  1
  O2-  O164  1  0.67603817  0.43251165  0.91027206  1
  O2-  O165  1  0.68180734  0.92543177  0.24266954  1
  O2-  O166  1  0.68247097  0.91988403  0.56653767  1
  O2-  O167  1  0.68194792  0.93038931  0.90454872  1
  O2-  O168  1  0.43107492  0.32239217  0.10004409  1
  O2-  O169  1  0.43556976  0.32368087  0.43151664  1
  O2-  O170  1  0.42991648  0.32463864  0.76504186  1
  O2-  O171  1  0.42545198  0.81879760  0.09735110  1
  O2-  O172  1  0.43187834  0.81719342  0.43516367  1
  O2-  O173  1  0.42696932  0.81540586  0.75706144  1
  O2-  O174  1  0.93132975  0.32622814  0.09058056  1
  O2-  O175  1  0.92991500  0.31620197  0.43423125  1
  O2-  O176  1  0.93464219  0.33782952  0.75779839  1
  O2-  O177  1  0.92912476  0.81787694  0.08776524  1
  O2-  O178  1  0.92726234  0.81982984  0.43149211  1
  O2-  O179  1  0.92824145  0.81229296  0.75784762  1
  O2-  O180  1  0.32328556  0.07079688  0.23547623  1
  O2-  O181  1  0.32048340  0.07038424  0.56850520  1
  O2-  O182  1  0.31724915  0.07348628  0.90029401  1
  O2-  O183  1  0.31683378  0.56997139  0.23302773  1
  O2-  O184  1  0.32226726  0.57396494  0.57874663  1
  O2-  O185  1  0.31918178  0.57542195  0.90870840  1
  O2-  O186  1  0.82098790  0.06872470  0.24220767  1
  O2-  O187  1  0.82245317  0.06939963  0.56587980  1
  O2-  O188  1  0.82386266  0.06828761  0.90465657  1
  O2-  O189  1  0.82130543  0.57386860  0.24706300  1
  O2-  O190  1  0.82094438  0.57232549  0.57504278  1
  O2-  O191  1  0.82098935  0.56880683  0.90076676  1
  O2-  O192  1  0.04103721  0.08726363  0.26782142  1
  O2-  O193  1  0.03866735  0.08002871  0.59763247  1
  O2-  O194  1  0.04090071  0.08110466  0.93266952  1
  O2-  O195  1  0.04463901  0.58506106  0.26717037  1
  O2-  O196  1  0.03875160  0.58944668  0.59863098  1
  O2-  O197  1  0.03872200  0.58600966  0.93646522  1
  O2-  O198  1  0.54866347  0.07774483  0.26333571  1
  O2-  O199  1  0.54699345  0.07712967  0.60216820  1
  O2-  O200  1  0.54838085  0.08423385  0.93846749  1
  O2-  O201  1  0.54883961  0.58245219  0.27327371  1
  O2-  O202  1  0.54298431  0.58982711  0.60198305  1
  O2-  O203  1  0.54706651  0.58766621  0.93225063  1
  O2-  O204  1  0.16756849  0.19980004  0.27383147  1
  O2-  O205  1  0.16049307  0.21352583  0.59372450  1
  O2-  O206  1  0.16281832  0.21546662  0.93223782  1
  O2-  O207  1  0.16537140  0.70118153  0.26765428  1
  O2-  O208  1  0.16614437  0.69960433  0.60503927  1
  O2-  O209  1  0.16102411  0.70203874  0.93268474  1
  O2-  O210  1  0.66789140  0.21099834  0.26287321  1
  O2-  O211  1  0.67094484  0.20903896  0.60246450  1
  O2-  O212  1  0.66767989  0.20427342  0.93729108  1
  O2-  O213  1  0.66662146  0.70095094  0.27075176  1
  O2-  O214  1  0.66592716  0.70461937  0.60291782  1
  O2-  O215  1  0.66741589  0.70480592  0.93735870  1
  O2-  O216  1  0.08777439  0.46295290  0.06931711  1
  O2-  O217  1  0.08407612  0.46059245  0.40014457  1
  O2-  O218  1  0.08935462  0.46948387  0.73115899  1
  O2-  O219  1  0.08320463  0.94900122  0.05839266  1
  O2-  O220  1  0.07911835  0.95916153  0.39779477  1
  O2-  O221  1  0.07783560  0.94845444  0.73103993  1
  O2-  O222  1  0.58397037  0.46231801  0.06238408  1
  O2-  O223  1  0.58782327  0.46113545  0.40571120  1
  O2-  O224  1  0.58938326  0.46601698  0.73201410  1
  O2-  O225  1  0.57947902  0.95604793  0.06908021  1
  O2-  O226  1  0.58790668  0.95236888  0.39398979  1
  O2-  O227  1  0.57741156  0.94853804  0.73217367  1
  O2-  O228  1  0.20996108  0.33375230  0.06944595  1
  O2-  O229  1  0.19240772  0.33144758  0.39702333  1
  O2-  O230  1  0.19792305  0.33830095  0.72531500  1
  O2-  O231  1  0.20075025  0.82927957  0.05852026  1
  O2-  O232  1  0.19953009  0.82878472  0.39586296  1
  O2-  O233  1  0.20589606  0.82716752  0.73393375  1
  O2-  O234  1  0.69449080  0.33410926  0.06091967  1
  O2-  O235  1  0.71606855  0.33256396  0.40163019  1
  O2-  O236  1  0.70164102  0.33965606  0.73372569  1
  O2-  O237  1  0.70770219  0.83202722  0.07020859  1
  O2-  O238  1  0.70891496  0.83474954  0.39393012  1
  O2-  O239  1  0.71127069  0.83027823  0.73544878  1
  O2-  O240  1  0.46247730  0.41960192  0.26699938  1
  O2-  O241  1  0.46149306  0.42243764  0.60182321  1
  O2-  O242  1  0.45597578  0.41945935  0.93330106  1
  O2-  O243  1  0.46073645  0.91331178  0.26589205  1
  O2-  O244  1  0.45119763  0.91255739  0.60661173  1
  O2-  O245  1  0.45967807  0.91903887  0.93041961  1
  O2-  O246  1  0.95370165  0.42075300  0.27035875  1
  O2-  O247  1  0.96112027  0.41598370  0.60090305  1
  O2-  O248  1  0.95742775  0.41757291  0.93991946  1
  O2-  O249  1  0.95943129  0.91692447  0.26116351  1
  O2-  O250  1  0.95148538  0.91063648  0.60527007  1
  O2-  O251  1  0.95390166  0.91082475  0.93502092  1
  O2-  O252  1  0.32488448  0.30384249  0.27222141  1
  O2-  O253  1  0.32621530  0.30754116  0.60015705  1
  O2-  O254  1  0.33248522  0.28899734  0.93484517  1
  O2-  O255  1  0.33261286  0.78500646  0.26887939  1
  O2-  O256  1  0.33856584  0.78383578  0.60517978  1
  O2-  O257  1  0.33343677  0.78822433  0.92737163  1
  O2-  O258  1  0.83615716  0.28896325  0.26384536  1
  O2-  O259  1  0.83070590  0.30929400  0.61340924  1
  O2-  O260  1  0.83050120  0.30734507  0.94222475  1
  O2-  O261  1  0.83405649  0.78814463  0.26189974  1
  O2-  O262  1  0.83996908  0.78392394  0.60438094  1
  O2-  O263  1  0.83653375  0.78624835  0.93737572  1
  O2-  O264  1  0.41631431  0.04262703  0.06556082  1
  O2-  O265  1  0.42283816  0.03940942  0.40014098  1
  O2-  O266  1  0.41670408  0.04524750  0.73519299  1
  O2-  O267  1  0.41862029  0.55583739  0.05714472  1
  O2-  O268  1  0.41812949  0.54345976  0.40189998  1
  O2-  O269  1  0.41662146  0.54944163  0.73088494  1
  O2-  O270  1  0.92074701  0.03947700  0.07022597  1
  O2-  O271  1  0.91196337  0.04062940  0.39324157  1
  O2-  O272  1  0.91625695  0.03721422  0.73372657  1
  O2-  O273  1  0.91729416  0.54344844  0.07163027  1
  O2-  O274  1  0.91823045  0.55201754  0.39693335  1
  O2-  O275  1  0.91476420  0.54478540  0.72659003  1
  O2-  O276  1  0.28414368  0.16442680  0.06909406  1
  O2-  O277  1  0.29804935  0.17122421  0.40182761  1
  O2-  O278  1  0.28804221  0.17494194  0.72953324  1
  O2-  O279  1  0.28958722  0.66568269  0.06025639  1
  O2-  O280  1  0.28542068  0.66201124  0.40396835  1
  O2-  O281  1  0.29001907  0.65948627  0.73371869  1
  O2-  O282  1  0.79980938  0.17391810  0.06743042  1
  O2-  O283  1  0.79394886  0.16199782  0.39358456  1
  O2-  O284  1  0.80160892  0.17383719  0.73418237  1
  O2-  O285  1  0.78926477  0.66417319  0.07063324  1
  O2-  O286  1  0.79458726  0.66676992  0.39836663  1
  O2-  O287  1  0.79177889  0.66002569  0.73005081  1
