# generated using pymatgen
data_Ca2Al2SiO7
_symmetry_space_group_name_H-M   'P 1'
_cell_length_a   15.46239265
_cell_length_b   15.46394352
_cell_length_c   15.28724902
_cell_angle_alpha   90.01739226
_cell_angle_beta   89.99664707
_cell_angle_gamma   90.01135699
_symmetry_Int_Tables_number   1
_chemical_formula_structural   Ca2Al2SiO7
_chemical_formula_sum   'Ca48 Al48 Si24 O168'
_cell_volume   3655.32724169
_cell_formula_units_Z   24
loop_
 _symmetry_equiv_pos_site_id
 _symmetry_equiv_pos_as_xyz
  1  'x, y, z'
loop_
 _atom_type_symbol
 _atom_type_oxidation_number
  Ca2+  2.0
  Al0+  0.0
  Si0+  0.0
  O2-  -2.0
loop_
 _atom_site_type_symbol
 _atom_site_label
 _atom_site_symmetry_multiplicity
 _atom_site_fract_x
 _atom_site_fract_y
 _atom_site_fract_z
 _atom_site_occupancy
  Ca2+  Ca0  1  0.16974015  0.07220516  0.16930242  1
  Ca2+  Ca1  1  0.16166334  0.08322176  0.50008465  1
  Ca2+  Ca2  1  0.17026507  0.07691886  0.84154824  1
  Ca2+  Ca3  1  0.16143195  0.58136166  0.16927781  1
  Ca2+  Ca4  1  0.16331451  0.57687613  0.50362945  1
  Ca2+  Ca5  1  0.16027958  0.57171661  0.83978376  1
  Ca2+  Ca6  1  0.67385021  0.07621755  0.17018763  1
  Ca2+  Ca7  1  0.67938652  0.07839082  0.50358631  1
  Ca2+  Ca8  1  0.67866232  0.07431519  0.83831913  1
  Ca2+  Ca9  1  0.66725076  0.58218870  0.16933887  1
  Ca2+  Ca10  1  0.67314173  0.57447532  0.50982760  1
  Ca2+  Ca11  1  0.67105886  0.58335928  0.82964468  1
  Ca2+  Ca12  1  0.08024212  0.32553226  0.16503806  1
  Ca2+  Ca13  1  0.08060475  0.32067758  0.49438489  1
  Ca2+  Ca14  1  0.08771220  0.32707174  0.82666602  1
  Ca2+  Ca15  1  0.09420625  0.82532945  0.16141254  1
  Ca2+  Ca16  1  0.07424248  0.83156071  0.49225555  1
  Ca2+  Ca17  1  0.08201341  0.82954764  0.82844639  1
  Ca2+  Ca18  1  0.57029501  0.33040722  0.15976886  1
  Ca2+  Ca19  1  0.58286749  0.33332697  0.49221335  1
  Ca2+  Ca20  1  0.57850885  0.33420203  0.82934303  1
  Ca2+  Ca21  1  0.57669222  0.84598634  0.16310694  1
  Ca2+  Ca22  1  0.57561512  0.84717039  0.49799537  1
  Ca2+  Ca23  1  0.57539478  0.84909927  0.82933219  1
  Ca2+  Ca24  1  0.32907459  0.41125519  0.16878985  1
  Ca2+  Ca25  1  0.32883899  0.41774241  0.50665792  1
  Ca2+  Ca26  1  0.32094788  0.41433493  0.84113128  1
  Ca2+  Ca27  1  0.32807685  0.91148376  0.16975250  1
  Ca2+  Ca28  1  0.32840549  0.90895622  0.50023134  1
  Ca2+  Ca29  1  0.33230347  0.92060312  0.84400397  1
  Ca2+  Ca30  1  0.83668770  0.41616971  0.17270909  1
  Ca2+  Ca31  1  0.83529181  0.42136586  0.50789066  1
  Ca2+  Ca32  1  0.83119665  0.42180555  0.83253953  1
  Ca2+  Ca33  1  0.82443773  0.92612276  0.17467338  1
  Ca2+  Ca34  1  0.82707352  0.92285558  0.51073417  1
  Ca2+  Ca35  1  0.83224308  0.92390811  0.83925602  1
  Ca2+  Ca36  1  0.40848555  0.17436837  0.16032960  1
  Ca2+  Ca37  1  0.42063760  0.17528883  0.49292500  1
  Ca2+  Ca38  1  0.41291036  0.16749389  0.83319646  1
  Ca2+  Ca39  1  0.41769197  0.68042924  0.16192103  1
  Ca2+  Ca40  1  0.41948538  0.67782819  0.49553262  1
  Ca2+  Ca41  1  0.41790879  0.68139533  0.82965237  1
  Ca2+  Ca42  1  0.91429020  0.16347983  0.16804104  1
  Ca2+  Ca43  1  0.92202108  0.16507566  0.49372236  1
  Ca2+  Ca44  1  0.92218065  0.15879284  0.82564920  1
  Ca2+  Ca45  1  0.93000071  0.66927870  0.16234605  1
  Ca2+  Ca46  1  0.91746901  0.66965511  0.49826969  1
  Ca2+  Ca47  1  0.91873234  0.67333819  0.82788501  1
  Al0+  Al48  1  0.00072770  -0.00041598  0.00847201  1
  Al0+  Al49  1  0.00111650  -0.00082904  0.33538229  1
  Al0+  Al50  1  0.00212095  -0.00218310  0.66090655  1
  Al0+  Al51  1  0.00009631  0.49892545  0.00021181  1
  Al0+  Al52  1  0.00038877  0.49936976  0.32796447  1
  Al0+  Al53  1  0.00014554  0.49863028  0.67520846  1
  Al0+  Al54  1  0.50161752  0.00465448  0.00174343  1
  Al0+  Al55  1  0.49881329  0.00280669  0.33236632  1
  Al0+  Al56  1  0.49910566  0.00445695  0.66270848  1
  Al0+  Al57  1  0.49919504  0.50091698  -0.00619139  1
  Al0+  Al58  1  0.49885398  0.50213025  0.32933122  1
  Al0+  Al59  1  0.49812932  0.50304413  0.67080719  1
  Al0+  Al60  1  0.24700159  0.25081193  0.00330991  1
  Al0+  Al61  1  0.24744770  0.24962736  0.32725561  1
  Al0+  Al62  1  0.24968819  0.24981152  0.66501125  1
  Al0+  Al63  1  0.25223389  0.74582106  -0.00844209  1
  Al0+  Al64  1  0.25196015  0.74876094  0.33173616  1
  Al0+  Al65  1  0.25116876  0.74884439  0.66204439  1
  Al0+  Al66  1  0.74901811  0.25219092  0.00203387  1
  Al0+  Al67  1  0.74891489  0.25012815  0.33225283  1
  Al0+  Al68  1  0.74958117  0.24976976  0.67428293  1
  Al0+  Al69  1  0.75079580  0.74841282  0.00468932  1
  Al0+  Al70  1  0.74881487  0.74796831  0.33756869  1
  Al0+  Al71  1  0.74753507  0.74898473  0.67012588  1
  Al0+  Al72  1  0.07054652  0.17523146  0.31469717  1
  Al0+  Al73  1  0.92821000  0.81970074  0.65453986  1
  Al0+  Al74  1  0.32097068  0.07190341  0.01385211  1
  Al0+  Al75  1  0.82311936  0.07322849  0.01684708  1
  Al0+  Al76  1  0.67712247  0.92815004  0.35065227  1
  Al0+  Al77  1  0.67934707  0.92785107  0.01553209  1
  Al0+  Al78  1  0.07186950  0.17859040  0.65416722  1
  Al0+  Al79  1  0.43014156  0.82346576  0.65145061  1
  Al0+  Al80  1  0.42889824  0.32284026  0.32059348  1
  Al0+  Al81  1  0.92824133  0.32013857  0.31978045  1
  Al0+  Al82  1  0.82202203  0.57203181  0.68261737  1
  Al0+  Al83  1  0.18130821  0.92462839  0.01264700  1
  Al0+  Al84  1  0.07019361  0.68010208  0.32103015  1
  Al0+  Al85  1  0.07146022  0.67816670  0.98426153  1
  Al0+  Al86  1  0.43259591  0.82245193  0.98611176  1
  Al0+  Al87  1  0.43170601  0.82153708  0.31910845  1
  Al0+  Al88  1  0.42684364  0.32022765  0.98352708  1
  Al0+  Al89  1  0.67622233  0.93020178  0.68165259  1
  Al0+  Al90  1  0.18173815  0.92635414  0.34843039  1
  Al0+  Al91  1  0.17798261  0.42982782  0.01692286  1
  Al0+  Al92  1  0.82133035  0.07238038  0.35066724  1
  Al0+  Al93  1  0.67624758  0.42737370  0.68178594  1
  Al0+  Al94  1  0.82488361  0.06908871  0.68178679  1
  Al0+  Al95  1  0.18133207  0.42872972  0.67884411  1
  Si0+  Si96  1  0.06811352  0.17865600  0.98533862  1
  Si0+  Si97  1  0.32143372  0.57422065  0.68476884  1
  Si0+  Si98  1  0.57508741  0.67723075  0.98138250  1
  Si0+  Si99  1  0.92718315  0.32154306  0.98325982  1
  Si0+  Si100  1  0.92561260  0.82111341  0.31749274  1
  Si0+  Si101  1  0.92723075  0.32180050  0.65380291  1
  Si0+  Si102  1  0.82128004  0.56957623  0.01741640  1
  Si0+  Si103  1  0.18036578  0.92684352  0.67893157  1
  Si0+  Si104  1  0.57171956  0.18199304  0.65147316  1
  Si0+  Si105  1  0.31994849  0.07473859  0.35116696  1
  Si0+  Si106  1  0.67718778  0.43059697  0.01603863  1
  Si0+  Si107  1  0.42882026  0.32229941  0.65312454  1
  Si0+  Si108  1  0.67690982  0.43112860  0.34457512  1
  Si0+  Si109  1  0.57303783  0.67679319  0.31688226  1
  Si0+  Si110  1  0.57144360  0.17973829  0.31523795  1
  Si0+  Si111  1  0.32003129  0.07161954  0.67878617  1
  Si0+  Si112  1  0.92831316  0.82152395  0.98631766  1
  Si0+  Si113  1  0.32329276  0.57013912  0.01688194  1
  Si0+  Si114  1  0.57103129  0.67646107  0.64911652  1
  Si0+  Si115  1  0.57361197  0.18092842  0.98076884  1
  Si0+  Si116  1  0.32171442  0.57029673  0.34822112  1
  Si0+  Si117  1  0.17873858  0.42909046  0.34826339  1
  Si0+  Si118  1  0.82304989  0.56899060  0.34737804  1
  Si0+  Si119  1  0.07112441  0.67552986  0.65047066  1
  O2-  O120  1  0.25590402  -0.00631631  0.06344005  1
  O2-  O121  1  0.25394108  0.00390737  0.39635749  1
  O2-  O122  1  0.25207207  -0.00257729  0.72011650  1
  O2-  O123  1  0.25444941  0.50295678  0.06350312  1
  O2-  O124  1  0.25175597  0.49805848  0.39081150  1
  O2-  O125  1  0.25289542  0.50512906  0.72786764  1
  O2-  O126  1  0.75254068  -0.00112781  0.06457584  1
  O2-  O127  1  0.75328893  -0.00391373  0.39985193  1
  O2-  O128  1  0.75439066  -0.00461771  0.73125817  1
  O2-  O129  1  0.74836496  0.50037525  0.05994607  1
  O2-  O130  1  0.75101255  0.49798512  0.38801321  1
  O2-  O131  1  0.74960244  0.49872463  0.73116788  1
  O2-  O132  1  -0.00457852  0.24558633  0.26672620  1
  O2-  O133  1  -0.00644579  0.25121669  0.60974123  1
  O2-  O134  1  -0.00613030  0.24624006  0.94215791  1
  O2-  O135  1  -0.00172178  0.75666912  0.27282241  1
  O2-  O136  1  0.00190888  0.74330692  0.60688229  1
  O2-  O137  1  -0.00006987  0.75666225  0.94003426  1
  O2-  O138  1  0.50085482  0.24714431  0.27190624  1
  O2-  O139  1  0.50527476  0.25844636  0.60959858  1
  O2-  O140  1  0.50122148  0.24611608  0.93575653  1
  O2-  O141  1  0.51170123  0.75198340  0.27330851  1
  O2-  O142  1  0.50695689  0.74973420  0.60541282  1
  O2-  O143  1  0.51153108  0.75153953  0.93891210  1
  O2-  O144  1  0.06864579  0.18083479  0.08986222  1
  O2-  O145  1  0.07398661  0.18159033  0.42858523  1
  O2-  O146  1  0.07521893  0.17991357  0.76756523  1
  O2-  O147  1  0.06863041  0.67691936  0.09756816  1
  O2-  O148  1  0.06686619  0.67679909  0.43425740  1
  O2-  O149  1  0.07214202  0.67704764  0.75595305  1
  O2-  O150  1  0.57612926  0.18598317  0.08617863  1
  O2-  O151  1  0.57141654  0.18336542  0.42141538  1
  O2-  O152  1  0.56805792  0.18039955  0.75621072  1
  O2-  O153  1  0.57281522  0.67170709  0.08696696  1
  O2-  O154  1  0.56900560  0.66757434  0.42166941  1
  O2-  O155  1  0.56673952  0.67153138  0.75438113  1
  O2-  O156  1  0.17896468  0.43105116  0.24340264  1
  O2-  O157  1  0.18385344  0.42920479  0.56529773  1
  O2-  O158  1  0.17853937  0.42926864  0.90350259  1
  O2-  O159  1  0.18658990  0.92264148  0.23579310  1
  O2-  O160  1  0.18152150  0.92563108  0.57391220  1
  O2-  O161  1  0.17979187  0.92807769  0.89827579  1
  O2-  O162  1  0.67520613  0.43539240  0.23947021  1
  O2-  O163  1  0.67512823  0.42894096  0.56747331  1
  O2-  O164  1  0.67817862  0.43130444  0.91129077  1
  O2-  O165  1  0.67819414  0.92972984  0.23724627  1
  O2-  O166  1  0.67557708  0.93608646  0.56842436  1
  O2-  O167  1  0.68101914  0.92961657  0.90201688  1
  O2-  O168  1  0.42984440  0.32068374  0.09673801  1
  O2-  O169  1  0.43188661  0.32365603  0.43445147  1
  O2-  O170  1  0.42645437  0.31794004  0.75777579  1
  O2-  O171  1  0.43175082  0.81800167  0.09913556  1
  O2-  O172  1  0.43040301  0.81725584  0.43230409  1
  O2-  O173  1  0.42871874  0.82339331  0.76438073  1
  O2-  O174  1  0.92824950  0.32420162  0.08819787  1
  O2-  O175  1  0.93144283  0.32554753  0.43339891  1
  O2-  O176  1  0.92954245  0.32264737  0.75958674  1
  O2-  O177  1  0.92645727  0.81673591  0.09180831  1
  O2-  O178  1  0.92524724  0.81617679  0.42332974  1
  O2-  O179  1  0.93355656  0.82060335  0.76782504  1
  O2-  O180  1  0.31885914  0.07577056  0.24600155  1
  O2-  O181  1  0.31998727  0.07496101  0.57384534  1
  O2-  O182  1  0.31693907  0.07224020  0.89934072  1
  O2-  O183  1  0.32252423  0.56995670  0.24345966  1
  O2-  O184  1  0.32221913  0.57293162  0.57869171  1
  O2-  O185  1  0.32265267  0.56782155  0.91126403  1
  O2-  O186  1  0.81601684  0.07307786  0.23734044  1
  O2-  O187  1  0.82330187  0.07094578  0.56866355  1
  O2-  O188  1  0.82419338  0.07249780  0.90316340  1
  O2-  O189  1  0.82245410  0.56865673  0.24211591  1
  O2-  O190  1  0.82313352  0.56795975  0.56837415  1
  O2-  O191  1  0.82123477  0.56838205  0.91273746  1
  O2-  O192  1  0.04775547  0.07474196  0.26409850  1
  O2-  O193  1  0.04603595  0.08213368  0.59833047  1
  O2-  O194  1  0.04417786  0.08455335  0.93977316  1
  O2-  O195  1  0.03735985  0.58547859  0.26435824  1
  O2-  O196  1  0.04521155  0.58067616  0.60665392  1
  O2-  O197  1  0.03490262  0.58237868  0.93144930  1
  O2-  O198  1  0.54653207  0.08656574  0.26943834  1
  O2-  O199  1  0.53753734  0.09465111  0.59978098  1
  O2-  O200  1  0.55080851  0.08688153  0.93522932  1
  O2-  O201  1  0.54068384  0.58746985  0.26486466  1
  O2-  O202  1  0.53993175  0.58444200  0.60056032  1
  O2-  O203  1  0.54458049  0.58640559  0.93187659  1
  O2-  O204  1  0.16674361  0.20864290  0.26046398  1
  O2-  O205  1  0.16622562  0.21418979  0.59745540  1
  O2-  O206  1  0.15857804  0.21086641  0.93794823  1
  O2-  O207  1  0.16779037  0.70692008  0.26755394  1
  O2-  O208  1  0.16517460  0.69942987  0.60425573  1
  O2-  O209  1  0.16858052  0.70100570  0.92797120  1
  O2-  O210  1  0.66310090  0.20793664  0.26768335  1
  O2-  O211  1  0.66491492  0.20732221  0.60534455  1
  O2-  O212  1  0.66540499  0.21226406  0.93344292  1
  O2-  O213  1  0.66955209  0.69423417  0.27322174  1
  O2-  O214  1  0.66709451  0.69381095  0.60573261  1
  O2-  O215  1  0.67158888  0.69641179  0.93888498  1
  O2-  O216  1  0.08169035  0.46219283  0.07022507  1
  O2-  O217  1  0.08784471  0.46103576  0.39482546  1
  O2-  O218  1  0.08531218  0.45485162  0.73552180  1
  O2-  O219  1  0.08435831  0.95269239  0.06781404  1
  O2-  O220  1  0.08317584  0.95270154  0.40053989  1
  O2-  O221  1  0.08937825  0.95507522  0.72596995  1
  O2-  O222  1  0.58492016  0.46009119  0.06179083  1
  O2-  O223  1  0.58651775  0.46221229  0.39346580  1
  O2-  O224  1  0.57825025  0.45773506  0.73547709  1
  O2-  O225  1  0.58215846  0.96049645  0.06774719  1
  O2-  O226  1  0.57857197  0.96152349  0.40093419  1
  O2-  O227  1  0.57956531  0.96815161  0.73302003  1
  O2-  O228  1  0.20853663  0.33417364  0.07114379  1
  O2-  O229  1  0.20573349  0.33636622  0.39382571  1
  O2-  O230  1  0.21627951  0.33364145  0.73376410  1
  O2-  O231  1  0.20895804  0.82407578  0.06136685  1
  O2-  O232  1  0.21571309  0.83052036  0.40332473  1
  O2-  O233  1  0.20670392  0.83402719  0.72517634  1
  O2-  O234  1  0.70385355  0.33938237  0.06428658  1
  O2-  O235  1  0.69908309  0.33788903  0.39058287  1
  O2-  O236  1  0.70176089  0.33033842  0.73809296  1
  O2-  O237  1  0.70282073  0.82761485  0.06811657  1
  O2-  O238  1  0.69790785  0.82597936  0.40048220  1
  O2-  O239  1  0.69129739  0.82748050  0.72896005  1
  O2-  O240  1  0.46036392  0.41821254  0.26458415  1
  O2-  O241  1  0.44885139  0.41768266  0.60942427  1
  O2-  O242  1  0.45853267  0.41678655  0.92958928  1
  O2-  O243  1  0.45456264  0.92088994  0.26722670  1
  O2-  O244  1  0.45762780  0.92102320  0.59696774  1
  O2-  O245  1  0.45842807  0.92200770  0.93459247  1
  O2-  O246  1  0.95992152  0.41641642  0.26323025  1
  O2-  O247  1  0.95509033  0.41559549  0.60886326  1
  O2-  O248  1  0.95935480  0.41161814  0.93535005  1
  O2-  O249  1  0.94663223  0.91637091  0.27519170  1
  O2-  O250  1  0.96220381  0.91290133  0.59610914  1
  O2-  O251  1  0.95111131  0.91723750  0.94375348  1
  O2-  O252  1  0.33233611  0.29404424  0.26683768  1
  O2-  O253  1  0.34030366  0.28847373  0.60274539  1
  O2-  O254  1  0.32900619  0.28900517  0.93197394  1
  O2-  O255  1  0.33815930  0.78261111  0.26510757  1
  O2-  O256  1  0.33451516  0.78830949  0.59648605  1
  O2-  O257  1  0.33851579  0.78727290  0.92915574  1
  O2-  O258  1  0.82760510  0.29855450  0.26692535  1
  O2-  O259  1  0.83134160  0.30134181  0.61024796  1
  O2-  O260  1  0.83270401  0.30054762  0.93806238  1
  O2-  O261  1  0.83319690  0.79043012  0.27161875  1
  O2-  O262  1  0.83009417  0.79042342  0.60237308  1
  O2-  O263  1  0.83598318  0.79087555  0.93986008  1
  O2-  O264  1  0.42249502  0.05628941  0.06391426  1
  O2-  O265  1  0.41545306  0.05353769  0.39518871  1
  O2-  O266  1  0.41209213  0.04706361  0.72638083  1
  O2-  O267  1  0.41760347  0.54500199  0.06190302  1
  O2-  O268  1  0.41343897  0.54214823  0.39656983  1
  O2-  O269  1  0.41431233  0.55074509  0.73210314  1
  O2-  O270  1  0.92066516  0.04708441  0.07153397  1
  O2-  O271  1  0.92255789  0.04999713  0.39914189  1
  O2-  O272  1  0.92443227  0.03970320  0.73247526  1
  O2-  O273  1  0.91134832  0.53748191  0.06524380  1
  O2-  O274  1  0.91400162  0.53917567  0.39513615  1
  O2-  O275  1  0.91873489  0.54372589  0.73919864  1
  O2-  O276  1  0.28631182  0.16727030  0.06832132  1
  O2-  O277  1  0.29190830  0.16837080  0.39755178  1
  O2-  O278  1  0.28996698  0.16186620  0.72791752  1
  O2-  O279  1  0.29737535  0.66399380  0.06111106  1
  O2-  O280  1  0.29241570  0.66029987  0.39768824  1
  O2-  O281  1  0.29501825  0.66784153  0.73032401  1
  O2-  O282  1  0.79237279  0.17238340  0.06757191  1
  O2-  O283  1  0.78920670  0.17126233  0.40259472  1
  O2-  O284  1  0.79697110  0.16746806  0.73476234  1
  O2-  O285  1  0.79598601  0.66080847  0.06690774  1
  O2-  O286  1  0.79633996  0.65993731  0.39646314  1
  O2-  O287  1  0.79196602  0.66848613  0.73836026  1
