# generated using pymatgen
data_Ca2Al2SiO7
_symmetry_space_group_name_H-M   'P 1'
_cell_length_a   15.45238766
_cell_length_b   15.45274100
_cell_length_c   15.27970414
_cell_angle_alpha   89.99140662
_cell_angle_beta   90.00076668
_cell_angle_gamma   89.99585164
_symmetry_Int_Tables_number   1
_chemical_formula_structural   Ca2Al2SiO7
_chemical_formula_sum   'Ca48 Al48 Si24 O168'
_cell_volume   3648.51435724
_cell_formula_units_Z   24
loop_
 _symmetry_equiv_pos_site_id
 _symmetry_equiv_pos_as_xyz
  1  'x, y, z'
loop_
 _atom_type_symbol
 _atom_type_oxidation_number
  Ca2+  2.0
  Al0+  0.0
  Si0+  0.0
  O2-  -2.0
loop_
 _atom_site_type_symbol
 _atom_site_label
 _atom_site_symmetry_multiplicity
 _atom_site_fract_x
 _atom_site_fract_y
 _atom_site_fract_z
 _atom_site_occupancy
  Ca2+  Ca0  1  0.16833699  0.08770282  0.17023558  1
  Ca2+  Ca1  1  0.17326633  0.08172418  0.50486972  1
  Ca2+  Ca2  1  0.17841853  0.08492797  0.84195539  1
  Ca2+  Ca3  1  0.16877980  0.58029091  0.17432962  1
  Ca2+  Ca4  1  0.16642522  0.58270401  0.50474178  1
  Ca2+  Ca5  1  0.17703087  0.59298234  0.83482611  1
  Ca2+  Ca6  1  0.67417358  0.07618259  0.17955307  1
  Ca2+  Ca7  1  0.65959934  0.07544687  0.50318916  1
  Ca2+  Ca8  1  0.65926916  0.07503245  0.83303047  1
  Ca2+  Ca9  1  0.67541857  0.59387946  0.17136335  1
  Ca2+  Ca10  1  0.66848411  0.58272785  0.50234787  1
  Ca2+  Ca11  1  0.66598575  0.57720400  0.84248977  1
  Ca2+  Ca12  1  0.08203792  0.32614198  0.16296925  1
  Ca2+  Ca13  1  0.08462157  0.32926019  0.48989189  1
  Ca2+  Ca14  1  0.07916046  0.33384628  0.83654025  1
  Ca2+  Ca15  1  0.07417010  0.82839828  0.16288916  1
  Ca2+  Ca16  1  0.08567864  0.81862073  0.49493025  1
  Ca2+  Ca17  1  0.07542687  0.83014209  0.82992735  1
  Ca2+  Ca18  1  0.58783759  0.32460854  0.16594557  1
  Ca2+  Ca19  1  0.58811551  0.32374054  0.49823787  1
  Ca2+  Ca20  1  0.58530138  0.32727393  0.82453611  1
  Ca2+  Ca21  1  0.57946455  0.82722233  0.16465106  1
  Ca2+  Ca22  1  0.57474400  0.83826032  0.49336603  1
  Ca2+  Ca23  1  0.57520624  0.82769072  0.82994326  1
  Ca2+  Ca24  1  0.32776310  0.42402375  0.17078747  1
  Ca2+  Ca25  1  0.32725360  0.42427092  0.50430300  1
  Ca2+  Ca26  1  0.33644367  0.43389971  0.83932417  1
  Ca2+  Ca27  1  0.33998397  0.91649054  0.16549549  1
  Ca2+  Ca28  1  0.33898618  0.91714754  0.50626494  1
  Ca2+  Ca29  1  0.34205042  0.92422947  0.83678600  1
  Ca2+  Ca30  1  0.84110599  0.42757787  0.16926774  1
  Ca2+  Ca31  1  0.82827966  0.42279080  0.50167060  1
  Ca2+  Ca32  1  0.82932781  0.41987333  0.83901084  1
  Ca2+  Ca33  1  0.82802805  0.91739960  0.17734881  1
  Ca2+  Ca34  1  0.81932868  0.92086246  0.50057331  1
  Ca2+  Ca35  1  0.82616125  0.90988498  0.83800984  1
  Ca2+  Ca36  1  0.42127195  0.16429154  0.16434557  1
  Ca2+  Ca37  1  0.42763899  0.16013509  0.49819933  1
  Ca2+  Ca38  1  0.41761999  0.16356157  0.82649854  1
  Ca2+  Ca39  1  0.42635226  0.67487969  0.15873938  1
  Ca2+  Ca40  1  0.42011928  0.67716698  0.49147240  1
  Ca2+  Ca41  1  0.41113877  0.67528664  0.82749251  1
  Ca2+  Ca42  1  0.92727199  0.16647690  0.15880103  1
  Ca2+  Ca43  1  0.92054612  0.16751502  0.48950400  1
  Ca2+  Ca44  1  0.92132911  0.17109605  0.83295069  1
  Ca2+  Ca45  1  0.91670274  0.66509460  0.16084626  1
  Ca2+  Ca46  1  0.92538043  0.66099967  0.49371795  1
  Ca2+  Ca47  1  0.91851824  0.66751569  0.83363615  1
  Al0+  Al48  1  0.00109091  -0.00128508  -0.01035872  1
  Al0+  Al49  1  0.00235263  -0.00021066  0.33564272  1
  Al0+  Al50  1  -0.00135061  0.00050662  0.66487565  1
  Al0+  Al51  1  -0.00063254  0.49802574  -0.00163775  1
  Al0+  Al52  1  0.00114372  0.49892137  0.33847088  1
  Al0+  Al53  1  -0.00066647  0.49876989  0.66382553  1
  Al0+  Al54  1  0.49985745  -0.00160151  0.00319510  1
  Al0+  Al55  1  0.49971922  0.00197174  0.32718609  1
  Al0+  Al56  1  0.50064505  -0.00048458  0.66800734  1
  Al0+  Al57  1  0.50054798  0.49701925  0.00474837  1
  Al0+  Al58  1  0.50011508  0.50102316  0.33036076  1
  Al0+  Al59  1  0.49939054  0.49959656  0.67442604  1
  Al0+  Al60  1  0.25256917  0.24911846  0.00062840  1
  Al0+  Al61  1  0.24948195  0.25134779  0.33489574  1
  Al0+  Al62  1  0.24943149  0.25123387  0.67108556  1
  Al0+  Al63  1  0.25077564  0.75282300  0.00293111  1
  Al0+  Al64  1  0.24947582  0.75138323  0.32380369  1
  Al0+  Al65  1  0.24748057  0.75108893  0.66205042  1
  Al0+  Al66  1  0.75090946  0.24838150  -0.00391272  1
  Al0+  Al67  1  0.75138528  0.25233892  0.33098284  1
  Al0+  Al68  1  0.75092216  0.25070171  0.66593341  1
  Al0+  Al69  1  0.74902126  0.74753565  -0.00447259  1
  Al0+  Al70  1  0.74950981  0.75106344  0.34358313  1
  Al0+  Al71  1  0.75014300  0.75122156  0.67085789  1
  Al0+  Al72  1  0.92764059  0.82023035  0.98786924  1
  Al0+  Al73  1  0.31951770  0.06927747  0.67878486  1
  Al0+  Al74  1  0.31841877  0.57211981  0.67790163  1
  Al0+  Al75  1  0.67926612  0.93001393  0.68286405  1
  Al0+  Al76  1  0.82420352  0.07325928  0.34632004  1
  Al0+  Al77  1  0.42853916  0.82264238  0.31601774  1
  Al0+  Al78  1  0.06815806  0.68066520  0.65342733  1
  Al0+  Al79  1  0.68002781  0.42910442  0.67989443  1
  Al0+  Al80  1  0.57174413  0.18085258  0.31897127  1
  Al0+  Al81  1  0.67753361  0.93106003  0.34852289  1
  Al0+  Al82  1  0.82035903  0.57125046  0.34795337  1
  Al0+  Al83  1  0.81927095  0.56933736  0.01272532  1
  Al0+  Al84  1  0.07355797  0.17846336  0.98290748  1
  Al0+  Al85  1  0.56907436  0.18056082  0.65403570  1
  Al0+  Al86  1  0.92862207  0.32159062  0.98402530  1
  Al0+  Al87  1  0.32114533  0.07051818  0.01632559  1
  Al0+  Al88  1  0.32185737  0.57410642  0.01600978  1
  Al0+  Al89  1  0.42920687  0.82075672  0.98210309  1
  Al0+  Al90  1  0.43095304  0.81943018  0.65300038  1
  Al0+  Al91  1  0.57086958  0.67669162  0.98367440  1
  Al0+  Al92  1  0.57332990  0.67762959  0.32005813  1
  Al0+  Al93  1  0.07151890  0.17807546  0.32129303  1
  Al0+  Al94  1  0.18070427  0.42982681  0.34662980  1
  Al0+  Al95  1  0.06944949  0.67654085  0.31830462  1
  Si0+  Si96  1  0.17551675  0.92768415  0.68281295  1
  Si0+  Si97  1  0.92956244  0.31994628  0.64910599  1
  Si0+  Si98  1  0.92894292  0.82067146  0.32075835  1
  Si0+  Si99  1  0.32201614  0.57414977  0.34862651  1
  Si0+  Si100  1  0.42933132  0.32007649  0.98529002  1
  Si0+  Si101  1  0.67530823  0.42729633  0.34941976  1
  Si0+  Si102  1  0.82370993  0.07289384  0.68493378  1
  Si0+  Si103  1  0.07226652  0.67711253  0.98512306  1
  Si0+  Si104  1  0.42688480  0.32247667  0.31729710  1
  Si0+  Si105  1  0.31982298  0.07105276  0.34791575  1
  Si0+  Si106  1  0.82230102  0.07104445  0.01219595  1
  Si0+  Si107  1  0.17590978  0.42736867  0.68547110  1
  Si0+  Si108  1  0.57089972  0.17851832  0.98536116  1
  Si0+  Si109  1  0.17484563  0.92931719  0.01748423  1
  Si0+  Si110  1  0.07267216  0.17947987  0.65098189  1
  Si0+  Si111  1  0.82351015  0.57105717  0.68428058  1
  Si0+  Si112  1  0.92446206  0.82403193  0.64711038  1
  Si0+  Si113  1  0.17927827  0.42902348  0.01616885  1
  Si0+  Si114  1  0.42605038  0.32489956  0.65118537  1
  Si0+  Si115  1  0.92859788  0.32229344  0.31730658  1
  Si0+  Si116  1  0.57317717  0.67497587  0.65145138  1
  Si0+  Si117  1  0.17880937  0.92718178  0.34796318  1
  Si0+  Si118  1  0.67789416  0.42388529  0.01863192  1
  Si0+  Si119  1  0.68070479  0.92933984  0.01506946  1
  O2-  O120  1  0.24388808  -0.00205957  0.06210770  1
  O2-  O121  1  0.25141316  -0.00268184  0.38973863  1
  O2-  O122  1  0.24283048  -0.00251999  0.72710374  1
  O2-  O123  1  0.24405699  0.50116386  0.06081710  1
  O2-  O124  1  0.25331754  0.50606078  0.39411122  1
  O2-  O125  1  0.24486096  0.49659151  0.72757970  1
  O2-  O126  1  0.75396525  -0.00112810  0.05614900  1
  O2-  O127  1  0.74785641  0.00646038  0.39723956  1
  O2-  O128  1  0.75686511  0.00267133  0.72982135  1
  O2-  O129  1  0.74513854  0.49455694  0.06128819  1
  O2-  O130  1  0.74183965  0.49888835  0.39258453  1
  O2-  O131  1  0.74999644  0.50749105  0.72782903  1
  O2-  O132  1  -0.00743650  0.24820655  0.27490847  1
  O2-  O133  1  0.00140679  0.24933040  0.60740782  1
  O2-  O134  1  0.00070024  0.24987816  0.93302924  1
  O2-  O135  1  -0.00725336  0.74937478  0.27307771  1
  O2-  O136  1  -0.00767632  0.75367027  0.60475608  1
  O2-  O137  1  0.00299615  0.74555685  0.94150407  1
  O2-  O138  1  0.49836364  0.25688112  0.27215521  1
  O2-  O139  1  0.49426479  0.25568617  0.60690023  1
  O2-  O140  1  0.50135176  0.25034012  0.94278671  1
  O2-  O141  1  0.50062896  0.74866946  0.26995091  1
  O2-  O142  1  0.50492637  0.74366134  0.60693643  1
  O2-  O143  1  0.49536373  0.74377372  0.93171964  1
  O2-  O144  1  0.07206024  0.17925030  0.09670920  1
  O2-  O145  1  0.07334276  0.18087312  0.43492987  1
  O2-  O146  1  0.07223781  0.18063857  0.75567746  1
  O2-  O147  1  0.06973964  0.67675398  0.09074272  1
  O2-  O148  1  0.07006960  0.67808550  0.43159256  1
  O2-  O149  1  0.06748163  0.68270359  0.76679846  1
  O2-  O150  1  0.57163425  0.18006669  0.09045375  1
  O2-  O151  1  0.56866833  0.18051572  0.43215247  1
  O2-  O152  1  0.56731497  0.18130816  0.76760743  1
  O2-  O153  1  0.57415212  0.68199949  0.09693233  1
  O2-  O154  1  0.56953113  0.67508549  0.43396936  1
  O2-  O155  1  0.57196500  0.67520632  0.75689501  1
  O2-  O156  1  0.18219420  0.42896356  0.23354093  1
  O2-  O157  1  0.17618369  0.42533219  0.57980946  1
  O2-  O158  1  0.18135610  0.42893885  0.91033454  1
  O2-  O159  1  0.17490458  0.92851038  0.24325072  1
  O2-  O160  1  0.17524467  0.92906232  0.57687698  1
  O2-  O161  1  0.17351240  0.92999673  0.91178401  1
  O2-  O162  1  0.67675724  0.42390416  0.24417037  1
  O2-  O163  1  0.68363054  0.42731806  0.56682729  1
  O2-  O164  1  0.67863178  0.42208290  0.91279193  1
  O2-  O165  1  0.68103158  0.93091343  0.23437374  1
  O2-  O166  1  0.67804317  0.93294698  0.57018388  1
  O2-  O167  1  0.67985141  0.93231089  0.90967100  1
  O2-  O168  1  0.42907497  0.31870365  0.09050003  1
  O2-  O169  1  0.42562297  0.32123713  0.42297283  1
  O2-  O170  1  0.42670992  0.32435393  0.75699129  1
  O2-  O171  1  0.43400411  0.82266299  0.09515973  1
  O2-  O172  1  0.42773769  0.82241044  0.43018575  1
  O2-  O173  1  0.43114690  0.82000168  0.76572863  1
  O2-  O174  1  0.92968693  0.32063662  0.09741294  1
  O2-  O175  1  0.93046504  0.32259420  0.42346028  1
  O2-  O176  1  0.93023377  0.32023453  0.75399461  1
  O2-  O177  1  0.92816936  0.82144648  0.10106052  1
  O2-  O178  1  0.93343486  0.82028351  0.42630327  1
  O2-  O179  1  0.92575550  0.82420381  0.75295107  1
  O2-  O180  1  0.31797943  0.07301496  0.24294489  1
  O2-  O181  1  0.31838510  0.06878529  0.56527738  1
  O2-  O182  1  0.32209831  0.07029786  0.90301972  1
  O2-  O183  1  0.32025396  0.57089384  0.24309720  1
  O2-  O184  1  0.31666470  0.56979713  0.56483900  1
  O2-  O185  1  0.31933717  0.57286138  0.90236360  1
  O2-  O186  1  0.82523609  0.06924385  0.23207030  1
  O2-  O187  1  0.82539164  0.07284836  0.57956945  1
  O2-  O188  1  0.81868089  0.07212815  0.90699419  1
  O2-  O189  1  0.82263369  0.56962369  0.23481749  1
  O2-  O190  1  0.82579407  0.56758539  0.57864646  1
  O2-  O191  1  0.81880616  0.56719311  0.89951777  1
  O2-  O192  1  0.04581706  0.08005412  0.26764100  1
  O2-  O193  1  0.04679986  0.08632157  0.60460480  1
  O2-  O194  1  0.04617907  0.08145566  0.92701539  1
  O2-  O195  1  0.04020720  0.57890361  0.26670515  1
  O2-  O196  1  0.03960645  0.58255823  0.59987698  1
  O2-  O197  1  0.04816347  0.58380564  0.93826266  1
  O2-  O198  1  0.53911716  0.08703391  0.26180867  1
  O2-  O199  1  0.53527116  0.08543248  0.59992400  1
  O2-  O200  1  0.54075311  0.08696784  0.93969387  1
  O2-  O201  1  0.54926370  0.57841939  0.26556909  1
  O2-  O202  1  0.54850540  0.58008422  0.60772479  1
  O2-  O203  1  0.54866664  0.57367954  0.93757866  1
  O2-  O204  1  0.16656497  0.21340620  0.26708094  1
  O2-  O205  1  0.16489828  0.20796026  0.60433656  1
  O2-  O206  1  0.17216348  0.20925843  0.93141488  1
  O2-  O207  1  0.16406895  0.70863101  0.26254313  1
  O2-  O208  1  0.16258701  0.71273547  0.59576621  1
  O2-  O209  1  0.16538456  0.70559231  0.94027042  1
  O2-  O210  1  0.66891151  0.21022307  0.26417086  1
  O2-  O211  1  0.66656886  0.21070127  0.60112057  1
  O2-  O212  1  0.66262810  0.20365563  0.93640189  1
  O2-  O213  1  0.67309536  0.70832303  0.27115239  1
  O2-  O214  1  0.66877016  0.69955538  0.60878321  1
  O2-  O215  1  0.66710657  0.70761601  0.92805967  1
  O2-  O216  1  0.08409911  0.45014629  0.06055085  1
  O2-  O217  1  0.08520198  0.45787265  0.40398020  1
  O2-  O218  1  0.08177559  0.45361770  0.73004428  1
  O2-  O219  1  0.08059084  0.95575792  0.06263212  1
  O2-  O220  1  0.08921479  0.95541457  0.39954024  1
  O2-  O221  1  0.08069490  0.95205461  0.72793602  1
  O2-  O222  1  0.58350735  0.44379016  0.06501346  1
  O2-  O223  1  0.58035906  0.44891898  0.39526291  1
  O2-  O224  1  0.58254401  0.45267356  0.73630488  1
  O2-  O225  1  0.59074690  0.96005835  0.06343323  1
  O2-  O226  1  0.57849431  0.96287317  0.39904417  1
  O2-  O227  1  0.58509298  0.96536437  0.73836258  1
  O2-  O228  1  0.20972274  0.33679281  0.06223329  1
  O2-  O229  1  0.21346141  0.33454547  0.40384591  1
  O2-  O230  1  0.20031776  0.33432165  0.73311388  1
  O2-  O231  1  0.19926562  0.83598104  0.06468303  1
  O2-  O232  1  0.20693638  0.83462114  0.39434856  1
  O2-  O233  1  0.20075591  0.83443963  0.72836486  1
  O2-  O234  1  0.70619195  0.32990626  0.06364980  1
  O2-  O235  1  0.70469799  0.33510924  0.39703826  1
  O2-  O236  1  0.71464825  0.33368607  0.73511510  1
  O2-  O237  1  0.70863878  0.83682376  0.05935245  1
  O2-  O238  1  0.70601483  0.83526877  0.40641132  1
  O2-  O239  1  0.70805085  0.83266016  0.73783133  1
  O2-  O240  1  0.44843533  0.41683210  0.27093078  1
  O2-  O241  1  0.45221137  0.41841889  0.60548624  1
  O2-  O242  1  0.45623755  0.41214528  0.93803248  1
  O2-  O243  1  0.45690635  0.92039821  0.26242907  1
  O2-  O244  1  0.46383942  0.91555670  0.59953492  1
  O2-  O245  1  0.46352587  0.91906746  0.93136511  1
  O2-  O246  1  0.96197096  0.41311024  0.27123430  1
  O2-  O247  1  0.95684967  0.41156885  0.60092387  1
  O2-  O248  1  0.95834593  0.41874002  0.92792024  1
  O2-  O249  1  0.95858792  0.91281826  0.27379436  1
  O2-  O250  1  0.95018046  0.91814560  0.60193289  1
  O2-  O251  1  0.95703150  0.91432190  0.92767688  1
  O2-  O252  1  0.33550733  0.29210033  0.26954756  1
  O2-  O253  1  0.33118586  0.30016752  0.60670948  1
  O2-  O254  1  0.33890992  0.29201202  0.93615030  1
  O2-  O255  1  0.33045920  0.79732567  0.26120324  1
  O2-  O256  1  0.33289821  0.79279450  0.59957593  1
  O2-  O257  1  0.32694840  0.79983100  0.93348004  1
  O2-  O258  1  0.83363659  0.30595284  0.27120364  1
  O2-  O259  1  0.83859521  0.29154313  0.60081093  1
  O2-  O260  1  0.83092201  0.29125849  0.92916675  1
  O2-  O261  1  0.83314931  0.79961764  0.27897012  1
  O2-  O262  1  0.82990542  0.79957932  0.60287613  1
  O2-  O263  1  0.83386098  0.78751233  0.92998855  1
  O2-  O264  1  0.41744333  0.03830835  0.07108033  1
  O2-  O265  1  0.41280793  0.04477464  0.39303670  1
  O2-  O266  1  0.41472606  0.03733581  0.73395519  1
  O2-  O267  1  0.41674750  0.53764216  0.07007533  1
  O2-  O268  1  0.41589505  0.54812281  0.39405900  1
  O2-  O269  1  0.41393945  0.54297159  0.73540737  1
  O2-  O270  1  0.91665997  0.04553179  0.05469112  1
  O2-  O271  1  0.92120115  0.04254951  0.40211600  1
  O2-  O272  1  0.91854545  0.04911044  0.73069236  1
  O2-  O273  1  0.91728356  0.53904963  0.06569049  1
  O2-  O274  1  0.91456856  0.53495420  0.40399545  1
  O2-  O275  1  0.91510251  0.53892975  0.73101710  1
  O2-  O276  1  0.29330332  0.16833040  0.07001866  1
  O2-  O277  1  0.29029052  0.16158916  0.39666727  1
  O2-  O278  1  0.29187377  0.16721614  0.73326991  1
  O2-  O279  1  0.29396572  0.67134120  0.06946436  1
  O2-  O280  1  0.29516885  0.66883062  0.39112841  1
  O2-  O281  1  0.28339738  0.66787234  0.73174479  1
  O2-  O282  1  0.79351269  0.16238396  0.06013468  1
  O2-  O283  1  0.80142017  0.17462150  0.39582778  1
  O2-  O284  1  0.79719444  0.16643082  0.73014865  1
  O2-  O285  1  0.78946114  0.66680221  0.06597284  1
  O2-  O286  1  0.79503858  0.66685964  0.40641114  1
  O2-  O287  1  0.80540570  0.66746402  0.72691700  1
