# generated using pymatgen
data_Ca2Al2SiO7
_symmetry_space_group_name_H-M   'P 1'
_cell_length_a   15.45505144
_cell_length_b   15.45445297
_cell_length_c   15.28146402
_cell_angle_alpha   90.00649615
_cell_angle_beta   90.00146921
_cell_angle_gamma   90.00274849
_symmetry_Int_Tables_number   1
_chemical_formula_structural   Ca2Al2SiO7
_chemical_formula_sum   'Ca48 Al48 Si24 O168'
_cell_volume   3649.96795890
_cell_formula_units_Z   24
loop_
 _symmetry_equiv_pos_site_id
 _symmetry_equiv_pos_as_xyz
  1  'x, y, z'
loop_
 _atom_type_symbol
 _atom_type_oxidation_number
  Ca2+  2.0
  Al0+  0.0
  Si0+  0.0
  O2-  -2.0
loop_
 _atom_site_type_symbol
 _atom_site_label
 _atom_site_symmetry_multiplicity
 _atom_site_fract_x
 _atom_site_fract_y
 _atom_site_fract_z
 _atom_site_occupancy
  Ca2+  Ca0  1  0.16374142  0.07895822  0.17294875  1
  Ca2+  Ca1  1  0.16638651  0.07982485  0.49825433  1
  Ca2+  Ca2  1  0.17250675  0.08922915  0.83748880  1
  Ca2+  Ca3  1  0.16703357  0.57494302  0.17815892  1
  Ca2+  Ca4  1  0.16891852  0.58828691  0.49497320  1
  Ca2+  Ca5  1  0.16798532  0.57376394  0.84195449  1
  Ca2+  Ca6  1  0.67416826  0.08173261  0.16924697  1
  Ca2+  Ca7  1  0.66687644  0.06786029  0.50356242  1
  Ca2+  Ca8  1  0.67300762  0.07948971  0.84112301  1
  Ca2+  Ca9  1  0.67109912  0.58184769  0.16935521  1
  Ca2+  Ca10  1  0.67336591  0.58263843  0.49680274  1
  Ca2+  Ca11  1  0.67098286  0.57641189  0.84653481  1
  Ca2+  Ca12  1  0.09303651  0.32499228  0.16278998  1
  Ca2+  Ca13  1  0.08103958  0.32861378  0.49307725  1
  Ca2+  Ca14  1  0.07944113  0.33113719  0.83080157  1
  Ca2+  Ca15  1  0.07630543  0.82770493  0.16579788  1
  Ca2+  Ca16  1  0.07284462  0.83221341  0.48617674  1
  Ca2+  Ca17  1  0.06819170  0.83186912  0.83029474  1
  Ca2+  Ca18  1  0.58801803  0.33370682  0.16008672  1
  Ca2+  Ca19  1  0.57770213  0.33576779  0.49509449  1
  Ca2+  Ca20  1  0.58733579  0.32661132  0.82988985  1
  Ca2+  Ca21  1  0.57357824  0.83105837  0.16086723  1
  Ca2+  Ca22  1  0.58058733  0.83770597  0.49171492  1
  Ca2+  Ca23  1  0.58611024  0.82865000  0.83417862  1
  Ca2+  Ca24  1  0.32401573  0.42395821  0.17396718  1
  Ca2+  Ca25  1  0.32876985  0.41809434  0.49963967  1
  Ca2+  Ca26  1  0.32890597  0.41194059  0.83861104  1
  Ca2+  Ca27  1  0.32905436  0.91108406  0.17585122  1
  Ca2+  Ca28  1  0.32596391  0.91802756  0.50192607  1
  Ca2+  Ca29  1  0.33391777  0.92176728  0.83665614  1
  Ca2+  Ca30  1  0.82273395  0.42837526  0.17319153  1
  Ca2+  Ca31  1  0.83639719  0.42104326  0.50032778  1
  Ca2+  Ca32  1  0.83239102  0.42325458  0.84689808  1
  Ca2+  Ca33  1  0.83413070  0.91744293  0.17136157  1
  Ca2+  Ca34  1  0.82438886  0.90502865  0.50252939  1
  Ca2+  Ca35  1  0.83178367  0.91614837  0.83928986  1
  Ca2+  Ca36  1  0.42842711  0.16824247  0.15921213  1
  Ca2+  Ca37  1  0.41116766  0.16925378  0.50047276  1
  Ca2+  Ca38  1  0.42227790  0.17068279  0.82823866  1
  Ca2+  Ca39  1  0.41630052  0.67552991  0.16221470  1
  Ca2+  Ca40  1  0.41775688  0.67235668  0.48771624  1
  Ca2+  Ca41  1  0.42339649  0.66880402  0.83541879  1
  Ca2+  Ca42  1  0.92913062  0.16206627  0.15973970  1
  Ca2+  Ca43  1  0.92008625  0.17439342  0.49342449  1
  Ca2+  Ca44  1  0.91969118  0.16961551  0.83273347  1
  Ca2+  Ca45  1  0.90676302  0.67429434  0.16639750  1
  Ca2+  Ca46  1  0.91984894  0.67582066  0.48992983  1
  Ca2+  Ca47  1  0.90535337  0.67703182  0.83285042  1
  Al0+  Al48  1  0.00184528  0.00036735  -0.00744519  1
  Al0+  Al49  1  0.00061886  0.00297677  0.33097827  1
  Al0+  Al50  1  -0.00124547  -0.00103792  0.66130000  1
  Al0+  Al51  1  0.00080565  0.49978718  0.01096585  1
  Al0+  Al52  1  -0.00100490  0.49922529  0.33893759  1
  Al0+  Al53  1  0.00122977  0.49993932  0.66437463  1
  Al0+  Al54  1  0.49967591  0.00302534  -0.00898890  1
  Al0+  Al55  1  0.50113278  0.00195747  0.33251857  1
  Al0+  Al56  1  0.49998956  -0.00157797  0.67665387  1
  Al0+  Al57  1  0.49717955  0.50121781  -0.00025986  1
  Al0+  Al58  1  0.49936823  0.50023114  0.33951816  1
  Al0+  Al59  1  0.50026982  0.49926643  0.66271829  1
  Al0+  Al60  1  0.25140379  0.24757661  0.00069185  1
  Al0+  Al61  1  0.25153606  0.25158461  0.33206495  1
  Al0+  Al62  1  0.25167520  0.24964242  0.66670502  1
  Al0+  Al63  1  0.24802578  0.75138709  -0.00766654  1
  Al0+  Al64  1  0.24792652  0.75129070  0.33492490  1
  Al0+  Al65  1  0.25140178  0.74905725  0.67136598  1
  Al0+  Al66  1  0.75208117  0.24816580  0.00360319  1
  Al0+  Al67  1  0.74922471  0.24953646  0.33818576  1
  Al0+  Al68  1  0.75007565  0.24799597  0.65955445  1
  Al0+  Al69  1  0.74740539  0.75086195  -0.00460858  1
  Al0+  Al70  1  0.74764339  0.74987474  0.33717045  1
  Al0+  Al71  1  0.74889020  0.74793735  0.66714451  1
  Al0+  Al72  1  0.67678507  0.42757422  0.01263257  1
  Al0+  Al73  1  0.92845218  0.32225712  0.65401646  1
  Al0+  Al74  1  0.17880871  0.42638875  0.35081548  1
  Al0+  Al75  1  0.18045344  0.42762908  0.01332637  1
  Al0+  Al76  1  0.17819851  0.93016859  0.34460389  1
  Al0+  Al77  1  0.82051278  0.57196551  0.35102526  1
  Al0+  Al78  1  0.07072482  0.67764103  0.31836283  1
  Al0+  Al79  1  0.42997465  0.32004762  0.65211182  1
  Al0+  Al80  1  0.68069291  0.92755159  0.68318259  1
  Al0+  Al81  1  0.56957979  0.67865087  0.98550439  1
  Al0+  Al82  1  0.31807449  0.07048763  0.68122022  1
  Al0+  Al83  1  0.92866753  0.81959108  0.65176203  1
  Al0+  Al84  1  0.82358706  0.06915899  0.01244380  1
  Al0+  Al85  1  0.57497857  0.18103064  0.98615659  1
  Al0+  Al86  1  0.31949447  0.57254427  0.34797409  1
  Al0+  Al87  1  0.82072648  0.57449363  0.01525562  1
  Al0+  Al88  1  0.42574429  0.82299165  0.98237989  1
  Al0+  Al89  1  0.67920649  0.93085271  0.34347228  1
  Al0+  Al90  1  0.07112287  0.18227423  0.31927098  1
  Al0+  Al91  1  0.92604596  0.82098236  0.31743099  1
  Al0+  Al92  1  0.67836504  0.42653421  0.35130747  1
  Al0+  Al93  1  0.07249716  0.17934372  0.98483275  1
  Al0+  Al94  1  0.92966081  0.81960644  0.98645453  1
  Al0+  Al95  1  0.42902434  0.82277960  0.32312073  1
  Si0+  Si96  1  0.82114735  0.56787815  0.68196767  1
  Si0+  Si97  1  0.57114264  0.17930408  0.31933084  1
  Si0+  Si98  1  0.18057811  0.43001850  0.68182429  1
  Si0+  Si99  1  0.32407386  0.57167878  0.68375443  1
  Si0+  Si100  1  0.32398183  0.07217665  0.34770353  1
  Si0+  Si101  1  0.92521472  0.32229942  0.31509458  1
  Si0+  Si102  1  0.32232281  0.07016411  0.01570147  1
  Si0+  Si103  1  0.43031386  0.32238170  0.31752388  1
  Si0+  Si104  1  0.82271657  0.07370822  0.68252416  1
  Si0+  Si105  1  0.67682074  0.92960010  0.01619895  1
  Si0+  Si106  1  0.42867663  0.32082305  0.98545228  1
  Si0+  Si107  1  0.57172753  0.17515855  0.64819186  1
  Si0+  Si108  1  0.32057131  0.57477268  0.01538043  1
  Si0+  Si109  1  0.17546308  0.92635277  0.68471630  1
  Si0+  Si110  1  0.17995265  0.92977689  0.01268913  1
  Si0+  Si111  1  0.07172178  0.67488838  0.98327692  1
  Si0+  Si112  1  0.56955831  0.67874220  0.64986334  1
  Si0+  Si113  1  0.82379463  0.07163235  0.35099870  1
  Si0+  Si114  1  0.57041228  0.67692203  0.31781796  1
  Si0+  Si115  1  0.67822016  0.42811666  0.68044344  1
  Si0+  Si116  1  0.07462053  0.67788885  0.65107740  1
  Si0+  Si117  1  0.42908715  0.82127736  0.65172113  1
  Si0+  Si118  1  0.92999663  0.32239950  0.98764531  1
  Si0+  Si119  1  0.07299954  0.17902615  0.64959987  1
  O2-  O120  1  0.25529041  -0.00444089  0.05662482  1
  O2-  O121  1  0.25442759  0.00398283  0.39102292  1
  O2-  O122  1  0.24227335  -0.00294978  0.72916536  1
  O2-  O123  1  0.25118829  0.50667707  0.05835772  1
  O2-  O124  1  0.24770305  0.50149724  0.40098573  1
  O2-  O125  1  0.25165834  0.50110221  0.72470079  1
  O2-  O126  1  0.74806971  -0.00449675  0.06006779  1
  O2-  O127  1  0.75804354  -0.00055024  0.39391067  1
  O2-  O128  1  0.75677634  0.00252304  0.72704529  1
  O2-  O129  1  0.74691947  0.50187521  0.06144604  1
  O2-  O130  1  0.75160685  0.49676699  0.40197955  1
  O2-  O131  1  0.75360207  0.49326261  0.72386299  1
  O2-  O132  1  -0.00266410  0.25723426  0.27094518  1
  O2-  O133  1  0.00129719  0.24533202  0.60723274  1
  O2-  O134  1  -0.00070064  0.25590471  0.93996938  1
  O2-  O135  1  -0.00381111  0.74679108  0.26772183  1
  O2-  O136  1  0.00855583  0.74936741  0.60801235  1
  O2-  O137  1  -0.00056558  0.73977272  0.93882370  1
  O2-  O138  1  0.50399373  0.25386641  0.27637116  1
  O2-  O139  1  0.50438867  0.24537824  0.60393628  1
  O2-  O140  1  0.50385591  0.25990018  0.94042750  1
  O2-  O141  1  0.50106600  0.74611473  0.27593519  1
  O2-  O142  1  0.49878105  0.75026227  0.60794828  1
  O2-  O143  1  0.49916133  0.75160875  0.93320548  1
  O2-  O144  1  0.07359036  0.17797033  0.09756275  1
  O2-  O145  1  0.06986993  0.18197950  0.43285982  1
  O2-  O146  1  0.07435329  0.18136739  0.75532257  1
  O2-  O147  1  0.07743704  0.67831356  0.08787243  1
  O2-  O148  1  0.07119944  0.68391128  0.43255472  1
  O2-  O149  1  0.07431345  0.67557220  0.75688761  1
  O2-  O150  1  0.57087016  0.17792854  0.09947268  1
  O2-  O151  1  0.56786376  0.17677448  0.42439889  1
  O2-  O152  1  0.57297355  0.17827527  0.75378292  1
  O2-  O153  1  0.56756302  0.68010182  0.09893449  1
  O2-  O154  1  0.56939229  0.67808591  0.42422424  1
  O2-  O155  1  0.56878501  0.67709033  0.75466413  1
  O2-  O156  1  0.18562011  0.42326524  0.23744249  1
  O2-  O157  1  0.18155670  0.42957911  0.57737630  1
  O2-  O158  1  0.18221184  0.42790932  0.89904789  1
  O2-  O159  1  0.17954147  0.93141361  0.23121810  1
  O2-  O160  1  0.17741835  0.92550056  0.57924692  1
  O2-  O161  1  0.18052632  0.93283388  0.90726955  1
  O2-  O162  1  0.67797639  0.42611575  0.23800894  1
  O2-  O163  1  0.67652675  0.43204945  0.57587840  1
  O2-  O164  1  0.68023306  0.42684022  0.89797307  1
  O2-  O165  1  0.67550126  0.93563784  0.23086743  1
  O2-  O166  1  0.67859964  0.92857029  0.56982799  1
  O2-  O167  1  0.67908159  0.93097219  0.91014811  1
  O2-  O168  1  0.42661367  0.31644658  0.09103988  1
  O2-  O169  1  0.42909568  0.31955296  0.42285487  1
  O2-  O170  1  0.43105272  0.32003131  0.76530740  1
  O2-  O171  1  0.42493537  0.82249007  0.09615165  1
  O2-  O172  1  0.43175899  0.82421977  0.43692375  1
  O2-  O173  1  0.42861783  0.81839236  0.75645659  1
  O2-  O174  1  0.93031498  0.31944232  0.09261758  1
  O2-  O175  1  0.92543691  0.31710484  0.42143083  1
  O2-  O176  1  0.93102322  0.32474224  0.76729688  1
  O2-  O177  1  0.93210265  0.82223741  0.09878680  1
  O2-  O178  1  0.92740442  0.81996376  0.43138656  1
  O2-  O179  1  0.92838814  0.81771611  0.76518808  1
  O2-  O180  1  0.32653362  0.07185047  0.24207439  1
  O2-  O181  1  0.31754905  0.06923816  0.56794053  1
  O2-  O182  1  0.31976939  0.07311537  0.91050743  1
  O2-  O183  1  0.32088919  0.56969443  0.23430897  1
  O2-  O184  1  0.32455885  0.57430846  0.57931604  1
  O2-  O185  1  0.31997012  0.57251404  0.90898910  1
  O2-  O186  1  0.82215795  0.07353310  0.24539363  1
  O2-  O187  1  0.82031211  0.07558009  0.57701153  1
  O2-  O188  1  0.82268148  0.06860091  0.89891189  1
  O2-  O189  1  0.81517727  0.57325173  0.23782234  1
  O2-  O190  1  0.81993970  0.56877493  0.57738058  1
  O2-  O191  1  0.82052565  0.57099790  0.90046059  1
  O2-  O192  1  0.04015006  0.08656093  0.26374379  1
  O2-  O193  1  0.05127857  0.08398710  0.60468373  1
  O2-  O194  1  0.04064448  0.08563622  0.92634029  1
  O2-  O195  1  0.04885222  0.57534713  0.27120073  1
  O2-  O196  1  0.04791857  0.58523010  0.60427017  1
  O2-  O197  1  0.04966210  0.57873895  0.94035980  1
  O2-  O198  1  0.53937347  0.09075435  0.26828998  1
  O2-  O199  1  0.54143963  0.08114652  0.60603570  1
  O2-  O200  1  0.54044151  0.08803961  0.92762834  1
  O2-  O201  1  0.54496754  0.58283864  0.27343039  1
  O2-  O202  1  0.54145780  0.58770820  0.60136481  1
  O2-  O203  1  0.53956367  0.58049880  0.92989037  1
  O2-  O204  1  0.16912367  0.21069153  0.26569420  1
  O2-  O205  1  0.16512172  0.20793664  0.60320247  1
  O2-  O206  1  0.16939403  0.21059494  0.93089487  1
  O2-  O207  1  0.16827050  0.70833953  0.26547961  1
  O2-  O208  1  0.17039678  0.70078960  0.60766802  1
  O2-  O209  1  0.16260497  0.70352264  0.93185725  1
  O2-  O210  1  0.66473239  0.20366028  0.27393342  1
  O2-  O211  1  0.66519150  0.19730036  0.60051023  1
  O2-  O212  1  0.67217177  0.20809020  0.93092878  1
  O2-  O213  1  0.66298706  0.70418115  0.27281841  1
  O2-  O214  1  0.66121669  0.70718963  0.60301046  1
  O2-  O215  1  0.66645418  0.70672750  0.92827029  1
  O2-  O216  1  0.08442265  0.45186508  0.07010758  1
  O2-  O217  1  0.07857073  0.44738028  0.40204464  1
  O2-  O218  1  0.08874741  0.45857072  0.72955370  1
  O2-  O219  1  0.09013826  0.96273423  0.05901021  1
  O2-  O220  1  0.08352306  0.96511775  0.40046906  1
  O2-  O221  1  0.08005218  0.95051872  0.72799185  1
  O2-  O222  1  0.57633526  0.45234724  0.06334340  1
  O2-  O223  1  0.58046907  0.45599410  0.40491176  1
  O2-  O224  1  0.58739808  0.45956153  0.72791702  1
  O2-  O225  1  0.58252899  0.95883196  0.05809778  1
  O2-  O226  1  0.58513345  0.96738217  0.40105151  1
  O2-  O227  1  0.58502033  0.95720282  0.73908473  1
  O2-  O228  1  0.21621383  0.33231036  0.06649694  1
  O2-  O229  1  0.21411350  0.32992079  0.40516842  1
  O2-  O230  1  0.20941157  0.33841230  0.72912261  1
  O2-  O231  1  0.20321801  0.83551486  0.05728711  1
  O2-  O232  1  0.20801406  0.83589017  0.40237739  1
  O2-  O233  1  0.20343146  0.83365293  0.73241944  1
  O2-  O234  1  0.70566701  0.33017043  0.06636413  1
  O2-  O235  1  0.70379779  0.32741568  0.40580089  1
  O2-  O236  1  0.70051437  0.33214715  0.72197592  1
  O2-  O237  1  0.69846910  0.83455213  0.05890113  1
  O2-  O238  1  0.70296729  0.83399585  0.40031171  1
  O2-  O239  1  0.71174932  0.83027913  0.73625087  1
  O2-  O240  1  0.45607269  0.41528007  0.27204079  1
  O2-  O241  1  0.45997936  0.41644310  0.59687755  1
  O2-  O242  1  0.44289847  0.41732060  0.94151616  1
  O2-  O243  1  0.46082184  0.91842421  0.26754416  1
  O2-  O244  1  0.45732888  0.91428482  0.60802418  1
  O2-  O245  1  0.45352366  0.92117897  0.92855565  1
  O2-  O246  1  0.94491264  0.41864069  0.27480381  1
  O2-  O247  1  0.96177175  0.41728622  0.59820250  1
  O2-  O248  1  0.95525059  0.41715215  0.94286753  1
  O2-  O249  1  0.95519805  0.92046135  0.26800177  1
  O2-  O250  1  0.95219481  0.91818309  0.59793177  1
  O2-  O251  1  0.96592604  0.91276764  0.92856857  1
  O2-  O252  1  0.34024053  0.29238303  0.26871072  1
  O2-  O253  1  0.33394082  0.28745339  0.59780985  1
  O2-  O254  1  0.33928892  0.28561862  0.93616562  1
  O2-  O255  1  0.33239899  0.79374202  0.26990137  1
  O2-  O256  1  0.33538740  0.79442221  0.60689360  1
  O2-  O257  1  0.32836895  0.79446652  0.92565219  1
  O2-  O258  1  0.83154047  0.29345820  0.27127291  1
  O2-  O259  1  0.83247861  0.29333944  0.59704422  1
  O2-  O260  1  0.83747802  0.29512814  0.94016154  1
  O2-  O261  1  0.82589663  0.79392437  0.26709378  1
  O2-  O262  1  0.83272118  0.78373765  0.59983685  1
  O2-  O263  1  0.83224443  0.79287410  0.93117311  1
  O2-  O264  1  0.41649520  0.04658395  0.06015478  1
  O2-  O265  1  0.41598569  0.04649938  0.39671230  1
  O2-  O266  1  0.41370299  0.04027399  0.73765438  1
  O2-  O267  1  0.41354555  0.55018729  0.06205685  1
  O2-  O268  1  0.41680147  0.54369856  0.40340279  1
  O2-  O269  1  0.41536603  0.54058616  0.73058414  1
  O2-  O270  1  0.92087047  0.03731612  0.06433932  1
  O2-  O271  1  0.91813526  0.05122721  0.39676507  1
  O2-  O272  1  0.91874496  0.05128775  0.72532036  1
  O2-  O273  1  0.91838533  0.54875342  0.06968556  1
  O2-  O274  1  0.91916095  0.54667895  0.40516936  1
  O2-  O275  1  0.91479431  0.54405723  0.72809200  1
  O2-  O276  1  0.29204619  0.15998377  0.06508760  1
  O2-  O277  1  0.29714120  0.16532194  0.39372273  1
  O2-  O278  1  0.28842185  0.16746431  0.73653037  1
  O2-  O279  1  0.29550609  0.66992272  0.05760728  1
  O2-  O280  1  0.29139489  0.67016851  0.40344415  1
  O2-  O281  1  0.29749516  0.66311596  0.73353042  1
  O2-  O282  1  0.79406256  0.16443937  0.06882028  1
  O2-  O283  1  0.79382587  0.16310758  0.39921541  1
  O2-  O284  1  0.79472943  0.16714747  0.72890814  1
  O2-  O285  1  0.78986144  0.67298720  0.06576116  1
  O2-  O286  1  0.78711960  0.66823097  0.40649641  1
  O2-  O287  1  0.78792753  0.65797462  0.72928346  1
