# generated using pymatgen
data_Ca2Al2SiO7
_symmetry_space_group_name_H-M   'P 1'
_cell_length_a   15.45708849
_cell_length_b   15.45632319
_cell_length_c   15.28320635
_cell_angle_alpha   89.99982215
_cell_angle_beta   90.00851461
_cell_angle_gamma   89.99794778
_symmetry_Int_Tables_number   1
_chemical_formula_structural   Ca2Al2SiO7
_chemical_formula_sum   'Ca48 Al48 Si24 O168'
_cell_volume   3651.30704639
_cell_formula_units_Z   24
loop_
 _symmetry_equiv_pos_site_id
 _symmetry_equiv_pos_as_xyz
  1  'x, y, z'
loop_
 _atom_type_symbol
 _atom_type_oxidation_number
  Ca2+  2.0
  Al0+  0.0
  Si0+  0.0
  O2-  -2.0
loop_
 _atom_site_type_symbol
 _atom_site_label
 _atom_site_symmetry_multiplicity
 _atom_site_fract_x
 _atom_site_fract_y
 _atom_site_fract_z
 _atom_site_occupancy
  Ca2+  Ca0  1  0.17209608  0.08930961  0.17374166  1
  Ca2+  Ca1  1  0.16579924  0.07902502  0.49946183  1
  Ca2+  Ca2  1  0.16987172  0.08171856  0.83921921  1
  Ca2+  Ca3  1  0.16842819  0.57940876  0.17060740  1
  Ca2+  Ca4  1  0.16468557  0.57810765  0.51156189  1
  Ca2+  Ca5  1  0.15735382  0.57753365  0.83245113  1
  Ca2+  Ca6  1  0.66836559  0.07760961  0.16704549  1
  Ca2+  Ca7  1  0.66354529  0.07181305  0.50731201  1
  Ca2+  Ca8  1  0.66719453  0.07522171  0.84336422  1
  Ca2+  Ca9  1  0.67540194  0.58192149  0.16578126  1
  Ca2+  Ca10  1  0.67276105  0.58431642  0.50328710  1
  Ca2+  Ca11  1  0.67045982  0.57926921  0.84438877  1
  Ca2+  Ca12  1  0.07842150  0.31989228  0.15978308  1
  Ca2+  Ca13  1  0.08201658  0.33069979  0.49763492  1
  Ca2+  Ca14  1  0.07250487  0.32958310  0.82965230  1
  Ca2+  Ca15  1  0.07639821  0.83982106  0.16717094  1
  Ca2+  Ca16  1  0.07484762  0.84225656  0.49544713  1
  Ca2+  Ca17  1  0.07552304  0.82891661  0.82067447  1
  Ca2+  Ca18  1  0.57788946  0.33031235  0.15768059  1
  Ca2+  Ca19  1  0.57698246  0.32306153  0.49571198  1
  Ca2+  Ca20  1  0.59680319  0.31706072  0.83283754  1
  Ca2+  Ca21  1  0.59149132  0.83199022  0.16068683  1
  Ca2+  Ca22  1  0.59307202  0.83057384  0.49857310  1
  Ca2+  Ca23  1  0.59370716  0.82567143  0.82819100  1
  Ca2+  Ca24  1  0.33568777  0.41457372  0.17270350  1
  Ca2+  Ca25  1  0.32851980  0.41366568  0.50417157  1
  Ca2+  Ca26  1  0.32619868  0.41501150  0.83365018  1
  Ca2+  Ca27  1  0.32702219  0.93189806  0.17395203  1
  Ca2+  Ca28  1  0.32108375  0.92107098  0.50416056  1
  Ca2+  Ca29  1  0.32560269  0.91994343  0.83762744  1
  Ca2+  Ca30  1  0.83396636  0.42305000  0.16476177  1
  Ca2+  Ca31  1  0.84189126  0.42434550  0.50472396  1
  Ca2+  Ca32  1  0.83400014  0.42126095  0.84479841  1
  Ca2+  Ca33  1  0.82473895  0.91821322  0.16931940  1
  Ca2+  Ca34  1  0.82884020  0.91155883  0.50357530  1
  Ca2+  Ca35  1  0.82571204  0.91884811  0.83828946  1
  Ca2+  Ca36  1  0.41623990  0.16581578  0.16205901  1
  Ca2+  Ca37  1  0.41739367  0.16688878  0.49564138  1
  Ca2+  Ca38  1  0.42832471  0.15825641  0.83377195  1
  Ca2+  Ca39  1  0.42563302  0.67316170  0.15727074  1
  Ca2+  Ca40  1  0.42431533  0.66692954  0.49896016  1
  Ca2+  Ca41  1  0.43164803  0.66724352  0.82893225  1
  Ca2+  Ca42  1  0.92683277  0.16384242  0.15576106  1
  Ca2+  Ca43  1  0.92228080  0.17271696  0.49524459  1
  Ca2+  Ca44  1  0.90637846  0.17769828  0.83338345  1
  Ca2+  Ca45  1  0.90599310  0.66999836  0.16679889  1
  Ca2+  Ca46  1  0.91946782  0.67778212  0.49829855  1
  Ca2+  Ca47  1  0.91565403  0.67306750  0.82497877  1
  Al0+  Al48  1  -0.00032373  -0.00223542  -0.00348212  1
  Al0+  Al49  1  -0.00143580  0.00029178  0.32654135  1
  Al0+  Al50  1  -0.00043575  0.00281564  0.66832724  1
  Al0+  Al51  1  0.00089603  0.50018534  0.00405157  1
  Al0+  Al52  1  0.00016217  0.50145581  0.33699542  1
  Al0+  Al53  1  0.00080236  0.50038010  0.66473509  1
  Al0+  Al54  1  0.49492541  -0.00044383  0.00443689  1
  Al0+  Al55  1  0.49967861  -0.00109086  0.34205786  1
  Al0+  Al56  1  0.50071066  -0.00183433  0.66689264  1
  Al0+  Al57  1  0.49882678  0.50142403  -0.00159170  1
  Al0+  Al58  1  0.50113217  0.49887228  0.32995756  1
  Al0+  Al59  1  0.50048885  0.49956480  0.66222331  1
  Al0+  Al60  1  0.24878685  0.24981167  -0.00158951  1
  Al0+  Al61  1  0.25113729  0.25146419  0.33045413  1
  Al0+  Al62  1  0.25021380  0.25153594  0.67355486  1
  Al0+  Al63  1  0.24974767  0.74912854  -0.00039744  1
  Al0+  Al64  1  0.25136958  0.74956986  0.33588678  1
  Al0+  Al65  1  0.25291599  0.74909957  0.66950853  1
  Al0+  Al66  1  0.74912120  0.25015761  0.00280745  1
  Al0+  Al67  1  0.74847523  0.25080585  0.33289634  1
  Al0+  Al68  1  0.74960744  0.25076449  0.65276216  1
  Al0+  Al69  1  0.75020274  0.74849367  0.00181497  1
  Al0+  Al70  1  0.75242907  0.74812614  0.33716140  1
  Al0+  Al71  1  0.75095786  0.74952765  0.66232242  1
  Al0+  Al72  1  0.17694236  0.92878713  0.68100038  1
  Al0+  Al73  1  0.06841772  0.18097037  0.32053642  1
  Al0+  Al74  1  0.82275866  0.57087547  0.01439634  1
  Al0+  Al75  1  0.82040365  0.56854643  0.35080172  1
  Al0+  Al76  1  0.67820749  0.92865888  0.01403185  1
  Al0+  Al77  1  0.32026150  0.07382909  0.35058733  1
  Al0+  Al78  1  0.67658818  0.42722194  0.01388145  1
  Al0+  Al79  1  0.93011161  0.82352098  0.65173265  1
  Al0+  Al80  1  0.57146700  0.67841375  0.65134204  1
  Al0+  Al81  1  0.92934712  0.81927635  0.31719418  1
  Al0+  Al82  1  0.68111582  0.92886007  0.68122021  1
  Al0+  Al83  1  0.57142511  0.68109017  0.98704017  1
  Al0+  Al84  1  0.07215036  0.17643250  0.98210021  1
  Al0+  Al85  1  0.31788521  0.07093242  0.01368470  1
  Al0+  Al86  1  0.92923778  0.32119998  0.98696203  1
  Al0+  Al87  1  0.57077629  0.17671041  0.65233582  1
  Al0+  Al88  1  0.92921612  0.32140670  0.65182654  1
  Al0+  Al89  1  0.82212699  0.07190053  0.01401264  1
  Al0+  Al90  1  0.68116685  0.93005067  0.34864003  1
  Al0+  Al91  1  0.17866707  0.43019184  0.68167125  1
  Al0+  Al92  1  0.07262821  0.67952893  0.65292063  1
  Al0+  Al93  1  0.17694196  0.92897623  0.34742375  1
  Al0+  Al94  1  0.56908051  0.17836992  0.98921716  1
  Al0+  Al95  1  0.43093738  0.31964449  0.31987604  1
  Si0+  Si96  1  0.81938662  0.56875072  0.68101511  1
  Si0+  Si97  1  0.32177181  0.07177241  0.68493145  1
  Si0+  Si98  1  0.42688038  0.32409970  0.98133581  1
  Si0+  Si99  1  0.57077742  0.68047128  0.31751567  1
  Si0+  Si100  1  0.32553924  0.57181895  0.68448106  1
  Si0+  Si101  1  0.17720066  0.92493978  0.01598482  1
  Si0+  Si102  1  0.92869203  0.81882776  0.98496144  1
  Si0+  Si103  1  0.17968209  0.42997179  0.01656447  1
  Si0+  Si104  1  0.82277192  0.07456313  0.34946912  1
  Si0+  Si105  1  0.32110934  0.57141320  0.01489166  1
  Si0+  Si106  1  0.42741580  0.82127711  0.31908884  1
  Si0+  Si107  1  0.42804571  0.82207655  0.64903464  1
  Si0+  Si108  1  0.67776454  0.42790090  0.67855538  1
  Si0+  Si109  1  0.07361528  0.67870074  0.98626836  1
  Si0+  Si110  1  0.92673049  0.32549071  0.31601190  1
  Si0+  Si111  1  0.07476731  0.17949439  0.65050669  1
  Si0+  Si112  1  0.42687785  0.32054807  0.65144843  1
  Si0+  Si113  1  0.32390280  0.57161740  0.34783453  1
  Si0+  Si114  1  0.67569823  0.42748508  0.35186078  1
  Si0+  Si115  1  0.82121687  0.07625721  0.68082892  1
  Si0+  Si116  1  0.07443263  0.67653335  0.31653749  1
  Si0+  Si117  1  0.57159670  0.17457240  0.31622241  1
  Si0+  Si118  1  0.42586984  0.82157035  0.98330637  1
  Si0+  Si119  1  0.18115535  0.43098866  0.34725666  1
  O2-  O120  1  0.24015278  -0.00118410  0.05952219  1
  O2-  O121  1  0.24814213  0.00107173  0.39869983  1
  O2-  O122  1  0.25147651  0.00382736  0.72781208  1
  O2-  O123  1  0.25276058  0.49911739  0.05904835  1
  O2-  O124  1  0.24996053  0.50414419  0.39013054  1
  O2-  O125  1  0.25259661  0.50687502  0.72810590  1
  O2-  O126  1  0.74862475  0.00165833  0.06470423  1
  O2-  O127  1  0.75256511  0.00824080  0.39503206  1
  O2-  O128  1  0.75454229  0.00563361  0.72544238  1
  O2-  O129  1  0.75042718  0.49798169  0.06306311  1
  O2-  O130  1  0.74888335  0.49035488  0.39755098  1
  O2-  O131  1  0.74853165  0.49773883  0.72269693  1
  O2-  O132  1  -0.01000230  0.25195585  0.27315366  1
  O2-  O133  1  0.00470587  0.24685741  0.60632973  1
  O2-  O134  1  -0.00337033  0.24608464  0.93409906  1
  O2-  O135  1  0.00772929  0.74636522  0.27138257  1
  O2-  O136  1  0.00820297  0.75715529  0.60178923  1
  O2-  O137  1  0.00258808  0.74939005  0.94483891  1
  O2-  O138  1  0.50463246  0.24512262  0.27249187  1
  O2-  O139  1  0.49379278  0.25053219  0.60750804  1
  O2-  O140  1  0.49769708  0.25651457  0.93954633  1
  O2-  O141  1  0.50053968  0.75261772  0.27574618  1
  O2-  O142  1  0.49771916  0.75410946  0.60426022  1
  O2-  O143  1  0.49899110  0.75755325  0.93924232  1
  O2-  O144  1  0.07446366  0.18086411  0.09590378  1
  O2-  O145  1  0.06885112  0.18462256  0.43403837  1
  O2-  O146  1  0.07663928  0.18145634  0.75562140  1
  O2-  O147  1  0.07870380  0.67963826  0.09125090  1
  O2-  O148  1  0.07432167  0.67361909  0.42159788  1
  O2-  O149  1  0.06615453  0.67779017  0.76700822  1
  O2-  O150  1  0.56484620  0.17823760  0.10212117  1
  O2-  O151  1  0.57022216  0.17624017  0.42208426  1
  O2-  O152  1  0.57174649  0.17708798  0.76547868  1
  O2-  O153  1  0.56858305  0.68153703  0.10062394  1
  O2-  O154  1  0.56835893  0.67918501  0.42281451  1
  O2-  O155  1  0.57118307  0.67675604  0.76427127  1
  O2-  O156  1  0.18269826  0.43317567  0.24193742  1
  O2-  O157  1  0.18209198  0.42960149  0.56807160  1
  O2-  O158  1  0.17873805  0.43274623  0.91156282  1
  O2-  O159  1  0.18046622  0.92795651  0.23377266  1
  O2-  O160  1  0.17826516  0.93129412  0.56815575  1
  O2-  O161  1  0.18125852  0.92054963  0.91044768  1
  O2-  O162  1  0.67223726  0.43033963  0.24676263  1
  O2-  O163  1  0.67746506  0.43080168  0.57334100  1
  O2-  O164  1  0.67703653  0.42946577  0.89960013  1
  O2-  O165  1  0.68112279  0.92897790  0.23576309  1
  O2-  O166  1  0.68270005  0.92892967  0.56796808  1
  O2-  O167  1  0.68147863  0.92673974  0.90045168  1
  O2-  O168  1  0.42610593  0.32476613  0.08716711  1
  O2-  O169  1  0.43173458  0.32149418  0.43312022  1
  O2-  O170  1  0.42607483  0.32203957  0.75666145  1
  O2-  O171  1  0.42159967  0.81673615  0.08894985  1
  O2-  O172  1  0.42550996  0.81683077  0.42395974  1
  O2-  O173  1  0.42787349  0.82077594  0.75469480  1
  O2-  O174  1  0.93532846  0.32415151  0.10044248  1
  O2-  O175  1  0.93113641  0.32672272  0.42183874  1
  O2-  O176  1  0.92701426  0.32268188  0.76448458  1
  O2-  O177  1  0.92846929  0.81792193  0.09016407  1
  O2-  O178  1  0.92892343  0.81807268  0.42993205  1
  O2-  O179  1  0.92751733  0.81900708  0.76567117  1
  O2-  O180  1  0.31918870  0.07343169  0.23702153  1
  O2-  O181  1  0.32089990  0.07313492  0.57947868  1
  O2-  O182  1  0.31917303  0.06726267  0.90041335  1
  O2-  O183  1  0.32402927  0.57088578  0.24242039  1
  O2-  O184  1  0.32804623  0.56870612  0.57856981  1
  O2-  O185  1  0.32009859  0.57202699  0.91013240  1
  O2-  O186  1  0.82146393  0.07388118  0.24411407  1
  O2-  O187  1  0.81985908  0.07695989  0.57501325  1
  O2-  O188  1  0.82012727  0.07009109  0.90005561  1
  O2-  O189  1  0.81789586  0.56864711  0.23799050  1
  O2-  O190  1  0.81852099  0.56766974  0.57573971  1
  O2-  O191  1  0.82288822  0.57215527  0.90046516  1
  O2-  O192  1  0.04247154  0.08472400  0.26402087  1
  O2-  O193  1  0.04984750  0.08585361  0.60501575  1
  O2-  O194  1  0.05034385  0.07537019  0.93202663  1
  O2-  O195  1  0.04686598  0.58301595  0.27000152  1
  O2-  O196  1  0.04010780  0.58341016  0.59817103  1
  O2-  O197  1  0.04645908  0.58614539  0.94094866  1
  O2-  O198  1  0.54444962  0.08044829  0.27297206  1
  O2-  O199  1  0.53975962  0.08021778  0.59847819  1
  O2-  O200  1  0.53399268  0.08229711  0.93529694  1
  O2-  O201  1  0.54105623  0.58916645  0.27032471  1
  O2-  O202  1  0.53847200  0.58288642  0.59495599  1
  O2-  O203  1  0.53691200  0.58562556  0.93235387  1
  O2-  O204  1  0.16355032  0.21695809  0.26668929  1
  O2-  O205  1  0.16815691  0.20829909  0.60532570  1
  O2-  O206  1  0.16912732  0.21004744  0.92899303  1
  O2-  O207  1  0.17026306  0.69796446  0.27171018  1
  O2-  O208  1  0.17643110  0.69511205  0.60653366  1
  O2-  O209  1  0.16502815  0.70471724  0.93621965  1
  O2-  O210  1  0.66681711  0.19839684  0.27236448  1
  O2-  O211  1  0.66305014  0.20982028  0.59176787  1
  O2-  O212  1  0.66632457  0.20631996  0.93488786  1
  O2-  O213  1  0.66290646  0.70845903  0.27261895  1
  O2-  O214  1  0.66684477  0.70920233  0.59573029  1
  O2-  O215  1  0.66849052  0.70879858  0.93266375  1
  O2-  O216  1  0.09088973  0.46100925  0.06731028  1
  O2-  O217  1  0.08911459  0.45632705  0.39527304  1
  O2-  O218  1  0.08268258  0.46298242  0.73619644  1
  O2-  O219  1  0.08113232  0.94414996  0.05800317  1
  O2-  O220  1  0.07750488  0.95835190  0.39712254  1
  O2-  O221  1  0.08010184  0.95785046  0.73575080  1
  O2-  O222  1  0.57784469  0.45825687  0.06625102  1
  O2-  O223  1  0.58397842  0.45926522  0.39926359  1
  O2-  O224  1  0.58548294  0.45441392  0.72517837  1
  O2-  O225  1  0.57796597  0.95195081  0.06521988  1
  O2-  O226  1  0.58377132  0.95520380  0.40427027  1
  O2-  O227  1  0.58232989  0.95524084  0.73303630  1
  O2-  O228  1  0.20723247  0.33801474  0.06287888  1
  O2-  O229  1  0.21233968  0.34119878  0.39527348  1
  O2-  O230  1  0.21079264  0.33561483  0.73907757  1
  O2-  O231  1  0.20726138  0.83295941  0.06400326  1
  O2-  O232  1  0.20566095  0.82962316  0.39982172  1
  O2-  O233  1  0.20869907  0.83148812  0.73451479  1
  O2-  O234  1  0.70081013  0.32965605  0.06935236  1
  O2-  O235  1  0.69461324  0.33092730  0.39530298  1
  O2-  O236  1  0.70606378  0.33434642  0.72129685  1
  O2-  O237  1  0.71018181  0.83161026  0.06746528  1
  O2-  O238  1  0.71450458  0.83378941  0.40171615  1
  O2-  O239  1  0.71343816  0.83113222  0.73264209  1
  O2-  O240  1  0.46070755  0.41663944  0.26380989  1
  O2-  O241  1  0.45306183  0.41319561  0.60317323  1
  O2-  O242  1  0.44758268  0.41903975  0.93604130  1
  O2-  O243  1  0.45360282  0.91486251  0.27512844  1
  O2-  O244  1  0.45176456  0.91560194  0.60296524  1
  O2-  O245  1  0.44501801  0.91671029  0.93955070  1
  O2-  O246  1  0.95778937  0.41783097  0.27070461  1
  O2-  O247  1  0.96368901  0.41640310  0.59716627  1
  O2-  O248  1  0.96269194  0.41954406  0.93480075  1
  O2-  O249  1  0.95655606  0.91577280  0.26119177  1
  O2-  O250  1  0.95228303  0.92463795  0.60108271  1
  O2-  O251  1  0.95342385  0.91026657  0.93594142  1
  O2-  O252  1  0.33437056  0.29288842  0.26400152  1
  O2-  O253  1  0.33260422  0.29556544  0.60561470  1
  O2-  O254  1  0.33355480  0.29715830  0.93577955  1
  O2-  O255  1  0.33712817  0.79106337  0.26927481  1
  O2-  O256  1  0.33532732  0.79430527  0.60206630  1
  O2-  O257  1  0.33473367  0.78927855  0.93449324  1
  O2-  O258  1  0.82933637  0.30747451  0.27500744  1
  O2-  O259  1  0.83507137  0.29343798  0.59128960  1
  O2-  O260  1  0.82869354  0.29845582  0.93572638  1
  O2-  O261  1  0.83399607  0.78193052  0.26423123  1
  O2-  O262  1  0.83532582  0.78707946  0.59672158  1
  O2-  O263  1  0.83860961  0.78750029  0.93699719  1
  O2-  O264  1  0.41140071  0.03804845  0.07202816  1
  O2-  O265  1  0.41745867  0.04437868  0.40483510  1
  O2-  O266  1  0.41474049  0.04257561  0.73029160  1
  O2-  O267  1  0.41269572  0.54624055  0.06381137  1
  O2-  O268  1  0.41457435  0.54018505  0.39555994  1
  O2-  O269  1  0.41732668  0.53978085  0.73167744  1
  O2-  O270  1  0.92093446  0.04044192  0.06535305  1
  O2-  O271  1  0.91614791  0.04744776  0.39405203  1
  O2-  O272  1  0.91604040  0.05670752  0.72643752  1
  O2-  O273  1  0.92095228  0.54475971  0.07025137  1
  O2-  O274  1  0.91857154  0.54111379  0.40464970  1
  O2-  O275  1  0.91145823  0.54145033  0.72717671  1
  O2-  O276  1  0.29078260  0.16951133  0.06632921  1
  O2-  O277  1  0.29140851  0.17288288  0.40230110  1
  O2-  O278  1  0.29875812  0.16554350  0.73184500  1
  O2-  O279  1  0.29101959  0.66231010  0.06398999  1
  O2-  O280  1  0.30075633  0.66373495  0.39630321  1
  O2-  O281  1  0.30733429  0.66657865  0.73044814  1
  O2-  O282  1  0.79812594  0.17040406  0.06776312  1
  O2-  O283  1  0.80131146  0.17031681  0.39466662  1
  O2-  O284  1  0.79133331  0.17024288  0.72401506  1
  O2-  O285  1  0.79002479  0.66670498  0.06955875  1
  O2-  O286  1  0.78576664  0.66292196  0.40579640  1
  O2-  O287  1  0.79082890  0.66072889  0.72668610  1
