# generated using pymatgen
data_Ca2Al2SiO7
_symmetry_space_group_name_H-M   'P 1'
_cell_length_a   15.45495412
_cell_length_b   15.45543339
_cell_length_c   15.28130529
_cell_angle_alpha   89.98742926
_cell_angle_beta   89.99563758
_cell_angle_gamma   89.98587159
_symmetry_Int_Tables_number   1
_chemical_formula_structural   Ca2Al2SiO7
_chemical_formula_sum   'Ca48 Al48 Si24 O168'
_cell_volume   3650.13843110
_cell_formula_units_Z   24
loop_
 _symmetry_equiv_pos_site_id
 _symmetry_equiv_pos_as_xyz
  1  'x, y, z'
loop_
 _atom_type_symbol
 _atom_type_oxidation_number
  Ca2+  2.0
  Al0+  0.0
  Si0+  0.0
  O2-  -2.0
loop_
 _atom_site_type_symbol
 _atom_site_label
 _atom_site_symmetry_multiplicity
 _atom_site_fract_x
 _atom_site_fract_y
 _atom_site_fract_z
 _atom_site_occupancy
  Ca2+  Ca0  1  0.16708779  0.08545166  0.17399500  1
  Ca2+  Ca1  1  0.17761881  0.08949593  0.50192757  1
  Ca2+  Ca2  1  0.17070197  0.08192124  0.83785342  1
  Ca2+  Ca3  1  0.17011340  0.58319071  0.17190840  1
  Ca2+  Ca4  1  0.15624135  0.57219811  0.50376696  1
  Ca2+  Ca5  1  0.16537596  0.58164378  0.83930257  1
  Ca2+  Ca6  1  0.66892223  0.08720674  0.16517587  1
  Ca2+  Ca7  1  0.66613038  0.07443245  0.50893496  1
  Ca2+  Ca8  1  0.66864498  0.07725342  0.84214789  1
  Ca2+  Ca9  1  0.67819695  0.58953695  0.17276108  1
  Ca2+  Ca10  1  0.67617336  0.59361416  0.50382501  1
  Ca2+  Ca11  1  0.67642159  0.59289831  0.83673102  1
  Ca2+  Ca12  1  0.08517196  0.32601478  0.16996609  1
  Ca2+  Ca13  1  0.08311301  0.33459167  0.48957452  1
  Ca2+  Ca14  1  0.08715736  0.33086757  0.83202241  1
  Ca2+  Ca15  1  0.07988462  0.82094600  0.15728444  1
  Ca2+  Ca16  1  0.08533141  0.81779136  0.49639642  1
  Ca2+  Ca17  1  0.07744702  0.81988265  0.83245261  1
  Ca2+  Ca18  1  0.57070697  0.33048690  0.15872656  1
  Ca2+  Ca19  1  0.57337194  0.33266941  0.49183176  1
  Ca2+  Ca20  1  0.58013519  0.33052508  0.83569886  1
  Ca2+  Ca21  1  0.57636677  0.82858219  0.16430825  1
  Ca2+  Ca22  1  0.58506987  0.82702443  0.50344867  1
  Ca2+  Ca23  1  0.57500023  0.83176575  0.82570939  1
  Ca2+  Ca24  1  0.33176879  0.41641949  0.17099037  1
  Ca2+  Ca25  1  0.32076860  0.41217521  0.50237857  1
  Ca2+  Ca26  1  0.32919691  0.42452430  0.83993300  1
  Ca2+  Ca27  1  0.33434939  0.92233604  0.17049808  1
  Ca2+  Ca28  1  0.33922258  0.92859470  0.50600554  1
  Ca2+  Ca29  1  0.34000011  0.91743116  0.83701248  1
  Ca2+  Ca30  1  0.83790868  0.42594731  0.17250923  1
  Ca2+  Ca31  1  0.84009860  0.42729556  0.50141287  1
  Ca2+  Ca32  1  0.83101296  0.42839742  0.83872107  1
  Ca2+  Ca33  1  0.84040959  0.92021555  0.16466486  1
  Ca2+  Ca34  1  0.82628849  0.91630947  0.50582271  1
  Ca2+  Ca35  1  0.82731221  0.91507701  0.84210335  1
  Ca2+  Ca36  1  0.41398532  0.17826634  0.16216290  1
  Ca2+  Ca37  1  0.41102202  0.16824880  0.49366025  1
  Ca2+  Ca38  1  0.41732506  0.16962586  0.83255113  1
  Ca2+  Ca39  1  0.42095910  0.66659189  0.15689549  1
  Ca2+  Ca40  1  0.43030466  0.66825415  0.49516531  1
  Ca2+  Ca41  1  0.41530740  0.67774932  0.82637484  1
  Ca2+  Ca42  1  0.92563029  0.16898147  0.15772898  1
  Ca2+  Ca43  1  0.92511888  0.17822883  0.48735656  1
  Ca2+  Ca44  1  0.92090967  0.16220052  0.83460282  1
  Ca2+  Ca45  1  0.92584193  0.66296701  0.16174596  1
  Ca2+  Ca46  1  0.92284859  0.65851063  0.49571377  1
  Ca2+  Ca47  1  0.92191668  0.65917698  0.83075032  1
  Al0+  Al48  1  -0.00062632  -0.00129997  -0.00428150  1
  Al0+  Al49  1  0.00062773  -0.00145536  0.33562587  1
  Al0+  Al50  1  0.00295518  0.00035808  0.66374426  1
  Al0+  Al51  1  0.00004958  0.49647196  0.00219212  1
  Al0+  Al52  1  0.00055164  0.50033888  0.33178852  1
  Al0+  Al53  1  -0.00078530  0.49788322  0.67337532  1
  Al0+  Al54  1  0.50032158  -0.00008779  -0.00323415  1
  Al0+  Al55  1  0.50096029  -0.00046107  0.33813083  1
  Al0+  Al56  1  0.50103183  0.00162239  0.67209970  1
  Al0+  Al57  1  0.49934522  0.49960713  -0.00167503  1
  Al0+  Al58  1  0.50177720  0.50065242  0.32479476  1
  Al0+  Al59  1  0.49969503  0.49886684  0.66175638  1
  Al0+  Al60  1  0.24943031  0.25030143  -0.00795497  1
  Al0+  Al61  1  0.25052141  0.25036371  0.33348323  1
  Al0+  Al62  1  0.24976798  0.24974231  0.67655399  1
  Al0+  Al63  1  0.24969251  0.74929044  -0.00294896  1
  Al0+  Al64  1  0.25131141  0.75108204  0.33151051  1
  Al0+  Al65  1  0.24876394  0.75165416  0.65498832  1
  Al0+  Al66  1  0.74966678  0.24882728  0.00057416  1
  Al0+  Al67  1  0.74960517  0.25174445  0.33188652  1
  Al0+  Al68  1  0.75010773  0.25193307  0.66511476  1
  Al0+  Al69  1  0.74921748  0.75148116  0.00568267  1
  Al0+  Al70  1  0.74937765  0.75126580  0.33357701  1
  Al0+  Al71  1  0.75015735  0.75206295  0.67344092  1
  Al0+  Al72  1  0.07036607  0.17817939  0.98466220  1
  Al0+  Al73  1  0.31963501  0.06923688  0.68374405  1
  Al0+  Al74  1  0.82040566  0.57093609  0.01639593  1
  Al0+  Al75  1  0.42869964  0.81993566  0.98776574  1
  Al0+  Al76  1  0.06861222  0.67674349  0.65200966  1
  Al0+  Al77  1  0.42843937  0.82424866  0.64921534  1
  Al0+  Al78  1  0.81944261  0.56986985  0.34752286  1
  Al0+  Al79  1  0.32002567  0.57203890  0.01198091  1
  Al0+  Al80  1  0.06993664  0.67564470  0.98513937  1
  Al0+  Al81  1  0.92794024  0.82016277  0.98554085  1
  Al0+  Al82  1  0.18270007  0.43243168  0.34500942  1
  Al0+  Al83  1  0.07115763  0.67877977  0.31943020  1
  Al0+  Al84  1  0.17939499  0.43063028  0.68203207  1
  Al0+  Al85  1  0.42755660  0.32302157  0.98161927  1
  Al0+  Al86  1  0.07108056  0.17836440  0.32013546  1
  Al0+  Al87  1  0.57147111  0.17950307  0.98492960  1
  Al0+  Al88  1  0.31884778  0.06935480  0.34480910  1
  Al0+  Al89  1  0.57168468  0.68042059  0.31794553  1
  Al0+  Al90  1  0.81840250  0.56904495  0.68098977  1
  Al0+  Al91  1  0.42894927  0.31970561  0.32134121  1
  Al0+  Al92  1  0.82151211  0.07009137  0.01385508  1
  Al0+  Al93  1  0.68161061  0.93096089  0.68244338  1
  Al0+  Al94  1  0.57256057  0.67876667  0.65281188  1
  Al0+  Al95  1  0.92781960  0.32239507  0.31773979  1
  Si0+  Si96  1  0.67580268  0.92900834  0.02053365  1
  Si0+  Si97  1  0.17891141  0.42575065  0.01882203  1
  Si0+  Si98  1  0.57248464  0.67806913  0.98450768  1
  Si0+  Si99  1  0.17909909  0.92943588  0.01353760  1
  Si0+  Si100  1  0.82406467  0.07471210  0.68107715  1
  Si0+  Si101  1  0.92678048  0.82226777  0.31820676  1
  Si0+  Si102  1  0.17675798  0.92530898  0.68366619  1
  Si0+  Si103  1  0.42946426  0.82395128  0.31716064  1
  Si0+  Si104  1  0.32098797  0.07110912  0.01484688  1
  Si0+  Si105  1  0.32603976  0.57521582  0.34961671  1
  Si0+  Si106  1  0.32353111  0.57332145  0.67853358  1
  Si0+  Si107  1  0.67997088  0.93108537  0.34950384  1
  Si0+  Si108  1  0.67741303  0.42699475  0.01742561  1
  Si0+  Si109  1  0.57165782  0.18045277  0.65163357  1
  Si0+  Si110  1  0.82307797  0.07328562  0.34847290  1
  Si0+  Si111  1  0.92711314  0.32104232  0.98186715  1
  Si0+  Si112  1  0.67428624  0.42522643  0.68294878  1
  Si0+  Si113  1  0.92796483  0.82322889  0.65022774  1
  Si0+  Si114  1  0.17604105  0.92487023  0.35093337  1
  Si0+  Si115  1  0.42736733  0.31946508  0.65116520  1
  Si0+  Si116  1  0.57278573  0.17520633  0.31888272  1
  Si0+  Si117  1  0.67543385  0.42722826  0.34931899  1
  Si0+  Si118  1  0.92927195  0.31985761  0.65280810  1
  Si0+  Si119  1  0.07265911  0.17923417  0.65135188  1
  O2-  O120  1  0.24952295  0.00096653  0.05718480  1
  O2-  O121  1  0.24447731  -0.00498263  0.39361941  1
  O2-  O122  1  0.24791339  -0.00906384  0.72924419  1
  O2-  O123  1  0.24657864  0.49667396  0.06057248  1
  O2-  O124  1  0.25572965  0.50835474  0.39415135  1
  O2-  O125  1  0.25240289  0.50850189  0.72499628  1
  O2-  O126  1  0.74645065  -0.00315765  0.06355461  1
  O2-  O127  1  0.75065589  0.00373595  0.39094808  1
  O2-  O128  1  0.75828001  0.00481822  0.72676289  1
  O2-  O129  1  0.74432910  0.49687625  0.06240342  1
  O2-  O130  1  0.74475793  0.49459254  0.39473482  1
  O2-  O131  1  0.73875253  0.49821532  0.72622771  1
  O2-  O132  1  -0.00544535  0.24469147  0.26918529  1
  O2-  O133  1  -0.00209269  0.24644694  0.61055694  1
  O2-  O134  1  -0.00423091  0.25257364  0.93682430  1
  O2-  O135  1  -0.00157510  0.75647038  0.27515914  1
  O2-  O136  1  -0.00509687  0.75337725  0.60534858  1
  O2-  O137  1  -0.00665292  0.74285725  0.93483123  1
  O2-  O138  1  0.50614855  0.24623624  0.27641918  1
  O2-  O139  1  0.50083285  0.25086364  0.60846561  1
  O2-  O140  1  0.49973913  0.25031181  0.93264933  1
  O2-  O141  1  0.49155706  0.74993968  0.27238126  1
  O2-  O142  1  0.49825647  0.74848891  0.60154650  1
  O2-  O143  1  0.50139665  0.74386947  0.94061723  1
  O2-  O144  1  0.07124777  0.17822629  0.09756064  1
  O2-  O145  1  0.07096039  0.18124249  0.43432905  1
  O2-  O146  1  0.07137134  0.17849163  0.75642552  1
  O2-  O147  1  0.07154002  0.67842522  0.09879026  1
  O2-  O148  1  0.06738370  0.67756008  0.43275614  1
  O2-  O149  1  0.06740803  0.67638033  0.76472156  1
  O2-  O150  1  0.56907603  0.18045820  0.09896236  1
  O2-  O151  1  0.57235999  0.17384392  0.42500843  1
  O2-  O152  1  0.57364375  0.18220171  0.75614969  1
  O2-  O153  1  0.57183409  0.68082151  0.09043587  1
  O2-  O154  1  0.57411092  0.68405002  0.43090742  1
  O2-  O155  1  0.57205021  0.68053479  0.76627738  1
  O2-  O156  1  0.18493914  0.43098822  0.23233330  1
  O2-  O157  1  0.17908862  0.42740932  0.56870855  1
  O2-  O158  1  0.17970164  0.42593489  0.91283664  1
  O2-  O159  1  0.17612875  0.92417736  0.24519133  1
  O2-  O160  1  0.17407098  0.92947504  0.57811978  1
  O2-  O161  1  0.18033068  0.93056429  0.90842094  1
  O2-  O162  1  0.67485075  0.42750469  0.24405841  1
  O2-  O163  1  0.67588831  0.41899001  0.57772659  1
  O2-  O164  1  0.67964106  0.42688221  0.91140809  1
  O2-  O165  1  0.67750051  0.93194146  0.24479034  1
  O2-  O166  1  0.68301760  0.93296844  0.56844223  1
  O2-  O167  1  0.67515471  0.92981956  0.91508712  1
  O2-  O168  1  0.42658775  0.32017234  0.09540575  1
  O2-  O169  1  0.42863011  0.31657094  0.43510095  1
  O2-  O170  1  0.42853536  0.31876738  0.75578975  1
  O2-  O171  1  0.43057703  0.82165398  0.10118918  1
  O2-  O172  1  0.43339320  0.82715450  0.42229047  1
  O2-  O173  1  0.43033723  0.82296547  0.76295142  1
  O2-  O174  1  0.92757710  0.32021252  0.08720874  1
  O2-  O175  1  0.92982359  0.32141757  0.43225524  1
  O2-  O176  1  0.92806909  0.31823103  0.75775106  1
  O2-  O177  1  0.93362324  0.82208776  0.09933401  1
  O2-  O178  1  0.92496529  0.82232638  0.42409260  1
  O2-  O179  1  0.92960777  0.82513975  0.75532707  1
  O2-  O180  1  0.31953108  0.06792773  0.23156166  1
  O2-  O181  1  0.31784570  0.07289315  0.57029581  1
  O2-  O182  1  0.32037904  0.06928679  0.90972789  1
  O2-  O183  1  0.32500053  0.57497670  0.24389387  1
  O2-  O184  1  0.32593789  0.56763445  0.57301884  1
  O2-  O185  1  0.31821440  0.57268752  0.89851190  1
  O2-  O186  1  0.82385751  0.07168785  0.24369925  1
  O2-  O187  1  0.82099558  0.07542535  0.57503151  1
  O2-  O188  1  0.82010197  0.06787406  0.90051464  1
  O2-  O189  1  0.81861141  0.57022108  0.23470657  1
  O2-  O190  1  0.82035755  0.56676798  0.56776174  1
  O2-  O191  1  0.81904872  0.56905244  0.90300972  1
  O2-  O192  1  0.04797521  0.07698255  0.27078034  1
  O2-  O193  1  0.05081530  0.08612678  0.60316293  1
  O2-  O194  1  0.03865252  0.08305358  0.92885259  1
  O2-  O195  1  0.03863021  0.58443728  0.26436907  1
  O2-  O196  1  0.03379769  0.57948975  0.60106487  1
  O2-  O197  1  0.04544121  0.57510495  0.93498761  1
  O2-  O198  1  0.54599001  0.08225674  0.27278129  1
  O2-  O199  1  0.54318866  0.08877780  0.60511295  1
  O2-  O200  1  0.54313343  0.08153563  0.93174533  1
  O2-  O201  1  0.54764084  0.58342348  0.26238696  1
  O2-  O202  1  0.54911615  0.57867133  0.59878526  1
  O2-  O203  1  0.55311864  0.58300914  0.94025659  1
  O2-  O204  1  0.16726418  0.21076402  0.26638651  1
  O2-  O205  1  0.16408619  0.21222663  0.60690855  1
  O2-  O206  1  0.16539159  0.20870975  0.92799124  1
  O2-  O207  1  0.16977142  0.70687418  0.26723241  1
  O2-  O208  1  0.16447057  0.70462129  0.59474073  1
  O2-  O209  1  0.16586739  0.70980799  0.93138555  1
  O2-  O210  1  0.66723480  0.19762836  0.27361021  1
  O2-  O211  1  0.66382735  0.20671831  0.60254686  1
  O2-  O212  1  0.67028418  0.20632858  0.93137151  1
  O2-  O213  1  0.66592851  0.71798674  0.26366901  1
  O2-  O214  1  0.67066870  0.71307350  0.60134676  1
  O2-  O215  1  0.66527053  0.70772086  0.94011276  1
  O2-  O216  1  0.08399619  0.44662271  0.06341753  1
  O2-  O217  1  0.08553212  0.46207920  0.39930177  1
  O2-  O218  1  0.08353075  0.45803836  0.73862787  1
  O2-  O219  1  0.08778743  0.95785794  0.06094934  1
  O2-  O220  1  0.08210679  0.94738142  0.39857547  1
  O2-  O221  1  0.08400361  0.95484975  0.73057492  1
  O2-  O222  1  0.58235190  0.45002498  0.06138053  1
  O2-  O223  1  0.58149887  0.45369146  0.39503593  1
  O2-  O224  1  0.57870072  0.44574194  0.72709872  1
  O2-  O225  1  0.58309943  0.95841772  0.06739462  1
  O2-  O226  1  0.58954422  0.95874275  0.40031154  1
  O2-  O227  1  0.58677505  0.96449126  0.73713757  1
  O2-  O228  1  0.20795485  0.33183301  0.06261887  1
  O2-  O229  1  0.21434057  0.33627529  0.40061968  1
  O2-  O230  1  0.21233555  0.33630462  0.73884116  1
  O2-  O231  1  0.20796182  0.83827639  0.06155407  1
  O2-  O232  1  0.20350677  0.83194083  0.39819542  1
  O2-  O233  1  0.19873711  0.82936384  0.72608457  1
  O2-  O234  1  0.70273347  0.33347096  0.06350797  1
  O2-  O235  1  0.69720056  0.33201072  0.39580031  1
  O2-  O236  1  0.70569764  0.33378327  0.73176990  1
  O2-  O237  1  0.69993966  0.83593409  0.06835483  1
  O2-  O238  1  0.71081715  0.84076879  0.39799074  1
  O2-  O239  1  0.71005921  0.83593683  0.73961192  1
  O2-  O240  1  0.45684381  0.41564200  0.26506274  1
  O2-  O241  1  0.45134178  0.41135259  0.60218786  1
  O2-  O242  1  0.45717843  0.42100326  0.92791505  1
  O2-  O243  1  0.46238842  0.91533486  0.26987397  1
  O2-  O244  1  0.46310197  0.92277189  0.59915546  1
  O2-  O245  1  0.46019152  0.91563297  0.93316001  1
  O2-  O246  1  0.96159041  0.41755500  0.26381661  1
  O2-  O247  1  0.96082876  0.41032484  0.60615013  1
  O2-  O248  1  0.95433296  0.41377704  0.93514909  1
  O2-  O249  1  0.94979287  0.91725653  0.27371644  1
  O2-  O250  1  0.95335982  0.91713757  0.60223373  1
  O2-  O251  1  0.95951541  0.91575532  0.92949669  1
  O2-  O252  1  0.33543002  0.28524363  0.26531863  1
  O2-  O253  1  0.33567347  0.28635430  0.60665807  1
  O2-  O254  1  0.33096909  0.29325137  0.92687024  1
  O2-  O255  1  0.33332680  0.80672552  0.27356975  1
  O2-  O256  1  0.32902965  0.80414682  0.59493809  1
  O2-  O257  1  0.33279513  0.79192779  0.93182253  1
  O2-  O258  1  0.82687072  0.30060513  0.26708062  1
  O2-  O259  1  0.83683247  0.29581131  0.60343758  1
  O2-  O260  1  0.83364283  0.29576926  0.93594139  1
  O2-  O261  1  0.83426232  0.79674270  0.27091122  1
  O2-  O262  1  0.83328246  0.79921427  0.60648575  1
  O2-  O263  1  0.82559919  0.79938666  0.93821408  1
  O2-  O264  1  0.41290076  0.04277808  0.06151039  1
  O2-  O265  1  0.41581111  0.03958195  0.40100706  1
  O2-  O266  1  0.41735644  0.04337648  0.73716884  1
  O2-  O267  1  0.41816875  0.54301677  0.06507976  1
  O2-  O268  1  0.42049126  0.54779248  0.39284119  1
  O2-  O269  1  0.41623933  0.54529679  0.72595251  1
  O2-  O270  1  0.91810512  0.03721507  0.06758644  1
  O2-  O271  1  0.91389648  0.04478200  0.39845565  1
  O2-  O272  1  0.92007797  0.05209138  0.72343801  1
  O2-  O273  1  0.91728021  0.53740030  0.06867533  1
  O2-  O274  1  0.91571540  0.53705732  0.40102586  1
  O2-  O275  1  0.91133299  0.53156222  0.73736647  1
  O2-  O276  1  0.29229805  0.16427728  0.05857695  1
  O2-  O277  1  0.28757818  0.16477858  0.40112548  1
  O2-  O278  1  0.28505606  0.16306515  0.74047821  1
  O2-  O279  1  0.29012580  0.66859631  0.06757197  1
  O2-  O280  1  0.30472729  0.67071518  0.39384470  1
  O2-  O281  1  0.30058455  0.67007096  0.71861850  1
  O2-  O282  1  0.79196734  0.16709894  0.06827555  1
  O2-  O283  1  0.79715000  0.16620928  0.39543232  1
  O2-  O284  1  0.79739367  0.16814899  0.72689006  1
  O2-  O285  1  0.79072278  0.66791320  0.07075001  1
  O2-  O286  1  0.78801294  0.66746513  0.40039710  1
  O2-  O287  1  0.79282253  0.66657852  0.73530790  1
