# generated using pymatgen
data_Ca2Al2SiO7
_symmetry_space_group_name_H-M   'P 1'
_cell_length_a   15.46131972
_cell_length_b   15.46418733
_cell_length_c   15.28685760
_cell_angle_alpha   89.99033756
_cell_angle_beta   90.00127532
_cell_angle_gamma   90.00971531
_symmetry_Int_Tables_number   1
_chemical_formula_structural   Ca2Al2SiO7
_chemical_formula_sum   'Ca48 Al48 Si24 O168'
_cell_volume   3655.03778015
_cell_formula_units_Z   24
loop_
 _symmetry_equiv_pos_site_id
 _symmetry_equiv_pos_as_xyz
  1  'x, y, z'
loop_
 _atom_type_symbol
 _atom_type_oxidation_number
  Ca2+  2.0
  Al0+  0.0
  Si0+  0.0
  O2-  -2.0
loop_
 _atom_site_type_symbol
 _atom_site_label
 _atom_site_symmetry_multiplicity
 _atom_site_fract_x
 _atom_site_fract_y
 _atom_site_fract_z
 _atom_site_occupancy
  Ca2+  Ca0  1  0.17032366  0.08943526  0.17075621  1
  Ca2+  Ca1  1  0.17654331  0.09426928  0.50277194  1
  Ca2+  Ca2  1  0.17416554  0.08715558  0.84084434  1
  Ca2+  Ca3  1  0.16303694  0.57424539  0.17762459  1
  Ca2+  Ca4  1  0.15637600  0.57699858  0.50287220  1
  Ca2+  Ca5  1  0.16300494  0.58543499  0.83398180  1
  Ca2+  Ca6  1  0.68380428  0.07836292  0.17608400  1
  Ca2+  Ca7  1  0.67599567  0.08128147  0.50938831  1
  Ca2+  Ca8  1  0.67568430  0.08287265  0.83169245  1
  Ca2+  Ca9  1  0.67411977  0.57899284  0.18161573  1
  Ca2+  Ca10  1  0.66151599  0.57519773  0.49694926  1
  Ca2+  Ca11  1  0.66271597  0.57340392  0.83469098  1
  Ca2+  Ca12  1  0.07822269  0.32405103  0.16476271  1
  Ca2+  Ca13  1  0.08329615  0.32332030  0.49272363  1
  Ca2+  Ca14  1  0.07557617  0.32006052  0.83187975  1
  Ca2+  Ca15  1  0.07998465  0.83084416  0.16118310  1
  Ca2+  Ca16  1  0.08392948  0.82041296  0.49447552  1
  Ca2+  Ca17  1  0.08005542  0.83756550  0.83068102  1
  Ca2+  Ca18  1  0.57642874  0.33961415  0.16778971  1
  Ca2+  Ca19  1  0.58126086  0.33303784  0.49614726  1
  Ca2+  Ca20  1  0.58283207  0.32404432  0.82397093  1
  Ca2+  Ca21  1  0.59308038  0.83020469  0.16928627  1
  Ca2+  Ca22  1  0.58295513  0.84026207  0.49419745  1
  Ca2+  Ca23  1  0.57565246  0.84086907  0.82279740  1
  Ca2+  Ca24  1  0.32631008  0.41393262  0.17831698  1
  Ca2+  Ca25  1  0.32976859  0.41234923  0.49698658  1
  Ca2+  Ca26  1  0.33033172  0.41947786  0.83619765  1
  Ca2+  Ca27  1  0.32464676  0.92880213  0.16856589  1
  Ca2+  Ca28  1  0.33693202  0.92789131  0.50534041  1
  Ca2+  Ca29  1  0.32840042  0.92582601  0.83665270  1
  Ca2+  Ca30  1  0.83334961  0.42172782  0.17672172  1
  Ca2+  Ca31  1  0.82453779  0.42110834  0.50243384  1
  Ca2+  Ca32  1  0.83071411  0.41135414  0.83539854  1
  Ca2+  Ca33  1  0.83745469  0.92445359  0.17161050  1
  Ca2+  Ca34  1  0.82295708  0.92481601  0.50163981  1
  Ca2+  Ca35  1  0.83686395  0.92671972  0.83641944  1
  Ca2+  Ca36  1  0.41278707  0.16628794  0.16798696  1
  Ca2+  Ca37  1  0.42276318  0.16407763  0.49404904  1
  Ca2+  Ca38  1  0.42120405  0.15789182  0.82515429  1
  Ca2+  Ca39  1  0.42633884  0.66591651  0.16680703  1
  Ca2+  Ca40  1  0.42286368  0.67807671  0.49412288  1
  Ca2+  Ca41  1  0.41699614  0.67867070  0.82379464  1
  Ca2+  Ca42  1  0.92406452  0.16330193  0.15836424  1
  Ca2+  Ca43  1  0.92539423  0.15681834  0.49568454  1
  Ca2+  Ca44  1  0.92377548  0.15889650  0.82985728  1
  Ca2+  Ca45  1  0.91676465  0.67092302  0.16463931  1
  Ca2+  Ca46  1  0.92181822  0.66360791  0.49261854  1
  Ca2+  Ca47  1  0.92209302  0.67767410  0.82888102  1
  Al0+  Al48  1  0.00118328  -0.00293900  -0.00173178  1
  Al0+  Al49  1  0.00295479  -0.00292160  0.33341868  1
  Al0+  Al50  1  0.00079424  -0.00196417  0.66197151  1
  Al0+  Al51  1  -0.00091673  0.49888323  -0.00394657  1
  Al0+  Al52  1  0.00067341  0.49816655  0.33782845  1
  Al0+  Al53  1  -0.00114657  0.49932934  0.66707646  1
  Al0+  Al54  1  0.49919839  -0.00148651  0.00537139  1
  Al0+  Al55  1  0.49819765  0.00108801  0.33397163  1
  Al0+  Al56  1  0.49958924  0.00205114  0.66440626  1
  Al0+  Al57  1  0.49990329  0.49949863  -0.00176239  1
  Al0+  Al58  1  0.49838742  0.50172894  0.32840467  1
  Al0+  Al59  1  0.49844190  0.50130518  0.67223611  1
  Al0+  Al60  1  0.25058195  0.25346128  -0.00089280  1
  Al0+  Al61  1  0.25011121  0.25138226  0.33343521  1
  Al0+  Al62  1  0.24839196  0.25288120  0.67007510  1
  Al0+  Al63  1  0.25407651  0.74941118  0.00481852  1
  Al0+  Al64  1  0.25102113  0.75007756  0.32613892  1
  Al0+  Al65  1  0.25130734  0.74997844  0.65722961  1
  Al0+  Al66  1  0.74662139  0.24994359  0.00246665  1
  Al0+  Al67  1  0.75049736  0.25020338  0.34083595  1
  Al0+  Al68  1  0.74955627  0.25140348  0.67091921  1
  Al0+  Al69  1  0.75156626  0.74638416  -0.00767074  1
  Al0+  Al70  1  0.75044111  0.75052972  0.33697180  1
  Al0+  Al71  1  0.74900988  0.74796156  0.66990434  1
  Al0+  Al72  1  0.07121749  0.17877180  0.98515744  1
  Al0+  Al73  1  0.82537862  0.07226535  0.34828165  1
  Al0+  Al74  1  0.82025317  0.07037340  0.01290147  1
  Al0+  Al75  1  0.82375128  0.07030912  0.68284281  1
  Al0+  Al76  1  0.82186654  0.57104224  0.34820947  1
  Al0+  Al77  1  0.43121935  0.31932420  0.32090581  1
  Al0+  Al78  1  0.31861203  0.07260000  0.67920313  1
  Al0+  Al79  1  0.31754614  0.07136490  0.34784648  1
  Al0+  Al80  1  0.57045564  0.18095491  0.65362943  1
  Al0+  Al81  1  0.07113578  0.67599546  0.31844061  1
  Al0+  Al82  1  0.06941049  0.67989330  0.65325965  1
  Al0+  Al83  1  0.67793710  0.92855772  0.68177455  1
  Al0+  Al84  1  0.07008809  0.17851493  0.31985714  1
  Al0+  Al85  1  0.92965796  0.82028437  0.98582199  1
  Al0+  Al86  1  0.32119242  0.07353835  0.01629391  1
  Al0+  Al87  1  0.43131632  0.82213382  0.65228456  1
  Al0+  Al88  1  0.92550347  0.32171453  0.98605491  1
  Al0+  Al89  1  0.07114251  0.17857988  0.65223272  1
  Al0+  Al90  1  0.67521516  0.42871764  0.34777027  1
  Al0+  Al91  1  0.17998592  0.43020036  0.34745653  1
  Al0+  Al92  1  0.57050731  0.68201559  0.32031819  1
  Al0+  Al93  1  0.67819405  0.43106932  0.68241699  1
  Al0+  Al94  1  0.17852529  0.92712688  0.01433403  1
  Al0+  Al95  1  0.67956574  0.92995149  0.34630797  1
  Si0+  Si96  1  0.82028228  0.56999357  0.01343033  1
  Si0+  Si97  1  0.32345221  0.57073324  0.01589103  1
  Si0+  Si98  1  0.92644663  0.32109975  0.31987533  1
  Si0+  Si99  1  0.17894876  0.43217362  0.01459216  1
  Si0+  Si100  1  0.82485828  0.57116797  0.68712078  1
  Si0+  Si101  1  0.92932783  0.81963823  0.31711365  1
  Si0+  Si102  1  0.57185641  0.67564551  0.65088491  1
  Si0+  Si103  1  0.92509750  0.82196406  0.64733965  1
  Si0+  Si104  1  0.17876838  0.92442544  0.35099432  1
  Si0+  Si105  1  0.92758182  0.32167017  0.64914613  1
  Si0+  Si106  1  0.42733812  0.82593293  0.31170168  1
  Si0+  Si107  1  0.17690053  0.42979132  0.68484150  1
  Si0+  Si108  1  0.43047253  0.81991387  0.98499153  1
  Si0+  Si109  1  0.67713708  0.42944518  0.01620365  1
  Si0+  Si110  1  0.31895575  0.57213738  0.68093907  1
  Si0+  Si111  1  0.18035351  0.92475534  0.67959696  1
  Si0+  Si112  1  0.57433750  0.17658389  0.31617211  1
  Si0+  Si113  1  0.56891101  0.17796270  0.98705860  1
  Si0+  Si114  1  0.32232085  0.57384280  0.34966175  1
  Si0+  Si115  1  0.07438465  0.67725144  0.98502966  1
  Si0+  Si116  1  0.57107341  0.67750250  0.98299015  1
  Si0+  Si117  1  0.67795357  0.92484026  0.01509099  1
  Si0+  Si118  1  0.42946174  0.32266328  0.98370532  1
  Si0+  Si119  1  0.42711953  0.32512897  0.65167802  1
  O2-  O120  1  0.24373752  0.00590743  0.06411601  1
  O2-  O121  1  0.24548084  -0.00542832  0.39514873  1
  O2-  O122  1  0.24182745  -0.00055353  0.72478823  1
  O2-  O123  1  0.24925134  0.50366678  0.05752601  1
  O2-  O124  1  0.25044896  0.50931719  0.39475987  1
  O2-  O125  1  0.24774942  0.50238941  0.72565600  1
  O2-  O126  1  0.74756600  -0.00747705  0.05830133  1
  O2-  O127  1  0.74670325  0.00616757  0.39597004  1
  O2-  O128  1  0.75277780  -0.00339312  0.73301868  1
  O2-  O129  1  0.75178784  0.49702122  0.05647930  1
  O2-  O130  1  0.74893682  0.49930115  0.39704351  1
  O2-  O131  1  0.75307189  0.50504650  0.73107803  1
  O2-  O132  1  -0.01109685  0.24720053  0.27481478  1
  O2-  O133  1  -0.00720438  0.24975294  0.60551471  1
  O2-  O134  1  -0.00644824  0.24585496  0.93579538  1
  O2-  O135  1  -0.00260750  0.75044955  0.27163217  1
  O2-  O136  1  -0.00675035  0.75160927  0.60483311  1
  O2-  O137  1  0.00960351  0.74897269  0.94083272  1
  O2-  O138  1  0.50795352  0.24798506  0.27143753  1
  O2-  O139  1  0.49463734  0.25575356  0.60867819  1
  O2-  O140  1  0.49528257  0.24673591  0.94338070  1
  O2-  O141  1  0.49841315  0.75771718  0.26967511  1
  O2-  O142  1  0.51111905  0.75137423  0.60775006  1
  O2-  O143  1  0.50367428  0.75160663  0.94086251  1
  O2-  O144  1  0.07264593  0.18364179  0.09873219  1
  O2-  O145  1  0.07182053  0.18265429  0.43297681  1
  O2-  O146  1  0.07356016  0.18162520  0.76526046  1
  O2-  O147  1  0.07154344  0.67369196  0.09021810  1
  O2-  O148  1  0.07011254  0.67767507  0.43157054  1
  O2-  O149  1  0.07015440  0.68165291  0.76691765  1
  O2-  O150  1  0.56935681  0.18143056  0.09185940  1
  O2-  O151  1  0.57119597  0.17591615  0.42147136  1
  O2-  O152  1  0.56824345  0.18194227  0.76772873  1
  O2-  O153  1  0.57045032  0.67506584  0.08773215  1
  O2-  O154  1  0.56588287  0.68095703  0.43306602  1
  O2-  O155  1  0.56558912  0.67191574  0.75707426  1
  O2-  O156  1  0.18176007  0.43090867  0.23380406  1
  O2-  O157  1  0.17741334  0.42915180  0.58007747  1
  O2-  O158  1  0.18136508  0.43444308  0.90918905  1
  O2-  O159  1  0.17953172  0.92333887  0.24544411  1
  O2-  O160  1  0.18496475  0.92060460  0.57427448  1
  O2-  O161  1  0.18488305  0.92182671  0.90069743  1
  O2-  O162  1  0.67576581  0.43246058  0.23347777  1
  O2-  O163  1  0.67527337  0.43468384  0.57009583  1
  O2-  O164  1  0.67301101  0.43264487  0.91114691  1
  O2-  O165  1  0.68408443  0.92926197  0.23195198  1
  O2-  O166  1  0.67872222  0.93099762  0.56875723  1
  O2-  O167  1  0.67465709  0.92645993  0.90980672  1
  O2-  O168  1  0.43102858  0.32901191  0.08825973  1
  O2-  O169  1  0.43070005  0.31891504  0.43388138  1
  O2-  O170  1  0.42824950  0.32742956  0.75790992  1
  O2-  O171  1  0.43099885  0.81671862  0.08954456  1
  O2-  O172  1  0.42530249  0.82470871  0.41724540  1
  O2-  O173  1  0.42873985  0.81840844  0.76619424  1
  O2-  O174  1  0.92898933  0.32717157  0.09930083  1
  O2-  O175  1  0.92974226  0.32439271  0.42529283  1
  O2-  O176  1  0.93110962  0.32420521  0.75496215  1
  O2-  O177  1  0.92478038  0.81431902  0.09842712  1
  O2-  O178  1  0.93116831  0.81857702  0.42264205  1
  O2-  O179  1  0.92754971  0.82135080  0.75331678  1
  O2-  O180  1  0.31592306  0.07134473  0.23472908  1
  O2-  O181  1  0.31852157  0.07317003  0.56635640  1
  O2-  O182  1  0.32445655  0.07038022  0.90258845  1
  O2-  O183  1  0.32280232  0.57050149  0.24341862  1
  O2-  O184  1  0.32060680  0.57076569  0.57647555  1
  O2-  O185  1  0.32532001  0.57001948  0.91042197  1
  O2-  O186  1  0.82608595  0.06968081  0.23408642  1
  O2-  O187  1  0.82318045  0.06916661  0.56972567  1
  O2-  O188  1  0.81758755  0.07061416  0.90011051  1
  O2-  O189  1  0.82138996  0.57002679  0.23358103  1
  O2-  O190  1  0.82866109  0.56854700  0.58221488  1
  O2-  O191  1  0.81764162  0.57074678  0.90846645  1
  O2-  O192  1  0.04769076  0.07875044  0.26812973  1
  O2-  O193  1  0.04772484  0.07997724  0.59874320  1
  O2-  O194  1  0.05057437  0.07804682  0.93474790  1
  O2-  O195  1  0.04048024  0.57853453  0.26609029  1
  O2-  O196  1  0.04008521  0.58152150  0.60196668  1
  O2-  O197  1  0.04530364  0.58580586  0.93597343  1
  O2-  O198  1  0.54484300  0.08472864  0.26827715  1
  O2-  O199  1  0.53902900  0.08631148  0.59801282  1
  O2-  O200  1  0.54279065  0.08461005  0.94149544  1
  O2-  O201  1  0.53677475  0.58759492  0.26230983  1
  O2-  O202  1  0.53638161  0.58551971  0.60425083  1
  O2-  O203  1  0.53738640  0.58727955  0.93444950  1
  O2-  O204  1  0.16378591  0.21769033  0.26595273  1
  O2-  O205  1  0.16665935  0.21709502  0.60018505  1
  O2-  O206  1  0.16840887  0.21476276  0.93212960  1
  O2-  O207  1  0.16879213  0.70338471  0.26382428  1
  O2-  O208  1  0.16520476  0.70809829  0.59676085  1
  O2-  O209  1  0.17135696  0.69782907  0.94290090  1
  O2-  O210  1  0.67005259  0.19988276  0.27309171  1
  O2-  O211  1  0.66727600  0.21296855  0.60161115  1
  O2-  O212  1  0.65877166  0.20890730  0.93800941  1
  O2-  O213  1  0.66811775  0.71074906  0.26587484  1
  O2-  O214  1  0.66943095  0.68962959  0.61045478  1
  O2-  O215  1  0.66339016  0.69841606  0.93411815  1
  O2-  O216  1  0.08672024  0.45965987  0.06088409  1
  O2-  O217  1  0.08456306  0.45789279  0.40411976  1
  O2-  O218  1  0.08594154  0.45907997  0.73304368  1
  O2-  O219  1  0.07737521  0.94464890  0.06472848  1
  O2-  O220  1  0.08460817  0.94552080  0.39651929  1
  O2-  O221  1  0.08363573  0.94352963  0.72100103  1
  O2-  O222  1  0.58634378  0.46277687  0.06316069  1
  O2-  O223  1  0.57765720  0.46222164  0.39930509  1
  O2-  O224  1  0.58185605  0.46315626  0.73922126  1
  O2-  O225  1  0.58488639  0.94888129  0.06304985  1
  O2-  O226  1  0.57812098  0.95141882  0.39465415  1
  O2-  O227  1  0.58052305  0.96145682  0.73447435  1
  O2-  O228  1  0.20869664  0.34150900  0.06190544  1
  O2-  O229  1  0.21682409  0.33708319  0.40305855  1
  O2-  O230  1  0.20766131  0.34082225  0.73573873  1
  O2-  O231  1  0.21302693  0.83068107  0.07014340  1
  O2-  O232  1  0.20667305  0.83024467  0.39522669  1
  O2-  O233  1  0.21211674  0.83332207  0.72711305  1
  O2-  O234  1  0.69739367  0.33642494  0.06299948  1
  O2-  O235  1  0.69866329  0.33017421  0.40133036  1
  O2-  O236  1  0.70821887  0.33537174  0.73847383  1
  O2-  O237  1  0.70344020  0.82867748  0.05632701  1
  O2-  O238  1  0.70841023  0.83329877  0.40150710  1
  O2-  O239  1  0.69715061  0.82606333  0.73240216  1
  O2-  O240  1  0.45763751  0.41643279  0.26369468  1
  O2-  O241  1  0.45369542  0.41884756  0.60649636  1
  O2-  O242  1  0.46172015  0.41273291  0.93345382  1
  O2-  O243  1  0.45193583  0.91941686  0.26507599  1
  O2-  O244  1  0.45894451  0.91823097  0.59740451  1
  O2-  O245  1  0.45629408  0.91304281  0.93889019  1
  O2-  O246  1  0.95863976  0.41239011  0.27240114  1
  O2-  O247  1  0.95753088  0.41409650  0.60327278  1
  O2-  O248  1  0.95800310  0.41827726  0.92923214  1
  O2-  O249  1  0.95782238  0.91182390  0.26955035  1
  O2-  O250  1  0.95115979  0.91407365  0.59973677  1
  O2-  O251  1  0.95809118  0.91565163  0.92886961  1
  O2-  O252  1  0.33586459  0.28707528  0.26489113  1
  O2-  O253  1  0.33202377  0.30271974  0.60858128  1
  O2-  O254  1  0.33592949  0.30240698  0.93663779  1
  O2-  O255  1  0.33557203  0.79683858  0.26353094  1
  O2-  O256  1  0.33902377  0.78511967  0.59451336  1
  O2-  O257  1  0.34004659  0.78785376  0.93680670  1
  O2-  O258  1  0.82980345  0.30430818  0.27614036  1
  O2-  O259  1  0.83166651  0.30250294  0.60696978  1
  O2-  O260  1  0.82383081  0.29968553  0.93653188  1
  O2-  O261  1  0.83581189  0.79455824  0.27125022  1
  O2-  O262  1  0.83044047  0.79585618  0.60425797  1
  O2-  O263  1  0.83601771  0.78427775  0.92734849  1
  O2-  O264  1  0.41772797  0.04001660  0.07111815  1
  O2-  O265  1  0.41556509  0.04268478  0.39936616  1
  O2-  O266  1  0.41435400  0.03893186  0.73237022  1
  O2-  O267  1  0.41404578  0.53817383  0.06338195  1
  O2-  O268  1  0.41382997  0.54433182  0.39607715  1
  O2-  O269  1  0.40891316  0.54426766  0.73298891  1
  O2-  O270  1  0.91799802  0.04071180  0.06387555  1
  O2-  O271  1  0.92188386  0.03738893  0.40079340  1
  O2-  O272  1  0.92340109  0.03989958  0.73382068  1
  O2-  O273  1  0.91372419  0.54498371  0.05899428  1
  O2-  O274  1  0.91853917  0.54114211  0.40274694  1
  O2-  O275  1  0.91669751  0.54204278  0.73597105  1
  O2-  O276  1  0.29849510  0.17547771  0.06505422  1
  O2-  O277  1  0.28621232  0.16707360  0.40176320  1
  O2-  O278  1  0.29182926  0.17030615  0.73442257  1
  O2-  O279  1  0.30266892  0.66299416  0.06440457  1
  O2-  O280  1  0.30162686  0.66995195  0.39158993  1
  O2-  O281  1  0.28978591  0.66393629  0.72829163  1
  O2-  O282  1  0.78705416  0.16630534  0.06758079  1
  O2-  O283  1  0.80423198  0.17192450  0.40084636  1
  O2-  O284  1  0.79506669  0.16912962  0.73471630  1
  O2-  O285  1  0.78995343  0.66104726  0.06080613  1
  O2-  O286  1  0.79442778  0.66843479  0.40174316  1
  O2-  O287  1  0.80205411  0.66605174  0.73187753  1
