# generated using pymatgen
data_Ca2Al2SiO7
_symmetry_space_group_name_H-M   'P 1'
_cell_length_a   15.45328619
_cell_length_b   15.45357821
_cell_length_c   15.27994693
_cell_angle_alpha   89.99943610
_cell_angle_beta   89.98977100
_cell_angle_gamma   89.99310484
_symmetry_Int_Tables_number   1
_chemical_formula_structural   Ca2Al2SiO7
_chemical_formula_sum   'Ca48 Al48 Si24 O168'
_cell_volume   3648.98214349
_cell_formula_units_Z   24
loop_
 _symmetry_equiv_pos_site_id
 _symmetry_equiv_pos_as_xyz
  1  'x, y, z'
loop_
 _atom_type_symbol
 _atom_type_oxidation_number
  Ca2+  2.0
  Al0+  0.0
  Si0+  0.0
  O2-  -2.0
loop_
 _atom_site_type_symbol
 _atom_site_label
 _atom_site_symmetry_multiplicity
 _atom_site_fract_x
 _atom_site_fract_y
 _atom_site_fract_z
 _atom_site_occupancy
  Ca2+  Ca0  1  0.17492885  0.08536282  0.17213999  1
  Ca2+  Ca1  1  0.17682241  0.07999682  0.50302873  1
  Ca2+  Ca2  1  0.17508673  0.09031917  0.83945732  1
  Ca2+  Ca3  1  0.17688175  0.58311909  0.17193810  1
  Ca2+  Ca4  1  0.16979059  0.58946907  0.50190209  1
  Ca2+  Ca5  1  0.16781219  0.58395442  0.83810690  1
  Ca2+  Ca6  1  0.66655854  0.07834645  0.17514235  1
  Ca2+  Ca7  1  0.66494445  0.07394458  0.50927018  1
  Ca2+  Ca8  1  0.67142983  0.08245342  0.82667129  1
  Ca2+  Ca9  1  0.67359241  0.57993119  0.16754214  1
  Ca2+  Ca10  1  0.66613057  0.57579689  0.50913159  1
  Ca2+  Ca11  1  0.66965867  0.57864550  0.83624189  1
  Ca2+  Ca12  1  0.07763186  0.32768261  0.16020098  1
  Ca2+  Ca13  1  0.06975519  0.33170105  0.49642424  1
  Ca2+  Ca14  1  0.07447075  0.33002990  0.83171826  1
  Ca2+  Ca15  1  0.07365657  0.84227929  0.16443251  1
  Ca2+  Ca16  1  0.07472490  0.83834144  0.49628636  1
  Ca2+  Ca17  1  0.07233484  0.82644231  0.82607309  1
  Ca2+  Ca18  1  0.57666740  0.32416542  0.16407969  1
  Ca2+  Ca19  1  0.59051804  0.31788240  0.49836690  1
  Ca2+  Ca20  1  0.57853747  0.33106607  0.82558163  1
  Ca2+  Ca21  1  0.57605239  0.83920375  0.16900319  1
  Ca2+  Ca22  1  0.58356995  0.83487778  0.49499950  1
  Ca2+  Ca23  1  0.58477557  0.82618858  0.82440708  1
  Ca2+  Ca24  1  0.33918255  0.42469824  0.16796853  1
  Ca2+  Ca25  1  0.33362206  0.42340275  0.50243951  1
  Ca2+  Ca26  1  0.33396009  0.42149951  0.84373293  1
  Ca2+  Ca27  1  0.32580508  0.92559712  0.17970619  1
  Ca2+  Ca28  1  0.33423654  0.92277658  0.49953545  1
  Ca2+  Ca29  1  0.33292468  0.93000798  0.83726861  1
  Ca2+  Ca30  1  0.84482656  0.42117338  0.16810522  1
  Ca2+  Ca31  1  0.82988585  0.41249530  0.50978457  1
  Ca2+  Ca32  1  0.83188908  0.41652145  0.83671825  1
  Ca2+  Ca33  1  0.83003405  0.91482494  0.17447172  1
  Ca2+  Ca34  1  0.82620832  0.91760276  0.50797255  1
  Ca2+  Ca35  1  0.83205972  0.91167758  0.83356026  1
  Ca2+  Ca36  1  0.41893688  0.16221166  0.16174320  1
  Ca2+  Ca37  1  0.42679076  0.15352692  0.49731437  1
  Ca2+  Ca38  1  0.41681733  0.16870811  0.82845830  1
  Ca2+  Ca39  1  0.40941664  0.67077753  0.16550207  1
  Ca2+  Ca40  1  0.42304285  0.67206457  0.49312068  1
  Ca2+  Ca41  1  0.42122528  0.66664337  0.82640719  1
  Ca2+  Ca42  1  0.92420555  0.17673480  0.15810990  1
  Ca2+  Ca43  1  0.90189754  0.17697668  0.49812239  1
  Ca2+  Ca44  1  0.91757325  0.17272192  0.82771352  1
  Ca2+  Ca45  1  0.91283629  0.67823778  0.16049304  1
  Ca2+  Ca46  1  0.92057741  0.67877460  0.49838993  1
  Ca2+  Ca47  1  0.91469327  0.67440946  0.82680833  1
  Al0+  Al48  1  -0.00140186  0.00005995  -0.00943300  1
  Al0+  Al49  1  0.00013949  0.00285873  0.33323953  1
  Al0+  Al50  1  0.00158751  0.00125367  0.66676388  1
  Al0+  Al51  1  0.00000313  0.50078302  0.00262290  1
  Al0+  Al52  1  0.00137698  0.50201226  0.33038289  1
  Al0+  Al53  1  0.00153940  0.49972520  0.65900738  1
  Al0+  Al54  1  0.49972105  -0.00164978  0.00220428  1
  Al0+  Al55  1  0.50198608  -0.00249377  0.33078809  1
  Al0+  Al56  1  0.49961548  0.00010467  0.67432283  1
  Al0+  Al57  1  0.50127845  0.49868364  0.00239527  1
  Al0+  Al58  1  0.50227072  0.49860575  0.33776920  1
  Al0+  Al59  1  0.49970433  0.50037019  0.66650265  1
  Al0+  Al60  1  0.25188915  0.25124658  -0.00188723  1
  Al0+  Al61  1  0.25056881  0.25316544  0.33968986  1
  Al0+  Al62  1  0.24838656  0.25310806  0.66964272  1
  Al0+  Al63  1  0.24940712  0.75202451  0.00290260  1
  Al0+  Al64  1  0.25085849  0.75017747  0.33814761  1
  Al0+  Al65  1  0.25056243  0.75109464  0.66525150  1
  Al0+  Al66  1  0.74819739  0.24757409  -0.00139560  1
  Al0+  Al67  1  0.74840716  0.25152216  0.31989006  1
  Al0+  Al68  1  0.74681277  0.24915227  0.66919978  1
  Al0+  Al69  1  0.74836060  0.74787426  0.00158730  1
  Al0+  Al70  1  0.75115878  0.74783892  0.33346403  1
  Al0+  Al71  1  0.74935471  0.74805898  0.66114233  1
  Al0+  Al72  1  0.56730715  0.17996131  0.65473232  1
  Al0+  Al73  1  0.07183326  0.17924130  0.98447871  1
  Al0+  Al74  1  0.32213674  0.57050271  0.34895997  1
  Al0+  Al75  1  0.67844061  0.42830913  0.67994050  1
  Al0+  Al76  1  0.32249408  0.07272961  0.34864336  1
  Al0+  Al77  1  0.17583866  0.92975868  0.34898052  1
  Al0+  Al78  1  0.57059270  0.67736842  0.65345038  1
  Al0+  Al79  1  0.31965023  0.07089078  0.68202043  1
  Al0+  Al80  1  0.92922750  0.82188565  0.31908746  1
  Al0+  Al81  1  0.92867612  0.32183207  0.31815759  1
  Al0+  Al82  1  0.92901938  0.31754285  0.65380640  1
  Al0+  Al83  1  0.43009180  0.81866352  0.32000587  1
  Al0+  Al84  1  0.56825780  0.17765719  0.31918181  1
  Al0+  Al85  1  0.68135323  0.92854869  0.34578712  1
  Al0+  Al86  1  0.92777702  0.32314381  0.98326981  1
  Al0+  Al87  1  0.92656632  0.81958750  0.98579303  1
  Al0+  Al88  1  0.92864642  0.82312132  0.65006322  1
  Al0+  Al89  1  0.32043871  0.07173056  0.01498793  1
  Al0+  Al90  1  0.82212400  0.07146325  0.68125603  1
  Al0+  Al91  1  0.07290529  0.67858881  0.65112613  1
  Al0+  Al92  1  0.82063271  0.56981074  0.01307522  1
  Al0+  Al93  1  0.67969588  0.92592196  0.68279969  1
  Al0+  Al94  1  0.43184895  0.32084459  0.98732405  1
  Al0+  Al95  1  0.32243552  0.57208664  0.01284000  1
  Si0+  Si96  1  0.82168099  0.07090419  0.01504675  1
  Si0+  Si97  1  0.57119627  0.17375586  0.98087732  1
  Si0+  Si98  1  0.17757286  0.43066504  0.68257945  1
  Si0+  Si99  1  0.17764048  0.92641960  0.68562418  1
  Si0+  Si100  1  0.17845927  0.42885822  0.01706185  1
  Si0+  Si101  1  0.57267873  0.67431914  0.31504050  1
  Si0+  Si102  1  0.42946984  0.82256408  0.65146775  1
  Si0+  Si103  1  0.17602431  0.42961479  0.35214848  1
  Si0+  Si104  1  0.32055383  0.57147412  0.68169059  1
  Si0+  Si105  1  0.67792311  0.42550373  0.01841554  1
  Si0+  Si106  1  0.07533588  0.17846229  0.64861032  1
  Si0+  Si107  1  0.07283421  0.67925982  0.31447909  1
  Si0+  Si108  1  0.07384027  0.67926581  0.98611596  1
  Si0+  Si109  1  0.42532422  0.32333642  0.64940529  1
  Si0+  Si110  1  0.56933814  0.67949009  0.98700730  1
  Si0+  Si111  1  0.82082683  0.07475438  0.34552981  1
  Si0+  Si112  1  0.42741417  0.82110939  0.98544532  1
  Si0+  Si113  1  0.82263806  0.57040158  0.34951704  1
  Si0+  Si114  1  0.42730767  0.32401746  0.31888121  1
  Si0+  Si115  1  0.17653268  0.92912741  0.01524215  1
  Si0+  Si116  1  0.82324946  0.56965280  0.68052342  1
  Si0+  Si117  1  0.68024617  0.92741919  0.01611697  1
  Si0+  Si118  1  0.68128362  0.42819798  0.34760427  1
  Si0+  Si119  1  0.07462385  0.17982960  0.31846036  1
  O2-  O120  1  0.24368968  -0.00117721  0.06027090  1
  O2-  O121  1  0.24919509  0.00137528  0.39783473  1
  O2-  O122  1  0.24271463  -0.00134576  0.72988287  1
  O2-  O123  1  0.24705609  0.49855169  0.06043874  1
  O2-  O124  1  0.24668664  0.49679215  0.39608184  1
  O2-  O125  1  0.24886909  0.50188760  0.72463879  1
  O2-  O126  1  0.75084726  -0.00050748  0.05763465  1
  O2-  O127  1  0.75688483  0.00271687  0.39077745  1
  O2-  O128  1  0.75577043  -0.00593938  0.73276009  1
  O2-  O129  1  0.75218914  0.48923775  0.06175382  1
  O2-  O130  1  0.75385398  0.49699873  0.39078991  1
  O2-  O131  1  0.75381164  0.50249810  0.72624356  1
  O2-  O132  1  0.00474150  0.24751599  0.27417868  1
  O2-  O133  1  -0.00023285  0.23984544  0.60466191  1
  O2-  O134  1  -0.00203327  0.24951284  0.93389111  1
  O2-  O135  1  0.00627078  0.74997403  0.27037938  1
  O2-  O136  1  0.00358573  0.75300383  0.60132087  1
  O2-  O137  1  0.00231083  0.74452109  0.94183236  1
  O2-  O138  1  0.48874628  0.24902131  0.27465000  1
  O2-  O139  1  0.49115207  0.25241941  0.60559000  1
  O2-  O140  1  0.50406717  0.24498855  0.93896682  1
  O2-  O141  1  0.50332968  0.74248200  0.27092360  1
  O2-  O142  1  0.49878201  0.75446833  0.60730251  1
  O2-  O143  1  0.49572377  0.74738313  0.94396758  1
  O2-  O144  1  0.07074479  0.18025674  0.09863933  1
  O2-  O145  1  0.07583928  0.18193624  0.42386038  1
  O2-  O146  1  0.07913149  0.18452072  0.75393944  1
  O2-  O147  1  0.07605102  0.68158114  0.09149168  1
  O2-  O148  1  0.06908942  0.67642309  0.41980549  1
  O2-  O149  1  0.07283299  0.67778229  0.76529561  1
  O2-  O150  1  0.57045287  0.17274687  0.08682544  1
  O2-  O151  1  0.57177973  0.17909728  0.43210321  1
  O2-  O152  1  0.56554815  0.18232809  0.76783760  1
  O2-  O153  1  0.57054879  0.68107779  0.09207541  1
  O2-  O154  1  0.57157687  0.67262327  0.42054719  1
  O2-  O155  1  0.56672928  0.67586666  0.76734139  1
  O2-  O156  1  0.17476098  0.43025848  0.24656709  1
  O2-  O157  1  0.17883187  0.42950118  0.57757570  1
  O2-  O158  1  0.17827579  0.43101779  0.91120195  1
  O2-  O159  1  0.17586453  0.93219700  0.23476200  1
  O2-  O160  1  0.18005424  0.92543582  0.58027111  1
  O2-  O161  1  0.18097360  0.92589630  0.90984411  1
  O2-  O162  1  0.67960844  0.43037249  0.24243904  1
  O2-  O163  1  0.68032505  0.42829246  0.56637698  1
  O2-  O164  1  0.67440190  0.42917041  0.91300600  1
  O2-  O165  1  0.68173524  0.92982705  0.23181659  1
  O2-  O166  1  0.67759397  0.92821478  0.56930011  1
  O2-  O167  1  0.67945376  0.92482931  0.91146347  1
  O2-  O168  1  0.43463179  0.32243772  0.10053266  1
  O2-  O169  1  0.43122976  0.32883277  0.42406219  1
  O2-  O170  1  0.42635178  0.32524752  0.75526915  1
  O2-  O171  1  0.42832597  0.82168463  0.09046218  1
  O2-  O172  1  0.43322117  0.81797136  0.43305281  1
  O2-  O173  1  0.42837189  0.81912209  0.75779179  1
  O2-  O174  1  0.93225521  0.32161280  0.09705254  1
  O2-  O175  1  0.92635787  0.32083048  0.43141946  1
  O2-  O176  1  0.93194042  0.32015565  0.76643527  1
  O2-  O177  1  0.92584679  0.81963356  0.09912325  1
  O2-  O178  1  0.92727666  0.81890654  0.43141869  1
  O2-  O179  1  0.92850850  0.81751593  0.76403457  1
  O2-  O180  1  0.32025600  0.07207605  0.23481042  1
  O2-  O181  1  0.32053517  0.06829950  0.56922035  1
  O2-  O182  1  0.32144172  0.06945323  0.90186734  1
  O2-  O183  1  0.32109427  0.56796878  0.23550442  1
  O2-  O184  1  0.32109763  0.56935683  0.57672346  1
  O2-  O185  1  0.32196567  0.57101939  0.89946609  1
  O2-  O186  1  0.81894224  0.07379577  0.23935672  1
  O2-  O187  1  0.81563199  0.07457536  0.56744528  1
  O2-  O188  1  0.81999342  0.07180846  0.91040471  1
  O2-  O189  1  0.82082172  0.57076878  0.24403777  1
  O2-  O190  1  0.82222470  0.56682591  0.57465929  1
  O2-  O191  1  0.81553688  0.57301870  0.90024342  1
  O2-  O192  1  0.05053990  0.08667228  0.27133818  1
  O2-  O193  1  0.06005321  0.08142666  0.60743521  1
  O2-  O194  1  0.04614781  0.08162553  0.92895911  1
  O2-  O195  1  0.04602668  0.58644292  0.26675957  1
  O2-  O196  1  0.04516643  0.58171453  0.59462120  1
  O2-  O197  1  0.05215321  0.58397563  0.94248049  1
  O2-  O198  1  0.54153188  0.08140327  0.26282882  1
  O2-  O199  1  0.53718308  0.08168210  0.60351862  1
  O2-  O200  1  0.54347210  0.08055665  0.93544719  1
  O2-  O201  1  0.54731458  0.58021714  0.26937662  1
  O2-  O202  1  0.53662013  0.58243666  0.59734074  1
  O2-  O203  1  0.54463599  0.58662193  0.94060100  1
  O2-  O204  1  0.16810630  0.20850256  0.27243185  1
  O2-  O205  1  0.16554692  0.21306138  0.60036045  1
  O2-  O206  1  0.16937803  0.21056048  0.93170315  1
  O2-  O207  1  0.16852558  0.70102853  0.27193903  1
  O2-  O208  1  0.17277152  0.70454839  0.59911116  1
  O2-  O209  1  0.16625452  0.70723274  0.93736210  1
  O2-  O210  1  0.66053340  0.21356062  0.25866190  1
  O2-  O211  1  0.66254060  0.21272205  0.60000443  1
  O2-  O212  1  0.66584493  0.19740506  0.93687092  1
  O2-  O213  1  0.66650264  0.70011614  0.26982320  1
  O2-  O214  1  0.66722242  0.70139981  0.59738527  1
  O2-  O215  1  0.65891661  0.71077055  0.93790141  1
  O2-  O216  1  0.08547814  0.45367917  0.06504510  1
  O2-  O217  1  0.08339394  0.45898909  0.39892519  1
  O2-  O218  1  0.08611538  0.46018129  0.72975873  1
  O2-  O219  1  0.08078242  0.95342481  0.05750311  1
  O2-  O220  1  0.07803999  0.95973862  0.40318330  1
  O2-  O221  1  0.08247691  0.94739689  0.73008873  1
  O2-  O222  1  0.58803358  0.45865524  0.06793743  1
  O2-  O223  1  0.59092419  0.45597054  0.39760883  1
  O2-  O224  1  0.58192920  0.46105572  0.73430587  1
  O2-  O225  1  0.58805500  0.95589156  0.06331883  1
  O2-  O226  1  0.58510259  0.95874242  0.39893835  1
  O2-  O227  1  0.58301783  0.95660131  0.73865749  1
  O2-  O228  1  0.20657731  0.33654163  0.06354877  1
  O2-  O229  1  0.19931363  0.33668746  0.40063671  1
  O2-  O230  1  0.20494565  0.34013292  0.73267447  1
  O2-  O231  1  0.20275293  0.83668757  0.06392335  1
  O2-  O232  1  0.20317999  0.83116311  0.40114977  1
  O2-  O233  1  0.20746699  0.83382066  0.73280464  1
  O2-  O234  1  0.69639157  0.32906255  0.06191663  1
  O2-  O235  1  0.70943273  0.33488813  0.39134248  1
  O2-  O236  1  0.70748607  0.33357350  0.73670563  1
  O2-  O237  1  0.70762496  0.83632422  0.06485670  1
  O2-  O238  1  0.70884684  0.83021504  0.39801792  1
  O2-  O239  1  0.70473579  0.82469064  0.73317884  1
  O2-  O240  1  0.46158943  0.41449373  0.27033870  1
  O2-  O241  1  0.45284010  0.41630882  0.60351976  1
  O2-  O242  1  0.46366516  0.41750645  0.93234278  1
  O2-  O243  1  0.46332232  0.91289099  0.26266381  1
  O2-  O244  1  0.45540106  0.91618131  0.60760182  1
  O2-  O245  1  0.45930001  0.91133082  0.93732822  1
  O2-  O246  1  0.96114408  0.41888018  0.26558912  1
  O2-  O247  1  0.96213505  0.41247442  0.59761603  1
  O2-  O248  1  0.95610067  0.42291042  0.93299668  1
  O2-  O249  1  0.95599200  0.92092097  0.26644462  1
  O2-  O250  1  0.95422597  0.92340012  0.59929025  1
  O2-  O251  1  0.95419218  0.91531083  0.92987373  1
  O2-  O252  1  0.33012691  0.30800148  0.27640008  1
  O2-  O253  1  0.33002771  0.30216828  0.60518967  1
  O2-  O254  1  0.33454079  0.29553516  0.93281255  1
  O2-  O255  1  0.33244216  0.78886475  0.26680037  1
  O2-  O256  1  0.33653030  0.79635185  0.60500559  1
  O2-  O257  1  0.33503067  0.79584119  0.93802481  1
  O2-  O258  1  0.83428946  0.29339383  0.25911994  1
  O2-  O259  1  0.83111261  0.28884583  0.60123025  1
  O2-  O260  1  0.82688707  0.29648062  0.93509147  1
  O2-  O261  1  0.83371565  0.78572095  0.26455480  1
  O2-  O262  1  0.83155856  0.79176983  0.59666734  1
  O2-  O263  1  0.83050092  0.78487495  0.93303261  1
  O2-  O264  1  0.41697997  0.03768956  0.06785926  1
  O2-  O265  1  0.41997841  0.03813083  0.39876651  1
  O2-  O266  1  0.41378099  0.03829528  0.73948641  1
  O2-  O267  1  0.41824093  0.54030745  0.06810879  1
  O2-  O268  1  0.41879452  0.53867946  0.40306826  1
  O2-  O269  1  0.41158601  0.54231925  0.72982320  1
  O2-  O270  1  0.91464381  0.04346261  0.06022313  1
  O2-  O271  1  0.91620143  0.05744012  0.39025907  1
  O2-  O272  1  0.92434880  0.05294497  0.73123816  1
  O2-  O273  1  0.91870134  0.54593162  0.06885078  1
  O2-  O274  1  0.91598709  0.54560820  0.39452725  1
  O2-  O275  1  0.91717460  0.54329712  0.72532817  1
  O2-  O276  1  0.29358067  0.17014691  0.06710964  1
  O2-  O277  1  0.29927839  0.17267910  0.40163574  1
  O2-  O278  1  0.29065143  0.16995819  0.73353597  1
  O2-  O279  1  0.29218114  0.66908234  0.06716516  1
  O2-  O280  1  0.29316537  0.66640924  0.40413674  1
  O2-  O281  1  0.29569813  0.66449400  0.72863780  1
  O2-  O282  1  0.79362203  0.16273195  0.06361525  1
  O2-  O283  1  0.78963030  0.16844571  0.38811650  1
  O2-  O284  1  0.78564498  0.16618280  0.73736569  1
  O2-  O285  1  0.78224618  0.66325075  0.07035666  1
  O2-  O286  1  0.79220091  0.66042068  0.39796166  1
  O2-  O287  1  0.79709496  0.66343094  0.72499652  1
