# generated using pymatgen
data_Ca2Al2SiO7
_symmetry_space_group_name_H-M   'P 1'
_cell_length_a   15.45309155
_cell_length_b   15.45266453
_cell_length_c   15.28012026
_cell_angle_alpha   90.00242937
_cell_angle_beta   90.00319090
_cell_angle_gamma   89.99121349
_symmetry_Int_Tables_number   1
_chemical_formula_structural   Ca2Al2SiO7
_chemical_formula_sum   'Ca48 Al48 Si24 O168'
_cell_volume   3648.76186394
_cell_formula_units_Z   24
loop_
 _symmetry_equiv_pos_site_id
 _symmetry_equiv_pos_as_xyz
  1  'x, y, z'
loop_
 _atom_type_symbol
 _atom_type_oxidation_number
  Ca2+  2.0
  Al0+  0.0
  Si0+  0.0
  O2-  -2.0
loop_
 _atom_site_type_symbol
 _atom_site_label
 _atom_site_symmetry_multiplicity
 _atom_site_fract_x
 _atom_site_fract_y
 _atom_site_fract_z
 _atom_site_occupancy
  Ca2+  Ca0  1  0.17510785  0.08143929  0.17585351  1
  Ca2+  Ca1  1  0.16566226  0.07482881  0.50881995  1
  Ca2+  Ca2  1  0.17366460  0.08338858  0.83234067  1
  Ca2+  Ca3  1  0.16121152  0.58037616  0.17445180  1
  Ca2+  Ca4  1  0.16880840  0.58022380  0.50221708  1
  Ca2+  Ca5  1  0.17208041  0.58764090  0.83572419  1
  Ca2+  Ca6  1  0.66528632  0.07942702  0.16936815  1
  Ca2+  Ca7  1  0.66458224  0.08691395  0.50326658  1
  Ca2+  Ca8  1  0.66355599  0.08042597  0.83885009  1
  Ca2+  Ca9  1  0.66184252  0.57805690  0.17040571  1
  Ca2+  Ca10  1  0.66912848  0.58113025  0.51053942  1
  Ca2+  Ca11  1  0.67223285  0.57199070  0.83556107  1
  Ca2+  Ca12  1  0.08144585  0.33215735  0.16252203  1
  Ca2+  Ca13  1  0.09296298  0.32161238  0.49600297  1
  Ca2+  Ca14  1  0.07699811  0.32744291  0.82882287  1
  Ca2+  Ca15  1  0.08740928  0.82510572  0.16709558  1
  Ca2+  Ca16  1  0.07646561  0.83511579  0.49143231  1
  Ca2+  Ca17  1  0.08087862  0.83088113  0.82627048  1
  Ca2+  Ca18  1  0.57875992  0.32855123  0.15904056  1
  Ca2+  Ca19  1  0.58120116  0.32741311  0.50028551  1
  Ca2+  Ca20  1  0.57675566  0.33378253  0.82499812  1
  Ca2+  Ca21  1  0.57475907  0.83173768  0.16295587  1
  Ca2+  Ca22  1  0.57315843  0.82439317  0.48824840  1
  Ca2+  Ca23  1  0.57761386  0.84080815  0.83297891  1
  Ca2+  Ca24  1  0.32797816  0.41676373  0.17155977  1
  Ca2+  Ca25  1  0.33187051  0.42091264  0.50619173  1
  Ca2+  Ca26  1  0.34124715  0.41990254  0.83572581  1
  Ca2+  Ca27  1  0.33370605  0.91820856  0.17126510  1
  Ca2+  Ca28  1  0.32065712  0.91670853  0.50663767  1
  Ca2+  Ca29  1  0.33474896  0.93111002  0.83912822  1
  Ca2+  Ca30  1  0.83082503  0.41285508  0.16799925  1
  Ca2+  Ca31  1  0.82576146  0.42726760  0.51095341  1
  Ca2+  Ca32  1  0.82256862  0.41145816  0.83879000  1
  Ca2+  Ca33  1  0.82863442  0.91145750  0.17023342  1
  Ca2+  Ca34  1  0.83611789  0.91271608  0.50531210  1
  Ca2+  Ca35  1  0.82768083  0.91534785  0.83604835  1
  Ca2+  Ca36  1  0.41854354  0.16932888  0.16041597  1
  Ca2+  Ca37  1  0.42312250  0.16537213  0.50159315  1
  Ca2+  Ca38  1  0.41477226  0.17535753  0.82499432  1
  Ca2+  Ca39  1  0.41478814  0.68062257  0.16563250  1
  Ca2+  Ca40  1  0.41815609  0.66867959  0.49416738  1
  Ca2+  Ca41  1  0.41498571  0.67147607  0.82952195  1
  Ca2+  Ca42  1  0.92681335  0.17030704  0.16440719  1
  Ca2+  Ca43  1  0.93220742  0.16433636  0.49612038  1
  Ca2+  Ca44  1  0.92007003  0.17065849  0.82817152  1
  Ca2+  Ca45  1  0.92912582  0.66757041  0.16565798  1
  Ca2+  Ca46  1  0.91662452  0.67709856  0.49427640  1
  Ca2+  Ca47  1  0.91988237  0.66980430  0.82780117  1
  Al0+  Al48  1  0.00097505  -0.00203762  0.00081493  1
  Al0+  Al49  1  -0.00039846  0.00210593  0.32634988  1
  Al0+  Al50  1  -0.00219186  -0.00111924  0.66538457  1
  Al0+  Al51  1  0.00012380  0.49962782  -0.01020670  1
  Al0+  Al52  1  -0.00187491  0.49968240  0.33833650  1
  Al0+  Al53  1  0.00058684  0.50169130  0.67028411  1
  Al0+  Al54  1  0.50037754  -0.00059828  0.00585336  1
  Al0+  Al55  1  0.50175821  0.00156832  0.32770381  1
  Al0+  Al56  1  0.49814717  0.00056333  0.66477307  1
  Al0+  Al57  1  0.50058174  0.50068260  0.00327520  1
  Al0+  Al58  1  0.49982435  0.49890699  0.33107489  1
  Al0+  Al59  1  0.49901703  0.50025381  0.67068485  1
  Al0+  Al60  1  0.25167895  0.25006210  0.00058354  1
  Al0+  Al61  1  0.25124965  0.25031867  0.33431969  1
  Al0+  Al62  1  0.24999819  0.25021154  0.66161734  1
  Al0+  Al63  1  0.25145659  0.75090396  -0.00863933  1
  Al0+  Al64  1  0.24956109  0.75083520  0.33129654  1
  Al0+  Al65  1  0.24779158  0.74851114  0.67417545  1
  Al0+  Al66  1  0.75168153  0.24942580  0.00270543  1
  Al0+  Al67  1  0.74908789  0.24900507  0.33139042  1
  Al0+  Al68  1  0.74956642  0.24926634  0.66678657  1
  Al0+  Al69  1  0.75131709  0.74829291  0.00581157  1
  Al0+  Al70  1  0.74891239  0.74921905  0.32609983  1
  Al0+  Al71  1  0.75033816  0.74963457  0.66845750  1
  Al0+  Al72  1  0.68016162  0.92889909  0.01489567  1
  Al0+  Al73  1  0.68001717  0.42770438  0.68159736  1
  Al0+  Al74  1  0.43162664  0.82185198  0.98343912  1
  Al0+  Al75  1  0.57144367  0.67626901  0.31852570  1
  Al0+  Al76  1  0.31921135  0.07210172  0.01517742  1
  Al0+  Al77  1  0.17934561  0.92997691  0.34547285  1
  Al0+  Al78  1  0.07318648  0.17988089  0.31908171  1
  Al0+  Al79  1  0.17751112  0.42843682  0.34643331  1
  Al0+  Al80  1  0.17532172  0.92909295  0.68284164  1
  Al0+  Al81  1  0.42880626  0.32375241  0.65013849  1
  Al0+  Al82  1  0.92837778  0.82323369  0.31609943  1
  Al0+  Al83  1  0.57231648  0.18052016  0.31699222  1
  Al0+  Al84  1  0.42924046  0.32159036  0.98710073  1
  Al0+  Al85  1  0.67911299  0.42893396  0.01645279  1
  Al0+  Al86  1  0.57185225  0.17724120  0.65263484  1
  Al0+  Al87  1  0.06924953  0.18044488  0.65411449  1
  Al0+  Al88  1  0.32152093  0.07080385  0.68078353  1
  Al0+  Al89  1  0.92920357  0.31908533  0.98632606  1
  Al0+  Al90  1  0.32025074  0.57008291  0.68082839  1
  Al0+  Al91  1  0.42756564  0.82135173  0.31999883  1
  Al0+  Al92  1  0.07096531  0.67940241  0.98395191  1
  Al0+  Al93  1  0.82209959  0.57376867  0.68268441  1
  Al0+  Al94  1  0.92891142  0.81872155  0.65412370  1
  Al0+  Al95  1  0.07034747  0.67743319  0.32117625  1
  Si0+  Si96  1  0.17863043  0.43064932  0.01256936  1
  Si0+  Si97  1  0.07340816  0.17655213  0.98376671  1
  Si0+  Si98  1  0.57343905  0.67776966  0.98215161  1
  Si0+  Si99  1  0.82411373  0.57009976  0.01893565  1
  Si0+  Si100  1  0.67947632  0.92854400  0.34877721  1
  Si0+  Si101  1  0.82095159  0.07035470  0.67990163  1
  Si0+  Si102  1  0.81999391  0.07138209  0.34850369  1
  Si0+  Si103  1  0.32467470  0.07262878  0.35120771  1
  Si0+  Si104  1  0.67817491  0.42757792  0.34851414  1
  Si0+  Si105  1  0.32077761  0.57298970  0.01608359  1
  Si0+  Si106  1  0.82479077  0.07223329  0.01818140  1
  Si0+  Si107  1  0.32198330  0.57163703  0.34784296  1
  Si0+  Si108  1  0.56956965  0.68074125  0.65546462  1
  Si0+  Si109  1  0.42712472  0.82144496  0.65314893  1
  Si0+  Si110  1  0.42851392  0.32194221  0.31575126  1
  Si0+  Si111  1  0.92812633  0.32166832  0.31967431  1
  Si0+  Si112  1  0.67795560  0.92864945  0.67814086  1
  Si0+  Si113  1  0.81947185  0.57133479  0.34800886  1
  Si0+  Si114  1  0.07413577  0.67740044  0.64890281  1
  Si0+  Si115  1  0.17781720  0.42612263  0.68463683  1
  Si0+  Si116  1  0.92701695  0.32392553  0.64980213  1
  Si0+  Si117  1  0.17821671  0.92659921  0.01721605  1
  Si0+  Si118  1  0.92664996  0.82182350  0.98293262  1
  Si0+  Si119  1  0.57158996  0.17843264  0.98489310  1
  O2-  O120  1  0.24353490  -0.00187826  0.06171830  1
  O2-  O121  1  0.25485459  0.00381485  0.39324873  1
  O2-  O122  1  0.24971523  -0.00085615  0.73209944  1
  O2-  O123  1  0.24904948  0.50168847  0.05669081  1
  O2-  O124  1  0.25217086  0.50391002  0.39185008  1
  O2-  O125  1  0.24617873  0.49504279  0.72913284  1
  O2-  O126  1  0.75713879  0.00193246  0.06157854  1
  O2-  O127  1  0.75153897  -0.00205088  0.39217442  1
  O2-  O128  1  0.74594784  0.00268949  0.72058088  1
  O2-  O129  1  0.75404017  0.50323718  0.06464513  1
  O2-  O130  1  0.74612030  0.50193193  0.38987326  1
  O2-  O131  1  0.75580327  0.49608077  0.73184802  1
  O2-  O132  1  0.00067122  0.25767648  0.27425656  1
  O2-  O133  1  -0.00235706  0.25799855  0.60518193  1
  O2-  O134  1  0.00166101  0.24220941  0.93987105  1
  O2-  O135  1  0.00208459  0.75171999  0.26864807  1
  O2-  O136  1  0.00383254  0.74495731  0.60640603  1
  O2-  O137  1  -0.00311365  0.75565292  0.93858498  1
  O2-  O138  1  0.49656810  0.25346687  0.27072741  1
  O2-  O139  1  0.50074837  0.25017562  0.60225559  1
  O2-  O140  1  0.50521128  0.24830777  0.94039622  1
  O2-  O141  1  0.49995146  0.74918021  0.26993825  1
  O2-  O142  1  0.49760334  0.74973113  0.61135904  1
  O2-  O143  1  0.50772399  0.74830171  0.93608827  1
  O2-  O144  1  0.07317215  0.17910480  0.08948789  1
  O2-  O145  1  0.07058948  0.17874862  0.43211701  1
  O2-  O146  1  0.06544287  0.18135349  0.76754057  1
  O2-  O147  1  0.07033388  0.67747481  0.09707265  1
  O2-  O148  1  0.06738120  0.67641999  0.43434632  1
  O2-  O149  1  0.07369730  0.67921580  0.75470330  1
  O2-  O150  1  0.57034018  0.18044347  0.09078202  1
  O2-  O151  1  0.57455376  0.18213553  0.42967932  1
  O2-  O152  1  0.57256637  0.17512766  0.76609508  1
  O2-  O153  1  0.57013129  0.67804471  0.08768360  1
  O2-  O154  1  0.57169629  0.67713977  0.43296773  1
  O2-  O155  1  0.56981909  0.68343571  0.76045278  1
  O2-  O156  1  0.17800550  0.42934715  0.23254175  1
  O2-  O157  1  0.17799638  0.42805413  0.57889218  1
  O2-  O158  1  0.17957793  0.43067219  0.90766379  1
  O2-  O159  1  0.18157255  0.93145900  0.23215205  1
  O2-  O160  1  0.17535104  0.92952157  0.56886450  1
  O2-  O161  1  0.17746086  0.92831146  0.91181436  1
  O2-  O162  1  0.68025873  0.42680447  0.24333969  1
  O2-  O163  1  0.68048936  0.43079542  0.56726213  1
  O2-  O164  1  0.67979161  0.42920941  0.90383567  1
  O2-  O165  1  0.68032297  0.93067978  0.24378577  1
  O2-  O166  1  0.67928278  0.92617340  0.57303703  1
  O2-  O167  1  0.68105651  0.93152518  0.90088427  1
  O2-  O168  1  0.42851488  0.32051396  0.10039529  1
  O2-  O169  1  0.43043992  0.32462736  0.42093510  1
  O2-  O170  1  0.43101933  0.32350581  0.76400676  1
  O2-  O171  1  0.43075766  0.81983692  0.09629520  1
  O2-  O172  1  0.42899107  0.81908588  0.43432950  1
  O2-  O173  1  0.43127572  0.82278361  0.75824553  1
  O2-  O174  1  0.93241036  0.31960479  0.09984232  1
  O2-  O175  1  0.92544924  0.31868562  0.42498726  1
  O2-  O176  1  0.92665720  0.31973088  0.75556530  1
  O2-  O177  1  0.92687509  0.82102396  0.08817926  1
  O2-  O178  1  0.92635817  0.82124492  0.42988460  1
  O2-  O179  1  0.92674613  0.81850952  0.76726862  1
  O2-  O180  1  0.32311355  0.07354234  0.24518724  1
  O2-  O181  1  0.32306652  0.06617016  0.56724399  1
  O2-  O182  1  0.31837785  0.07346191  0.90233626  1
  O2-  O183  1  0.32285609  0.56962094  0.24203100  1
  O2-  O184  1  0.31986178  0.57173129  0.56750681  1
  O2-  O185  1  0.32104078  0.57214789  0.91094326  1
  O2-  O186  1  0.81748698  0.07343931  0.24346187  1
  O2-  O187  1  0.82314390  0.06912410  0.57470965  1
  O2-  O188  1  0.82511097  0.07264144  0.91232180  1
  O2-  O189  1  0.82211488  0.56784424  0.24301338  1
  O2-  O190  1  0.81665779  0.57552629  0.56847694  1
  O2-  O191  1  0.82189722  0.57023238  0.91360154  1
  O2-  O192  1  0.03815651  0.08749743  0.26072814  1
  O2-  O193  1  0.03347615  0.08548376  0.60002600  1
  O2-  O194  1  0.05005820  0.08138666  0.93970081  1
  O2-  O195  1  0.03750359  0.57950817  0.26790762  1
  O2-  O196  1  0.05186639  0.58149175  0.60578177  1
  O2-  O197  1  0.04051605  0.58459613  0.92668117  1
  O2-  O198  1  0.54485239  0.08372833  0.26255280  1
  O2-  O199  1  0.54271408  0.07930862  0.59681033  1
  O2-  O200  1  0.54610088  0.08422450  0.94158323  1
  O2-  O201  1  0.54395344  0.57797424  0.26477811  1
  O2-  O202  1  0.54291199  0.58890665  0.60839755  1
  O2-  O203  1  0.54452556  0.58499031  0.93696256  1
  O2-  O204  1  0.17032435  0.20905931  0.26575101  1
  O2-  O205  1  0.16524841  0.20781507  0.59786736  1
  O2-  O206  1  0.16499241  0.20672480  0.93757520  1
  O2-  O207  1  0.16922202  0.70171416  0.26762357  1
  O2-  O208  1  0.16821313  0.70264426  0.60403974  1
  O2-  O209  1  0.16683575  0.70933660  0.92852776  1
  O2-  O210  1  0.66824614  0.21198683  0.26162847  1
  O2-  O211  1  0.67137099  0.20358499  0.59926435  1
  O2-  O212  1  0.66754912  0.19976876  0.94222527  1
  O2-  O213  1  0.66806826  0.70340010  0.26244359  1
  O2-  O214  1  0.66036642  0.71000039  0.60694669  1
  O2-  O215  1  0.66965321  0.70016921  0.94030401  1
  O2-  O216  1  0.08595084  0.45888738  0.05820700  1
  O2-  O217  1  0.08110004  0.45613634  0.40287774  1
  O2-  O218  1  0.08345139  0.45012086  0.73070312  1
  O2-  O219  1  0.08233608  0.94653089  0.06201255  1
  O2-  O220  1  0.08084169  0.96197334  0.39574792  1
  O2-  O221  1  0.07759243  0.96004209  0.73620147  1
  O2-  O222  1  0.58296248  0.46103814  0.07183155  1
  O2-  O223  1  0.58492022  0.45243761  0.39425766  1
  O2-  O224  1  0.58357298  0.46027547  0.73494839  1
  O2-  O225  1  0.58573911  0.96101167  0.07167078  1
  O2-  O226  1  0.58743638  0.95783618  0.39518009  1
  O2-  O227  1  0.58589279  0.95461374  0.72586979  1
  O2-  O228  1  0.20598919  0.33896383  0.06076993  1
  O2-  O229  1  0.21089456  0.33286950  0.40125365  1
  O2-  O230  1  0.20196087  0.33214189  0.72950544  1
  O2-  O231  1  0.20886322  0.83315485  0.06055464  1
  O2-  O232  1  0.20764304  0.83229759  0.39960066  1
  O2-  O233  1  0.20075095  0.83020964  0.73517941  1
  O2-  O234  1  0.71105166  0.33195893  0.07009010  1
  O2-  O235  1  0.70944721  0.33674927  0.39577534  1
  O2-  O236  1  0.70606072  0.32831981  0.73469733  1
  O2-  O237  1  0.70879620  0.83163423  0.06966725  1
  O2-  O238  1  0.70518574  0.83473385  0.39380425  1
  O2-  O239  1  0.70841466  0.83954843  0.72901961  1
  O2-  O240  1  0.45335385  0.41516847  0.26841496  1
  O2-  O241  1  0.45866090  0.42253065  0.59780292  1
  O2-  O242  1  0.45886147  0.41981883  0.93578969  1
  O2-  O243  1  0.45773576  0.91841283  0.26615124  1
  O2-  O244  1  0.45501588  0.91165578  0.60394809  1
  O2-  O245  1  0.46530849  0.91889526  0.93170546  1
  O2-  O246  1  0.94991434  0.41621388  0.27452819  1
  O2-  O247  1  0.94937844  0.41995434  0.60718121  1
  O2-  O248  1  0.95997885  0.41304831  0.92836361  1
  O2-  O249  1  0.95256934  0.92157558  0.26205119  1
  O2-  O250  1  0.95637449  0.91569159  0.59950527  1
  O2-  O251  1  0.94853482  0.91743859  0.93827226  1
  O2-  O252  1  0.33492247  0.29640021  0.26993165  1
  O2-  O253  1  0.33033476  0.29766854  0.59686450  1
  O2-  O254  1  0.33252723  0.29175995  0.93294773  1
  O2-  O255  1  0.33116705  0.79251448  0.26392202  1
  O2-  O256  1  0.33439347  0.79180366  0.60952012  1
  O2-  O257  1  0.33658497  0.79085705  0.92770451  1
  O2-  O258  1  0.83690115  0.29144749  0.27092240  1
  O2-  O259  1  0.83401239  0.29718662  0.60383976  1
  O2-  O260  1  0.83263790  0.28738455  0.93241207  1
  O2-  O261  1  0.83106347  0.79265990  0.26268682  1
  O2-  O262  1  0.83181478  0.78809792  0.59925389  1
  O2-  O263  1  0.83272852  0.79436735  0.93800447  1
  O2-  O264  1  0.41530394  0.04051496  0.06948625  1
  O2-  O265  1  0.41962477  0.04722170  0.39441629  1
  O2-  O266  1  0.41970882  0.04132676  0.73501861  1
  O2-  O267  1  0.41210146  0.54593660  0.06433780  1
  O2-  O268  1  0.41537119  0.54408380  0.39477967  1
  O2-  O269  1  0.41630639  0.54221786  0.73753504  1
  O2-  O270  1  0.91926871  0.04779389  0.06422144  1
  O2-  O271  1  0.91310870  0.04562211  0.39394938  1
  O2-  O272  1  0.90912903  0.03867099  0.73137773  1
  O2-  O273  1  0.91796105  0.53982577  0.06194424  1
  O2-  O274  1  0.90892399  0.54252347  0.39940371  1
  O2-  O275  1  0.92304340  0.55276243  0.73324474  1
  O2-  O276  1  0.28902833  0.16865778  0.07101379  1
  O2-  O277  1  0.30043628  0.16683108  0.39598002  1
  O2-  O278  1  0.29276744  0.17060125  0.73054846  1
  O2-  O279  1  0.29149550  0.66549465  0.06088721  1
  O2-  O280  1  0.29838592  0.66544176  0.39378242  1
  O2-  O281  1  0.28954417  0.66496920  0.73911752  1
  O2-  O282  1  0.79844501  0.16451624  0.06640757  1
  O2-  O283  1  0.78937283  0.16216103  0.39712085  1
  O2-  O284  1  0.79703603  0.16271341  0.72827394  1
  O2-  O285  1  0.80203088  0.66424041  0.06571421  1
  O2-  O286  1  0.79168603  0.66439899  0.39314632  1
  O2-  O287  1  0.78749902  0.66912098  0.73864373  1
