# generated using pymatgen
data_Ca2Al2SiO7
_symmetry_space_group_name_H-M   'P 1'
_cell_length_a   15.46263185
_cell_length_b   15.46161992
_cell_length_c   15.28720345
_cell_angle_alpha   89.99406066
_cell_angle_beta   90.00660277
_cell_angle_gamma   90.00955201
_symmetry_Int_Tables_number   1
_chemical_formula_structural   Ca2Al2SiO7
_chemical_formula_sum   'Ca48 Al48 Si24 O168'
_cell_volume   3654.82379198
_cell_formula_units_Z   24
loop_
 _symmetry_equiv_pos_site_id
 _symmetry_equiv_pos_as_xyz
  1  'x, y, z'
loop_
 _atom_type_symbol
 _atom_type_oxidation_number
  Ca2+  2.0
  Al0+  0.0
  Si0+  0.0
  O2-  -2.0
loop_
 _atom_site_type_symbol
 _atom_site_label
 _atom_site_symmetry_multiplicity
 _atom_site_fract_x
 _atom_site_fract_y
 _atom_site_fract_z
 _atom_site_occupancy
  Ca2+  Ca0  1  0.17387603  0.08607453  0.17018881  1
  Ca2+  Ca1  1  0.17133203  0.08483820  0.50407411  1
  Ca2+  Ca2  1  0.16476463  0.08310229  0.84175896  1
  Ca2+  Ca3  1  0.15904884  0.57663694  0.17100945  1
  Ca2+  Ca4  1  0.16987660  0.57209887  0.50771299  1
  Ca2+  Ca5  1  0.16699579  0.58117936  0.83493472  1
  Ca2+  Ca6  1  0.67724738  0.08158601  0.17450083  1
  Ca2+  Ca7  1  0.67108302  0.07787418  0.50596683  1
  Ca2+  Ca8  1  0.65919433  0.07772465  0.83332650  1
  Ca2+  Ca9  1  0.67535985  0.57387294  0.17381386  1
  Ca2+  Ca10  1  0.66966900  0.58129477  0.50868415  1
  Ca2+  Ca11  1  0.67645191  0.57475165  0.83706296  1
  Ca2+  Ca12  1  0.07680478  0.32991166  0.15633384  1
  Ca2+  Ca13  1  0.08243815  0.33703469  0.50103179  1
  Ca2+  Ca14  1  0.07400908  0.32945638  0.82464275  1
  Ca2+  Ca15  1  0.07916979  0.82921476  0.15995499  1
  Ca2+  Ca16  1  0.07524068  0.82827682  0.49293392  1
  Ca2+  Ca17  1  0.08595375  0.82938342  0.83461688  1
  Ca2+  Ca18  1  0.58704837  0.33745650  0.16341630  1
  Ca2+  Ca19  1  0.59219975  0.33279679  0.49855040  1
  Ca2+  Ca20  1  0.58748171  0.33145865  0.82517963  1
  Ca2+  Ca21  1  0.58059769  0.82690852  0.16954709  1
  Ca2+  Ca22  1  0.58543916  0.82041252  0.49348778  1
  Ca2+  Ca23  1  0.58281079  0.82750858  0.82179305  1
  Ca2+  Ca24  1  0.32305340  0.41662735  0.17382533  1
  Ca2+  Ca25  1  0.32238207  0.42048680  0.50583510  1
  Ca2+  Ca26  1  0.33073282  0.42105888  0.82945923  1
  Ca2+  Ca27  1  0.32904841  0.92442086  0.17010365  1
  Ca2+  Ca28  1  0.34348544  0.92004415  0.49921844  1
  Ca2+  Ca29  1  0.32563380  0.92596237  0.84411379  1
  Ca2+  Ca30  1  0.83058592  0.42360618  0.17214967  1
  Ca2+  Ca31  1  0.82560828  0.42843339  0.50736285  1
  Ca2+  Ca32  1  0.82969879  0.41676640  0.83719420  1
  Ca2+  Ca33  1  0.84038839  0.92389067  0.17497654  1
  Ca2+  Ca34  1  0.83398151  0.92113145  0.50352482  1
  Ca2+  Ca35  1  0.82541674  0.91630253  0.83283790  1
  Ca2+  Ca36  1  0.41473790  0.16344592  0.16428917  1
  Ca2+  Ca37  1  0.42322539  0.16530158  0.49707108  1
  Ca2+  Ca38  1  0.41956926  0.16757478  0.82783890  1
  Ca2+  Ca39  1  0.42228200  0.66781279  0.16574401  1
  Ca2+  Ca40  1  0.42809287  0.66408654  0.49347159  1
  Ca2+  Ca41  1  0.42307589  0.66572532  0.82200638  1
  Ca2+  Ca42  1  0.92055952  0.17334718  0.15652373  1
  Ca2+  Ca43  1  0.91794790  0.17362427  0.49834428  1
  Ca2+  Ca44  1  0.92476439  0.17954248  0.82582741  1
  Ca2+  Ca45  1  0.91610550  0.66582253  0.16347022  1
  Ca2+  Ca46  1  0.90733469  0.66984503  0.49403161  1
  Ca2+  Ca47  1  0.91721381  0.65833341  0.83249927  1
  Al0+  Al48  1  -0.00118280  -0.00262455  -0.00164705  1
  Al0+  Al49  1  0.00271596  0.00009347  0.33420504  1
  Al0+  Al50  1  0.00113781  0.00062227  0.66387747  1
  Al0+  Al51  1  -0.00053489  0.50229752  -0.00461308  1
  Al0+  Al52  1  -0.00253052  0.49845667  0.34137073  1
  Al0+  Al53  1  0.00095869  0.50013737  0.66879495  1
  Al0+  Al54  1  0.49828945  -0.00048421  0.00445189  1
  Al0+  Al55  1  0.50013674  0.00021303  0.33174165  1
  Al0+  Al56  1  0.50003242  0.00145829  0.66720692  1
  Al0+  Al57  1  0.50048134  0.49951034  0.00229721  1
  Al0+  Al58  1  0.49871283  0.49656600  0.32980596  1
  Al0+  Al59  1  0.49957974  0.50016027  0.66848660  1
  Al0+  Al60  1  0.25277588  0.25099036  -0.00078638  1
  Al0+  Al61  1  0.25172270  0.24815362  0.34174417  1
  Al0+  Al62  1  0.25049638  0.24971889  0.66704721  1
  Al0+  Al63  1  0.24965525  0.75225816  0.00025185  1
  Al0+  Al64  1  0.25011869  0.75024676  0.32862878  1
  Al0+  Al65  1  0.24937437  0.75308403  0.66792709  1
  Al0+  Al66  1  0.74743229  0.24796932  -0.00184467  1
  Al0+  Al67  1  0.75206366  0.24916065  0.33915464  1
  Al0+  Al68  1  0.75230673  0.24982969  0.66075878  1
  Al0+  Al69  1  0.74866034  0.74857226  0.00340124  1
  Al0+  Al70  1  0.75005735  0.75102765  0.32329438  1
  Al0+  Al71  1  0.74866537  0.75165776  0.67114554  1
  Al0+  Al72  1  0.82067291  0.57368280  0.68292714  1
  Al0+  Al73  1  0.57097456  0.17845487  0.65244650  1
  Al0+  Al74  1  0.67693995  0.42836301  0.34946597  1
  Al0+  Al75  1  0.57026575  0.67944151  0.65477490  1
  Al0+  Al76  1  0.32054477  0.07289644  0.01562946  1
  Al0+  Al77  1  0.92993140  0.82204709  0.32023230  1
  Al0+  Al78  1  0.82479637  0.07066510  0.34697028  1
  Al0+  Al79  1  0.67921594  0.93148506  0.67855458  1
  Al0+  Al80  1  0.92725311  0.32119047  0.98557514  1
  Al0+  Al81  1  0.67870209  0.42653277  0.01555672  1
  Al0+  Al82  1  0.07240176  0.17826487  0.64913892  1
  Al0+  Al83  1  0.07104211  0.68043593  0.98608857  1
  Al0+  Al84  1  0.17671090  0.92839507  0.01629567  1
  Al0+  Al85  1  0.82288144  0.57037348  0.01735923  1
  Al0+  Al86  1  0.81885597  0.57314533  0.34862518  1
  Al0+  Al87  1  0.32145135  0.06878242  0.35008236  1
  Al0+  Al88  1  0.17818364  0.42888117  0.34570280  1
  Al0+  Al89  1  0.67928556  0.42683955  0.68175868  1
  Al0+  Al90  1  0.42810256  0.82248940  0.31608822  1
  Al0+  Al91  1  0.07275626  0.17816957  0.98673227  1
  Al0+  Al92  1  0.92936252  0.32398273  0.64765260  1
  Al0+  Al93  1  0.32073204  0.57339288  0.67998257  1
  Al0+  Al94  1  0.57156889  0.67531792  0.31559208  1
  Al0+  Al95  1  0.17930632  0.42818796  0.68465627  1
  Si0+  Si96  1  0.92887722  0.82035141  0.65334471  1
  Si0+  Si97  1  0.92954930  0.31994711  0.31856951  1
  Si0+  Si98  1  0.32177904  0.57301465  0.34686326  1
  Si0+  Si99  1  0.56931813  0.17745416  0.98667320  1
  Si0+  Si100  1  0.32095136  0.06969419  0.68169382  1
  Si0+  Si101  1  0.07340196  0.18035527  0.31883135  1
  Si0+  Si102  1  0.07298269  0.68033439  0.65191472  1
  Si0+  Si103  1  0.32231001  0.57244752  0.01507023  1
  Si0+  Si104  1  0.92478986  0.82247002  0.98139737  1
  Si0+  Si105  1  0.67886745  0.92970537  0.34748445  1
  Si0+  Si106  1  0.17876469  0.92629015  0.35135308  1
  Si0+  Si107  1  0.67679813  0.92762361  0.01654534  1
  Si0+  Si108  1  0.07063296  0.67569494  0.31934050  1
  Si0+  Si109  1  0.42846966  0.32203268  0.64891375  1
  Si0+  Si110  1  0.56970931  0.67853750  0.98348523  1
  Si0+  Si111  1  0.43050447  0.82135824  0.98402010  1
  Si0+  Si112  1  0.42909017  0.32316990  0.98493207  1
  Si0+  Si113  1  0.17635866  0.92961234  0.68170582  1
  Si0+  Si114  1  0.57261998  0.17987828  0.31794776  1
  Si0+  Si115  1  0.42723119  0.31803699  0.31847417  1
  Si0+  Si116  1  0.18038579  0.43097420  0.01289581  1
  Si0+  Si117  1  0.42671733  0.82286588  0.65159090  1
  Si0+  Si118  1  0.82402645  0.07156833  0.68372139  1
  Si0+  Si119  1  0.81889679  0.06877533  0.01201157  1
  O2-  O120  1  0.24449819  0.00494116  0.06524364  1
  O2-  O121  1  0.25048602  -0.00915223  0.39723750  1
  O2-  O122  1  0.24713233  0.00151403  0.72277338  1
  O2-  O123  1  0.24947528  0.50322170  0.05731410  1
  O2-  O124  1  0.24999124  0.50764917  0.39014347  1
  O2-  O125  1  0.24904506  0.50328789  0.73365195  1
  O2-  O126  1  0.75092359  -0.00408278  0.05717322  1
  O2-  O127  1  0.75119675  -0.00595596  0.39209849  1
  O2-  O128  1  0.75125319  0.00731754  0.72876208  1
  O2-  O129  1  0.75252230  0.49594438  0.06554941  1
  O2-  O130  1  0.74238198  0.50628715  0.39830699  1
  O2-  O131  1  0.75221085  0.49755077  0.73180309  1
  O2-  O132  1  0.00148856  0.24969140  0.27559321  1
  O2-  O133  1  0.00252453  0.25152333  0.59840737  1
  O2-  O134  1  0.00183329  0.25066289  0.93677996  1
  O2-  O135  1  0.00326103  0.74538946  0.27474407  1
  O2-  O136  1  -0.00265286  0.74693041  0.61070334  1
  O2-  O137  1  -0.00594877  0.75350222  0.93874184  1
  O2-  O138  1  0.50263766  0.25176036  0.27523924  1
  O2-  O139  1  0.50058576  0.25666670  0.60466040  1
  O2-  O140  1  0.50027388  0.25078185  0.94516218  1
  O2-  O141  1  0.49739958  0.74730475  0.26650457  1
  O2-  O142  1  0.49205871  0.75119423  0.60835391  1
  O2-  O143  1  0.49971313  0.75020075  0.93983234  1
  O2-  O144  1  0.07186956  0.18135769  0.10113474  1
  O2-  O145  1  0.07353471  0.18088461  0.42347777  1
  O2-  O146  1  0.07024191  0.17555766  0.76263074  1
  O2-  O147  1  0.07175586  0.68041442  0.09941784  1
  O2-  O148  1  0.07215777  0.67786696  0.42503343  1
  O2-  O149  1  0.07632673  0.68485315  0.75683056  1
  O2-  O150  1  0.56963640  0.17564283  0.09186157  1
  O2-  O151  1  0.57082247  0.17825411  0.42277328  1
  O2-  O152  1  0.56460960  0.17436707  0.76597930  1
  O2-  O153  1  0.56655686  0.67955730  0.08824362  1
  O2-  O154  1  0.57059973  0.67706440  0.42940628  1
  O2-  O155  1  0.56915339  0.68358815  0.76828626  1
  O2-  O156  1  0.17888929  0.42827305  0.23169009  1
  O2-  O157  1  0.18228877  0.42990008  0.57081157  1
  O2-  O158  1  0.18384088  0.43111784  0.90853915  1
  O2-  O159  1  0.17699462  0.92955737  0.24616369  1
  O2-  O160  1  0.17553414  0.92769970  0.57679619  1
  O2-  O161  1  0.18155360  0.92740557  0.90216922  1
  O2-  O162  1  0.68111797  0.42555154  0.23586717  1
  O2-  O163  1  0.67871189  0.43016740  0.56856324  1
  O2-  O164  1  0.67529817  0.42728493  0.90260269  1
  O2-  O165  1  0.67839026  0.93481169  0.24130532  1
  O2-  O166  1  0.68171499  0.93087008  0.56577030  1
  O2-  O167  1  0.67440719  0.92902302  0.91130233  1
  O2-  O168  1  0.42686914  0.32413690  0.09013149  1
  O2-  O169  1  0.42430477  0.31524470  0.42299598  1
  O2-  O170  1  0.42669553  0.31860749  0.75498983  1
  O2-  O171  1  0.43276779  0.82120967  0.08869220  1
  O2-  O172  1  0.43168627  0.82288714  0.42987472  1
  O2-  O173  1  0.42790804  0.82424068  0.75758738  1
  O2-  O174  1  0.92905299  0.31853726  0.10016956  1
  O2-  O175  1  0.93075624  0.31884974  0.42294659  1
  O2-  O176  1  0.92951671  0.32060133  0.76150963  1
  O2-  O177  1  0.92532061  0.82472697  0.08685601  1
  O2-  O178  1  0.93200658  0.82336428  0.43378737  1
  O2-  O179  1  0.93080093  0.82325557  0.75829400  1
  O2-  O180  1  0.31854688  0.07196257  0.23743236  1
  O2-  O181  1  0.32326397  0.06696144  0.57667412  1
  O2-  O182  1  0.32595825  0.06933054  0.90198641  1
  O2-  O183  1  0.32104806  0.57011608  0.24064416  1
  O2-  O184  1  0.31794554  0.57349304  0.56623479  1
  O2-  O185  1  0.32427551  0.57107539  0.91033254  1
  O2-  O186  1  0.82264117  0.07188768  0.23298410  1
  O2-  O187  1  0.82526586  0.06624630  0.57807801  1
  O2-  O188  1  0.81514068  0.06748643  0.90721383  1
  O2-  O189  1  0.82339106  0.56820541  0.23536493  1
  O2-  O190  1  0.81638978  0.57848499  0.56963277  1
  O2-  O191  1  0.81901052  0.57247194  0.90427649  1
  O2-  O192  1  0.04814719  0.08743965  0.27285029  1
  O2-  O193  1  0.04354372  0.07945068  0.59559093  1
  O2-  O194  1  0.04479892  0.07873499  0.93562054  1
  O2-  O195  1  0.04281224  0.58193771  0.27425506  1
  O2-  O196  1  0.05170310  0.58652726  0.60723656  1
  O2-  O197  1  0.04372832  0.58457108  0.92946235  1
  O2-  O198  1  0.54361706  0.08902603  0.26926904  1
  O2-  O199  1  0.53508158  0.08362397  0.59693982  1
  O2-  O200  1  0.53855269  0.08593398  0.93914561  1
  O2-  O201  1  0.54113891  0.57704528  0.26199173  1
  O2-  O202  1  0.54076612  0.58260208  0.60116278  1
  O2-  O203  1  0.54002660  0.58664408  0.93759852  1
  O2-  O204  1  0.16560513  0.21018926  0.27323173  1
  O2-  O205  1  0.17281872  0.20398802  0.59863405  1
  O2-  O206  1  0.17281414  0.20396560  0.93579264  1
  O2-  O207  1  0.16482343  0.69764901  0.27228029  1
  O2-  O208  1  0.16225437  0.71382847  0.60213969  1
  O2-  O209  1  0.16767951  0.71319295  0.93150772  1
  O2-  O210  1  0.66558100  0.20646886  0.27141539  1
  O2-  O211  1  0.66935992  0.20039435  0.59908199  1
  O2-  O212  1  0.66071197  0.20055143  0.93685290  1
  O2-  O213  1  0.66706734  0.70731990  0.25873372  1
  O2-  O214  1  0.66508077  0.71680091  0.60159327  1
  O2-  O215  1  0.66228690  0.70702647  0.93872757  1
  O2-  O216  1  0.08818793  0.45806739  0.05919050  1
  O2-  O217  1  0.08323533  0.45708489  0.40259000  1
  O2-  O218  1  0.08125093  0.45600234  0.73644359  1
  O2-  O219  1  0.07513404  0.94864765  0.06603125  1
  O2-  O220  1  0.08740658  0.95595941  0.39946529  1
  O2-  O221  1  0.08501215  0.95666812  0.73028994  1
  O2-  O222  1  0.58023949  0.45745731  0.06885998  1
  O2-  O223  1  0.57359826  0.44571224  0.39639021  1
  O2-  O224  1  0.57947871  0.45245234  0.73296680  1
  O2-  O225  1  0.58721952  0.95908795  0.06546015  1
  O2-  O226  1  0.58740046  0.95924684  0.39440505  1
  O2-  O227  1  0.58284945  0.96233360  0.73489216  1
  O2-  O228  1  0.21065533  0.34014719  0.06108820  1
  O2-  O229  1  0.21429347  0.33585590  0.40205334  1
  O2-  O230  1  0.21128783  0.33014815  0.73649900  1
  O2-  O231  1  0.21045634  0.83191070  0.07040022  1
  O2-  O232  1  0.19959276  0.83019309  0.39484415  1
  O2-  O233  1  0.20491148  0.83902544  0.73092871  1
  O2-  O234  1  0.70084609  0.32500712  0.06596059  1
  O2-  O235  1  0.70928451  0.33139382  0.40202173  1
  O2-  O236  1  0.70529535  0.32568236  0.73111343  1
  O2-  O237  1  0.70102503  0.83526770  0.06344279  1
  O2-  O238  1  0.70031286  0.83374887  0.38814317  1
  O2-  O239  1  0.71187457  0.83826064  0.73745266  1
  O2-  O240  1  0.44777303  0.41060449  0.26883685  1
  O2-  O241  1  0.44844622  0.41711507  0.60452946  1
  O2-  O242  1  0.45698231  0.41459971  0.93658322  1
  O2-  O243  1  0.46027774  0.92015399  0.26224261  1
  O2-  O244  1  0.45619035  0.91515890  0.60563716  1
  O2-  O245  1  0.45993967  0.91346531  0.93723414  1
  O2-  O246  1  0.95775978  0.41255513  0.27290825  1
  O2-  O247  1  0.95889558  0.42312665  0.59637984  1
  O2-  O248  1  0.95406094  0.41948529  0.93368051  1
  O2-  O249  1  0.96447066  0.91802247  0.26520954  1
  O2-  O250  1  0.95953656  0.91065182  0.60425484  1
  O2-  O251  1  0.94948631  0.91527067  0.93285728  1
  O2-  O252  1  0.33716059  0.28428182  0.26989076  1
  O2-  O253  1  0.33680191  0.29136503  0.60205189  1
  O2-  O254  1  0.33873915  0.29547540  0.93480831  1
  O2-  O255  1  0.32817023  0.79840429  0.26289200  1
  O2-  O256  1  0.33161813  0.80326332  0.60578798  1
  O2-  O257  1  0.33771641  0.79640514  0.93770276  1
  O2-  O258  1  0.83814513  0.28931626  0.27185227  1
  O2-  O259  1  0.83231003  0.29373588  0.59340036  1
  O2-  O260  1  0.82967649  0.28843948  0.93301289  1
  O2-  O261  1  0.83363809  0.79933051  0.26226255  1
  O2-  O262  1  0.83633798  0.79543713  0.60670906  1
  O2-  O263  1  0.82971692  0.79744958  0.93722720  1
  O2-  O264  1  0.41701759  0.03918480  0.07081311  1
  O2-  O265  1  0.41976117  0.04004003  0.40221725  1
  O2-  O266  1  0.41093423  0.03941430  0.73116775  1
  O2-  O267  1  0.41217931  0.54159655  0.06431597  1
  O2-  O268  1  0.41363053  0.54273848  0.39257818  1
  O2-  O269  1  0.41757453  0.54340630  0.73515456  1
  O2-  O270  1  0.91122654  0.04333725  0.05940254  1
  O2-  O271  1  0.92092522  0.04068468  0.40160299  1
  O2-  O272  1  0.91562852  0.03992878  0.73043394  1
  O2-  O273  1  0.92353813  0.54591742  0.06785725  1
  O2-  O274  1  0.91545461  0.54296338  0.40399741  1
  O2-  O275  1  0.92174577  0.55043354  0.73148326  1
  O2-  O276  1  0.29852025  0.17346121  0.06801448  1
  O2-  O277  1  0.28912980  0.16293403  0.40691203  1
  O2-  O278  1  0.29731260  0.16251318  0.72806600  1
  O2-  O279  1  0.29718709  0.66518944  0.06091906  1
  O2-  O280  1  0.30166263  0.66853293  0.39066970  1
  O2-  O281  1  0.29398104  0.67293534  0.73311894  1
  O2-  O282  1  0.78839649  0.15886513  0.06114360  1
  O2-  O283  1  0.79149616  0.16430130  0.40322090  1
  O2-  O284  1  0.80230422  0.16669632  0.72569986  1
  O2-  O285  1  0.79269411  0.66944180  0.06917320  1
  O2-  O286  1  0.79615622  0.67596167  0.39435020  1
  O2-  O287  1  0.79086966  0.67081839  0.73795241  1
