# generated using pymatgen
data_Ca2Al2SiO7
_symmetry_space_group_name_H-M   'P 1'
_cell_length_a   15.45590569
_cell_length_b   15.45518435
_cell_length_c   15.28152856
_cell_angle_alpha   89.99718646
_cell_angle_beta   89.99579611
_cell_angle_gamma   89.98159364
_symmetry_Int_Tables_number   1
_chemical_formula_structural   Ca2Al2SiO7
_chemical_formula_sum   'Ca48 Al48 Si24 O168'
_cell_volume   3650.35768729
_cell_formula_units_Z   24
loop_
 _symmetry_equiv_pos_site_id
 _symmetry_equiv_pos_as_xyz
  1  'x, y, z'
loop_
 _atom_type_symbol
 _atom_type_oxidation_number
  Ca2+  2.0
  Al0+  0.0
  Si0+  0.0
  O2-  -2.0
loop_
 _atom_site_type_symbol
 _atom_site_label
 _atom_site_symmetry_multiplicity
 _atom_site_fract_x
 _atom_site_fract_y
 _atom_site_fract_z
 _atom_site_occupancy
  Ca2+  Ca0  1  0.15852807  0.07663321  0.17427587  1
  Ca2+  Ca1  1  0.16642533  0.07786205  0.50522690  1
  Ca2+  Ca2  1  0.17042290  0.08978657  0.83372953  1
  Ca2+  Ca3  1  0.16510133  0.57836850  0.16972556  1
  Ca2+  Ca4  1  0.17382486  0.58759888  0.50356745  1
  Ca2+  Ca5  1  0.16155325  0.58020375  0.84102599  1
  Ca2+  Ca6  1  0.67782477  0.07957346  0.17450677  1
  Ca2+  Ca7  1  0.67154723  0.08750316  0.50470401  1
  Ca2+  Ca8  1  0.66372954  0.08326657  0.83541001  1
  Ca2+  Ca9  1  0.68058033  0.58076603  0.17572223  1
  Ca2+  Ca10  1  0.66562138  0.57678203  0.50398986  1
  Ca2+  Ca11  1  0.66792036  0.58074315  0.83591010  1
  Ca2+  Ca12  1  0.08201046  0.32306348  0.15655732  1
  Ca2+  Ca13  1  0.08812323  0.31724305  0.49568831  1
  Ca2+  Ca14  1  0.08098005  0.33080610  0.83235650  1
  Ca2+  Ca15  1  0.07448005  0.82897603  0.16403443  1
  Ca2+  Ca16  1  0.08297596  0.83024422  0.49341230  1
  Ca2+  Ca17  1  0.07829173  0.82039367  0.83248358  1
  Ca2+  Ca18  1  0.58179692  0.34143737  0.17204006  1
  Ca2+  Ca19  1  0.57768183  0.33953636  0.49753704  1
  Ca2+  Ca20  1  0.57745201  0.33087053  0.82042225  1
  Ca2+  Ca21  1  0.57013580  0.83551936  0.16203008  1
  Ca2+  Ca22  1  0.57134674  0.83074689  0.49785827  1
  Ca2+  Ca23  1  0.57464925  0.82691213  0.82568416  1
  Ca2+  Ca24  1  0.32780959  0.42200894  0.17384981  1
  Ca2+  Ca25  1  0.34105795  0.41941937  0.50230627  1
  Ca2+  Ca26  1  0.32759102  0.41574975  0.83756085  1
  Ca2+  Ca27  1  0.32612132  0.91342767  0.17469010  1
  Ca2+  Ca28  1  0.33126766  0.91707989  0.50548938  1
  Ca2+  Ca29  1  0.34162161  0.92193430  0.83503781  1
  Ca2+  Ca30  1  0.83580562  0.42692334  0.17286223  1
  Ca2+  Ca31  1  0.82142199  0.41900203  0.50377995  1
  Ca2+  Ca32  1  0.82936616  0.41920379  0.84143955  1
  Ca2+  Ca33  1  0.84227155  0.91931887  0.17615856  1
  Ca2+  Ca34  1  0.83983220  0.92147458  0.49911223  1
  Ca2+  Ca35  1  0.83350112  0.91500965  0.83827159  1
  Ca2+  Ca36  1  0.41666194  0.17440825  0.16651395  1
  Ca2+  Ca37  1  0.41659572  0.17626521  0.50012379  1
  Ca2+  Ca38  1  0.42075383  0.17194272  0.81962528  1
  Ca2+  Ca39  1  0.41009034  0.67487753  0.16719010  1
  Ca2+  Ca40  1  0.41923369  0.67103714  0.49381977  1
  Ca2+  Ca41  1  0.41843262  0.67908068  0.82457111  1
  Ca2+  Ca42  1  0.92498096  0.16944846  0.16281627  1
  Ca2+  Ca43  1  0.92577167  0.16207566  0.49230954  1
  Ca2+  Ca44  1  0.92867895  0.17191735  0.83158326  1
  Ca2+  Ca45  1  0.91409513  0.67189088  0.15865849  1
  Ca2+  Ca46  1  0.92075534  0.66993012  0.49456885  1
  Ca2+  Ca47  1  0.92523365  0.65923419  0.83461049  1
  Al0+  Al48  1  0.00167585  -0.00025195  -0.00882207  1
  Al0+  Al49  1  0.00141099  -0.00278204  0.33524071  1
  Al0+  Al50  1  0.00069962  -0.00002890  0.66825515  1
  Al0+  Al51  1  -0.00114205  0.49804476  0.00320729  1
  Al0+  Al52  1  0.00092338  0.49721717  0.34112808  1
  Al0+  Al53  1  -0.00002666  0.50086307  0.66095836  1
  Al0+  Al54  1  0.49990714  0.00122708  -0.00019014  1
  Al0+  Al55  1  0.50009318  0.00136858  0.32804827  1
  Al0+  Al56  1  0.50059984  0.00151742  0.66343441  1
  Al0+  Al57  1  0.49930720  0.50032742  0.00166203  1
  Al0+  Al58  1  0.49896095  0.50045709  0.33355540  1
  Al0+  Al59  1  0.50014181  0.50208534  0.66800659  1
  Al0+  Al60  1  0.25262115  0.25017498  0.00209066  1
  Al0+  Al61  1  0.25202586  0.24817862  0.32317485  1
  Al0+  Al62  1  0.24926353  0.24912437  0.66350510  1
  Al0+  Al63  1  0.25017689  0.75291113  -0.00815616  1
  Al0+  Al64  1  0.24918851  0.74921983  0.33747517  1
  Al0+  Al65  1  0.24662565  0.75093347  0.66289761  1
  Al0+  Al66  1  0.74965994  0.24800891  -0.00057438  1
  Al0+  Al67  1  0.75122909  0.24898274  0.34075869  1
  Al0+  Al68  1  0.75051871  0.25112119  0.67106406  1
  Al0+  Al69  1  0.74646325  0.75055198  0.00122174  1
  Al0+  Al70  1  0.74948793  0.75075115  0.33478752  1
  Al0+  Al71  1  0.75062726  0.75111295  0.66465472  1
  Al0+  Al72  1  0.92560261  0.82170301  0.98518829  1
  Al0+  Al73  1  0.57369388  0.17900177  0.65174254  1
  Al0+  Al74  1  0.43079724  0.32200739  0.31712154  1
  Al0+  Al75  1  0.42833384  0.32172899  0.65282225  1
  Al0+  Al76  1  0.06997626  0.67776577  0.98811748  1
  Al0+  Al77  1  0.82133498  0.06793435  0.34645593  1
  Al0+  Al78  1  0.06970239  0.17995771  0.65192085  1
  Al0+  Al79  1  0.42882474  0.82160082  0.98556420  1
  Al0+  Al80  1  0.18057702  0.92994177  0.34621771  1
  Al0+  Al81  1  0.67836058  0.43050472  0.68320818  1
  Al0+  Al82  1  0.92738764  0.32126660  0.98655395  1
  Al0+  Al83  1  0.57222248  0.67894558  0.65134015  1
  Al0+  Al84  1  0.81929143  0.57029589  0.01290593  1
  Al0+  Al85  1  0.06974152  0.67739855  0.65099067  1
  Al0+  Al86  1  0.17967441  0.42865854  0.01335830  1
  Al0+  Al87  1  0.07034777  0.17826915  0.31919131  1
  Al0+  Al88  1  0.82413552  0.57451229  0.35107346  1
  Al0+  Al89  1  0.31766248  0.56965205  0.34660703  1
  Al0+  Al90  1  0.31985575  0.06975521  0.67891803  1
  Al0+  Al91  1  0.42776110  0.82137189  0.31888565  1
  Al0+  Al92  1  0.67979040  0.43029315  0.34922559  1
  Al0+  Al93  1  0.42836080  0.82215107  0.65033731  1
  Al0+  Al94  1  0.92958361  0.81774305  0.32171902  1
  Al0+  Al95  1  0.07375856  0.17857400  0.98347419  1
  Si0+  Si96  1  0.17640459  0.92688842  0.68736080  1
  Si0+  Si97  1  0.92838539  0.82243746  0.64971550  1
  Si0+  Si98  1  0.57511929  0.17836580  0.31526177  1
  Si0+  Si99  1  0.57112714  0.67734513  0.98479953  1
  Si0+  Si100  1  0.32211582  0.57443034  0.01463433  1
  Si0+  Si101  1  0.57103716  0.67814607  0.31515540  1
  Si0+  Si102  1  0.82340949  0.07136451  0.68469686  1
  Si0+  Si103  1  0.32313200  0.07081921  0.01649937  1
  Si0+  Si104  1  0.17893133  0.42326510  0.35057968  1
  Si0+  Si105  1  0.67435809  0.92827480  0.35015643  1
  Si0+  Si106  1  0.32403050  0.07344237  0.34847047  1
  Si0+  Si107  1  0.82218252  0.06896180  0.01345665  1
  Si0+  Si108  1  0.67723357  0.93006168  0.01484875  1
  Si0+  Si109  1  0.17958376  0.92959804  0.01326332  1
  Si0+  Si110  1  0.92708270  0.32127515  0.31897139  1
  Si0+  Si111  1  0.92747728  0.32268276  0.64892843  1
  Si0+  Si112  1  0.17888577  0.42923260  0.67993685  1
  Si0+  Si113  1  0.43046784  0.32217950  0.98553865  1
  Si0+  Si114  1  0.31978662  0.57312756  0.68257298  1
  Si0+  Si115  1  0.07222746  0.67511420  0.31810789  1
  Si0+  Si116  1  0.67601102  0.42524584  0.01715869  1
  Si0+  Si117  1  0.67986055  0.92975492  0.68158083  1
  Si0+  Si118  1  0.57030993  0.17929100  0.98645275  1
  Si0+  Si119  1  0.82287164  0.57289654  0.68439832  1
  O2-  O120  1  0.24917962  0.00207382  0.05682903  1
  O2-  O121  1  0.25743760  0.00297592  0.39210314  1
  O2-  O122  1  0.24811696  -0.00622866  0.73003428  1
  O2-  O123  1  0.25244603  0.50657063  0.05853086  1
  O2-  O124  1  0.24457244  0.49422322  0.39564714  1
  O2-  O125  1  0.24862232  0.50143589  0.72366460  1
  O2-  O126  1  0.75449417  -0.00531980  0.05658926  1
  O2-  O127  1  0.74455527  -0.00447716  0.39431434  1
  O2-  O128  1  0.75022103  0.00138364  0.72562083  1
  O2-  O129  1  0.74534712  0.49396608  0.05929143  1
  O2-  O130  1  0.75153592  0.50237874  0.39959301  1
  O2-  O131  1  0.75358787  0.50512375  0.72946902  1
  O2-  O132  1  -0.00136407  0.25627028  0.27357940  1
  O2-  O133  1  -0.00619873  0.25224090  0.60402503  1
  O2-  O134  1  0.00218135  0.25232500  0.93566372  1
  O2-  O135  1  -0.00273442  0.73701816  0.27445387  1
  O2-  O136  1  -0.00402053  0.75321040  0.60602397  1
  O2-  O137  1  -0.00540148  0.74627182  0.93673360  1
  O2-  O138  1  0.50685843  0.24755754  0.27064200  1
  O2-  O139  1  0.50361431  0.25291254  0.60277328  1
  O2-  O140  1  0.50411446  0.25419106  0.94432302  1
  O2-  O141  1  0.50417980  0.74900872  0.27059456  1
  O2-  O142  1  0.49770332  0.74776576  0.60067144  1
  O2-  O143  1  0.50032526  0.74367295  0.94051300  1
  O2-  O144  1  0.07040507  0.17610437  0.09705397  1
  O2-  O145  1  0.06980820  0.17826920  0.43244593  1
  O2-  O146  1  0.06986153  0.18269061  0.76481862  1
  O2-  O147  1  0.07241133  0.68061817  0.10149782  1
  O2-  O148  1  0.07362480  0.67945732  0.42372301  1
  O2-  O149  1  0.06838754  0.67500155  0.76408665  1
  O2-  O150  1  0.56928182  0.17642746  0.09142928  1
  O2-  O151  1  0.57470122  0.17630247  0.42017851  1
  O2-  O152  1  0.57100525  0.17941668  0.76637729  1
  O2-  O153  1  0.57175177  0.67906709  0.09020507  1
  O2-  O154  1  0.56870357  0.67851263  0.42058634  1
  O2-  O155  1  0.57108115  0.68169225  0.76565801  1
  O2-  O156  1  0.17983532  0.42435951  0.24474330  1
  O2-  O157  1  0.18010961  0.42937872  0.57500173  1
  O2-  O158  1  0.18340724  0.42755409  0.89970489  1
  O2-  O159  1  0.17971296  0.93015231  0.23239842  1
  O2-  O160  1  0.17390963  0.92850324  0.58174178  1
  O2-  O161  1  0.18126552  0.92932440  0.90839539  1
  O2-  O162  1  0.68202800  0.43212881  0.23488789  1
  O2-  O163  1  0.67986441  0.43064157  0.57068307  1
  O2-  O164  1  0.67374535  0.42528685  0.91172212  1
  O2-  O165  1  0.67306375  0.93108283  0.24401499  1
  O2-  O166  1  0.68188289  0.92973396  0.57677710  1
  O2-  O167  1  0.67404359  0.93406684  0.90968229  1
  O2-  O168  1  0.43086199  0.32198697  0.09057776  1
  O2-  O169  1  0.43017724  0.32072024  0.42964424  1
  O2-  O170  1  0.42747090  0.31957901  0.76733442  1
  O2-  O171  1  0.42882059  0.82239331  0.09875140  1
  O2-  O172  1  0.42902522  0.82057297  0.43130732  1
  O2-  O173  1  0.43206653  0.82194889  0.76440895  1
  O2-  O174  1  0.92624599  0.31755437  0.10020554  1
  O2-  O175  1  0.92725245  0.31785844  0.42458275  1
  O2-  O176  1  0.92975602  0.32301147  0.75475725  1
  O2-  O177  1  0.92895890  0.82386419  0.09865826  1
  O2-  O178  1  0.93402232  0.82068797  0.43474358  1
  O2-  O179  1  0.92810309  0.82272365  0.75533651  1
  O2-  O180  1  0.32354612  0.07260440  0.24221941  1
  O2-  O181  1  0.31684993  0.07020749  0.56613127  1
  O2-  O182  1  0.32675283  0.07061048  0.91143263  1
  O2-  O183  1  0.31490136  0.57017878  0.23295925  1
  O2-  O184  1  0.31936808  0.57322067  0.57754507  1
  O2-  O185  1  0.32483209  0.57169576  0.90897145  1
  O2-  O186  1  0.82086782  0.06688783  0.23271134  1
  O2-  O187  1  0.82592815  0.06914566  0.57969144  1
  O2-  O188  1  0.81804117  0.06990748  0.90826477  1
  O2-  O189  1  0.82316164  0.57421524  0.23699711  1
  O2-  O190  1  0.82308290  0.57194877  0.57924559  1
  O2-  O191  1  0.81623648  0.56925268  0.89963037  1
  O2-  O192  1  0.03491315  0.08283560  0.26648098  1
  O2-  O193  1  0.03962342  0.08176586  0.60109109  1
  O2-  O194  1  0.04462122  0.08229995  0.92742129  1
  O2-  O195  1  0.05465960  0.57719019  0.27796810  1
  O2-  O196  1  0.04143473  0.58180720  0.59410129  1
  O2-  O197  1  0.04365758  0.57874246  0.93565084  1
  O2-  O198  1  0.54919585  0.08572335  0.26617353  1
  O2-  O199  1  0.54663420  0.08163542  0.59797257  1
  O2-  O200  1  0.53869308  0.08954620  0.93721602  1
  O2-  O201  1  0.54298256  0.58616692  0.26793661  1
  O2-  O202  1  0.54466285  0.58068881  0.59983384  1
  O2-  O203  1  0.54808405  0.58236102  0.93966112  1
  O2-  O204  1  0.16689111  0.20426253  0.26292093  1
  O2-  O205  1  0.16457590  0.21183748  0.59671789  1
  O2-  O206  1  0.17386901  0.20688060  0.93403021  1
  O2-  O207  1  0.16327482  0.70679947  0.27141323  1
  O2-  O208  1  0.16534458  0.70871888  0.59647801  1
  O2-  O209  1  0.16619403  0.70854909  0.93117448  1
  O2-  O210  1  0.66937839  0.20428548  0.26983705  1
  O2-  O211  1  0.67463057  0.20317721  0.60279431  1
  O2-  O212  1  0.66347690  0.20062549  0.93913570  1
  O2-  O213  1  0.66565863  0.70285578  0.27085197  1
  O2-  O214  1  0.67016520  0.70876685  0.59870719  1
  O2-  O215  1  0.66246450  0.70570739  0.93626240  1
  O2-  O216  1  0.08291280  0.45466150  0.06888603  1
  O2-  O217  1  0.08449125  0.44186610  0.39752364  1
  O2-  O218  1  0.08585169  0.45701121  0.72579564  1
  O2-  O219  1  0.08646478  0.95712047  0.05895374  1
  O2-  O220  1  0.08671232  0.96296030  0.40341699  1
  O2-  O221  1  0.08380995  0.95570620  0.73428760  1
  O2-  O222  1  0.58217140  0.45164803  0.06361792  1
  O2-  O223  1  0.58089961  0.45923853  0.39997188  1
  O2-  O224  1  0.58136127  0.46112980  0.73829285  1
  O2-  O225  1  0.58862214  0.96556760  0.06509618  1
  O2-  O226  1  0.58141874  0.95671540  0.39608118  1
  O2-  O227  1  0.58837571  0.95800356  0.72977267  1
  O2-  O228  1  0.21475048  0.33357809  0.06904873  1
  O2-  O229  1  0.20961742  0.32971139  0.39357634  1
  O2-  O230  1  0.20767960  0.33810433  0.72801187  1
  O2-  O231  1  0.20943851  0.83809591  0.06041307  1
  O2-  O232  1  0.20953896  0.83415621  0.40206910  1
  O2-  O233  1  0.19944352  0.83163995  0.73142670  1
  O2-  O234  1  0.69942688  0.33043689  0.06229823  1
  O2-  O235  1  0.70567258  0.33145556  0.40251031  1
  O2-  O236  1  0.70851744  0.33317007  0.73809562  1
  O2-  O237  1  0.69547366  0.83627183  0.06159227  1
  O2-  O238  1  0.69680787  0.83412376  0.39506571  1
  O2-  O239  1  0.70867167  0.83836616  0.73075215  1
  O2-  O240  1  0.46123764  0.41846112  0.26181585  1
  O2-  O241  1  0.45399252  0.42147665  0.60312265  1
  O2-  O242  1  0.45382530  0.41552916  0.93859872  1
  O2-  O243  1  0.45652941  0.91871156  0.26367969  1
  O2-  O244  1  0.45951584  0.91902268  0.59765222  1
  O2-  O245  1  0.46489835  0.91751951  0.93311185  1
  O2-  O246  1  0.95007752  0.41713654  0.27607622  1
  O2-  O247  1  0.95303199  0.41516893  0.60171733  1
  O2-  O248  1  0.95329017  0.41953304  0.93337444  1
  O2-  O249  1  0.96688762  0.91183108  0.26683111  1
  O2-  O250  1  0.95563214  0.91603391  0.60492428  1
  O2-  O251  1  0.95623973  0.91753437  0.92862139  1
  O2-  O252  1  0.33667858  0.28922144  0.25878566  1
  O2-  O253  1  0.33190747  0.29107097  0.59829186  1
  O2-  O254  1  0.34011246  0.29144895  0.93815801  1
  O2-  O255  1  0.33137396  0.78665773  0.26626253  1
  O2-  O256  1  0.32812057  0.79759773  0.60145986  1
  O2-  O257  1  0.33351023  0.79575322  0.92783811  1
  O2-  O258  1  0.83429339  0.29295391  0.27318128  1
  O2-  O259  1  0.83314213  0.29734532  0.60598651  1
  O2-  O260  1  0.82956288  0.28997160  0.93238232  1
  O2-  O261  1  0.82938403  0.79802374  0.26907431  1
  O2-  O262  1  0.83454693  0.79995769  0.60351912  1
  O2-  O263  1  0.82421704  0.79944303  0.93536738  1
  O2-  O264  1  0.41370475  0.04051334  0.06574086  1
  O2-  O265  1  0.41935675  0.05125637  0.39196080  1
  O2-  O266  1  0.41830782  0.04175621  0.73315310  1
  O2-  O267  1  0.41500253  0.54774126  0.06283175  1
  O2-  O268  1  0.41462470  0.54000653  0.39950398  1
  O2-  O269  1  0.41141551  0.54715246  0.73111481  1
  O2-  O270  1  0.91599881  0.04369123  0.05778632  1
  O2-  O271  1  0.91519316  0.03275826  0.40274900  1
  O2-  O272  1  0.91373560  0.04041310  0.73398814  1
  O2-  O273  1  0.91548472  0.54199754  0.06849526  1
  O2-  O274  1  0.92257117  0.54663936  0.40488381  1
  O2-  O275  1  0.91698154  0.54407563  0.72878987  1
  O2-  O276  1  0.29930556  0.16365060  0.06371058  1
  O2-  O277  1  0.29691366  0.16735006  0.39203650  1
  O2-  O278  1  0.28689783  0.16627168  0.73405290  1
  O2-  O279  1  0.29761405  0.66981017  0.05748574  1
  O2-  O280  1  0.28682320  0.66436020  0.40382551  1
  O2-  O281  1  0.28991482  0.66502528  0.72933080  1
  O2-  O282  1  0.79075347  0.15923639  0.06239262  1
  O2-  O283  1  0.79361785  0.16368004  0.40312496  1
  O2-  O284  1  0.79787828  0.16340991  0.73266317  1
  O2-  O285  1  0.78674739  0.66729421  0.06689513  1
  O2-  O286  1  0.79601812  0.67359391  0.40303180  1
  O2-  O287  1  0.79911682  0.66799603  0.72891134  1
