# generated using pymatgen
data_Ca2Al2SiO7
_symmetry_space_group_name_H-M   'P 1'
_cell_length_a   15.46863276
_cell_length_b   15.46636043
_cell_length_c   15.29046519
_cell_angle_alpha   89.99499127
_cell_angle_beta   90.01405554
_cell_angle_gamma   90.01213310
_symmetry_Int_Tables_number   1
_chemical_formula_structural   Ca2Al2SiO7
_chemical_formula_sum   'Ca48 Al48 Si24 O168'
_cell_volume   3658.14343123
_cell_formula_units_Z   24
loop_
 _symmetry_equiv_pos_site_id
 _symmetry_equiv_pos_as_xyz
  1  'x, y, z'
loop_
 _atom_type_symbol
 _atom_type_oxidation_number
  Ca2+  2.0
  Al0+  0.0
  Si0+  0.0
  O2-  -2.0
loop_
 _atom_site_type_symbol
 _atom_site_label
 _atom_site_symmetry_multiplicity
 _atom_site_fract_x
 _atom_site_fract_y
 _atom_site_fract_z
 _atom_site_occupancy
  Ca2+  Ca0  1  0.17395375  0.08080985  0.18001643  1
  Ca2+  Ca1  1  0.16884089  0.08355513  0.51056971  1
  Ca2+  Ca2  1  0.16343566  0.08171518  0.83143548  1
  Ca2+  Ca3  1  0.15389997  0.57780289  0.16560579  1
  Ca2+  Ca4  1  0.15884519  0.57948457  0.50635906  1
  Ca2+  Ca5  1  0.15321979  0.57350234  0.83750443  1
  Ca2+  Ca6  1  0.67332025  0.08890886  0.16676704  1
  Ca2+  Ca7  1  0.66992783  0.07073182  0.50479808  1
  Ca2+  Ca8  1  0.67094367  0.07950594  0.83920401  1
  Ca2+  Ca9  1  0.67400148  0.57607913  0.16640393  1
  Ca2+  Ca10  1  0.67485311  0.57793208  0.51532006  1
  Ca2+  Ca11  1  0.67738842  0.57800143  0.83456291  1
  Ca2+  Ca12  1  0.07472039  0.32877338  0.16283141  1
  Ca2+  Ca13  1  0.08421114  0.32418385  0.49708475  1
  Ca2+  Ca14  1  0.08010655  0.33438864  0.82820585  1
  Ca2+  Ca15  1  0.09359797  0.82279034  0.16355010  1
  Ca2+  Ca16  1  0.09076837  0.82565038  0.49750071  1
  Ca2+  Ca17  1  0.07682444  0.82153730  0.82072600  1
  Ca2+  Ca18  1  0.57629752  0.32794070  0.15101538  1
  Ca2+  Ca19  1  0.58160591  0.33513463  0.49781827  1
  Ca2+  Ca20  1  0.58355727  0.33777005  0.83306715  1
  Ca2+  Ca21  1  0.58458030  0.83721232  0.16526856  1
  Ca2+  Ca22  1  0.59065043  0.83167196  0.49920748  1
  Ca2+  Ca23  1  0.58578239  0.82770074  0.82079529  1
  Ca2+  Ca24  1  0.32857051  0.41239716  0.16304797  1
  Ca2+  Ca25  1  0.32466122  0.41945425  0.50913813  1
  Ca2+  Ca26  1  0.32126522  0.41392576  0.83775936  1
  Ca2+  Ca27  1  0.32848790  0.92488009  0.17744572  1
  Ca2+  Ca28  1  0.31897505  0.92834689  0.50397978  1
  Ca2+  Ca29  1  0.32744756  0.91987697  0.82992691  1
  Ca2+  Ca30  1  0.84147191  0.41702340  0.16501819  1
  Ca2+  Ca31  1  0.83361673  0.42214374  0.50851070  1
  Ca2+  Ca32  1  0.83090899  0.42666243  0.84332374  1
  Ca2+  Ca33  1  0.82805846  0.92443636  0.16848592  1
  Ca2+  Ca34  1  0.82682597  0.90867053  0.50726724  1
  Ca2+  Ca35  1  0.83467085  0.91934401  0.83363697  1
  Ca2+  Ca36  1  0.42306016  0.16719071  0.15773420  1
  Ca2+  Ca37  1  0.41311110  0.15895725  0.49933217  1
  Ca2+  Ca38  1  0.41957902  0.16960409  0.83139864  1
  Ca2+  Ca39  1  0.41879078  0.67079539  0.16057624  1
  Ca2+  Ca40  1  0.42540180  0.66597824  0.49959742  1
  Ca2+  Ca41  1  0.42578462  0.66544940  0.82691855  1
  Ca2+  Ca42  1  0.91551584  0.17541303  0.16052537  1
  Ca2+  Ca43  1  0.93026758  0.17237806  0.49387423  1
  Ca2+  Ca44  1  0.91541537  0.17324834  0.83025195  1
  Ca2+  Ca45  1  0.92560072  0.66721032  0.16114496  1
  Ca2+  Ca46  1  0.92261508  0.66996930  0.50361003  1
  Ca2+  Ca47  1  0.91857618  0.66602419  0.82636237  1
  Al0+  Al48  1  -0.00133810  -0.00248869  0.00740004  1
  Al0+  Al49  1  -0.00083099  -0.00235220  0.33276371  1
  Al0+  Al50  1  -0.00085195  0.00062615  0.66271746  1
  Al0+  Al51  1  0.00026078  0.49826976  0.00245668  1
  Al0+  Al52  1  -0.00024658  0.50176523  0.32806992  1
  Al0+  Al53  1  -0.00120729  0.50122152  0.66991738  1
  Al0+  Al54  1  0.49749608  -0.00066795  -0.00469095  1
  Al0+  Al55  1  0.50029757  -0.00067337  0.34014157  1
  Al0+  Al56  1  0.49964566  0.00096611  0.67286393  1
  Al0+  Al57  1  0.49824015  0.50100842  -0.00038724  1
  Al0+  Al58  1  0.50141881  0.50050868  0.33166138  1
  Al0+  Al59  1  0.49883875  0.49974686  0.66447852  1
  Al0+  Al60  1  0.25098250  0.24932842  0.00201360  1
  Al0+  Al61  1  0.25126324  0.25335175  0.33326038  1
  Al0+  Al62  1  0.25142359  0.25225169  0.67096737  1
  Al0+  Al63  1  0.25084327  0.74812490  -0.00604172  1
  Al0+  Al64  1  0.25425275  0.75037936  0.33235128  1
  Al0+  Al65  1  0.25258935  0.75186547  0.66540110  1
  Al0+  Al66  1  0.74961302  0.24794101  -0.00135599  1
  Al0+  Al67  1  0.74762979  0.25077183  0.33148005  1
  Al0+  Al68  1  0.74620224  0.24878788  0.66597699  1
  Al0+  Al69  1  0.75020585  0.74932916  0.00558249  1
  Al0+  Al70  1  0.75205336  0.74725330  0.33417979  1
  Al0+  Al71  1  0.74972514  0.74824695  0.66656295  1
  Al0+  Al72  1  0.92852649  0.82168701  0.65231341  1
  Al0+  Al73  1  0.82072562  0.56941321  0.68154767  1
  Al0+  Al74  1  0.67792888  0.42882014  0.01575677  1
  Al0+  Al75  1  0.93047226  0.31874683  0.98507245  1
  Al0+  Al76  1  0.82218329  0.57129465  0.01881169  1
  Al0+  Al77  1  0.06963592  0.67997224  0.98532462  1
  Al0+  Al78  1  0.42762018  0.32208025  0.98277244  1
  Al0+  Al79  1  0.56931952  0.67951141  0.65314295  1
  Al0+  Al80  1  0.17923194  0.42790855  0.01556511  1
  Al0+  Al81  1  0.07231793  0.68295622  0.31870884  1
  Al0+  Al82  1  0.17733962  0.92706489  0.34712620  1
  Al0+  Al83  1  0.82097541  0.07051117  0.01305836  1
  Al0+  Al84  1  0.67586927  0.42634544  0.68096616  1
  Al0+  Al85  1  0.68111670  0.92916750  0.68020636  1
  Al0+  Al86  1  0.92847892  0.31997081  0.31890620  1
  Al0+  Al87  1  0.17590356  0.92809454  0.68308137  1
  Al0+  Al88  1  0.31942150  0.07387768  0.34761436  1
  Al0+  Al89  1  0.57135622  0.17774664  0.98299176  1
  Al0+  Al90  1  0.07273353  0.67791820  0.65151538  1
  Al0+  Al91  1  0.17932253  0.43185523  0.67870641  1
  Al0+  Al92  1  0.68210313  0.92917528  0.34651621  1
  Al0+  Al93  1  0.07130670  0.18181117  0.65593637  1
  Al0+  Al94  1  0.31972081  0.07258754  0.68541950  1
  Al0+  Al95  1  0.07363802  0.17686512  0.31900157  1
  Si0+  Si96  1  0.82164094  0.56846772  0.34972520  1
  Si0+  Si97  1  0.17960105  0.43311628  0.34765133  1
  Si0+  Si98  1  0.67505127  0.92791399  0.01543564  1
  Si0+  Si99  1  0.67689073  0.42915664  0.34810311  1
  Si0+  Si100  1  0.56759458  0.17843858  0.32012514  1
  Si0+  Si101  1  0.32047711  0.06899856  0.01543596  1
  Si0+  Si102  1  0.18002983  0.92662288  0.01399501  1
  Si0+  Si103  1  0.42897172  0.82559392  0.64698969  1
  Si0+  Si104  1  0.43365390  0.81990964  0.31863529  1
  Si0+  Si105  1  0.82272085  0.07350514  0.68128584  1
  Si0+  Si106  1  0.92545506  0.32241863  0.65252134  1
  Si0+  Si107  1  0.07264407  0.17451700  0.98561304  1
  Si0+  Si108  1  0.32144265  0.57339844  0.01675901  1
  Si0+  Si109  1  0.57095508  0.17626587  0.64900012  1
  Si0+  Si110  1  0.57348877  0.67746065  0.31653369  1
  Si0+  Si111  1  0.42835127  0.82100732  0.98358092  1
  Si0+  Si112  1  0.92627449  0.82290069  0.98501415  1
  Si0+  Si113  1  0.42998989  0.31962019  0.65024546  1
  Si0+  Si114  1  0.82185749  0.07527682  0.35067925  1
  Si0+  Si115  1  0.32321638  0.57319128  0.68159865  1
  Si0+  Si116  1  0.32566594  0.57141851  0.34790816  1
  Si0+  Si117  1  0.92380165  0.82136916  0.31474689  1
  Si0+  Si118  1  0.42977187  0.32523684  0.31830129  1
  Si0+  Si119  1  0.57183602  0.68043639  0.98590541  1
  O2-  O120  1  0.24704333  0.00087529  0.05754571  1
  O2-  O121  1  0.23849151  0.01013425  0.39509853  1
  O2-  O122  1  0.24621958  0.00151408  0.73446823  1
  O2-  O123  1  0.25328753  0.50476555  0.06168446  1
  O2-  O124  1  0.25205200  0.50328254  0.38943356  1
  O2-  O125  1  0.24751099  0.51299287  0.72517232  1
  O2-  O126  1  0.74259134  -0.00221673  0.05866227  1
  O2-  O127  1  0.75921921  0.00064863  0.39438126  1
  O2-  O128  1  0.75583291  0.00306246  0.72590368  1
  O2-  O129  1  0.75161662  0.49717992  0.06918111  1
  O2-  O130  1  0.75095043  0.49618796  0.39031697  1
  O2-  O131  1  0.75220600  0.49321345  0.72990614  1
  O2-  O132  1  -0.00256223  0.24438454  0.26895479  1
  O2-  O133  1  -0.00488608  0.25485478  0.60850178  1
  O2-  O134  1  0.00503186  0.24316406  0.94014879  1
  O2-  O135  1  0.00120042  0.76159960  0.27172122  1
  O2-  O136  1  0.00509325  0.75422343  0.60168693  1
  O2-  O137  1  -0.00649038  0.75346232  0.94098477  1
  O2-  O138  1  0.49693579  0.24982832  0.27802326  1
  O2-  O139  1  0.50143223  0.24929877  0.60687175  1
  O2-  O140  1  0.50239282  0.25291543  0.93298278  1
  O2-  O141  1  0.50466805  0.75008686  0.27342594  1
  O2-  O142  1  0.49686155  0.75528156  0.60344542  1
  O2-  O143  1  0.50343120  0.75375797  0.94331673  1
  O2-  O144  1  0.07233128  0.17495971  0.09127852  1
  O2-  O145  1  0.07491206  0.18323629  0.43265571  1
  O2-  O146  1  0.07000252  0.18359250  0.76907243  1
  O2-  O147  1  0.07202883  0.68420932  0.09889199  1
  O2-  O148  1  0.07144461  0.67924209  0.43110622  1
  O2-  O149  1  0.06955551  0.67703815  0.76480825  1
  O2-  O150  1  0.56634910  0.17450516  0.09766488  1
  O2-  O151  1  0.56805252  0.17966148  0.42525145  1
  O2-  O152  1  0.57084200  0.17393658  0.75339568  1
  O2-  O153  1  0.56940820  0.68211761  0.09169265  1
  O2-  O154  1  0.57149274  0.67492856  0.42120768  1
  O2-  O155  1  0.56658703  0.68098624  0.76648570  1
  O2-  O156  1  0.18124358  0.43317145  0.24270151  1
  O2-  O157  1  0.18291935  0.43049857  0.56483066  1
  O2-  O158  1  0.18035319  0.42919728  0.90264457  1
  O2-  O159  1  0.18778620  0.92315272  0.23308343  1
  O2-  O160  1  0.17908396  0.92857531  0.56966923  1
  O2-  O161  1  0.18159935  0.92685566  0.90944031  1
  O2-  O162  1  0.67147250  0.43184031  0.24375704  1
  O2-  O163  1  0.67606418  0.42871471  0.56628657  1
  O2-  O164  1  0.67781455  0.43416069  0.90280108  1
  O2-  O165  1  0.68017400  0.93119912  0.23322837  1
  O2-  O166  1  0.68136928  0.93109808  0.56681227  1
  O2-  O167  1  0.67500007  0.92586353  0.91026201  1
  O2-  O168  1  0.42746083  0.31774670  0.09732784  1
  O2-  O169  1  0.43260663  0.33125838  0.42318296  1
  O2-  O170  1  0.42992829  0.32005991  0.75470739  1
  O2-  O171  1  0.42760992  0.82090486  0.08918886  1
  O2-  O172  1  0.43531285  0.81690503  0.42297845  1
  O2-  O173  1  0.43048279  0.82453276  0.75305088  1
  O2-  O174  1  0.93257280  0.31720847  0.09825463  1
  O2-  O175  1  0.92943777  0.32179887  0.43280729  1
  O2-  O176  1  0.92531001  0.32071295  0.75790343  1
  O2-  O177  1  0.92690806  0.82390562  0.09078370  1
  O2-  O178  1  0.91579754  0.81439601  0.41928071  1
  O2-  O179  1  0.92786647  0.81998105  0.76622025  1
  O2-  O180  1  0.32498665  0.06932517  0.23354948  1
  O2-  O181  1  0.31884128  0.07196691  0.57168282  1
  O2-  O182  1  0.32221969  0.06745030  0.91097420  1
  O2-  O183  1  0.33161241  0.57015677  0.24323940  1
  O2-  O184  1  0.32798301  0.56766074  0.57558132  1
  O2-  O185  1  0.32307358  0.57626361  0.91168213  1
  O2-  O186  1  0.81610720  0.07754206  0.24505797  1
  O2-  O187  1  0.81867065  0.07647244  0.57569582  1
  O2-  O188  1  0.82302186  0.06677702  0.90023737  1
  O2-  O189  1  0.82003616  0.56955427  0.24483889  1
  O2-  O190  1  0.82000538  0.56794644  0.56700135  1
  O2-  O191  1  0.81927136  0.57409502  0.90596555  1
  O2-  O192  1  0.05399232  0.07449150  0.26992765  1
  O2-  O193  1  0.04351281  0.08545394  0.60042289  1
  O2-  O194  1  0.04666489  0.07950471  0.94270952  1
  O2-  O195  1  0.03672206  0.58810362  0.26385732  1
  O2-  O196  1  0.04026398  0.57995822  0.59850888  1
  O2-  O197  1  0.04019484  0.58197852  0.93608725  1
  O2-  O198  1  0.53921246  0.08652182  0.27343486  1
  O2-  O199  1  0.53951077  0.08531551  0.60138074  1
  O2-  O200  1  0.53902881  0.08008235  0.92985012  1
  O2-  O201  1  0.54181778  0.58728364  0.26772243  1
  O2-  O202  1  0.53550166  0.58422870  0.59659129  1
  O2-  O203  1  0.54040230  0.59045247  0.93875483  1
  O2-  O204  1  0.17163702  0.20973444  0.26601556  1
  O2-  O205  1  0.16756082  0.21629307  0.60257328  1
  O2-  O206  1  0.16709619  0.19881543  0.94179489  1
  O2-  O207  1  0.17179381  0.70852220  0.26581836  1
  O2-  O208  1  0.17452470  0.70055920  0.60119649  1
  O2-  O209  1  0.16674515  0.70856284  0.93136927  1
  O2-  O210  1  0.65910480  0.20589535  0.27193189  1
  O2-  O211  1  0.66261285  0.20158240  0.59919824  1
  O2-  O212  1  0.67079254  0.19967947  0.93152279  1
  O2-  O213  1  0.66529922  0.70420213  0.26925534  1
  O2-  O214  1  0.66495753  0.70943624  0.59796581  1
  O2-  O215  1  0.66446214  0.70698798  0.94052038  1
  O2-  O216  1  0.08450844  0.45986519  0.07158479  1
  O2-  O217  1  0.08830320  0.46364931  0.39360428  1
  O2-  O218  1  0.08202566  0.45633457  0.73303381  1
  O2-  O219  1  0.08726370  0.94720540  0.06240512  1
  O2-  O220  1  0.07302795  0.93704026  0.39291513  1
  O2-  O221  1  0.07647383  0.95536391  0.73399032  1
  O2-  O222  1  0.57898397  0.46043288  0.06825706  1
  O2-  O223  1  0.58656138  0.46083511  0.39722123  1
  O2-  O224  1  0.57863565  0.45936206  0.73223705  1
  O2-  O225  1  0.57991461  0.95169501  0.06019446  1
  O2-  O226  1  0.58698617  0.96110713  0.40234483  1
  O2-  O227  1  0.58495053  0.95895440  0.73449735  1
  O2-  O228  1  0.21216124  0.33191881  0.07081432  1
  O2-  O229  1  0.20773619  0.34159607  0.39522959  1
  O2-  O230  1  0.21638409  0.33944829  0.73495935  1
  O2-  O231  1  0.21450022  0.83593916  0.05998820  1
  O2-  O232  1  0.21912612  0.83283746  0.40079190  1
  O2-  O233  1  0.20900761  0.82990764  0.73534123  1
  O2-  O234  1  0.70026885  0.32756015  0.06445928  1
  O2-  O235  1  0.69912176  0.33520156  0.39384877  1
  O2-  O236  1  0.69483034  0.32473033  0.72991888  1
  O2-  O237  1  0.70108867  0.83565908  0.06448012  1
  O2-  O238  1  0.70879891  0.82984574  0.39792330  1
  O2-  O239  1  0.70915641  0.83235582  0.73343071  1
  O2-  O240  1  0.46149060  0.41455142  0.26761064  1
  O2-  O241  1  0.45696126  0.41108288  0.60073796  1
  O2-  O242  1  0.45093656  0.42295934  0.93279453  1
  O2-  O243  1  0.46283623  0.91189645  0.27136340  1
  O2-  O244  1  0.45778029  0.91865043  0.60247422  1
  O2-  O245  1  0.45153178  0.91283984  0.93507006  1
  O2-  O246  1  0.96114881  0.41673674  0.26499917  1
  O2-  O247  1  0.95087138  0.41610636  0.60757931  1
  O2-  O248  1  0.96195309  0.41551462  0.93323305  1
  O2-  O249  1  0.93743551  0.91930170  0.27370921  1
  O2-  O250  1  0.94682155  0.92219706  0.59954597  1
  O2-  O251  1  0.95300259  0.91645689  0.93987751  1
  O2-  O252  1  0.33645195  0.30301507  0.27226455  1
  O2-  O253  1  0.33892464  0.29111182  0.60170643  1
  O2-  O254  1  0.32976032  0.28979439  0.93122377  1
  O2-  O255  1  0.34377247  0.79061332  0.26813775  1
  O2-  O256  1  0.33575604  0.80068437  0.60049674  1
  O2-  O257  1  0.33983133  0.78895290  0.93302982  1
  O2-  O258  1  0.82768536  0.29584790  0.26697577  1
  O2-  O259  1  0.83161816  0.29704174  0.60572441  1
  O2-  O260  1  0.83364039  0.28908278  0.93240224  1
  O2-  O261  1  0.83445520  0.78646980  0.26410722  1
  O2-  O262  1  0.83229003  0.78680734  0.59800626  1
  O2-  O263  1  0.83088573  0.79939154  0.94157319  1
  O2-  O264  1  0.41159494  0.03732972  0.06312970  1
  O2-  O265  1  0.41423991  0.03679649  0.40267801  1
  O2-  O266  1  0.41733581  0.04198259  0.73826756  1
  O2-  O267  1  0.41455886  0.54868830  0.06493066  1
  O2-  O268  1  0.41608992  0.54047146  0.39762178  1
  O2-  O269  1  0.41282055  0.53928908  0.73034192  1
  O2-  O270  1  0.91504949  0.03796696  0.07291175  1
  O2-  O271  1  0.91855713  0.05661514  0.39194856  1
  O2-  O272  1  0.91628704  0.05106079  0.72728641  1
  O2-  O273  1  0.91990831  0.54143605  0.07190584  1
  O2-  O274  1  0.91367969  0.54043285  0.39590995  1
  O2-  O275  1  0.91860820  0.54495429  0.73581692  1
  O2-  O276  1  0.29693309  0.16143335  0.06320745  1
  O2-  O277  1  0.30282599  0.17633691  0.39759655  1
  O2-  O278  1  0.29374966  0.17109513  0.73787532  1
  O2-  O279  1  0.29584981  0.66748968  0.06348917  1
  O2-  O280  1  0.30213704  0.66422637  0.39410505  1
  O2-  O281  1  0.31040977  0.67038242  0.72339898  1
  O2-  O282  1  0.78961132  0.16554236  0.06929336  1
  O2-  O283  1  0.78937143  0.16641825  0.39809497  1
  O2-  O284  1  0.79335789  0.16552341  0.72852222  1
  O2-  O285  1  0.79134451  0.66919257  0.07366042  1
  O2-  O286  1  0.79135791  0.65920928  0.39678747  1
  O2-  O287  1  0.78696471  0.66531980  0.73454931  1
