# generated using pymatgen
data_Ca2Al2SiO7
_symmetry_space_group_name_H-M   'P 1'
_cell_length_a   15.46274563
_cell_length_b   15.46187179
_cell_length_c   15.28676618
_cell_angle_alpha   90.00165211
_cell_angle_beta   90.00492410
_cell_angle_gamma   90.02027873
_symmetry_Int_Tables_number   1
_chemical_formula_structural   Ca2Al2SiO7
_chemical_formula_sum   'Ca48 Al48 Si24 O168'
_cell_volume   3654.80552986
_cell_formula_units_Z   24
loop_
 _symmetry_equiv_pos_site_id
 _symmetry_equiv_pos_as_xyz
  1  'x, y, z'
loop_
 _atom_type_symbol
 _atom_type_oxidation_number
  Ca2+  2.0
  Al0+  0.0
  Si0+  0.0
  O2-  -2.0
loop_
 _atom_site_type_symbol
 _atom_site_label
 _atom_site_symmetry_multiplicity
 _atom_site_fract_x
 _atom_site_fract_y
 _atom_site_fract_z
 _atom_site_occupancy
  Ca2+  Ca0  1  0.17209928  0.08450633  0.17037085  1
  Ca2+  Ca1  1  0.17874637  0.09171460  0.49933524  1
  Ca2+  Ca2  1  0.17816905  0.07955757  0.84393763  1
  Ca2+  Ca3  1  0.17702016  0.57996537  0.17538163  1
  Ca2+  Ca4  1  0.16670333  0.57519490  0.49949497  1
  Ca2+  Ca5  1  0.17041181  0.57171301  0.84233948  1
  Ca2+  Ca6  1  0.66991994  0.07237667  0.17808669  1
  Ca2+  Ca7  1  0.65941299  0.07361013  0.49845069  1
  Ca2+  Ca8  1  0.66543021  0.06921850  0.83922794  1
  Ca2+  Ca9  1  0.66479300  0.58033108  0.17678556  1
  Ca2+  Ca10  1  0.66521738  0.58073800  0.49774794  1
  Ca2+  Ca11  1  0.67418054  0.58902560  0.83381434  1
  Ca2+  Ca12  1  0.09704471  0.32396995  0.16580494  1
  Ca2+  Ca13  1  0.08559816  0.33361376  0.49118731  1
  Ca2+  Ca14  1  0.09550022  0.32983014  0.83358640  1
  Ca2+  Ca15  1  0.08040976  0.83283325  0.15872079  1
  Ca2+  Ca16  1  0.08112705  0.82381646  0.48904754  1
  Ca2+  Ca17  1  0.07854412  0.83958887  0.83392729  1
  Ca2+  Ca18  1  0.57881729  0.33097498  0.16881687  1
  Ca2+  Ca19  1  0.57602100  0.32778229  0.48256011  1
  Ca2+  Ca20  1  0.57865302  0.32742609  0.82902865  1
  Ca2+  Ca21  1  0.58163033  0.83336117  0.16287523  1
  Ca2+  Ca22  1  0.58330471  0.83236351  0.49634824  1
  Ca2+  Ca23  1  0.57282473  0.84156291  0.83006024  1
  Ca2+  Ca24  1  0.32798339  0.42493423  0.17432461  1
  Ca2+  Ca25  1  0.32631304  0.41663940  0.49700378  1
  Ca2+  Ca26  1  0.32345893  0.42239430  0.84202954  1
  Ca2+  Ca27  1  0.33573765  0.92608962  0.16717865  1
  Ca2+  Ca28  1  0.34117800  0.92854240  0.50320950  1
  Ca2+  Ca29  1  0.33470245  0.92306177  0.84220064  1
  Ca2+  Ca30  1  0.82565618  0.41613690  0.17307969  1
  Ca2+  Ca31  1  0.82633739  0.42020753  0.50088812  1
  Ca2+  Ca32  1  0.83376846  0.42364860  0.83317818  1
  Ca2+  Ca33  1  0.82561988  0.91612156  0.17264229  1
  Ca2+  Ca34  1  0.82210981  0.92035574  0.49831177  1
  Ca2+  Ca35  1  0.82143267  0.90900510  0.84038536  1
  Ca2+  Ca36  1  0.41190548  0.16771822  0.16895419  1
  Ca2+  Ca37  1  0.41725619  0.17004424  0.48894062  1
  Ca2+  Ca38  1  0.41188280  0.16049818  0.83046507  1
  Ca2+  Ca39  1  0.41923298  0.66581366  0.16157817  1
  Ca2+  Ca40  1  0.41790096  0.67444383  0.48950271  1
  Ca2+  Ca41  1  0.40679160  0.68112537  0.83298070  1
  Ca2+  Ca42  1  0.92908445  0.15905814  0.16436307  1
  Ca2+  Ca43  1  0.92398460  0.16532088  0.48786405  1
  Ca2+  Ca44  1  0.92747265  0.16570080  0.83339666  1
  Ca2+  Ca45  1  0.92518338  0.67124514  0.16287038  1
  Ca2+  Ca46  1  0.92047807  0.66346218  0.49408029  1
  Ca2+  Ca47  1  0.91504883  0.67072429  0.83046733  1
  Al0+  Al48  1  -0.00004150  0.00075528  -0.00973995  1
  Al0+  Al49  1  -0.00148227  -0.00020705  0.33370962  1
  Al0+  Al50  1  -0.00041466  0.00039495  0.66292275  1
  Al0+  Al51  1  -0.00201296  0.49772924  0.00336004  1
  Al0+  Al52  1  0.00059624  0.50071519  0.32963137  1
  Al0+  Al53  1  -0.00108938  0.49870067  0.67498741  1
  Al0+  Al54  1  0.50214603  -0.00133154  0.00494709  1
  Al0+  Al55  1  0.49959205  0.00039446  0.33746717  1
  Al0+  Al56  1  0.50039140  0.00008036  0.66984936  1
  Al0+  Al57  1  0.50189606  0.49846463  -0.00213689  1
  Al0+  Al58  1  0.49949307  0.50220125  0.33406112  1
  Al0+  Al59  1  0.49918602  0.50026627  0.66765372  1
  Al0+  Al60  1  0.25186874  0.25056246  0.00041222  1
  Al0+  Al61  1  0.24937598  0.25083542  0.33294864  1
  Al0+  Al62  1  0.25124478  0.24951602  0.67362351  1
  Al0+  Al63  1  0.25074077  0.74958019  0.00103330  1
  Al0+  Al64  1  0.24944909  0.75033402  0.33179739  1
  Al0+  Al65  1  0.24847042  0.75135498  0.65947176  1
  Al0+  Al66  1  0.75085555  0.24989723  -0.00435999  1
  Al0+  Al67  1  0.75058130  0.24990923  0.33688515  1
  Al0+  Al68  1  0.75199502  0.24942565  0.66698964  1
  Al0+  Al69  1  0.75119139  0.74825424  0.00067611  1
  Al0+  Al70  1  0.74853429  0.75070217  0.33358606  1
  Al0+  Al71  1  0.74964392  0.74989186  0.67279275  1
  Al0+  Al72  1  0.17802480  0.42873031  0.01762748  1
  Al0+  Al73  1  0.31902754  0.06819927  0.68027543  1
  Al0+  Al74  1  0.43030492  0.82068811  0.98777040  1
  Al0+  Al75  1  0.31854752  0.06995434  0.34743199  1
  Al0+  Al76  1  0.17911601  0.43002772  0.34832154  1
  Al0+  Al77  1  0.57035990  0.68086323  0.32090377  1
  Al0+  Al78  1  0.68175252  0.93159082  0.68233330  1
  Al0+  Al79  1  0.81895141  0.56885229  0.67960846  1
  Al0+  Al80  1  0.07178493  0.67783368  0.31895152  1
  Al0+  Al81  1  0.67802894  0.92793893  0.34952380  1
  Al0+  Al82  1  0.42888134  0.82162275  0.65179509  1
  Al0+  Al83  1  0.18085627  0.43080784  0.68136565  1
  Al0+  Al84  1  0.67814674  0.42895396  0.34510031  1
  Al0+  Al85  1  0.68096973  0.92808720  0.01514264  1
  Al0+  Al86  1  0.92934168  0.81966004  0.98555277  1
  Al0+  Al87  1  0.07021136  0.17947360  0.32079474  1
  Al0+  Al88  1  0.32268896  0.57207002  0.01401269  1
  Al0+  Al89  1  0.32254181  0.57409282  0.34992980  1
  Al0+  Al90  1  0.07242157  0.18118045  0.98441469  1
  Al0+  Al91  1  0.32214173  0.07017602  0.01703296  1
  Al0+  Al92  1  0.17580805  0.92880708  0.01333494  1
  Al0+  Al93  1  0.57236503  0.17735266  0.31827618  1
  Al0+  Al94  1  0.82302205  0.07151208  0.34720374  1
  Al0+  Al95  1  0.42827491  0.32141884  0.31795338  1
  Si0+  Si96  1  0.17590751  0.92734109  0.34957793  1
  Si0+  Si97  1  0.57162073  0.18008281  0.65320864  1
  Si0+  Si98  1  0.92931400  0.32208643  0.65124027  1
  Si0+  Si99  1  0.67969567  0.42685117  0.01318576  1
  Si0+  Si100  1  0.07161273  0.67589556  0.98267952  1
  Si0+  Si101  1  0.57271055  0.17894470  0.98438140  1
  Si0+  Si102  1  0.07172089  0.18059245  0.65115598  1
  Si0+  Si103  1  0.92691612  0.32354857  0.31725274  1
  Si0+  Si104  1  0.42718549  0.82381766  0.31617058  1
  Si0+  Si105  1  0.92671669  0.82076618  0.65035571  1
  Si0+  Si106  1  0.57339515  0.67799858  0.65069854  1
  Si0+  Si107  1  0.42858601  0.32123296  0.65323327  1
  Si0+  Si108  1  0.67573685  0.42528685  0.68338232  1
  Si0+  Si109  1  0.82580790  0.07409043  0.68533392  1
  Si0+  Si110  1  0.17485650  0.92530320  0.68074624  1
  Si0+  Si111  1  0.06842822  0.67741769  0.65302739  1
  Si0+  Si112  1  0.57272874  0.67527618  0.98162757  1
  Si0+  Si113  1  0.82179295  0.57201610  0.34735240  1
  Si0+  Si114  1  0.32316651  0.57565489  0.68249436  1
  Si0+  Si115  1  0.82176859  0.07340659  0.01375492  1
  Si0+  Si116  1  0.81999052  0.57050677  0.01663612  1
  Si0+  Si117  1  0.92830342  0.82090952  0.31761255  1
  Si0+  Si118  1  0.43103674  0.32111502  0.98304782  1
  Si0+  Si119  1  0.92469961  0.32273987  0.98064817  1
  O2-  O120  1  0.24762101  -0.00039522  0.06503089  1
  O2-  O121  1  0.24452116  -0.00490295  0.39547219  1
  O2-  O122  1  0.24495681  -0.00776695  0.72450136  1
  O2-  O123  1  0.24761285  0.50401300  0.06436544  1
  O2-  O124  1  0.24991396  0.50236721  0.39962238  1
  O2-  O125  1  0.25559719  0.50604748  0.72674406  1
  O2-  O126  1  0.75673728  0.00254518  0.05883929  1
  O2-  O127  1  0.74713388  0.00404961  0.39806059  1
  O2-  O128  1  0.75758301  0.00539604  0.72968563  1
  O2-  O129  1  0.74907264  0.49873742  0.05593586  1
  O2-  O130  1  0.75353190  0.50318064  0.39174511  1
  O2-  O131  1  0.74197216  0.49631098  0.72778626  1
  O2-  O132  1  -0.00548912  0.25358046  0.27402787  1
  O2-  O133  1  -0.00194097  0.24915649  0.60916299  1
  O2-  O134  1  -0.00179484  0.25808317  0.93781228  1
  O2-  O135  1  -0.00133228  0.75437080  0.27330347  1
  O2-  O136  1  0.00068665  0.75198428  0.60972024  1
  O2-  O137  1  0.00604158  0.74712147  0.93652597  1
  O2-  O138  1  0.50060979  0.24910606  0.26734436  1
  O2-  O139  1  0.50518709  0.25576896  0.61217624  1
  O2-  O140  1  0.49940649  0.24712226  0.94050200  1
  O2-  O141  1  0.49515589  0.75376469  0.27330237  1
  O2-  O142  1  0.50071445  0.74261795  0.60734725  1
  O2-  O143  1  0.50279124  0.74333031  0.93891294  1
  O2-  O144  1  0.07015508  0.18064297  0.09713105  1
  O2-  O145  1  0.06977818  0.18177145  0.43465628  1
  O2-  O146  1  0.07098237  0.18176335  0.75616509  1
  O2-  O147  1  0.06689320  0.67525031  0.08788982  1
  O2-  O148  1  0.06697887  0.67759804  0.43309811  1
  O2-  O149  1  0.06694476  0.67741703  0.75803194  1
  O2-  O150  1  0.57785869  0.18270138  0.08841604  1
  O2-  O151  1  0.56928267  0.17893966  0.43284399  1
  O2-  O152  1  0.57109826  0.18103248  0.75892179  1
  O2-  O153  1  0.57423718  0.67321097  0.08692348  1
  O2-  O154  1  0.57220854  0.68260906  0.43436357  1
  O2-  O155  1  0.57564705  0.67862634  0.75630358  1
  O2-  O156  1  0.18016505  0.43127175  0.23555181  1
  O2-  O157  1  0.17892449  0.43048875  0.56890955  1
  O2-  O158  1  0.18117255  0.43013294  0.90307689  1
  O2-  O159  1  0.17465301  0.92865696  0.24434539  1
  O2-  O160  1  0.17164813  0.92535046  0.57541605  1
  O2-  O161  1  0.17696343  0.93184400  0.89899512  1
  O2-  O162  1  0.68086693  0.43053390  0.23153005  1
  O2-  O163  1  0.67677923  0.42352097  0.57841542  1
  O2-  O164  1  0.68106980  0.42636238  0.90761315  1
  O2-  O165  1  0.68166215  0.92580311  0.23616572  1
  O2-  O166  1  0.68246181  0.93186084  0.56985510  1
  O2-  O167  1  0.68039914  0.93006035  0.90151134  1
  O2-  O168  1  0.43417723  0.32445261  0.08727016  1
  O2-  O169  1  0.42891544  0.31895108  0.43263371  1
  O2-  O170  1  0.42970301  0.32032182  0.75875799  1
  O2-  O171  1  0.43483201  0.82247596  0.10016373  1
  O2-  O172  1  0.42838591  0.82336478  0.42233708  1
  O2-  O173  1  0.42954715  0.82213274  0.76499794  1
  O2-  O174  1  0.91510474  0.32088031  0.08509118  1
  O2-  O175  1  0.92838291  0.32580466  0.42341700  1
  O2-  O176  1  0.92780652  0.32194565  0.75623826  1
  O2-  O177  1  0.92713982  0.81573653  0.09828580  1
  O2-  O178  1  0.92865002  0.81864124  0.42386054  1
  O2-  O179  1  0.92659972  0.81953344  0.75549255  1
  O2-  O180  1  0.31796711  0.06918408  0.23506334  1
  O2-  O181  1  0.31834924  0.07169118  0.56743664  1
  O2-  O182  1  0.32235902  0.06857727  0.90280756  1
  O2-  O183  1  0.32200570  0.57383637  0.23663021  1
  O2-  O184  1  0.32319210  0.57507582  0.57746803  1
  O2-  O185  1  0.32172388  0.56928077  0.89946003  1
  O2-  O186  1  0.82588268  0.06645621  0.23355307  1
  O2-  O187  1  0.82768132  0.07461623  0.58036355  1
  O2-  O188  1  0.81742000  0.07506309  0.90770220  1
  O2-  O189  1  0.82064507  0.57164517  0.24167238  1
  O2-  O190  1  0.82028353  0.56630410  0.56685707  1
  O2-  O191  1  0.81951815  0.57074627  0.91107208  1
  O2-  O192  1  0.03934359  0.08239560  0.26732287  1
  O2-  O193  1  0.04689065  0.08750226  0.60421119  1
  O2-  O194  1  0.04031195  0.08689601  0.92542518  1
  O2-  O195  1  0.03861255  0.58368314  0.26220002  1
  O2-  O196  1  0.03457292  0.58652162  0.60734403  1
  O2-  O197  1  0.04030746  0.58275050  0.93708426  1
  O2-  O198  1  0.54422630  0.07819443  0.26768157  1
  O2-  O199  1  0.53971208  0.08980469  0.60674395  1
  O2-  O200  1  0.54529844  0.08636872  0.93841312  1
  O2-  O201  1  0.54294630  0.58410336  0.26610725  1
  O2-  O202  1  0.55349680  0.58115226  0.60767047  1
  O2-  O203  1  0.55130714  0.58087642  0.93379415  1
  O2-  O204  1  0.16537124  0.21074169  0.26602633  1
  O2-  O205  1  0.16370219  0.21195611  0.60641677  1
  O2-  O206  1  0.16933829  0.21271026  0.92959196  1
  O2-  O207  1  0.16806096  0.70772657  0.26506102  1
  O2-  O208  1  0.16035618  0.70088657  0.60370390  1
  O2-  O209  1  0.16678426  0.69622816  0.93821451  1
  O2-  O210  1  0.67206710  0.20496752  0.26787711  1
  O2-  O211  1  0.66594887  0.20230044  0.60800982  1
  O2-  O212  1  0.66229726  0.20982318  0.93235273  1
  O2-  O213  1  0.66752522  0.70954898  0.26559223  1
  O2-  O214  1  0.66633450  0.70727744  0.60517007  1
  O2-  O215  1  0.66647460  0.70285354  0.93652619  1
  O2-  O216  1  0.07581144  0.44771799  0.06569614  1
  O2-  O217  1  0.07918377  0.45868122  0.39965141  1
  O2-  O218  1  0.08478846  0.45974355  0.73742607  1
  O2-  O219  1  0.07532017  0.95613087  0.06228476  1
  O2-  O220  1  0.08220912  0.95100874  0.39623666  1
  O2-  O221  1  0.08098241  0.95236175  0.72650737  1
  O2-  O222  1  0.58790164  0.45286903  0.05968867  1
  O2-  O223  1  0.58397539  0.46133805  0.40156911  1
  O2-  O224  1  0.58121154  0.44778235  0.72978798  1
  O2-  O225  1  0.58685982  0.96049192  0.07008173  1
  O2-  O226  1  0.58016283  0.95492949  0.40385696  1
  O2-  O227  1  0.58644705  0.96580324  0.73673051  1
  O2-  O228  1  0.21122089  0.33163865  0.06728704  1
  O2-  O229  1  0.20812837  0.33227102  0.40208384  1
  O2-  O230  1  0.21432828  0.33577898  0.73688679  1
  O2-  O231  1  0.19893372  0.82855932  0.06317178  1
  O2-  O232  1  0.20046526  0.83349137  0.39538780  1
  O2-  O233  1  0.19702730  0.83031065  0.72538182  1
  O2-  O234  1  0.70943425  0.33559430  0.05980906  1
  O2-  O235  1  0.70810803  0.33395383  0.40233195  1
  O2-  O236  1  0.70515667  0.33293722  0.73118881  1
  O2-  O237  1  0.71136220  0.83061460  0.06653602  1
  O2-  O238  1  0.71141176  0.83133019  0.40412361  1
  O2-  O239  1  0.71159820  0.83520357  0.73684891  1
  O2-  O240  1  0.45859220  0.41950626  0.26665450  1
  O2-  O241  1  0.44985134  0.41559825  0.60761128  1
  O2-  O242  1  0.46314188  0.41055950  0.93175693  1
  O2-  O243  1  0.45504771  0.91674646  0.27146441  1
  O2-  O244  1  0.46500713  0.91753670  0.59929582  1
  O2-  O245  1  0.46542134  0.91690562  0.93328947  1
  O2-  O246  1  0.95086636  0.41647123  0.26912245  1
  O2-  O247  1  0.95903140  0.41382985  0.60525566  1
  O2-  O248  1  0.94702799  0.41840817  0.93630000  1
  O2-  O249  1  0.95210167  0.91440012  0.27174430  1
  O2-  O250  1  0.95082074  0.91409929  0.60358010  1
  O2-  O251  1  0.95404860  0.91613289  0.92727163  1
  O2-  O252  1  0.33111381  0.29169797  0.26481271  1
  O2-  O253  1  0.33827263  0.28769906  0.60705515  1
  O2-  O254  1  0.33913701  0.29487610  0.93522186  1
  O2-  O255  1  0.33269921  0.80159728  0.27153233  1
  O2-  O256  1  0.33091888  0.79681997  0.59649631  1
  O2-  O257  1  0.33243897  0.79298483  0.93223972  1
  O2-  O258  1  0.83270615  0.30011474  0.27208759  1
  O2-  O259  1  0.83582070  0.29769987  0.60430942  1
  O2-  O260  1  0.83387104  0.29342546  0.92838092  1
  O2-  O261  1  0.83581319  0.79286622  0.27145468  1
  O2-  O262  1  0.83606203  0.78836777  0.60404356  1
  O2-  O263  1  0.83423980  0.78253343  0.93011914  1
  O2-  O264  1  0.42002938  0.04173163  0.06939536  1
  O2-  O265  1  0.41489423  0.04059778  0.40288286  1
  O2-  O266  1  0.41571381  0.03947647  0.73468413  1
  O2-  O267  1  0.42191913  0.54065382  0.06342583  1
  O2-  O268  1  0.42034775  0.54648164  0.40355139  1
  O2-  O269  1  0.41774945  0.55259325  0.72832229  1
  O2-  O270  1  0.91732721  0.05029260  0.05423262  1
  O2-  O271  1  0.91885216  0.03857706  0.40452115  1
  O2-  O272  1  0.92006373  0.04798596  0.73038358  1
  O2-  O273  1  0.91113490  0.54324874  0.06455740  1
  O2-  O274  1  0.91482055  0.54577443  0.39367473  1
  O2-  O275  1  0.91210401  0.53558213  0.73908836  1
  O2-  O276  1  0.29634787  0.17007182  0.06568810  1
  O2-  O277  1  0.28666088  0.16611635  0.40162921  1
  O2-  O278  1  0.28800245  0.16337601  0.73702484  1
  O2-  O279  1  0.30034981  0.67138212  0.06581367  1
  O2-  O280  1  0.29289869  0.67288775  0.40209384  1
  O2-  O281  1  0.29435964  0.66955513  0.72641288  1
  O2-  O282  1  0.79482163  0.16668213  0.05905859  1
  O2-  O283  1  0.80258763  0.17155767  0.39990546  1
  O2-  O284  1  0.80137683  0.16849682  0.73104425  1
  O2-  O285  1  0.79174782  0.66080902  0.06507906  1
  O2-  O286  1  0.79606408  0.66465503  0.39475864  1
  O2-  O287  1  0.78948821  0.66440032  0.73702425  1
