# generated using pymatgen
data_Ca2Al2SiO7
_symmetry_space_group_name_H-M   'P 1'
_cell_length_a   15.45803227
_cell_length_b   15.45824426
_cell_length_c   15.28324409
_cell_angle_alpha   90.00605427
_cell_angle_beta   90.00712416
_cell_angle_gamma   90.01312443
_symmetry_Int_Tables_number   1
_chemical_formula_structural   Ca2Al2SiO7
_chemical_formula_sum   'Ca48 Al48 Si24 O168'
_cell_volume   3651.99275549
_cell_formula_units_Z   24
loop_
 _symmetry_equiv_pos_site_id
 _symmetry_equiv_pos_as_xyz
  1  'x, y, z'
loop_
 _atom_type_symbol
 _atom_type_oxidation_number
  Ca2+  2.0
  Al0+  0.0
  Si0+  0.0
  O2-  -2.0
loop_
 _atom_site_type_symbol
 _atom_site_label
 _atom_site_symmetry_multiplicity
 _atom_site_fract_x
 _atom_site_fract_y
 _atom_site_fract_z
 _atom_site_occupancy
  Ca2+  Ca0  1  0.17158429  0.07890065  0.16884077  1
  Ca2+  Ca1  1  0.18192206  0.07726571  0.50631201  1
  Ca2+  Ca2  1  0.17169979  0.07685378  0.84016452  1
  Ca2+  Ca3  1  0.16462138  0.57806116  0.16805847  1
  Ca2+  Ca4  1  0.16582149  0.58139901  0.50363561  1
  Ca2+  Ca5  1  0.16793732  0.57071720  0.83937370  1
  Ca2+  Ca6  1  0.67655647  0.09262677  0.16833660  1
  Ca2+  Ca7  1  0.66972621  0.07941149  0.50584781  1
  Ca2+  Ca8  1  0.66549171  0.08452126  0.83806932  1
  Ca2+  Ca9  1  0.66725012  0.57909449  0.16905699  1
  Ca2+  Ca10  1  0.66459160  0.57180239  0.50229078  1
  Ca2+  Ca11  1  0.66707345  0.57426663  0.84500554  1
  Ca2+  Ca12  1  0.08158796  0.32484747  0.15556749  1
  Ca2+  Ca13  1  0.08271870  0.33482573  0.49638853  1
  Ca2+  Ca14  1  0.08766800  0.33075064  0.83225775  1
  Ca2+  Ca15  1  0.07990415  0.83002266  0.16358076  1
  Ca2+  Ca16  1  0.08044574  0.82925346  0.49042211  1
  Ca2+  Ca17  1  0.08533778  0.83836217  0.83006727  1
  Ca2+  Ca18  1  0.57608239  0.33578147  0.15791577  1
  Ca2+  Ca19  1  0.58252088  0.33059056  0.49491615  1
  Ca2+  Ca20  1  0.58964454  0.32536664  0.83035775  1
  Ca2+  Ca21  1  0.57154165  0.83144422  0.15778677  1
  Ca2+  Ca22  1  0.58031175  0.83583261  0.49464654  1
  Ca2+  Ca23  1  0.58270983  0.83157292  0.83101819  1
  Ca2+  Ca24  1  0.33159546  0.40607108  0.16862576  1
  Ca2+  Ca25  1  0.32955934  0.41521959  0.50291113  1
  Ca2+  Ca26  1  0.32514344  0.40902571  0.83932256  1
  Ca2+  Ca27  1  0.33408959  0.91717617  0.17113370  1
  Ca2+  Ca28  1  0.33616197  0.92662347  0.50642154  1
  Ca2+  Ca29  1  0.32593040  0.91945369  0.83827900  1
  Ca2+  Ca30  1  0.81850079  0.42534310  0.17104222  1
  Ca2+  Ca31  1  0.82131311  0.42037416  0.50074139  1
  Ca2+  Ca32  1  0.82160199  0.42079134  0.84268940  1
  Ca2+  Ca33  1  0.83587492  0.92699442  0.17177660  1
  Ca2+  Ca34  1  0.83188047  0.91822369  0.50043707  1
  Ca2+  Ca35  1  0.82470643  0.92168643  0.83911459  1
  Ca2+  Ca36  1  0.42163506  0.17414597  0.16021929  1
  Ca2+  Ca37  1  0.41911209  0.16626335  0.49494006  1
  Ca2+  Ca38  1  0.42592919  0.16910993  0.83118646  1
  Ca2+  Ca39  1  0.42165044  0.67722977  0.15874996  1
  Ca2+  Ca40  1  0.41735316  0.67602406  0.49121345  1
  Ca2+  Ca41  1  0.41980839  0.66992656  0.83820994  1
  Ca2+  Ca42  1  0.91991008  0.16123244  0.15744419  1
  Ca2+  Ca43  1  0.91854777  0.16590254  0.49429791  1
  Ca2+  Ca44  1  0.92159749  0.16110944  0.83549120  1
  Ca2+  Ca45  1  0.91352367  0.66504546  0.16657818  1
  Ca2+  Ca46  1  0.92283696  0.67207929  0.48669246  1
  Ca2+  Ca47  1  0.91456564  0.66395032  0.83197387  1
  Al0+  Al48  1  0.00079913  -0.00145984  0.00216031  1
  Al0+  Al49  1  0.00074838  -0.00124647  0.33538698  1
  Al0+  Al50  1  0.00112323  0.00064055  0.66560894  1
  Al0+  Al51  1  0.00038556  0.49976114  0.00661042  1
  Al0+  Al52  1  -0.00168399  0.49833162  0.33235703  1
  Al0+  Al53  1  0.00083881  0.50040032  0.66802594  1
  Al0+  Al54  1  0.49787600  0.00138478  -0.00779114  1
  Al0+  Al55  1  0.50071358  0.00174846  0.33154935  1
  Al0+  Al56  1  0.50251396  0.00147302  0.67031027  1
  Al0+  Al57  1  0.49630813  0.50249524  -0.00498288  1
  Al0+  Al58  1  0.49631485  0.49879804  0.33440201  1
  Al0+  Al59  1  0.50018262  0.50036617  0.66948299  1
  Al0+  Al60  1  0.24929959  0.24703871  -0.00373873  1
  Al0+  Al61  1  0.25068202  0.24762081  0.33532046  1
  Al0+  Al62  1  0.25089604  0.25012274  0.67208216  1
  Al0+  Al63  1  0.24699694  0.74911467  -0.00078465  1
  Al0+  Al64  1  0.24874650  0.74733179  0.32526954  1
  Al0+  Al65  1  0.25028399  0.74991900  0.66838208  1
  Al0+  Al66  1  0.75099819  0.25174659  0.00413102  1
  Al0+  Al67  1  0.75120763  0.24943956  0.34281206  1
  Al0+  Al68  1  0.75139698  0.25109407  0.66420789  1
  Al0+  Al69  1  0.74995805  0.75141853  -0.00009927  1
  Al0+  Al70  1  0.75155292  0.75013214  0.33217632  1
  Al0+  Al71  1  0.75067963  0.75124229  0.66681189  1
  Al0+  Al72  1  0.67541233  0.42939320  0.01509274  1
  Al0+  Al73  1  0.57236530  0.68079599  0.98451438  1
  Al0+  Al74  1  0.43017074  0.82341892  0.32128664  1
  Al0+  Al75  1  0.32162152  0.07035479  0.34556637  1
  Al0+  Al76  1  0.92824834  0.82233692  0.31667365  1
  Al0+  Al77  1  0.42752487  0.32201130  0.98371298  1
  Al0+  Al78  1  0.18131745  0.42640678  0.01523100  1
  Al0+  Al79  1  0.81937645  0.06967134  0.01185504  1
  Al0+  Al80  1  0.68063595  0.92868114  0.67977833  1
  Al0+  Al81  1  0.42836071  0.31993586  0.32146171  1
  Al0+  Al82  1  0.82324905  0.07032701  0.34866574  1
  Al0+  Al83  1  0.06962060  0.17687409  0.98623247  1
  Al0+  Al84  1  0.17904931  0.92864384  0.68008558  1
  Al0+  Al85  1  0.32349399  0.07192449  0.68432433  1
  Al0+  Al86  1  0.82104740  0.57375987  0.01560758  1
  Al0+  Al87  1  0.07062671  0.67599227  0.31601172  1
  Al0+  Al88  1  0.57214641  0.17939965  0.65012856  1
  Al0+  Al89  1  0.17929405  0.92783210  0.01600270  1
  Al0+  Al90  1  0.17892987  0.43072206  0.67942918  1
  Al0+  Al91  1  0.67888438  0.42877002  0.68178137  1
  Al0+  Al92  1  0.67526571  0.42992755  0.34975548  1
  Al0+  Al93  1  0.82151871  0.57231176  0.35017711  1
  Al0+  Al94  1  0.57436618  0.18154769  0.98566006  1
  Al0+  Al95  1  0.42580650  0.82235922  0.98219431  1
  Si0+  Si96  1  0.93086016  0.32224859  0.65099338  1
  Si0+  Si97  1  0.82315365  0.07270735  0.68282822  1
  Si0+  Si98  1  0.67765930  0.92866579  0.34719729  1
  Si0+  Si99  1  0.92869266  0.82190732  0.65197559  1
  Si0+  Si100  1  0.42723733  0.32251545  0.64912448  1
  Si0+  Si101  1  0.07075360  0.17997578  0.32027119  1
  Si0+  Si102  1  0.57089873  0.67695340  0.31931963  1
  Si0+  Si103  1  0.42956308  0.81986006  0.65181719  1
  Si0+  Si104  1  0.17993784  0.92582383  0.34874838  1
  Si0+  Si105  1  0.57221817  0.67842903  0.65058208  1
  Si0+  Si106  1  0.32247910  0.07047468  0.01761564  1
  Si0+  Si107  1  0.92765810  0.31955950  0.31870999  1
  Si0+  Si108  1  0.07228921  0.17887093  0.65032879  1
  Si0+  Si109  1  0.06912683  0.67698356  0.98282600  1
  Si0+  Si110  1  0.07050049  0.67867718  0.65319573  1
  Si0+  Si111  1  0.92999311  0.82149899  0.98356306  1
  Si0+  Si112  1  0.32282474  0.57387489  0.68341329  1
  Si0+  Si113  1  0.93004986  0.32281051  0.98425200  1
  Si0+  Si114  1  0.57405703  0.17909305  0.31820031  1
  Si0+  Si115  1  0.31914715  0.57206651  0.34716293  1
  Si0+  Si116  1  0.31977947  0.57256951  0.01773579  1
  Si0+  Si117  1  0.82126911  0.57171093  0.68190256  1
  Si0+  Si118  1  0.67527572  0.92875109  0.01617165  1
  Si0+  Si119  1  0.17911102  0.42735451  0.34703012  1
  O2-  O120  1  0.25730027  -0.00147959  0.06243923  1
  O2-  O121  1  0.25183822  -0.00914282  0.39282354  1
  O2-  O122  1  0.24965487  0.00022222  0.73181814  1
  O2-  O123  1  0.25763615  0.49829760  0.06325153  1
  O2-  O124  1  0.24757138  0.50101762  0.38928315  1
  O2-  O125  1  0.25621639  0.50230849  0.72583685  1
  O2-  O126  1  0.74092756  0.00001332  0.06054270  1
  O2-  O127  1  0.74854029  -0.00528557  0.39289425  1
  O2-  O128  1  0.75388248  0.00482487  0.72622570  1
  O2-  O129  1  0.74532672  0.50461616  0.06334470  1
  O2-  O130  1  0.74656089  0.50347269  0.40000226  1
  O2-  O131  1  0.75142869  0.50585506  0.72717273  1
  O2-  O132  1  -0.00303158  0.24701284  0.27645401  1
  O2-  O133  1  0.00187004  0.25069572  0.60786629  1
  O2-  O134  1  -0.00296629  0.25331005  0.93795856  1
  O2-  O135  1  -0.00189684  0.74802021  0.26672332  1
  O2-  O136  1  0.00163953  0.75175073  0.61134966  1
  O2-  O137  1  -0.00288869  0.74687672  0.94014525  1
  O2-  O138  1  0.50709517  0.24984331  0.27558484  1
  O2-  O139  1  0.49651004  0.25458031  0.60449609  1
  O2-  O140  1  0.50470523  0.25540358  0.93417406  1
  O2-  O141  1  0.50637381  0.74985047  0.27592768  1
  O2-  O142  1  0.50072377  0.74915828  0.60804981  1
  O2-  O143  1  0.50200075  0.75410118  0.93269420  1
  O2-  O144  1  0.06821204  0.17775197  0.09994155  1
  O2-  O145  1  0.07125523  0.18364867  0.42578672  1
  O2-  O146  1  0.06946058  0.17736954  0.75508081  1
  O2-  O147  1  0.06975692  0.67722497  0.08737015  1
  O2-  O148  1  0.07246053  0.67767130  0.43072324  1
  O2-  O149  1  0.06819619  0.67607236  0.75808589  1
  O2-  O150  1  0.57361648  0.18097387  0.09956957  1
  O2-  O151  1  0.57243302  0.17754582  0.42402566  1
  O2-  O152  1  0.57428157  0.18143186  0.76256743  1
  O2-  O153  1  0.57063452  0.68338565  0.09859047  1
  O2-  O154  1  0.56689002  0.67667706  0.42569100  1
  O2-  O155  1  0.57316005  0.67938765  0.75499137  1
  O2-  O156  1  0.18083184  0.42468305  0.24241400  1
  O2-  O157  1  0.17730412  0.43349805  0.56568736  1
  O2-  O158  1  0.17960193  0.43011427  0.90192897  1
  O2-  O159  1  0.17877667  0.92850504  0.24332895  1
  O2-  O160  1  0.17988947  0.92777403  0.56624328  1
  O2-  O161  1  0.17812180  0.93036373  0.90283493  1
  O2-  O162  1  0.67449848  0.43045784  0.23683920  1
  O2-  O163  1  0.67930779  0.43036264  0.56874432  1
  O2-  O164  1  0.68100371  0.42843216  0.90120948  1
  O2-  O165  1  0.67585628  0.93147770  0.24191685  1
  O2-  O166  1  0.68306632  0.92673166  0.56639822  1
  O2-  O167  1  0.68004242  0.92721017  0.91030066  1
  O2-  O168  1  0.42615470  0.31697877  0.09767505  1
  O2-  O169  1  0.42519090  0.31846839  0.43471918  1
  O2-  O170  1  0.42664754  0.32268724  0.75411426  1
  O2-  O171  1  0.42678390  0.82034592  0.09621983  1
  O2-  O172  1  0.43111195  0.82168132  0.43524230  1
  O2-  O173  1  0.42825902  0.81621901  0.75620688  1
  O2-  O174  1  0.93252624  0.32121720  0.09006558  1
  O2-  O175  1  0.93123729  0.31938423  0.42445944  1
  O2-  O176  1  0.93184991  0.32334363  0.75575877  1
  O2-  O177  1  0.93233306  0.82368785  0.08808215  1
  O2-  O178  1  0.93276995  0.82340597  0.43120184  1
  O2-  O179  1  0.92741545  0.82129967  0.75707547  1
  O2-  O180  1  0.31804337  0.07247376  0.23302517  1
  O2-  O181  1  0.32182580  0.07005652  0.56982771  1
  O2-  O182  1  0.31979655  0.07047661  0.91219149  1
  O2-  O183  1  0.32013296  0.57249141  0.24273708  1
  O2-  O184  1  0.32107119  0.57702141  0.57730127  1
  O2-  O185  1  0.31423095  0.57523396  0.91191109  1
  O2-  O186  1  0.82344244  0.07176820  0.23582568  1
  O2-  O187  1  0.82482340  0.07023388  0.57706271  1
  O2-  O188  1  0.82176687  0.06559018  0.89864924  1
  O2-  O189  1  0.82072650  0.56845624  0.23732121  1
  O2-  O190  1  0.82204609  0.57053733  0.57661576  1
  O2-  O191  1  0.82310345  0.57033297  0.90115512  1
  O2-  O192  1  0.04660760  0.08656465  0.27541309  1
  O2-  O193  1  0.04355242  0.08771212  0.60092045  1
  O2-  O194  1  0.03517290  0.08177747  0.93114194  1
  O2-  O195  1  0.04347142  0.57644314  0.26453950  1
  O2-  O196  1  0.04161472  0.58776032  0.60360140  1
  O2-  O197  1  0.04130530  0.58442618  0.93592269  1
  O2-  O198  1  0.54806332  0.08681949  0.27056248  1
  O2-  O199  1  0.54287120  0.08094281  0.59762762  1
  O2-  O200  1  0.54587014  0.08340534  0.93160719  1
  O2-  O201  1  0.53923185  0.58588627  0.27274960  1
  O2-  O202  1  0.54336031  0.58644364  0.60325761  1
  O2-  O203  1  0.54086908  0.58429827  0.92907864  1
  O2-  O204  1  0.16072647  0.21120221  0.27213290  1
  O2-  O205  1  0.16473465  0.20746251  0.60436377  1
  O2-  O206  1  0.16495523  0.20643142  0.93063939  1
  O2-  O207  1  0.16823101  0.70216333  0.26061046  1
  O2-  O208  1  0.16361440  0.70379016  0.60609689  1
  O2-  O209  1  0.15994483  0.70531947  0.93417371  1
  O2-  O210  1  0.66972860  0.20325691  0.27623144  1
  O2-  O211  1  0.66999683  0.20936228  0.59634067  1
  O2-  O212  1  0.67419168  0.20735727  0.93287955  1
  O2-  O213  1  0.66636774  0.69665169  0.27640214  1
  O2-  O214  1  0.66398529  0.70718694  0.60284898  1
  O2-  O215  1  0.67153363  0.70745180  0.93073506  1
  O2-  O216  1  0.08580267  0.45890756  0.06986638  1
  O2-  O217  1  0.08646209  0.45250246  0.39399734  1
  O2-  O218  1  0.08380842  0.46376297  0.73516802  1
  O2-  O219  1  0.08459418  0.96228112  0.07055619  1
  O2-  O220  1  0.08816653  0.95495086  0.39642463  1
  O2-  O221  1  0.07968549  0.95621587  0.73185287  1
  O2-  O222  1  0.57464192  0.45617629  0.06305180  1
  O2-  O223  1  0.57640775  0.45796852  0.40369030  1
  O2-  O224  1  0.58137311  0.45708016  0.73407060  1
  O2-  O225  1  0.57916930  0.95070482  0.05765116  1
  O2-  O226  1  0.58572120  0.95693738  0.39595082  1
  O2-  O227  1  0.58479379  0.95627902  0.73464567  1
  O2-  O228  1  0.20856576  0.32797502  0.06730551  1
  O2-  O229  1  0.20954522  0.33761331  0.39748392  1
  O2-  O230  1  0.20512243  0.33365457  0.73324055  1
  O2-  O231  1  0.20470797  0.82912960  0.06785034  1
  O2-  O232  1  0.20139712  0.82966459  0.39114749  1
  O2-  O233  1  0.20527562  0.82955466  0.73304202  1
  O2-  O234  1  0.70757405  0.33327782  0.06989577  1
  O2-  O235  1  0.70798878  0.33333535  0.40470649  1
  O2-  O236  1  0.71496844  0.33315077  0.73329315  1
  O2-  O237  1  0.70333115  0.83654177  0.06260411  1
  O2-  O238  1  0.69957325  0.83395115  0.39294163  1
  O2-  O239  1  0.71337938  0.83304850  0.73521562  1
  O2-  O240  1  0.45173965  0.41862710  0.26814143  1
  O2-  O241  1  0.45079831  0.41833989  0.60489574  1
  O2-  O242  1  0.44250875  0.42398800  0.93360372  1
  O2-  O243  1  0.45964292  0.91925103  0.26534063  1
  O2-  O244  1  0.45848615  0.91218522  0.60669716  1
  O2-  O245  1  0.44942740  0.92109066  0.92896505  1
  O2-  O246  1  0.95633017  0.40997523  0.27068280  1
  O2-  O247  1  0.96127940  0.41341534  0.60244064  1
  O2-  O248  1  0.95815660  0.41592687  0.93837314  1
  O2-  O249  1  0.96004684  0.92062919  0.26455829  1
  O2-  O250  1  0.95503790  0.91418561  0.60412458  1
  O2-  O251  1  0.96263081  0.91064817  0.93403848  1
  O2-  O252  1  0.33266400  0.28541520  0.26740111  1
  O2-  O253  1  0.33239315  0.29689997  0.60404661  1
  O2-  O254  1  0.33122819  0.28764720  0.92963905  1
  O2-  O255  1  0.33482522  0.79120410  0.26695834  1
  O2-  O256  1  0.33767190  0.79105381  0.60355798  1
  O2-  O257  1  0.32834301  0.78769765  0.93010204  1
  O2-  O258  1  0.83469254  0.29244278  0.27452955  1
  O2-  O259  1  0.84029256  0.29413941  0.60134072  1
  O2-  O260  1  0.83636852  0.29776353  0.93908753  1
  O2-  O261  1  0.82817068  0.79939071  0.26465577  1
  O2-  O262  1  0.83794732  0.79301029  0.60265377  1
  O2-  O263  1  0.83688838  0.79783042  0.93638316  1
  O2-  O264  1  0.41775255  0.04816290  0.06163850  1
  O2-  O265  1  0.41945873  0.04319710  0.39947478  1
  O2-  O266  1  0.42098257  0.04334333  0.73628262  1
  O2-  O267  1  0.41592671  0.55579824  0.06047233  1
  O2-  O268  1  0.40934423  0.54477471  0.39816148  1
  O2-  O269  1  0.41684830  0.55165866  0.72901925  1
  O2-  O270  1  0.91391554  0.03402227  0.06675836  1
  O2-  O271  1  0.91987811  0.04004048  0.40439757  1
  O2-  O272  1  0.91670776  0.04606107  0.72814636  1
  O2-  O273  1  0.91823070  0.54357230  0.06925126  1
  O2-  O274  1  0.91972969  0.53950278  0.40292731  1
  O2-  O275  1  0.91455494  0.54483221  0.72805177  1
  O2-  O276  1  0.29130335  0.16228096  0.06331611  1
  O2-  O277  1  0.28479509  0.16354964  0.40355064  1
  O2-  O278  1  0.29498960  0.16978351  0.73649482  1
  O2-  O279  1  0.28670722  0.66307126  0.06538136  1
  O2-  O280  1  0.29036929  0.66351550  0.39619678  1
  O2-  O281  1  0.29384060  0.66506593  0.73174266  1
  O2-  O282  1  0.79616732  0.16755808  0.06680916  1
  O2-  O283  1  0.79453603  0.16556291  0.40641095  1
  O2-  O284  1  0.80029227  0.16725659  0.72657776  1
  O2-  O285  1  0.79712571  0.67401016  0.06671660  1
  O2-  O286  1  0.79975758  0.67361267  0.40089691  1
  O2-  O287  1  0.79892931  0.66649601  0.72651055  1
