# generated using pymatgen
data_Ca2Al2SiO7
_symmetry_space_group_name_H-M   'P 1'
_cell_length_a   15.45810646
_cell_length_b   15.45786466
_cell_length_c   15.28356997
_cell_angle_alpha   90.00213521
_cell_angle_beta   90.00932533
_cell_angle_gamma   90.02569505
_symmetry_Int_Tables_number   1
_chemical_formula_structural   Ca2Al2SiO7
_chemical_formula_sum   'Ca48 Al48 Si24 O168'
_cell_volume   3651.99819586
_cell_formula_units_Z   24
loop_
 _symmetry_equiv_pos_site_id
 _symmetry_equiv_pos_as_xyz
  1  'x, y, z'
loop_
 _atom_type_symbol
 _atom_type_oxidation_number
  Ca2+  2.0
  Al0+  0.0
  Si0+  0.0
  O2-  -2.0
loop_
 _atom_site_type_symbol
 _atom_site_label
 _atom_site_symmetry_multiplicity
 _atom_site_fract_x
 _atom_site_fract_y
 _atom_site_fract_z
 _atom_site_occupancy
  Ca2+  Ca0  1  0.16785610  0.07847959  0.16448038  1
  Ca2+  Ca1  1  0.16316223  0.07456610  0.50650183  1
  Ca2+  Ca2  1  0.16534800  0.07712915  0.84088181  1
  Ca2+  Ca3  1  0.17072761  0.56849624  0.17546759  1
  Ca2+  Ca4  1  0.17641852  0.57292328  0.50640674  1
  Ca2+  Ca5  1  0.17107881  0.57306867  0.83483923  1
  Ca2+  Ca6  1  0.67434462  0.08598540  0.17088880  1
  Ca2+  Ca7  1  0.67138726  0.09338983  0.50378843  1
  Ca2+  Ca8  1  0.67044498  0.07856908  0.84107193  1
  Ca2+  Ca9  1  0.67651299  0.57898685  0.16621896  1
  Ca2+  Ca10  1  0.66784869  0.58044937  0.50762898  1
  Ca2+  Ca11  1  0.66534444  0.57679778  0.83781501  1
  Ca2+  Ca12  1  0.08580702  0.33071478  0.15458065  1
  Ca2+  Ca13  1  0.09197598  0.33066078  0.49859494  1
  Ca2+  Ca14  1  0.09080731  0.32285560  0.82989950  1
  Ca2+  Ca15  1  0.08714588  0.83479260  0.16199799  1
  Ca2+  Ca16  1  0.08231041  0.83778750  0.49870301  1
  Ca2+  Ca17  1  0.07807156  0.83959303  0.82459816  1
  Ca2+  Ca18  1  0.57704882  0.33152740  0.15928572  1
  Ca2+  Ca19  1  0.58941909  0.32600647  0.49773880  1
  Ca2+  Ca20  1  0.58084400  0.33479778  0.82756408  1
  Ca2+  Ca21  1  0.58563534  0.83225669  0.16050035  1
  Ca2+  Ca22  1  0.57376058  0.82737066  0.50068512  1
  Ca2+  Ca23  1  0.57924923  0.82912223  0.82281001  1
  Ca2+  Ca24  1  0.32435756  0.41242363  0.16860454  1
  Ca2+  Ca25  1  0.32806040  0.42422819  0.50605585  1
  Ca2+  Ca26  1  0.32899687  0.41543151  0.83668423  1
  Ca2+  Ca27  1  0.32396900  0.92245151  0.16802767  1
  Ca2+  Ca28  1  0.32296278  0.91304665  0.50740160  1
  Ca2+  Ca29  1  0.32678634  0.92179574  0.83788540  1
  Ca2+  Ca30  1  0.83305795  0.42602293  0.16869141  1
  Ca2+  Ca31  1  0.82906602  0.42310541  0.50482760  1
  Ca2+  Ca32  1  0.81929823  0.42032620  0.84000030  1
  Ca2+  Ca33  1  0.82912714  0.92925953  0.16504792  1
  Ca2+  Ca34  1  0.83539356  0.92264202  0.50327259  1
  Ca2+  Ca35  1  0.82832310  0.91922763  0.84065380  1
  Ca2+  Ca36  1  0.41789219  0.17091628  0.15761122  1
  Ca2+  Ca37  1  0.43108644  0.16546130  0.49603990  1
  Ca2+  Ca38  1  0.41854369  0.17019753  0.83095672  1
  Ca2+  Ca39  1  0.41310988  0.66585753  0.16392509  1
  Ca2+  Ca40  1  0.41191755  0.66305814  0.50155308  1
  Ca2+  Ca41  1  0.42054087  0.67281852  0.82098230  1
  Ca2+  Ca42  1  0.92028712  0.16245708  0.16053548  1
  Ca2+  Ca43  1  0.92159614  0.16828649  0.49717329  1
  Ca2+  Ca44  1  0.92813247  0.16017055  0.83040306  1
  Ca2+  Ca45  1  0.91435241  0.66406918  0.16057850  1
  Ca2+  Ca46  1  0.91410925  0.67354445  0.49539627  1
  Ca2+  Ca47  1  0.91525702  0.67295002  0.82798985  1
  Al0+  Al48  1  -0.00140473  -0.00164427  0.00265016  1
  Al0+  Al49  1  -0.00277504  0.00058612  0.33869793  1
  Al0+  Al50  1  0.00022073  0.00141720  0.66104389  1
  Al0+  Al51  1  0.00053178  0.49999048  0.00304150  1
  Al0+  Al52  1  -0.00109375  0.50063104  0.34169196  1
  Al0+  Al53  1  -0.00023875  0.50030601  0.67087476  1
  Al0+  Al54  1  0.49847590  -0.00072628  0.00623893  1
  Al0+  Al55  1  0.50063075  -0.00222425  0.32671889  1
  Al0+  Al56  1  0.50077183  -0.00038447  0.65700958  1
  Al0+  Al57  1  0.50024954  0.50027465  -0.00101315  1
  Al0+  Al58  1  0.50019852  0.49994831  0.33336729  1
  Al0+  Al59  1  0.50079244  0.50021716  0.66920276  1
  Al0+  Al60  1  0.25142035  0.24936026  -0.00216648  1
  Al0+  Al61  1  0.25163736  0.24648532  0.33603520  1
  Al0+  Al62  1  0.25167277  0.24808534  0.66223855  1
  Al0+  Al63  1  0.24943646  0.74933367  0.00006449  1
  Al0+  Al64  1  0.24848818  0.74945387  0.33809711  1
  Al0+  Al65  1  0.24736849  0.75017506  0.67148284  1
  Al0+  Al66  1  0.75023442  0.25094641  0.00649593  1
  Al0+  Al67  1  0.75254132  0.24946488  0.33103789  1
  Al0+  Al68  1  0.75288837  0.25208555  0.66866275  1
  Al0+  Al69  1  0.75023084  0.75021175  0.00573531  1
  Al0+  Al70  1  0.74928251  0.75197359  0.33443508  1
  Al0+  Al71  1  0.74977837  0.75269875  0.65652934  1
  Al0+  Al72  1  0.32196287  0.57049575  0.34787899  1
  Al0+  Al73  1  0.17792458  0.93144061  0.68087568  1
  Al0+  Al74  1  0.32131095  0.57078661  0.68434141  1
  Al0+  Al75  1  0.82026349  0.57300795  0.34911321  1
  Al0+  Al76  1  0.17956364  0.93133504  0.34817946  1
  Al0+  Al77  1  0.17850494  0.42540369  0.68419129  1
  Al0+  Al78  1  0.82122021  0.07162989  0.01288292  1
  Al0+  Al79  1  0.57027114  0.67733986  0.65132077  1
  Al0+  Al80  1  0.67552586  0.42818511  0.01625206  1
  Al0+  Al81  1  0.43028226  0.32084781  0.98534897  1
  Al0+  Al82  1  0.06851732  0.17906428  0.98766032  1
  Al0+  Al83  1  0.17769023  0.92748440  0.01393755  1
  Al0+  Al84  1  0.18125232  0.42881713  0.01185798  1
  Al0+  Al85  1  0.07197826  0.18039317  0.65173027  1
  Al0+  Al86  1  0.92955792  0.82137718  0.65208043  1
  Al0+  Al87  1  0.17835323  0.42493113  0.34872730  1
  Al0+  Al88  1  0.57291875  0.17919760  0.31692224  1
  Al0+  Al89  1  0.67704570  0.92849077  0.01298068  1
  Al0+  Al90  1  0.42595258  0.82099802  0.65165977  1
  Al0+  Al91  1  0.32098848  0.07213415  0.01367113  1
  Al0+  Al92  1  0.82092187  0.57083949  0.01285888  1
  Al0+  Al93  1  0.81826958  0.07119149  0.34988592  1
  Al0+  Al94  1  0.68080702  0.42898527  0.67948806  1
  Al0+  Al95  1  0.57333728  0.18018534  0.65516346  1
  Si0+  Si96  1  0.42846790  0.32139252  0.31680285  1
  Si0+  Si97  1  0.32588683  0.07038839  0.68072092  1
  Si0+  Si98  1  0.32518897  0.07087344  0.35120183  1
  Si0+  Si99  1  0.92667157  0.32513720  0.98358640  1
  Si0+  Si100  1  0.42871297  0.32215052  0.64874152  1
  Si0+  Si101  1  0.92978975  0.81868552  0.98678269  1
  Si0+  Si102  1  0.92841050  0.82219590  0.31526005  1
  Si0+  Si103  1  0.67874763  0.92980869  0.67771777  1
  Si0+  Si104  1  0.82087927  0.57628142  0.68203215  1
  Si0+  Si105  1  0.07064363  0.17802738  0.31836464  1
  Si0+  Si106  1  0.93103476  0.32258220  0.31855514  1
  Si0+  Si107  1  0.57196718  0.67881744  0.31583977  1
  Si0+  Si108  1  0.42709700  0.82175212  0.98592747  1
  Si0+  Si109  1  0.07079854  0.67606964  0.64981013  1
  Si0+  Si110  1  0.82076134  0.07125473  0.68111565  1
  Si0+  Si111  1  0.67596102  0.92791915  0.35264519  1
  Si0+  Si112  1  0.57139121  0.68139874  0.98623949  1
  Si0+  Si113  1  0.42629434  0.81868783  0.31567032  1
  Si0+  Si114  1  0.57356572  0.17671566  0.98454150  1
  Si0+  Si115  1  0.67945323  0.42891841  0.34920996  1
  Si0+  Si116  1  0.92851790  0.32293047  0.65107574  1
  Si0+  Si117  1  0.06940831  0.67967810  0.31904169  1
  Si0+  Si118  1  0.32233699  0.57287070  0.01551203  1
  Si0+  Si119  1  0.07225940  0.67658725  0.98550381  1
  O2-  O120  1  0.24920858  -0.00038443  0.06370704  1
  O2-  O121  1  0.25497288  0.00444929  0.39589252  1
  O2-  O122  1  0.25489190  0.00436030  0.72549618  1
  O2-  O123  1  0.25443566  0.50399102  0.05991430  1
  O2-  O124  1  0.25219675  0.49594920  0.39637825  1
  O2-  O125  1  0.25132055  0.49667516  0.73394338  1
  O2-  O126  1  0.74354440  0.00556788  0.06300789  1
  O2-  O127  1  0.74055895  0.00006442  0.39749192  1
  O2-  O128  1  0.74841307  0.00098899  0.72155826  1
  O2-  O129  1  0.75186300  0.49680034  0.06424665  1
  O2-  O130  1  0.74449008  0.49996257  0.39515787  1
  O2-  O131  1  0.75211578  0.50776409  0.72534451  1
  O2-  O132  1  0.00646203  0.25557903  0.27674443  1
  O2-  O133  1  0.00214707  0.26026034  0.60539447  1
  O2-  O134  1  -0.00724899  0.25333821  0.94025074  1
  O2-  O135  1  -0.00162029  0.74978185  0.27351848  1
  O2-  O136  1  0.00198120  0.74463979  0.60469919  1
  O2-  O137  1  0.00183601  0.74903633  0.94419485  1
  O2-  O138  1  0.49646469  0.25234176  0.27164825  1
  O2-  O139  1  0.49941801  0.25447088  0.60587462  1
  O2-  O140  1  0.50779931  0.24761847  0.93962765  1
  O2-  O141  1  0.49873984  0.74815882  0.27347944  1
  O2-  O142  1  0.49414033  0.74515410  0.60082106  1
  O2-  O143  1  0.50009056  0.75231771  0.94452595  1
  O2-  O144  1  0.06731162  0.17989084  0.10137745  1
  O2-  O145  1  0.06753690  0.17719155  0.42347773  1
  O2-  O146  1  0.06864401  0.17653867  0.76468554  1
  O2-  O147  1  0.07248838  0.67641925  0.09092023  1
  O2-  O148  1  0.06741467  0.68196219  0.42390654  1
  O2-  O149  1  0.06781592  0.67598406  0.75572466  1
  O2-  O150  1  0.57099793  0.17761070  0.09021468  1
  O2-  O151  1  0.57311228  0.18258311  0.43040308  1
  O2-  O152  1  0.57341838  0.17850237  0.76798806  1
  O2-  O153  1  0.57098162  0.68229624  0.09183328  1
  O2-  O154  1  0.57366595  0.67990920  0.42039939  1
  O2-  O155  1  0.57371630  0.68243016  0.76530824  1
  O2-  O156  1  0.17757773  0.42572448  0.23475053  1
  O2-  O157  1  0.18044455  0.42732724  0.57057350  1
  O2-  O158  1  0.18183857  0.42973467  0.89945751  1
  O2-  O159  1  0.18021486  0.93155549  0.23519485  1
  O2-  O160  1  0.17714872  0.93396169  0.56752970  1
  O2-  O161  1  0.17745403  0.92806096  0.90060752  1
  O2-  O162  1  0.68088860  0.43071859  0.24380144  1
  O2-  O163  1  0.68552243  0.42694146  0.56612232  1
  O2-  O164  1  0.67542083  0.43146888  0.90255176  1
  O2-  O165  1  0.67888579  0.92607009  0.24701874  1
  O2-  O166  1  0.68018912  0.93066642  0.57272144  1
  O2-  O167  1  0.67932522  0.92587111  0.89881756  1
  O2-  O168  1  0.43007409  0.32009244  0.09880822  1
  O2-  O169  1  0.43001209  0.32124475  0.42220674  1
  O2-  O170  1  0.42850940  0.32021726  0.75441583  1
  O2-  O171  1  0.42522178  0.81800716  0.09135555  1
  O2-  O172  1  0.42669640  0.81921299  0.42034879  1
  O2-  O173  1  0.43149269  0.82379407  0.76561702  1
  O2-  O174  1  0.93046506  0.32788173  0.08954011  1
  O2-  O175  1  0.92825600  0.32035724  0.42367821  1
  O2-  O176  1  0.92449933  0.31863906  0.75623932  1
  O2-  O177  1  0.92984318  0.81768528  0.09206225  1
  O2-  O178  1  0.92909957  0.82210244  0.42040451  1
  O2-  O179  1  0.92807405  0.82140026  0.76567824  1
  O2-  O180  1  0.32365493  0.07091566  0.24566013  1
  O2-  O181  1  0.32651378  0.06798173  0.57490308  1
  O2-  O182  1  0.32267044  0.06963872  0.89997215  1
  O2-  O183  1  0.31906308  0.57134271  0.23389559  1
  O2-  O184  1  0.31923673  0.56857633  0.57069369  1
  O2-  O185  1  0.32095139  0.57482413  0.91045583  1
  O2-  O186  1  0.82034405  0.06869135  0.23719558  1
  O2-  O187  1  0.81972768  0.07167035  0.57582347  1
  O2-  O188  1  0.82290702  0.06620721  0.89896834  1
  O2-  O189  1  0.82029663  0.57170142  0.23623119  1
  O2-  O190  1  0.82014156  0.57494235  0.57621289  1
  O2-  O191  1  0.81794540  0.57429881  0.89942322  1
  O2-  O192  1  0.03484929  0.08823027  0.27190660  1
  O2-  O193  1  0.03397003  0.08768897  0.59455855  1
  O2-  O194  1  0.03647865  0.08166284  0.93437564  1
  O2-  O195  1  0.04120609  0.58642538  0.27385353  1
  O2-  O196  1  0.04581714  0.58208324  0.60354749  1
  O2-  O197  1  0.04276954  0.58599592  0.93665704  1
  O2-  O198  1  0.54601752  0.08052846  0.26455131  1
  O2-  O199  1  0.54432976  0.08529275  0.59621352  1
  O2-  O200  1  0.54605293  0.08224280  0.94046264  1
  O2-  O201  1  0.54672723  0.58586783  0.26884012  1
  O2-  O202  1  0.54682913  0.57743383  0.59891168  1
  O2-  O203  1  0.54460391  0.58959205  0.93896139  1
  O2-  O204  1  0.16635611  0.19672074  0.27465402  1
  O2-  O205  1  0.16993602  0.20389921  0.59598969  1
  O2-  O206  1  0.16484431  0.20933873  0.93368096  1
  O2-  O207  1  0.16133441  0.70804749  0.27171479  1
  O2-  O208  1  0.16400744  0.70311838  0.60501211  1
  O2-  O209  1  0.16414140  0.70299859  0.93749918  1
  O2-  O210  1  0.66974226  0.21077152  0.26362730  1
  O2-  O211  1  0.67000697  0.21313471  0.60108078  1
  O2-  O212  1  0.66985532  0.19787242  0.94176947  1
  O2-  O213  1  0.66292466  0.71088865  0.26787969  1
  O2-  O214  1  0.66576453  0.71018384  0.59430523  1
  O2-  O215  1  0.66346098  0.70999478  0.93988948  1
  O2-  O216  1  0.08474267  0.45850561  0.06642772  1
  O2-  O217  1  0.08128975  0.45468363  0.40273259  1
  O2-  O218  1  0.07878450  0.45288614  0.73554653  1
  O2-  O219  1  0.07995961  0.95417415  0.06790366  1
  O2-  O220  1  0.08315426  0.96252177  0.40165629  1
  O2-  O221  1  0.08113115  0.96570935  0.73273665  1
  O2-  O222  1  0.57945784  0.46190154  0.07066251  1
  O2-  O223  1  0.58474144  0.45095469  0.39382096  1
  O2-  O224  1  0.58354338  0.45490000  0.73297442  1
  O2-  O225  1  0.57811225  0.94837081  0.06767492  1
  O2-  O226  1  0.57961139  0.94819935  0.39431918  1
  O2-  O227  1  0.58634939  0.95659223  0.72380376  1
  O2-  O228  1  0.21274001  0.33333692  0.06621766  1
  O2-  O229  1  0.20529020  0.32560286  0.40032155  1
  O2-  O230  1  0.20725918  0.32493094  0.73252309  1
  O2-  O231  1  0.20686845  0.82898144  0.06720904  1
  O2-  O232  1  0.20832246  0.83434290  0.40149592  1
  O2-  O233  1  0.20131046  0.83341161  0.73420744  1
  O2-  O234  1  0.69887710  0.32926779  0.06919281  1
  O2-  O235  1  0.70993911  0.33641419  0.39389165  1
  O2-  O236  1  0.71594275  0.33501802  0.73652456  1
  O2-  O237  1  0.71129944  0.83404673  0.07052525  1
  O2-  O238  1  0.70585058  0.83606059  0.39916959  1
  O2-  O239  1  0.70807513  0.83793672  0.72391281  1
  O2-  O240  1  0.45349839  0.41532630  0.27022944  1
  O2-  O241  1  0.45376080  0.41611491  0.60433443  1
  O2-  O242  1  0.45912948  0.41857710  0.93150332  1
  O2-  O243  1  0.45346730  0.91019655  0.26681325  1
  O2-  O244  1  0.45906581  0.91569973  0.59325283  1
  O2-  O245  1  0.45242980  0.91486022  0.94045871  1
  O2-  O246  1  0.95456293  0.41690496  0.27347984  1
  O2-  O247  1  0.94717149  0.41952426  0.60753446  1
  O2-  O248  1  0.95334124  0.41804616  0.93645672  1
  O2-  O249  1  0.95853464  0.91426469  0.26975152  1
  O2-  O250  1  0.96233754  0.91608726  0.59543425  1
  O2-  O251  1  0.95593070  0.91027648  0.93852071  1
  O2-  O252  1  0.33433744  0.29407814  0.27127337  1
  O2-  O253  1  0.33687664  0.29515499  0.60001064  1
  O2-  O254  1  0.33567798  0.28748942  0.92939011  1
  O2-  O255  1  0.33456060  0.78898747  0.26850514  1
  O2-  O256  1  0.32551350  0.79525175  0.60159239  1
  O2-  O257  1  0.33605193  0.79286846  0.93716467  1
  O2-  O258  1  0.84132344  0.29151654  0.26895058  1
  O2-  O259  1  0.83842082  0.29104817  0.60083357  1
  O2-  O260  1  0.83059078  0.30253422  0.94097947  1
  O2-  O261  1  0.83542587  0.79539630  0.26938211  1
  O2-  O262  1  0.83429008  0.79436932  0.59299320  1
  O2-  O263  1  0.83780777  0.78946606  0.93949014  1
  O2-  O264  1  0.41756619  0.04411992  0.07052620  1
  O2-  O265  1  0.41928639  0.04269899  0.39454486  1
  O2-  O266  1  0.41903074  0.04245337  0.72660624  1
  O2-  O267  1  0.41636627  0.54942360  0.06073843  1
  O2-  O268  1  0.42209067  0.54593403  0.39945968  1
  O2-  O269  1  0.42129674  0.54671254  0.73541718  1
  O2-  O270  1  0.91511335  0.03539002  0.06984832  1
  O2-  O271  1  0.91269636  0.03679404  0.40560582  1
  O2-  O272  1  0.91168086  0.03955006  0.72643072  1
  O2-  O273  1  0.91936566  0.54517535  0.06744888  1
  O2-  O274  1  0.91512083  0.54277726  0.40575238  1
  O2-  O275  1  0.91475187  0.55294541  0.72786350  1
  O2-  O276  1  0.29138368  0.16877420  0.06838882  1
  O2-  O277  1  0.30350580  0.16483521  0.39756044  1
  O2-  O278  1  0.30343156  0.16553120  0.72355921  1
  O2-  O279  1  0.29624821  0.66582045  0.06269131  1
  O2-  O280  1  0.29098851  0.66721777  0.40177098  1
  O2-  O281  1  0.29170536  0.66886263  0.73715694  1
  O2-  O282  1  0.80230656  0.17129251  0.06674483  1
  O2-  O283  1  0.79105153  0.16936763  0.40283491  1
  O2-  O284  1  0.79543763  0.16270561  0.72908205  1
  O2-  O285  1  0.79025174  0.66663865  0.07001858  1
  O2-  O286  1  0.79056455  0.67074517  0.40091762  1
  O2-  O287  1  0.79526318  0.67127443  0.72488510  1
