# generated using pymatgen
data_Ca2Al2SiO7
_symmetry_space_group_name_H-M   'P 1'
_cell_length_a   15.45610441
_cell_length_b   15.45630465
_cell_length_c   15.28222822
_cell_angle_alpha   89.99429854
_cell_angle_beta   89.99854073
_cell_angle_gamma   89.99689948
_symmetry_Int_Tables_number   1
_chemical_formula_structural   Ca2Al2SiO7
_chemical_formula_sum   'Ca48 Al48 Si24 O168'
_cell_volume   3650.83655378
_cell_formula_units_Z   24
loop_
 _symmetry_equiv_pos_site_id
 _symmetry_equiv_pos_as_xyz
  1  'x, y, z'
loop_
 _atom_type_symbol
 _atom_type_oxidation_number
  Ca2+  2.0
  Al0+  0.0
  Si0+  0.0
  O2-  -2.0
loop_
 _atom_site_type_symbol
 _atom_site_label
 _atom_site_symmetry_multiplicity
 _atom_site_fract_x
 _atom_site_fract_y
 _atom_site_fract_z
 _atom_site_occupancy
  Ca2+  Ca0  1  0.16461896  0.07484140  0.16723143  1
  Ca2+  Ca1  1  0.17529063  0.08159060  0.50704964  1
  Ca2+  Ca2  1  0.16956125  0.07563078  0.83903524  1
  Ca2+  Ca3  1  0.15656720  0.57250279  0.16932532  1
  Ca2+  Ca4  1  0.17230170  0.57935085  0.50560130  1
  Ca2+  Ca5  1  0.16889110  0.58996876  0.83855512  1
  Ca2+  Ca6  1  0.66930748  0.07851467  0.17199641  1
  Ca2+  Ca7  1  0.66412009  0.07709562  0.50281613  1
  Ca2+  Ca8  1  0.67936685  0.07822795  0.83936625  1
  Ca2+  Ca9  1  0.67682174  0.59037496  0.16865450  1
  Ca2+  Ca10  1  0.67455481  0.59116358  0.50348970  1
  Ca2+  Ca11  1  0.67418751  0.58527258  0.84031273  1
  Ca2+  Ca12  1  0.07436267  0.34003904  0.16226123  1
  Ca2+  Ca13  1  0.07926020  0.33417552  0.49155638  1
  Ca2+  Ca14  1  0.07609776  0.34134883  0.83656839  1
  Ca2+  Ca15  1  0.07811866  0.82537774  0.15273641  1
  Ca2+  Ca16  1  0.07800863  0.82724361  0.50147107  1
  Ca2+  Ca17  1  0.07610590  0.82667982  0.83148499  1
  Ca2+  Ca18  1  0.58395913  0.33354967  0.16266337  1
  Ca2+  Ca19  1  0.57551093  0.32470512  0.48837059  1
  Ca2+  Ca20  1  0.58797968  0.33568499  0.83254011  1
  Ca2+  Ca21  1  0.58520719  0.82573045  0.16820047  1
  Ca2+  Ca22  1  0.58139696  0.82462629  0.49066392  1
  Ca2+  Ca23  1  0.58752647  0.81888502  0.83055178  1
  Ca2+  Ca24  1  0.32189323  0.41419436  0.17175359  1
  Ca2+  Ca25  1  0.33003208  0.41685675  0.50370999  1
  Ca2+  Ca26  1  0.32552361  0.42511989  0.83840878  1
  Ca2+  Ca27  1  0.32894934  0.90860831  0.17052755  1
  Ca2+  Ca28  1  0.33777305  0.91885184  0.50416213  1
  Ca2+  Ca29  1  0.32801277  0.92061474  0.83800914  1
  Ca2+  Ca30  1  0.83792141  0.42806807  0.16934626  1
  Ca2+  Ca31  1  0.83564034  0.42795995  0.50097047  1
  Ca2+  Ca32  1  0.83023667  0.42935771  0.84401827  1
  Ca2+  Ca33  1  0.83184666  0.91981839  0.17031974  1
  Ca2+  Ca34  1  0.82593976  0.91846372  0.50656245  1
  Ca2+  Ca35  1  0.84942649  0.92491816  0.83708857  1
  Ca2+  Ca36  1  0.42329454  0.17011270  0.16932945  1
  Ca2+  Ca37  1  0.41967305  0.16954225  0.48944385  1
  Ca2+  Ca38  1  0.41483612  0.16836431  0.82873235  1
  Ca2+  Ca39  1  0.42976286  0.66592855  0.16395738  1
  Ca2+  Ca40  1  0.42818247  0.66496827  0.49416172  1
  Ca2+  Ca41  1  0.42784340  0.65897551  0.82750076  1
  Ca2+  Ca42  1  0.90889900  0.18034039  0.16013911  1
  Ca2+  Ca43  1  0.91408949  0.17366977  0.49564950  1
  Ca2+  Ca44  1  0.90848831  0.17137663  0.83203138  1
  Ca2+  Ca45  1  0.91652821  0.66931206  0.15602689  1
  Ca2+  Ca46  1  0.91519312  0.66484368  0.50021935  1
  Ca2+  Ca47  1  0.92227645  0.66981031  0.82724234  1
  Al0+  Al48  1  0.00294104  0.00201039  0.00766528  1
  Al0+  Al49  1  0.00101628  -0.00025871  0.33680218  1
  Al0+  Al50  1  -0.00033823  0.00117423  0.66395622  1
  Al0+  Al51  1  0.00051936  0.49984998  -0.00213902  1
  Al0+  Al52  1  0.00077060  0.49930072  0.34036743  1
  Al0+  Al53  1  -0.00164321  0.49973613  0.66586638  1
  Al0+  Al54  1  0.50117402  0.00200864  -0.00122115  1
  Al0+  Al55  1  0.49958986  -0.00103306  0.32889603  1
  Al0+  Al56  1  0.50030605  0.00002112  0.67414499  1
  Al0+  Al57  1  0.49909618  0.49864051  -0.00152638  1
  Al0+  Al58  1  0.50052411  0.49947632  0.32423894  1
  Al0+  Al59  1  0.49742020  0.49789038  0.66453902  1
  Al0+  Al60  1  0.25149214  0.25070910  0.00349347  1
  Al0+  Al61  1  0.24852139  0.24773043  0.33321705  1
  Al0+  Al62  1  0.24845116  0.24897620  0.67173729  1
  Al0+  Al63  1  0.25208347  0.75200192  0.00136103  1
  Al0+  Al64  1  0.24936503  0.74787896  0.33230755  1
  Al0+  Al65  1  0.24927152  0.74885271  0.66711729  1
  Al0+  Al66  1  0.74915986  0.24943739  0.00120654  1
  Al0+  Al67  1  0.75118605  0.25219807  0.32594092  1
  Al0+  Al68  1  0.74831667  0.24784742  0.66716431  1
  Al0+  Al69  1  0.74889240  0.75305023  -0.00550323  1
  Al0+  Al70  1  0.75136959  0.75267173  0.33918974  1
  Al0+  Al71  1  0.74949062  0.74976969  0.66311247  1
  Al0+  Al72  1  0.32197254  0.07131173  0.68010935  1
  Al0+  Al73  1  0.82050692  0.07101596  0.67933846  1
  Al0+  Al74  1  0.93159025  0.32174207  0.32031927  1
  Al0+  Al75  1  0.67760429  0.42913666  0.01511740  1
  Al0+  Al76  1  0.18162560  0.92937867  0.01421015  1
  Al0+  Al77  1  0.92840147  0.31997103  0.98516885  1
  Al0+  Al78  1  0.07219429  0.67697981  0.64905311  1
  Al0+  Al79  1  0.82211181  0.07023649  0.01518957  1
  Al0+  Al80  1  0.07144281  0.67767506  0.98609692  1
  Al0+  Al81  1  0.81980890  0.57094598  0.34825718  1
  Al0+  Al82  1  0.56968679  0.67721412  0.65201353  1
  Al0+  Al83  1  0.18040640  0.42831066  0.34839401  1
  Al0+  Al84  1  0.92950356  0.82303446  0.64888594  1
  Al0+  Al85  1  0.32106788  0.57058697  0.67893503  1
  Al0+  Al86  1  0.67933918  0.93148357  0.34710796  1
  Al0+  Al87  1  0.56979534  0.67893747  0.98482676  1
  Al0+  Al88  1  0.57171891  0.17837937  0.31753184  1
  Al0+  Al89  1  0.17960657  0.43090506  0.01343129  1
  Al0+  Al90  1  0.92844309  0.82393066  0.98691681  1
  Al0+  Al91  1  0.82026692  0.57320643  0.01336851  1
  Al0+  Al92  1  0.42633338  0.32159684  0.31720394  1
  Al0+  Al93  1  0.42729760  0.82026753  0.31899429  1
  Al0+  Al94  1  0.57492179  0.67900434  0.31762777  1
  Al0+  Al95  1  0.81998903  0.57117291  0.68154949  1
  Si0+  Si96  1  0.92750587  0.31987543  0.65218391  1
  Si0+  Si97  1  0.57020773  0.17822340  0.65350212  1
  Si0+  Si98  1  0.42831814  0.82418483  0.98166154  1
  Si0+  Si99  1  0.17762375  0.92520926  0.35060375  1
  Si0+  Si100  1  0.07400414  0.17892864  0.98398577  1
  Si0+  Si101  1  0.67590269  0.92886550  0.01674144  1
  Si0+  Si102  1  0.42750209  0.31946353  0.98254480  1
  Si0+  Si103  1  0.07194609  0.17959432  0.65246256  1
  Si0+  Si104  1  0.67628117  0.42665783  0.34888522  1
  Si0+  Si105  1  0.67808349  0.92763581  0.68484301  1
  Si0+  Si106  1  0.17722121  0.42736969  0.68404992  1
  Si0+  Si107  1  0.82250764  0.07472042  0.34989615  1
  Si0+  Si108  1  0.06974700  0.67959270  0.31975255  1
  Si0+  Si109  1  0.32418865  0.07282676  0.01967939  1
  Si0+  Si110  1  0.42830778  0.82341894  0.65297667  1
  Si0+  Si111  1  0.31907849  0.06809390  0.34705126  1
  Si0+  Si112  1  0.93008672  0.82267177  0.31953996  1
  Si0+  Si113  1  0.67727916  0.42680549  0.67987097  1
  Si0+  Si114  1  0.57093028  0.17860388  0.98182978  1
  Si0+  Si115  1  0.17779666  0.92824600  0.68238417  1
  Si0+  Si116  1  0.42664459  0.31840306  0.65290853  1
  Si0+  Si117  1  0.07224322  0.17528200  0.31661658  1
  Si0+  Si118  1  0.32335078  0.57300038  0.01762340  1
  Si0+  Si119  1  0.32354124  0.57179598  0.34838091  1
  O2-  O120  1  0.25810324  0.00180867  0.06330726  1
  O2-  O121  1  0.24988740  -0.00406288  0.39124199  1
  O2-  O122  1  0.24932639  -0.00509644  0.72588643  1
  O2-  O123  1  0.24985365  0.50930648  0.06127507  1
  O2-  O124  1  0.25927133  0.49906916  0.39373856  1
  O2-  O125  1  0.24225493  0.50026768  0.72636812  1
  O2-  O126  1  0.74872064  -0.00621874  0.06010326  1
  O2-  O127  1  0.75236131  0.00818584  0.39454680  1
  O2-  O128  1  0.75092282  -0.00728419  0.72791456  1
  O2-  O129  1  0.74847187  0.50171046  0.06543465  1
  O2-  O130  1  0.74164019  0.49781565  0.39422635  1
  O2-  O131  1  0.74329882  0.49699538  0.72491203  1
  O2-  O132  1  0.00263643  0.24300021  0.27375007  1
  O2-  O133  1  0.00085669  0.25046804  0.61032013  1
  O2-  O134  1  0.00431976  0.24557404  0.93791422  1
  O2-  O135  1  0.00113876  0.75237309  0.27740369  1
  O2-  O136  1  -0.00147008  0.74762358  0.59859339  1
  O2-  O137  1  -0.00290153  0.74821775  0.93727736  1
  O2-  O138  1  0.50335857  0.25441256  0.26746757  1
  O2-  O139  1  0.49709468  0.24673151  0.61100411  1
  O2-  O140  1  0.50037013  0.25038517  0.93940984  1
  O2-  O141  1  0.49917397  0.74846657  0.26921269  1
  O2-  O142  1  0.49443096  0.75328720  0.60795586  1
  O2-  O143  1  0.49457795  0.75377426  0.93730630  1
  O2-  O144  1  0.07496552  0.18041501  0.08954454  1
  O2-  O145  1  0.07339931  0.17419937  0.42282235  1
  O2-  O146  1  0.07419198  0.17926540  0.75711693  1
  O2-  O147  1  0.07045275  0.67889964  0.10047182  1
  O2-  O148  1  0.07108444  0.68133314  0.42467130  1
  O2-  O149  1  0.07340635  0.67899956  0.76216519  1
  O2-  O150  1  0.56873893  0.17612016  0.08637600  1
  O2-  O151  1  0.56783104  0.17774321  0.43221151  1
  O2-  O152  1  0.57116417  0.18064119  0.75852913  1
  O2-  O153  1  0.56977653  0.68095519  0.09752223  1
  O2-  O154  1  0.57309956  0.68097126  0.43149604  1
  O2-  O155  1  0.56823831  0.67669465  0.76514314  1
  O2-  O156  1  0.17823476  0.43094280  0.23557801  1
  O2-  O157  1  0.18067729  0.42267856  0.57839249  1
  O2-  O158  1  0.18381904  0.42749907  0.90027669  1
  O2-  O159  1  0.17576123  0.92620489  0.24587766  1
  O2-  O160  1  0.17858536  0.93117687  0.57623216  1
  O2-  O161  1  0.18357852  0.93277623  0.90092856  1
  O2-  O162  1  0.67960642  0.42540228  0.24391192  1
  O2-  O163  1  0.67869143  0.42272651  0.57434301  1
  O2-  O164  1  0.67880689  0.42971100  0.90066528  1
  O2-  O165  1  0.68320327  0.93103897  0.23406994  1
  O2-  O166  1  0.67407095  0.93259584  0.57923534  1
  O2-  O167  1  0.66978705  0.93307335  0.91131361  1
  O2-  O168  1  0.42539883  0.31657373  0.08703610  1
  O2-  O169  1  0.42525029  0.31662410  0.43178178  1
  O2-  O170  1  0.42643006  0.31755327  0.75805695  1
  O2-  O171  1  0.42944665  0.82508142  0.08702185  1
  O2-  O172  1  0.42743891  0.82102159  0.43305846  1
  O2-  O173  1  0.43058485  0.82513153  0.75852435  1
  O2-  O174  1  0.93069798  0.32027215  0.09813160  1
  O2-  O175  1  0.93357393  0.31987012  0.43433824  1
  O2-  O176  1  0.92713783  0.31880701  0.75703289  1
  O2-  O177  1  0.93062779  0.82379297  0.10131034  1
  O2-  O178  1  0.93224472  0.82458588  0.42437831  1
  O2-  O179  1  0.93508932  0.82667943  0.76186717  1
  O2-  O180  1  0.31611387  0.06869198  0.24224848  1
  O2-  O181  1  0.32094473  0.07262197  0.56674299  1
  O2-  O182  1  0.32308167  0.07332032  0.91364804  1
  O2-  O183  1  0.31913018  0.57429871  0.24309170  1
  O2-  O184  1  0.32354121  0.56509454  0.56590456  1
  O2-  O185  1  0.32470932  0.56924030  0.91156656  1
  O2-  O186  1  0.82439130  0.07140382  0.24456840  1
  O2-  O187  1  0.81564656  0.07540989  0.56639267  1
  O2-  O188  1  0.82009888  0.07048681  0.90160390  1
  O2-  O189  1  0.82347283  0.57212231  0.23567143  1
  O2-  O190  1  0.82021172  0.56765230  0.56817014  1
  O2-  O191  1  0.81938787  0.57169314  0.89969046  1
  O2-  O192  1  0.04811350  0.08055845  0.27148428  1
  O2-  O193  1  0.04599809  0.08892252  0.60205871  1
  O2-  O194  1  0.04999433  0.08456461  0.93971507  1
  O2-  O195  1  0.03949417  0.58768190  0.27538393  1
  O2-  O196  1  0.04517996  0.57696226  0.59748911  1
  O2-  O197  1  0.04847017  0.57917513  0.93192140  1
  O2-  O198  1  0.53779224  0.08308547  0.26233025  1
  O2-  O199  1  0.54307569  0.08515733  0.60829517  1
  O2-  O200  1  0.54175889  0.08769968  0.93234365  1
  O2-  O201  1  0.55159737  0.58008610  0.26426019  1
  O2-  O202  1  0.53765379  0.58052238  0.59802707  1
  O2-  O203  1  0.53732144  0.58208573  0.93115953  1
  O2-  O204  1  0.16518747  0.19962515  0.26993307  1
  O2-  O205  1  0.16369325  0.20873575  0.60382919  1
  O2-  O206  1  0.16830188  0.20470122  0.93825905  1
  O2-  O207  1  0.16173511  0.70451746  0.27191416  1
  O2-  O208  1  0.17128975  0.70638643  0.59595142  1
  O2-  O209  1  0.17118602  0.70850577  0.93592028  1
  O2-  O210  1  0.67088438  0.20180946  0.26477035  1
  O2-  O211  1  0.66052642  0.20685070  0.60354512  1
  O2-  O212  1  0.66226177  0.20643755  0.93382239  1
  O2-  O213  1  0.67207750  0.71500626  0.26688911  1
  O2-  O214  1  0.66536070  0.70875958  0.59794414  1
  O2-  O215  1  0.66477569  0.71147113  0.92863978  1
  O2-  O216  1  0.08245236  0.45828466  0.06731544  1
  O2-  O217  1  0.08714393  0.46275755  0.40628437  1
  O2-  O218  1  0.08173314  0.44854150  0.72674167  1
  O2-  O219  1  0.08848469  0.96305661  0.07311059  1
  O2-  O220  1  0.08718303  0.95563731  0.40009452  1
  O2-  O221  1  0.08641297  0.96006205  0.72797310  1
  O2-  O222  1  0.57666442  0.45207133  0.06505176  1
  O2-  O223  1  0.57947065  0.44659332  0.39167430  1
  O2-  O224  1  0.58208198  0.44826540  0.72444268  1
  O2-  O225  1  0.58429692  0.96012860  0.06463401  1
  O2-  O226  1  0.58136890  0.96132375  0.40005573  1
  O2-  O227  1  0.58719749  0.95705894  0.73462345  1
  O2-  O228  1  0.21385484  0.33515720  0.06793242  1
  O2-  O229  1  0.20652669  0.32905327  0.40113892  1
  O2-  O230  1  0.20650429  0.33594271  0.73272377  1
  O2-  O231  1  0.21140438  0.83319576  0.07046693  1
  O2-  O232  1  0.20507607  0.83350044  0.39823626  1
  O2-  O233  1  0.20057737  0.83441303  0.72794144  1
  O2-  O234  1  0.70280435  0.32938066  0.06565751  1
  O2-  O235  1  0.70401647  0.33277579  0.39506114  1
  O2-  O236  1  0.70398695  0.33387429  0.72765990  1
  O2-  O237  1  0.69785796  0.83422397  0.06045500  1
  O2-  O238  1  0.71257810  0.83788504  0.40517675  1
  O2-  O239  1  0.70006343  0.83259971  0.72751457  1
  O2-  O240  1  0.44657696  0.42075723  0.26353402  1
  O2-  O241  1  0.45398337  0.40875626  0.60336003  1
  O2-  O242  1  0.45272159  0.41162644  0.93459709  1
  O2-  O243  1  0.45296927  0.91819021  0.26454877  1
  O2-  O244  1  0.45576755  0.91778633  0.60763982  1
  O2-  O245  1  0.45415691  0.91868125  0.93612211  1
  O2-  O246  1  0.96803745  0.41722975  0.26813736  1
  O2-  O247  1  0.95408473  0.41129473  0.60414334  1
  O2-  O248  1  0.96097040  0.41518770  0.92978729  1
  O2-  O249  1  0.95744510  0.91542417  0.27319336  1
  O2-  O250  1  0.95981455  0.92135035  0.59414052  1
  O2-  O251  1  0.96460673  0.92199360  0.93694082  1
  O2-  O252  1  0.32976233  0.28586937  0.26444092  1
  O2-  O253  1  0.33439624  0.28983235  0.60633646  1
  O2-  O254  1  0.33719960  0.28765453  0.93349178  1
  O2-  O255  1  0.32823190  0.79208581  0.26575213  1
  O2-  O256  1  0.33303413  0.80311782  0.60875686  1
  O2-  O257  1  0.33386879  0.80184576  0.93637185  1
  O2-  O258  1  0.83526352  0.29605454  0.26439967  1
  O2-  O259  1  0.83676991  0.28827013  0.60436684  1
  O2-  O260  1  0.83216071  0.28684285  0.93126192  1
  O2-  O261  1  0.83815386  0.79558381  0.27411333  1
  O2-  O262  1  0.82946470  0.79774154  0.59814184  1
  O2-  O263  1  0.82837402  0.80624614  0.93375866  1
  O2-  O264  1  0.41918287  0.04951748  0.06334166  1
  O2-  O265  1  0.41143132  0.04225212  0.39398633  1
  O2-  O266  1  0.41773124  0.04404052  0.73804580  1
  O2-  O267  1  0.41387081  0.54009903  0.06449422  1
  O2-  O268  1  0.41984382  0.55022815  0.39076366  1
  O2-  O269  1  0.41511428  0.53348785  0.73512830  1
  O2-  O270  1  0.91902235  0.04607609  0.07097650  1
  O2-  O271  1  0.91634737  0.04816095  0.39664579  1
  O2-  O272  1  0.91975306  0.04611217  0.73116998  1
  O2-  O273  1  0.91901209  0.54352214  0.06451110  1
  O2-  O274  1  0.91408958  0.53540240  0.40474613  1
  O2-  O275  1  0.91679361  0.53853733  0.73393196  1
  O2-  O276  1  0.29626848  0.16509906  0.06632189  1
  O2-  O277  1  0.28928283  0.15859023  0.39658954  1
  O2-  O278  1  0.28851161  0.16588735  0.73715732  1
  O2-  O279  1  0.30633796  0.66925184  0.06029345  1
  O2-  O280  1  0.29303948  0.66338463  0.39688258  1
  O2-  O281  1  0.29603975  0.66863925  0.73321613  1
  O2-  O282  1  0.78653250  0.16516528  0.06841336  1
  O2-  O283  1  0.79961456  0.17027450  0.39293572  1
  O2-  O284  1  0.78537694  0.16568671  0.73545544  1
  O2-  O285  1  0.79219177  0.67338944  0.06359659  1
  O2-  O286  1  0.79190879  0.66775029  0.40357732  1
  O2-  O287  1  0.79160042  0.66953632  0.73195767  1
