# generated using pymatgen
data_Ca2Al2SiO7
_symmetry_space_group_name_H-M   'P 1'
_cell_length_a   15.45709752
_cell_length_b   15.45626154
_cell_length_c   15.28201191
_cell_angle_alpha   90.00435412
_cell_angle_beta   89.99969041
_cell_angle_gamma   89.99226511
_symmetry_Int_Tables_number   1
_chemical_formula_structural   Ca2Al2SiO7
_chemical_formula_sum   'Ca48 Al48 Si24 O168'
_cell_volume   3651.00925405
_cell_formula_units_Z   24
loop_
 _symmetry_equiv_pos_site_id
 _symmetry_equiv_pos_as_xyz
  1  'x, y, z'
loop_
 _atom_type_symbol
 _atom_type_oxidation_number
  Ca2+  2.0
  Al0+  0.0
  Si0+  0.0
  O2-  -2.0
loop_
 _atom_site_type_symbol
 _atom_site_label
 _atom_site_symmetry_multiplicity
 _atom_site_fract_x
 _atom_site_fract_y
 _atom_site_fract_z
 _atom_site_occupancy
  Ca2+  Ca0  1  0.16043749  0.07532676  0.17005206  1
  Ca2+  Ca1  1  0.16471233  0.06990871  0.50598474  1
  Ca2+  Ca2  1  0.15695863  0.07027169  0.83840046  1
  Ca2+  Ca3  1  0.17959775  0.58546718  0.17099593  1
  Ca2+  Ca4  1  0.16742060  0.58315426  0.50561190  1
  Ca2+  Ca5  1  0.16509235  0.57958845  0.83358763  1
  Ca2+  Ca6  1  0.66398582  0.08096954  0.17347348  1
  Ca2+  Ca7  1  0.66795535  0.08132869  0.50458589  1
  Ca2+  Ca8  1  0.67016174  0.08939057  0.83254492  1
  Ca2+  Ca9  1  0.66923816  0.57854334  0.17042348  1
  Ca2+  Ca10  1  0.67215518  0.58563781  0.50408918  1
  Ca2+  Ca11  1  0.68172471  0.57850554  0.84243983  1
  Ca2+  Ca12  1  0.07258276  0.32875367  0.15803067  1
  Ca2+  Ca13  1  0.07252289  0.34026271  0.49765918  1
  Ca2+  Ca14  1  0.07520419  0.33559375  0.82614038  1
  Ca2+  Ca15  1  0.08135070  0.83995857  0.16564617  1
  Ca2+  Ca16  1  0.07675525  0.83575272  0.49925031  1
  Ca2+  Ca17  1  0.08293837  0.82694294  0.82284150  1
  Ca2+  Ca18  1  0.58855110  0.32332973  0.15936452  1
  Ca2+  Ca19  1  0.58900469  0.31994731  0.49637477  1
  Ca2+  Ca20  1  0.59282555  0.32547286  0.83302754  1
  Ca2+  Ca21  1  0.58149841  0.82926991  0.16984035  1
  Ca2+  Ca22  1  0.57273995  0.83131139  0.48881263  1
  Ca2+  Ca23  1  0.57301023  0.83128791  0.82474199  1
  Ca2+  Ca24  1  0.33880174  0.42843533  0.17191255  1
  Ca2+  Ca25  1  0.32739596  0.42434598  0.50613987  1
  Ca2+  Ca26  1  0.32646308  0.42196440  0.83906750  1
  Ca2+  Ca27  1  0.32153098  0.91395207  0.17440699  1
  Ca2+  Ca28  1  0.32621888  0.90703059  0.50337892  1
  Ca2+  Ca29  1  0.32189456  0.91078945  0.83513163  1
  Ca2+  Ca30  1  0.83507082  0.41488776  0.16459748  1
  Ca2+  Ca31  1  0.83791768  0.42079870  0.50835605  1
  Ca2+  Ca32  1  0.83784237  0.42479579  0.83839294  1
  Ca2+  Ca33  1  0.82721449  0.91902953  0.17811345  1
  Ca2+  Ca34  1  0.82994213  0.91681961  0.50668416  1
  Ca2+  Ca35  1  0.84186291  0.92539873  0.83269980  1
  Ca2+  Ca36  1  0.42951827  0.16103590  0.16324507  1
  Ca2+  Ca37  1  0.42852158  0.16333563  0.49609802  1
  Ca2+  Ca38  1  0.42977922  0.16361523  0.82849199  1
  Ca2+  Ca39  1  0.41481163  0.66597686  0.16752215  1
  Ca2+  Ca40  1  0.41846835  0.67563048  0.49151391  1
  Ca2+  Ca41  1  0.41448729  0.66903805  0.82904556  1
  Ca2+  Ca42  1  0.91991994  0.17748536  0.16001744  1
  Ca2+  Ca43  1  0.91030816  0.17723572  0.49808546  1
  Ca2+  Ca44  1  0.91717794  0.17806032  0.82983956  1
  Ca2+  Ca45  1  0.91315922  0.67399491  0.16470408  1
  Ca2+  Ca46  1  0.92001426  0.67388762  0.49977146  1
  Ca2+  Ca47  1  0.91834141  0.66938764  0.82181750  1
  Al0+  Al48  1  -0.00210676  0.00054979  0.00263364  1
  Al0+  Al49  1  -0.00082842  0.00149302  0.33514609  1
  Al0+  Al50  1  -0.00099660  0.00090024  0.67234429  1
  Al0+  Al51  1  0.00115143  0.50314376  0.00309380  1
  Al0+  Al52  1  -0.00031934  0.50137029  0.32663249  1
  Al0+  Al53  1  0.00090483  0.50073717  0.66646633  1
  Al0+  Al54  1  0.49843894  -0.00093592  -0.00563710  1
  Al0+  Al55  1  0.49919633  -0.00156911  0.32852463  1
  Al0+  Al56  1  0.49960399  -0.00040435  0.65896835  1
  Al0+  Al57  1  0.50167809  0.49982273  0.00576953  1
  Al0+  Al58  1  0.50178793  0.49948807  0.33837177  1
  Al0+  Al59  1  0.49991857  0.49772044  0.66793373  1
  Al0+  Al60  1  0.25188452  0.24673583  -0.00278745  1
  Al0+  Al61  1  0.24997498  0.25008219  0.33422059  1
  Al0+  Al62  1  0.25095140  0.24952402  0.67131091  1
  Al0+  Al63  1  0.24819802  0.75118288  0.00787745  1
  Al0+  Al64  1  0.24967290  0.74943129  0.33868085  1
  Al0+  Al65  1  0.25031519  0.74909452  0.66341456  1
  Al0+  Al66  1  0.75128643  0.25002320  -0.00445300  1
  Al0+  Al67  1  0.75059512  0.25125716  0.32467554  1
  Al0+  Al68  1  0.75068850  0.24821641  0.66238016  1
  Al0+  Al69  1  0.74869401  0.75045062  0.00154998  1
  Al0+  Al70  1  0.74959383  0.75027846  0.33059466  1
  Al0+  Al71  1  0.74869458  0.75042468  0.66940964  1
  Al0+  Al72  1  0.17776202  0.93068079  0.34974687  1
  Al0+  Al73  1  0.42951486  0.81860999  0.65345984  1
  Al0+  Al74  1  0.92745490  0.82404234  0.65317023  1
  Al0+  Al75  1  0.81989667  0.07135489  0.68054851  1
  Al0+  Al76  1  0.17879708  0.42824850  0.67974690  1
  Al0+  Al77  1  0.68193327  0.42818852  0.01558650  1
  Al0+  Al78  1  0.42657291  0.81951990  0.31527397  1
  Al0+  Al79  1  0.81975129  0.57183709  0.67807128  1
  Al0+  Al80  1  0.56950116  0.17967532  0.31834653  1
  Al0+  Al81  1  0.07263202  0.17637774  0.98448176  1
  Al0+  Al82  1  0.93176998  0.32258524  0.98198956  1
  Al0+  Al83  1  0.93144960  0.32013669  0.65291599  1
  Al0+  Al84  1  0.57193709  0.67689964  0.31774726  1
  Al0+  Al85  1  0.92963319  0.82229506  0.32025242  1
  Al0+  Al86  1  0.32210772  0.56944701  0.35019696  1
  Al0+  Al87  1  0.93003952  0.32278215  0.31788929  1
  Al0+  Al88  1  0.82385110  0.57394712  0.01791976  1
  Al0+  Al89  1  0.57007575  0.17829999  0.98415640  1
  Al0+  Al90  1  0.32010801  0.56993721  0.01338593  1
  Al0+  Al91  1  0.07053306  0.67863151  0.65197057  1
  Al0+  Al92  1  0.18049497  0.92914387  0.68097914  1
  Al0+  Al93  1  0.57023881  0.18126815  0.65134563  1
  Al0+  Al94  1  0.67869824  0.92871682  0.34652599  1
  Al0+  Al95  1  0.17860099  0.93150472  0.01491374  1
  Si0+  Si96  1  0.42670577  0.32225107  0.31825178  1
  Si0+  Si97  1  0.42862570  0.32514427  0.98366458  1
  Si0+  Si98  1  0.32446692  0.07183099  0.68362613  1
  Si0+  Si99  1  0.68111470  0.42716600  0.34933040  1
  Si0+  Si100  1  0.32547406  0.07126646  0.01605805  1
  Si0+  Si101  1  0.67557531  0.92887107  0.01357800  1
  Si0+  Si102  1  0.57149130  0.67777506  0.98443110  1
  Si0+  Si103  1  0.82182458  0.57127029  0.34868448  1
  Si0+  Si104  1  0.67573286  0.92878673  0.68320518  1
  Si0+  Si105  1  0.81860305  0.06976189  0.01552621  1
  Si0+  Si106  1  0.32282817  0.07326852  0.34981047  1
  Si0+  Si107  1  0.42503110  0.32338599  0.65012814  1
  Si0+  Si108  1  0.67808220  0.42642331  0.68148152  1
  Si0+  Si109  1  0.17647624  0.42790942  0.34835094  1
  Si0+  Si110  1  0.82001580  0.07373526  0.34897975  1
  Si0+  Si111  1  0.92625255  0.82071524  0.98591755  1
  Si0+  Si112  1  0.07419825  0.17707895  0.65056414  1
  Si0+  Si113  1  0.32270035  0.57110856  0.68316905  1
  Si0+  Si114  1  0.07259998  0.68275214  0.98742273  1
  Si0+  Si115  1  0.42775560  0.81818581  0.98509172  1
  Si0+  Si116  1  0.17815015  0.42518164  0.01683026  1
  Si0+  Si117  1  0.07313934  0.17799577  0.31893170  1
  Si0+  Si118  1  0.57261583  0.67527779  0.65286674  1
  Si0+  Si119  1  0.07159092  0.67890623  0.31481357  1
  O2-  O120  1  0.25092677  0.00930645  0.06055498  1
  O2-  O121  1  0.25365642  0.00558425  0.39462437  1
  O2-  O122  1  0.25374346  0.00547013  0.72841868  1
  O2-  O123  1  0.24984224  0.49089885  0.06101101  1
  O2-  O124  1  0.24653565  0.49420167  0.39396825  1
  O2-  O125  1  0.25549392  0.50105426  0.72690459  1
  O2-  O126  1  0.74653981  -0.00057851  0.05669825  1
  O2-  O127  1  0.75314676  0.00352945  0.39333496  1
  O2-  O128  1  0.74731478  -0.00603758  0.72847829  1
  O2-  O129  1  0.75340287  0.49993156  0.06751742  1
  O2-  O130  1  0.75160658  0.49906147  0.39090638  1
  O2-  O131  1  0.74333835  0.49852093  0.72462211  1
  O2-  O132  1  0.00726832  0.24918696  0.27470667  1
  O2-  O133  1  0.00741902  0.24683460  0.60500134  1
  O2-  O134  1  0.00792247  0.25407198  0.93310245  1
  O2-  O135  1  0.00497752  0.74975365  0.27055623  1
  O2-  O136  1  -0.00068294  0.75215343  0.60306173  1
  O2-  O137  1  -0.00397955  0.74793205  0.94528400  1
  O2-  O138  1  0.49296029  0.25263137  0.27189056  1
  O2-  O139  1  0.49465096  0.25577725  0.60570203  1
  O2-  O140  1  0.49552290  0.25453466  0.93915375  1
  O2-  O141  1  0.49848235  0.74682516  0.26564867  1
  O2-  O142  1  0.50450514  0.74366515  0.60843869  1
  O2-  O143  1  0.49904257  0.74754045  0.94220436  1
  O2-  O144  1  0.06712460  0.17585184  0.09852259  1
  O2-  O145  1  0.07296234  0.17778798  0.42441635  1
  O2-  O146  1  0.07207068  0.17789601  0.75600724  1
  O2-  O147  1  0.07533478  0.68658221  0.09245136  1
  O2-  O148  1  0.06852432  0.67513160  0.42000240  1
  O2-  O149  1  0.07093134  0.67946202  0.76639519  1
  O2-  O150  1  0.56839432  0.17632987  0.09716753  1
  O2-  O151  1  0.57089892  0.18167572  0.43136993  1
  O2-  O152  1  0.56989880  0.18238263  0.76455789  1
  O2-  O153  1  0.57271541  0.67945698  0.08905535  1
  O2-  O154  1  0.57192101  0.67835875  0.43169935  1
  O2-  O155  1  0.57088698  0.67590815  0.75898875  1
  O2-  O156  1  0.17764960  0.42859745  0.24272900  1
  O2-  O157  1  0.18050758  0.42968766  0.56644448  1
  O2-  O158  1  0.17804656  0.42876904  0.91116625  1
  O2-  O159  1  0.17730211  0.93368283  0.23630234  1
  O2-  O160  1  0.18129691  0.93025243  0.56810194  1
  O2-  O161  1  0.18080696  0.92738025  0.90199365  1
  O2-  O162  1  0.68125715  0.42570627  0.24455887  1
  O2-  O163  1  0.67846497  0.42649847  0.57551168  1
  O2-  O164  1  0.68180249  0.43112186  0.90167181  1
  O2-  O165  1  0.68070965  0.93102294  0.23259223  1
  O2-  O166  1  0.67486075  0.93037781  0.57778668  1
  O2-  O167  1  0.67492654  0.92789984  0.90851017  1
  O2-  O168  1  0.42987043  0.32518793  0.08936850  1
  O2-  O169  1  0.42736914  0.32035584  0.42387123  1
  O2-  O170  1  0.42488588  0.32465479  0.75561801  1
  O2-  O171  1  0.42842939  0.81852349  0.08961612  1
  O2-  O172  1  0.42816248  0.81828940  0.42886506  1
  O2-  O173  1  0.42955140  0.81681421  0.76762403  1
  O2-  O174  1  0.93145177  0.31870037  0.09588280  1
  O2-  O175  1  0.92929958  0.32333146  0.43115190  1
  O2-  O176  1  0.93111972  0.32085712  0.76548261  1
  O2-  O177  1  0.92607942  0.82188910  0.09119199  1
  O2-  O178  1  0.92929896  0.82100968  0.43280272  1
  O2-  O179  1  0.92976114  0.82238628  0.76745781  1
  O2-  O180  1  0.32147328  0.07442602  0.24407446  1
  O2-  O181  1  0.32456692  0.07175150  0.57800139  1
  O2-  O182  1  0.33156278  0.06573818  0.91094548  1
  O2-  O183  1  0.32038507  0.56771089  0.23666566  1
  O2-  O184  1  0.32408721  0.56929392  0.57787731  1
  O2-  O185  1  0.31767594  0.57133401  0.90019268  1
  O2-  O186  1  0.81880984  0.07298962  0.24285952  1
  O2-  O187  1  0.81642383  0.07383551  0.56748287  1
  O2-  O188  1  0.81908390  0.06832385  0.91042194  1
  O2-  O189  1  0.82135447  0.57079104  0.24376181  1
  O2-  O190  1  0.81843842  0.57078532  0.56450610  1
  O2-  O191  1  0.82175526  0.57715054  0.90425962  1
  O2-  O192  1  0.04386149  0.08632300  0.27122913  1
  O2-  O193  1  0.04599065  0.08391755  0.60592050  1
  O2-  O194  1  0.03595341  0.07985681  0.93195420  1
  O2-  O195  1  0.04504563  0.58702949  0.26522005  1
  O2-  O196  1  0.04139042  0.58180197  0.59708255  1
  O2-  O197  1  0.05200110  0.58814614  0.94281874  1
  O2-  O198  1  0.53964151  0.08349140  0.26343221  1
  O2-  O199  1  0.53958468  0.08536037  0.59636530  1
  O2-  O200  1  0.53817758  0.08227484  0.92845092  1
  O2-  O201  1  0.54542570  0.57646361  0.26767440  1
  O2-  O202  1  0.54947757  0.58059585  0.60738672  1
  O2-  O203  1  0.54441030  0.58547518  0.93825729  1
  O2-  O204  1  0.16802430  0.19929566  0.27252971  1
  O2-  O205  1  0.16983514  0.19879653  0.60701841  1
  O2-  O206  1  0.17573249  0.19114124  0.93561546  1
  O2-  O207  1  0.16616675  0.70393924  0.27165473  1
  O2-  O208  1  0.16884755  0.70489491  0.59885782  1
  O2-  O209  1  0.16206512  0.71591196  0.93842018  1
  O2-  O210  1  0.66438280  0.21213547  0.26237705  1
  O2-  O211  1  0.66515792  0.21276935  0.59526905  1
  O2-  O212  1  0.66646126  0.20908646  0.93038071  1
  O2-  O213  1  0.66883038  0.70717889  0.26291444  1
  O2-  O214  1  0.66606638  0.70022441  0.60719948  1
  O2-  O215  1  0.66235166  0.70860700  0.93609406  1
  O2-  O216  1  0.08641607  0.45433134  0.06428930  1
  O2-  O217  1  0.08306653  0.45771950  0.39307867  1
  O2-  O218  1  0.08471993  0.46292796  0.73565261  1
  O2-  O219  1  0.08105576  0.96071290  0.06902130  1
  O2-  O220  1  0.08143515  0.96345883  0.40382326  1
  O2-  O221  1  0.08396699  0.95826187  0.73609664  1
  O2-  O222  1  0.58343050  0.45494890  0.06949401  1
  O2-  O223  1  0.58952311  0.45187472  0.39870595  1
  O2-  O224  1  0.58268045  0.44613617  0.72743024  1
  O2-  O225  1  0.58357956  0.95713764  0.06013483  1
  O2-  O226  1  0.58074777  0.95861280  0.39799091  1
  O2-  O227  1  0.58293488  0.95895502  0.72932091  1
  O2-  O228  1  0.19956223  0.32905156  0.05978540  1
  O2-  O229  1  0.19796054  0.33305313  0.39418680  1
  O2-  O230  1  0.20687003  0.33152946  0.73593283  1
  O2-  O231  1  0.21233523  0.83758072  0.07190817  1
  O2-  O232  1  0.20660474  0.83344020  0.40232835  1
  O2-  O233  1  0.21373601  0.83208940  0.73372281  1
  O2-  O234  1  0.71051556  0.32866212  0.06703528  1
  O2-  O235  1  0.71198151  0.33549056  0.39568814  1
  O2-  O236  1  0.70731364  0.33407116  0.72681441  1
  O2-  O237  1  0.70290692  0.83741622  0.06153386  1
  O2-  O238  1  0.70908846  0.83182221  0.39982455  1
  O2-  O239  1  0.69524328  0.83373805  0.72926197  1
  O2-  O240  1  0.45538269  0.41536187  0.27388147  1
  O2-  O241  1  0.44979316  0.41743319  0.60367358  1
  O2-  O242  1  0.45525289  0.41846950  0.93710665  1
  O2-  O243  1  0.45382573  0.91792280  0.26219107  1
  O2-  O244  1  0.45848008  0.91429734  0.59773822  1
  O2-  O245  1  0.45578112  0.90892280  0.93577262  1
  O2-  O246  1  0.95953860  0.41850402  0.26148879  1
  O2-  O247  1  0.96266607  0.41611334  0.59857930  1
  O2-  O248  1  0.95708149  0.42455009  0.93445632  1
  O2-  O249  1  0.95805746  0.92025329  0.26647358  1
  O2-  O250  1  0.95482669  0.92329666  0.60206205  1
  O2-  O251  1  0.95517820  0.91276139  0.94049867  1
  O2-  O252  1  0.33173414  0.30141041  0.27202470  1
  O2-  O253  1  0.33172549  0.29743377  0.60358499  1
  O2-  O254  1  0.33395930  0.30230587  0.93830591  1
  O2-  O255  1  0.32730058  0.78944783  0.26490392  1
  O2-  O256  1  0.33483920  0.78708367  0.59795320  1
  O2-  O257  1  0.33563929  0.78791370  0.93950804  1
  O2-  O258  1  0.83598746  0.28947695  0.26121212  1
  O2-  O259  1  0.83577439  0.28821256  0.59780710  1
  O2-  O260  1  0.83464942  0.29002033  0.92981860  1
  O2-  O261  1  0.83433946  0.79025145  0.26456738  1
  O2-  O262  1  0.82722580  0.79686751  0.60318145  1
  O2-  O263  1  0.83374064  0.79599929  0.93821866  1
  O2-  O264  1  0.41625481  0.03822022  0.06480088  1
  O2-  O265  1  0.41651778  0.04654550  0.39446870  1
  O2-  O266  1  0.41773642  0.04237603  0.72884517  1
  O2-  O267  1  0.41737948  0.54346823  0.06826252  1
  O2-  O268  1  0.41839364  0.53894893  0.40533507  1
  O2-  O269  1  0.41683729  0.54663011  0.73035030  1
  O2-  O270  1  0.90879450  0.04072175  0.06529990  1
  O2-  O271  1  0.91432680  0.05209320  0.39432196  1
  O2-  O272  1  0.91560297  0.04351753  0.73824861  1
  O2-  O273  1  0.92354177  0.55042527  0.07078079  1
  O2-  O274  1  0.91485343  0.54314245  0.39345396  1
  O2-  O275  1  0.91556077  0.53989929  0.73198798  1
  O2-  O276  1  0.30921667  0.16801510  0.05967523  1
  O2-  O277  1  0.30051616  0.16797097  0.39655814  1
  O2-  O278  1  0.30467337  0.16651204  0.73009728  1
  O2-  O279  1  0.28502346  0.66382898  0.07008526  1
  O2-  O280  1  0.29030034  0.66513128  0.40403018  1
  O2-  O281  1  0.29549785  0.66399216  0.72904894  1
  O2-  O282  1  0.79117075  0.16181203  0.06162426  1
  O2-  O283  1  0.79091611  0.16745160  0.39307306  1
  O2-  O284  1  0.78477168  0.16668250  0.73523796  1
  O2-  O285  1  0.79074267  0.67196936  0.07033296  1
  O2-  O286  1  0.79276894  0.66259416  0.39546319  1
  O2-  O287  1  0.79096834  0.66809789  0.73524083  1
