# generated using pymatgen
data_Ca2Al2SiO7
_symmetry_space_group_name_H-M   'P 1'
_cell_length_a   15.45918525
_cell_length_b   15.45981686
_cell_length_c   15.28415365
_cell_angle_alpha   90.00069093
_cell_angle_beta   90.01103545
_cell_angle_gamma   89.98277023
_symmetry_Int_Tables_number   1
_chemical_formula_structural   Ca2Al2SiO7
_chemical_formula_sum   'Ca48 Al48 Si24 O168'
_cell_volume   3652.85399191
_cell_formula_units_Z   24
loop_
 _symmetry_equiv_pos_site_id
 _symmetry_equiv_pos_as_xyz
  1  'x, y, z'
loop_
 _atom_type_symbol
 _atom_type_oxidation_number
  Ca2+  2.0
  Al0+  0.0
  Si0+  0.0
  O2-  -2.0
loop_
 _atom_site_type_symbol
 _atom_site_label
 _atom_site_symmetry_multiplicity
 _atom_site_fract_x
 _atom_site_fract_y
 _atom_site_fract_z
 _atom_site_occupancy
  Ca2+  Ca0  1  0.17294329  0.08369591  0.17643707  1
  Ca2+  Ca1  1  0.16476931  0.08250521  0.50529672  1
  Ca2+  Ca2  1  0.15774957  0.07788559  0.83405450  1
  Ca2+  Ca3  1  0.16541696  0.58314193  0.16403427  1
  Ca2+  Ca4  1  0.17137999  0.58902652  0.50991497  1
  Ca2+  Ca5  1  0.17535498  0.58390324  0.84101207  1
  Ca2+  Ca6  1  0.66631501  0.07478053  0.16761494  1
  Ca2+  Ca7  1  0.66507850  0.07788373  0.51146020  1
  Ca2+  Ca8  1  0.65720417  0.07405867  0.83474745  1
  Ca2+  Ca9  1  0.66269844  0.58145254  0.17245468  1
  Ca2+  Ca10  1  0.67045034  0.57517777  0.50865907  1
  Ca2+  Ca11  1  0.67228525  0.58147118  0.83479344  1
  Ca2+  Ca12  1  0.08317258  0.32953508  0.15747626  1
  Ca2+  Ca13  1  0.07770749  0.32659166  0.49900082  1
  Ca2+  Ca14  1  0.07536964  0.33615653  0.82694104  1
  Ca2+  Ca15  1  0.07986311  0.82095980  0.15830496  1
  Ca2+  Ca16  1  0.08854158  0.82378471  0.49930674  1
  Ca2+  Ca17  1  0.08454625  0.82394816  0.82781813  1
  Ca2+  Ca18  1  0.57769420  0.33440557  0.16004906  1
  Ca2+  Ca19  1  0.58206751  0.33967349  0.50219133  1
  Ca2+  Ca20  1  0.57354834  0.33372615  0.82280038  1
  Ca2+  Ca21  1  0.58046499  0.82268998  0.15537535  1
  Ca2+  Ca22  1  0.58508904  0.82719589  0.49638704  1
  Ca2+  Ca23  1  0.58251286  0.83259318  0.83438376  1
  Ca2+  Ca24  1  0.33130653  0.42004363  0.16271369  1
  Ca2+  Ca25  1  0.33218698  0.42463251  0.50944528  1
  Ca2+  Ca26  1  0.33329958  0.42357020  0.84065114  1
  Ca2+  Ca27  1  0.33739150  0.92118246  0.16942002  1
  Ca2+  Ca28  1  0.32716661  0.92490750  0.50728343  1
  Ca2+  Ca29  1  0.32949926  0.91585937  0.83700075  1
  Ca2+  Ca30  1  0.82737983  0.41546202  0.17101580  1
  Ca2+  Ca31  1  0.82397916  0.41917111  0.51030553  1
  Ca2+  Ca32  1  0.83587952  0.41596719  0.83434689  1
  Ca2+  Ca33  1  0.83094277  0.90865320  0.16276380  1
  Ca2+  Ca34  1  0.82690509  0.91842742  0.51012165  1
  Ca2+  Ca35  1  0.82375799  0.91343762  0.84034822  1
  Ca2+  Ca36  1  0.41473844  0.17165896  0.16121079  1
  Ca2+  Ca37  1  0.41786685  0.17116032  0.50131761  1
  Ca2+  Ca38  1  0.41876331  0.18143624  0.82631239  1
  Ca2+  Ca39  1  0.42742189  0.66755567  0.15622288  1
  Ca2+  Ca40  1  0.42144671  0.66539406  0.49691931  1
  Ca2+  Ca41  1  0.41687253  0.66373870  0.83318825  1
  Ca2+  Ca42  1  0.92246630  0.17292019  0.16174540  1
  Ca2+  Ca43  1  0.92521304  0.16832734  0.50113234  1
  Ca2+  Ca44  1  0.91937615  0.18000677  0.82545977  1
  Ca2+  Ca45  1  0.92760889  0.66823449  0.15804531  1
  Ca2+  Ca46  1  0.92688267  0.65855497  0.50074806  1
  Ca2+  Ca47  1  0.92815581  0.66373429  0.82911444  1
  Al0+  Al48  1  -0.00122313  -0.00047921  0.00112689  1
  Al0+  Al49  1  -0.00054676  0.00080331  0.32939683  1
  Al0+  Al50  1  -0.00142152  -0.00105922  0.66837074  1
  Al0+  Al51  1  0.00023803  0.49815543  -0.00170679  1
  Al0+  Al52  1  -0.00091769  0.49963440  0.32923084  1
  Al0+  Al53  1  0.00068880  0.50070133  0.65969637  1
  Al0+  Al54  1  0.50094586  -0.00269936  0.00360734  1
  Al0+  Al55  1  0.49927986  0.00264590  0.33874638  1
  Al0+  Al56  1  0.49782235  0.00091167  0.66741371  1
  Al0+  Al57  1  0.50020341  0.49945298  -0.00319480  1
  Al0+  Al58  1  0.49849168  0.49980915  0.33327835  1
  Al0+  Al59  1  0.50055977  0.50182416  0.66954370  1
  Al0+  Al60  1  0.25092857  0.24942666  -0.00083952  1
  Al0+  Al61  1  0.25020361  0.25063917  0.33493184  1
  Al0+  Al62  1  0.25118163  0.25098073  0.65871986  1
  Al0+  Al63  1  0.25288796  0.75071795  0.00056355  1
  Al0+  Al64  1  0.24946537  0.75127125  0.32838372  1
  Al0+  Al65  1  0.25068034  0.75251616  0.67009018  1
  Al0+  Al66  1  0.75232113  0.24766083  -0.00159907  1
  Al0+  Al67  1  0.74784563  0.24857705  0.33767014  1
  Al0+  Al68  1  0.74843221  0.24912842  0.66304318  1
  Al0+  Al69  1  0.75009491  0.74885339  -0.00049756  1
  Al0+  Al70  1  0.75045179  0.74869671  0.33122333  1
  Al0+  Al71  1  0.75024561  0.74977637  0.67415212  1
  Al0+  Al72  1  0.07130483  0.18018498  0.31829923  1
  Al0+  Al73  1  0.92894048  0.82181677  0.98406509  1
  Al0+  Al74  1  0.56912048  0.17806147  0.65168781  1
  Al0+  Al75  1  0.82363817  0.57007647  0.68258956  1
  Al0+  Al76  1  0.07179532  0.67869711  0.98360065  1
  Al0+  Al77  1  0.32070585  0.57218167  0.67945738  1
  Al0+  Al78  1  0.57190316  0.67678971  0.98253665  1
  Al0+  Al79  1  0.17827789  0.42846140  0.01405963  1
  Al0+  Al80  1  0.32096818  0.07287229  0.34890581  1
  Al0+  Al81  1  0.07074719  0.17655978  0.65228502  1
  Al0+  Al82  1  0.56992811  0.67884650  0.32189190  1
  Al0+  Al83  1  0.67970413  0.42763838  0.68368475  1
  Al0+  Al84  1  0.42991070  0.82270299  0.98461300  1
  Al0+  Al85  1  0.07251424  0.68114355  0.65319846  1
  Al0+  Al86  1  0.92777105  0.32318134  0.64921871  1
  Al0+  Al87  1  0.67708991  0.92923025  0.68093380  1
  Al0+  Al88  1  0.42959389  0.32514839  0.64918396  1
  Al0+  Al89  1  0.32268528  0.57205386  0.01736025  1
  Al0+  Al90  1  0.07199444  0.67841743  0.31818666  1
  Al0+  Al91  1  0.17840050  0.93096290  0.68042359  1
  Al0+  Al92  1  0.42914197  0.31959316  0.98753450  1
  Al0+  Al93  1  0.67750392  0.42938054  0.34651827  1
  Al0+  Al94  1  0.92867758  0.32007904  0.98743696  1
  Al0+  Al95  1  0.67967543  0.92830589  0.01621472  1
  Si0+  Si96  1  0.68014439  0.92834799  0.34808811  1
  Si0+  Si97  1  0.92615382  0.31995529  0.31650514  1
  Si0+  Si98  1  0.17726782  0.42936480  0.34828522  1
  Si0+  Si99  1  0.57235597  0.68113010  0.65212039  1
  Si0+  Si100  1  0.42956051  0.32090537  0.31737172  1
  Si0+  Si101  1  0.17879132  0.42704588  0.67948290  1
  Si0+  Si102  1  0.57158807  0.17734110  0.31748492  1
  Si0+  Si103  1  0.07353679  0.17777936  0.98497617  1
  Si0+  Si104  1  0.42951727  0.82436345  0.31880889  1
  Si0+  Si105  1  0.17738965  0.92888808  0.01669729  1
  Si0+  Si106  1  0.67977107  0.42669827  0.01405401  1
  Si0+  Si107  1  0.82127944  0.56955678  0.01606323  1
  Si0+  Si108  1  0.82130460  0.07089053  0.34903597  1
  Si0+  Si109  1  0.82286354  0.07259350  0.01887136  1
  Si0+  Si110  1  0.17745493  0.92846944  0.34874953  1
  Si0+  Si111  1  0.32076758  0.07365028  0.68455086  1
  Si0+  Si112  1  0.92624992  0.82059580  0.65074432  1
  Si0+  Si113  1  0.82298474  0.57222499  0.34886392  1
  Si0+  Si114  1  0.92706836  0.82309842  0.31736592  1
  Si0+  Si115  1  0.31896598  0.57149185  0.34707998  1
  Si0+  Si116  1  0.57261626  0.17729949  0.98634974  1
  Si0+  Si117  1  0.42845803  0.82155558  0.65103205  1
  Si0+  Si118  1  0.82193324  0.07172317  0.68379719  1
  Si0+  Si119  1  0.32048330  0.07017091  0.01419281  1
  O2-  O120  1  0.24859138  0.00049873  0.05805650  1
  O2-  O121  1  0.24557946  -0.00240046  0.39330206  1
  O2-  O122  1  0.24800016  0.00979020  0.72891931  1
  O2-  O123  1  0.24839302  0.50146812  0.06696564  1
  O2-  O124  1  0.24381198  0.50515456  0.38985405  1
  O2-  O125  1  0.24768798  0.49501904  0.72353853  1
  O2-  O126  1  0.75545720  0.00226570  0.06357017  1
  O2-  O127  1  0.75191349  -0.00210107  0.39083475  1
  O2-  O128  1  0.75045793  0.00551817  0.72718967  1
  O2-  O129  1  0.74905448  0.49880741  0.05803454  1
  O2-  O130  1  0.75311862  0.50404995  0.39146780  1
  O2-  O131  1  0.75490185  0.49569378  0.73423770  1
  O2-  O132  1  -0.00250826  0.25494380  0.27074121  1
  O2-  O133  1  0.00023408  0.24979015  0.60147099  1
  O2-  O134  1  0.00587584  0.24742854  0.94234129  1
  O2-  O135  1  -0.00392889  0.75368563  0.27507086  1
  O2-  O136  1  -0.00466286  0.75328967  0.60493968  1
  O2-  O137  1  0.00175119  0.75221778  0.93307905  1
  O2-  O138  1  0.50121768  0.24924420  0.27576855  1
  O2-  O139  1  0.50195178  0.25313376  0.59870502  1
  O2-  O140  1  0.50661520  0.24760739  0.94233086  1
  O2-  O141  1  0.49788279  0.75576061  0.27500121  1
  O2-  O142  1  0.50095489  0.75185527  0.60892874  1
  O2-  O143  1  0.49859817  0.74833134  0.93374441  1
  O2-  O144  1  0.07343543  0.17810724  0.09109879  1
  O2-  O145  1  0.06879058  0.17977620  0.43071343  1
  O2-  O146  1  0.06792004  0.17651217  0.76597597  1
  O2-  O147  1  0.06849911  0.67984094  0.09791057  1
  O2-  O148  1  0.07414116  0.68030981  0.43125922  1
  O2-  O149  1  0.07447043  0.68259533  0.76531833  1
  O2-  O150  1  0.57194594  0.17834987  0.09288936  1
  O2-  O151  1  0.57181257  0.17390453  0.42173683  1
  O2-  O152  1  0.56343921  0.17507142  0.76532622  1
  O2-  O153  1  0.57154264  0.67795210  0.09711188  1
  O2-  O154  1  0.56875218  0.68081393  0.43529605  1
  O2-  O155  1  0.57247232  0.68215543  0.75659277  1
  O2-  O156  1  0.17890119  0.42720748  0.24345242  1
  O2-  O157  1  0.18041440  0.42915175  0.57303834  1
  O2-  O158  1  0.17950405  0.42640622  0.90084445  1
  O2-  O159  1  0.17883415  0.92901187  0.24307857  1
  O2-  O160  1  0.18249590  0.92904696  0.56687440  1
  O2-  O161  1  0.17605501  0.93122028  0.91177492  1
  O2-  O162  1  0.67825409  0.42882373  0.23271127  1
  O2-  O163  1  0.67866061  0.43359191  0.56953341  1
  O2-  O164  1  0.68172594  0.42469177  0.90975534  1
  O2-  O165  1  0.67999290  0.92964208  0.24321910  1
  O2-  O166  1  0.67989975  0.92823384  0.56669144  1
  O2-  O167  1  0.67808938  0.93293459  0.90363091  1
  O2-  O168  1  0.43032344  0.31662669  0.10158152  1
  O2-  O169  1  0.43030988  0.32247101  0.42191195  1
  O2-  O170  1  0.42881511  0.32287012  0.76264649  1
  O2-  O171  1  0.43371911  0.82601355  0.09890936  1
  O2-  O172  1  0.42948823  0.82386864  0.42467248  1
  O2-  O173  1  0.42804920  0.82217541  0.75554380  1
  O2-  O174  1  0.92576373  0.31664291  0.10100300  1
  O2-  O175  1  0.92681085  0.31817347  0.42152237  1
  O2-  O176  1  0.93071678  0.32185594  0.76295040  1
  O2-  O177  1  0.93189340  0.81925200  0.09854426  1
  O2-  O178  1  0.92499153  0.82552250  0.42276535  1
  O2-  O179  1  0.92701226  0.82041395  0.75572333  1
  O2-  O180  1  0.32128845  0.07156619  0.23520260  1
  O2-  O181  1  0.32261374  0.06927393  0.57871294  1
  O2-  O182  1  0.32006507  0.07029086  0.90954189  1
  O2-  O183  1  0.32145082  0.56900874  0.24263285  1
  O2-  O184  1  0.31952066  0.57365437  0.56501031  1
  O2-  O185  1  0.32221024  0.56944893  0.90401051  1
  O2-  O186  1  0.81918501  0.07317296  0.24407115  1
  O2-  O187  1  0.82313154  0.06705319  0.57740841  1
  O2-  O188  1  0.82264033  0.07511937  0.91403167  1
  O2-  O189  1  0.82339247  0.57174385  0.24307889  1
  O2-  O190  1  0.81982161  0.57232330  0.56821903  1
  O2-  O191  1  0.82211588  0.56840780  0.91150629  1
  O2-  O192  1  0.04139525  0.08320526  0.26376401  1
  O2-  O193  1  0.03971706  0.07834743  0.59837624  1
  O2-  O194  1  0.04629796  0.08417404  0.94104042  1
  O2-  O195  1  0.04171575  0.58152691  0.26410969  1
  O2-  O196  1  0.04500007  0.58519042  0.59619769  1
  O2-  O197  1  0.04236389  0.58047609  0.93299966  1
  O2-  O198  1  0.54186354  0.08576270  0.26954997  1
  O2-  O199  1  0.53657519  0.08054972  0.59666084  1
  O2-  O200  1  0.54412503  0.08433180  0.94266918  1
  O2-  O201  1  0.53650313  0.58353447  0.26688764  1
  O2-  O202  1  0.54341119  0.58998069  0.60471004  1
  O2-  O203  1  0.54597620  0.57846157  0.93007789  1
  O2-  O204  1  0.16874568  0.21094651  0.26564977  1
  O2-  O205  1  0.16961254  0.20113592  0.59856826  1
  O2-  O206  1  0.16722017  0.19934313  0.93876987  1
  O2-  O207  1  0.16781270  0.70987861  0.26247968  1
  O2-  O208  1  0.16796056  0.71749575  0.59870832  1
  O2-  O209  1  0.17173894  0.70594465  0.93580086  1
  O2-  O210  1  0.66389761  0.20399555  0.27015890  1
  O2-  O211  1  0.66942770  0.19787121  0.59940719  1
  O2-  O212  1  0.66696327  0.19812805  0.94125140  1
  O2-  O213  1  0.66759111  0.70601725  0.26788108  1
  O2-  O214  1  0.66392738  0.71070238  0.60485725  1
  O2-  O215  1  0.66999854  0.70618178  0.93192129  1
  O2-  O216  1  0.07912634  0.45448297  0.06869805  1
  O2-  O217  1  0.08295878  0.45236644  0.39304656  1
  O2-  O218  1  0.08459687  0.45233985  0.72257584  1
  O2-  O219  1  0.08572538  0.95632891  0.06551866  1
  O2-  O220  1  0.08285948  0.95330574  0.39316097  1
  O2-  O221  1  0.08068395  0.95680218  0.73488816  1
  O2-  O222  1  0.58745849  0.45335658  0.06108982  1
  O2-  O223  1  0.58107547  0.46128094  0.40043900  1
  O2-  O224  1  0.58254291  0.46018834  0.73566757  1
  O2-  O225  1  0.58449796  0.96135482  0.07332534  1
  O2-  O226  1  0.58872070  0.95706957  0.39565778  1
  O2-  O227  1  0.58009818  0.96011698  0.73397879  1
  O2-  O228  1  0.20962277  0.32972229  0.06797254  1
  O2-  O229  1  0.20947225  0.33978820  0.39684922  1
  O2-  O230  1  0.20208949  0.33227986  0.72369423  1
  O2-  O231  1  0.20624310  0.83800103  0.06480269  1
  O2-  O232  1  0.20498296  0.83474918  0.39449279  1
  O2-  O233  1  0.21527347  0.83806884  0.73656563  1
  O2-  O234  1  0.70845868  0.33456641  0.06231923  1
  O2-  O235  1  0.70552645  0.33184705  0.40041359  1
  O2-  O236  1  0.70067014  0.32580511  0.73210889  1
  O2-  O237  1  0.71094661  0.83142186  0.07053152  1
  O2-  O238  1  0.70675204  0.83563792  0.39486888  1
  O2-  O239  1  0.70800481  0.83445147  0.73654264  1
  O2-  O240  1  0.45805878  0.41191859  0.26896636  1
  O2-  O241  1  0.45943411  0.42390780  0.59640434  1
  O2-  O242  1  0.45775449  0.41538600  0.93386580  1
  O2-  O243  1  0.45556468  0.91868402  0.27420957  1
  O2-  O244  1  0.45525604  0.91332810  0.60296755  1
  O2-  O245  1  0.46109784  0.92034859  0.93136841  1
  O2-  O246  1  0.94747165  0.41492614  0.27151844  1
  O2-  O247  1  0.95654242  0.41974778  0.59278287  1
  O2-  O248  1  0.95655642  0.41603775  0.93305458  1
  O2-  O249  1  0.95104315  0.91621735  0.26919434  1
  O2-  O250  1  0.95043853  0.91466264  0.60492229  1
  O2-  O251  1  0.95229547  0.92267231  0.93437266  1
  O2-  O252  1  0.33812212  0.29158242  0.27060869  1
  O2-  O253  1  0.33216522  0.29682229  0.59383395  1
  O2-  O254  1  0.33448957  0.28599904  0.93235423  1
  O2-  O255  1  0.33571709  0.80123944  0.27234642  1
  O2-  O256  1  0.33824995  0.79185207  0.60181913  1
  O2-  O257  1  0.32992216  0.80041553  0.93389565  1
  O2-  O258  1  0.83281338  0.28991312  0.27146082  1
  O2-  O259  1  0.82936325  0.29449764  0.59711316  1
  O2-  O260  1  0.83388437  0.28659285  0.93147523  1
  O2-  O261  1  0.83397779  0.79689126  0.26987375  1
  O2-  O262  1  0.83223263  0.79466204  0.60465751  1
  O2-  O263  1  0.83006003  0.79480224  0.93435829  1
  O2-  O264  1  0.41149778  0.04171177  0.06397377  1
  O2-  O265  1  0.41709272  0.04268460  0.40491934  1
  O2-  O266  1  0.41162043  0.04242012  0.73198934  1
  O2-  O267  1  0.42119438  0.53897907  0.06965490  1
  O2-  O268  1  0.40895107  0.53955956  0.39602072  1
  O2-  O269  1  0.41737861  0.54478903  0.73319986  1
  O2-  O270  1  0.91646134  0.04750093  0.06699331  1
  O2-  O271  1  0.91395703  0.04357638  0.39528287  1
  O2-  O272  1  0.91379229  0.04462098  0.73170365  1
  O2-  O273  1  0.91211848  0.53993741  0.06469541  1
  O2-  O274  1  0.91671380  0.54557446  0.39480386  1
  O2-  O275  1  0.92430961  0.54430744  0.73174983  1
  O2-  O276  1  0.29352303  0.16154653  0.06346258  1
  O2-  O277  1  0.29044687  0.16918714  0.40294953  1
  O2-  O278  1  0.30018692  0.17009058  0.72602987  1
  O2-  O279  1  0.29867070  0.67229934  0.06977167  1
  O2-  O280  1  0.29555049  0.66606481  0.39201757  1
  O2-  O281  1  0.28964285  0.66762017  0.73392092  1
  O2-  O282  1  0.79424589  0.16475773  0.06803774  1
  O2-  O283  1  0.79165859  0.16080613  0.39859643  1
  O2-  O284  1  0.79922832  0.16658213  0.72699188  1
  O2-  O285  1  0.79416274  0.66120414  0.06432695  1
  O2-  O286  1  0.79936248  0.66662341  0.39448080  1
  O2-  O287  1  0.79307754  0.66683055  0.73701384  1
