# generated using pymatgen
data_Ca2Al2SiO7
_symmetry_space_group_name_H-M   'P 1'
_cell_length_a   15.46172729
_cell_length_b   15.46079554
_cell_length_c   15.28597524
_cell_angle_alpha   90.01533588
_cell_angle_beta   89.99777659
_cell_angle_gamma   90.02069198
_symmetry_Int_Tables_number   1
_chemical_formula_structural   Ca2Al2SiO7
_chemical_formula_sum   'Ca48 Al48 Si24 O168'
_cell_volume   3654.12124727
_cell_formula_units_Z   24
loop_
 _symmetry_equiv_pos_site_id
 _symmetry_equiv_pos_as_xyz
  1  'x, y, z'
loop_
 _atom_type_symbol
 _atom_type_oxidation_number
  Ca2+  2.0
  Al0+  0.0
  Si0+  0.0
  O2-  -2.0
loop_
 _atom_site_type_symbol
 _atom_site_label
 _atom_site_symmetry_multiplicity
 _atom_site_fract_x
 _atom_site_fract_y
 _atom_site_fract_z
 _atom_site_occupancy
  Ca2+  Ca0  1  0.17759677  0.07162590  0.17311954  1
  Ca2+  Ca1  1  0.17663182  0.07177243  0.50596186  1
  Ca2+  Ca2  1  0.17678545  0.07200682  0.83964337  1
  Ca2+  Ca3  1  0.15677239  0.57513989  0.16921638  1
  Ca2+  Ca4  1  0.16108622  0.58242769  0.49799377  1
  Ca2+  Ca5  1  0.16131343  0.58295266  0.83904321  1
  Ca2+  Ca6  1  0.66650738  0.08489730  0.15817085  1
  Ca2+  Ca7  1  0.67410283  0.08369890  0.50417087  1
  Ca2+  Ca8  1  0.67581804  0.08429208  0.84335745  1
  Ca2+  Ca9  1  0.67358104  0.57895201  0.17145196  1
  Ca2+  Ca10  1  0.67242666  0.58075139  0.50559250  1
  Ca2+  Ca11  1  0.66447944  0.56943537  0.83909358  1
  Ca2+  Ca12  1  0.08048839  0.33638532  0.15773586  1
  Ca2+  Ca13  1  0.08551399  0.33027924  0.49260399  1
  Ca2+  Ca14  1  0.07823978  0.33434160  0.83482887  1
  Ca2+  Ca15  1  0.09587411  0.82287686  0.16190477  1
  Ca2+  Ca16  1  0.08925822  0.82735955  0.49707169  1
  Ca2+  Ca17  1  0.08736700  0.82877650  0.82585751  1
  Ca2+  Ca18  1  0.57716576  0.32776931  0.15816814  1
  Ca2+  Ca19  1  0.57154636  0.33523032  0.49807996  1
  Ca2+  Ca20  1  0.58330419  0.32901140  0.82744777  1
  Ca2+  Ca21  1  0.57258975  0.84071769  0.15900130  1
  Ca2+  Ca22  1  0.57550344  0.83466770  0.49128610  1
  Ca2+  Ca23  1  0.57786789  0.84418558  0.83636404  1
  Ca2+  Ca24  1  0.32084802  0.41282914  0.17280679  1
  Ca2+  Ca25  1  0.33068869  0.41010541  0.50296243  1
  Ca2+  Ca26  1  0.32876753  0.41816397  0.83828883  1
  Ca2+  Ca27  1  0.33178035  0.92125560  0.17028625  1
  Ca2+  Ca28  1  0.32744260  0.92126261  0.50368864  1
  Ca2+  Ca29  1  0.32618818  0.92096022  0.84318331  1
  Ca2+  Ca30  1  0.83008066  0.41794810  0.16738443  1
  Ca2+  Ca31  1  0.82797336  0.42572468  0.50389156  1
  Ca2+  Ca32  1  0.82255894  0.41249941  0.84202352  1
  Ca2+  Ca33  1  0.82911743  0.91865335  0.16584109  1
  Ca2+  Ca34  1  0.83510510  0.92027607  0.50984864  1
  Ca2+  Ca35  1  0.83376795  0.92609917  0.83886297  1
  Ca2+  Ca36  1  0.41537736  0.16562652  0.16054660  1
  Ca2+  Ca37  1  0.40614815  0.17313298  0.49622635  1
  Ca2+  Ca38  1  0.41803291  0.16527216  0.83061064  1
  Ca2+  Ca39  1  0.41040813  0.68217919  0.16285000  1
  Ca2+  Ca40  1  0.41797458  0.67418003  0.49301847  1
  Ca2+  Ca41  1  0.41532407  0.67440242  0.83382746  1
  Ca2+  Ca42  1  0.91759809  0.17365766  0.15564084  1
  Ca2+  Ca43  1  0.91845085  0.16430785  0.49921487  1
  Ca2+  Ca44  1  0.90839916  0.16877435  0.83165740  1
  Ca2+  Ca45  1  0.92589378  0.66236321  0.16211241  1
  Ca2+  Ca46  1  0.92497290  0.67120128  0.49508198  1
  Ca2+  Ca47  1  0.92919906  0.67584704  0.82640064  1
  Al0+  Al48  1  0.00153883  -0.00040276  0.00897035  1
  Al0+  Al49  1  -0.00000163  -0.00088379  0.33549131  1
  Al0+  Al50  1  0.00001210  0.00094841  0.67132880  1
  Al0+  Al51  1  -0.00072446  0.49975713  -0.00759947  1
  Al0+  Al52  1  -0.00210663  0.50035213  0.33945025  1
  Al0+  Al53  1  -0.00077541  0.50086600  0.66250067  1
  Al0+  Al54  1  0.50144922  0.00224286  -0.00360333  1
  Al0+  Al55  1  0.50215039  0.00197244  0.33398920  1
  Al0+  Al56  1  0.50194160  0.00227876  0.66561902  1
  Al0+  Al57  1  0.49908932  0.50143796  0.00612727  1
  Al0+  Al58  1  0.49914794  0.49834810  0.32725632  1
  Al0+  Al59  1  0.49848307  0.49900935  0.66617043  1
  Al0+  Al60  1  0.24831729  0.25096045  0.00537522  1
  Al0+  Al61  1  0.24856510  0.24935375  0.33514746  1
  Al0+  Al62  1  0.24889109  0.25039500  0.66788120  1
  Al0+  Al63  1  0.25182558  0.74913961  -0.00745912  1
  Al0+  Al64  1  0.24986433  0.74729222  0.32844733  1
  Al0+  Al65  1  0.25139468  0.74725194  0.66432324  1
  Al0+  Al66  1  0.74839502  0.25142408  0.00122226  1
  Al0+  Al67  1  0.74858833  0.25018398  0.33453011  1
  Al0+  Al68  1  0.74841806  0.25041923  0.66937034  1
  Al0+  Al69  1  0.75067677  0.74912936  0.00197815  1
  Al0+  Al70  1  0.75177364  0.75013269  0.33795788  1
  Al0+  Al71  1  0.75111866  0.74916157  0.66486302  1
  Al0+  Al72  1  0.17931932  0.92522133  0.34934746  1
  Al0+  Al73  1  0.82075146  0.07022848  0.67949472  1
  Al0+  Al74  1  0.42840963  0.31994414  0.65429498  1
  Al0+  Al75  1  0.06970635  0.68062115  0.98555123  1
  Al0+  Al76  1  0.67873503  0.43207728  0.67932787  1
  Al0+  Al77  1  0.56881293  0.18197052  0.98497309  1
  Al0+  Al78  1  0.17947160  0.92519739  0.01574285  1
  Al0+  Al79  1  0.32201768  0.07117889  0.01511484  1
  Al0+  Al80  1  0.67971251  0.92789244  0.01431548  1
  Al0+  Al81  1  0.18159575  0.92664311  0.68209295  1
  Al0+  Al82  1  0.67687598  0.42866935  0.01536442  1
  Al0+  Al83  1  0.43080935  0.82101741  0.32014070  1
  Al0+  Al84  1  0.06816528  0.67910966  0.31757394  1
  Al0+  Al85  1  0.92924392  0.82343213  0.65210980  1
  Al0+  Al86  1  0.32307157  0.07037288  0.34941597  1
  Al0+  Al87  1  0.17824942  0.43176934  0.01120291  1
  Al0+  Al88  1  0.43188861  0.82081873  0.98480616  1
  Al0+  Al89  1  0.42700524  0.31988137  0.31778512  1
  Al0+  Al90  1  0.82208753  0.07236711  0.01654370  1
  Al0+  Al91  1  0.32225113  0.07340132  0.68316655  1
  Al0+  Al92  1  0.17914324  0.42973772  0.34752667  1
  Al0+  Al93  1  0.92977246  0.31918072  0.98642381  1
  Al0+  Al94  1  0.81998144  0.57101373  0.34791931  1
  Al0+  Al95  1  0.07266681  0.67847041  0.64765794  1
  Si0+  Si96  1  0.57471078  0.17921216  0.31533750  1
  Si0+  Si97  1  0.82148150  0.07252849  0.34829388  1
  Si0+  Si98  1  0.06962082  0.17770928  0.31895880  1
  Si0+  Si99  1  0.57012771  0.67684424  0.65310172  1
  Si0+  Si100  1  0.92629836  0.32078807  0.65016542  1
  Si0+  Si101  1  0.82305047  0.57261237  0.68540305  1
  Si0+  Si102  1  0.57459936  0.67606831  0.98393984  1
  Si0+  Si103  1  0.32261163  0.57275133  0.01708294  1
  Si0+  Si104  1  0.43143226  0.82174484  0.65160260  1
  Si0+  Si105  1  0.32342103  0.57078641  0.34911890  1
  Si0+  Si106  1  0.68021051  0.92960104  0.34847089  1
  Si0+  Si107  1  0.67735964  0.92527666  0.68142071  1
  Si0+  Si108  1  0.92855727  0.31976055  0.32057989  1
  Si0+  Si109  1  0.42515501  0.32423424  0.98409420  1
  Si0+  Si110  1  0.92629595  0.82409926  0.31517200  1
  Si0+  Si111  1  0.17687524  0.42882186  0.68134757  1
  Si0+  Si112  1  0.82156338  0.57023902  0.01433239  1
  Si0+  Si113  1  0.57495937  0.67819017  0.31729038  1
  Si0+  Si114  1  0.67639262  0.42734043  0.35067651  1
  Si0+  Si115  1  0.07023579  0.18091816  0.65257050  1
  Si0+  Si116  1  0.07330059  0.17639129  0.98421347  1
  Si0+  Si117  1  0.57356031  0.17867778  0.64812697  1
  Si0+  Si118  1  0.32140772  0.56982058  0.68048075  1
  Si0+  Si119  1  0.92576496  0.82388475  0.98488454  1
  O2-  O120  1  0.25026278  -0.00113971  0.06451180  1
  O2-  O121  1  0.25249242  -0.00349213  0.39849420  1
  O2-  O122  1  0.25569830  -0.00363396  0.73192569  1
  O2-  O123  1  0.25445304  0.50323537  0.06003948  1
  O2-  O124  1  0.25725565  0.50059475  0.39518687  1
  O2-  O125  1  0.24639215  0.50208433  0.72157257  1
  O2-  O126  1  0.75294658  -0.00253625  0.06644981  1
  O2-  O127  1  0.75298086  -0.00099976  0.39038476  1
  O2-  O128  1  0.74813076  -0.00746349  0.72320384  1
  O2-  O129  1  0.75028619  0.50521969  0.06031881  1
  O2-  O130  1  0.74169993  0.49923699  0.39456188  1
  O2-  O131  1  0.75441208  0.50411584  0.72914836  1
  O2-  O132  1  -0.00206187  0.24848901  0.27721939  1
  O2-  O133  1  -0.00143525  0.25133994  0.60791472  1
  O2-  O134  1  0.00138301  0.24169384  0.93859272  1
  O2-  O135  1  -0.00345717  0.75727910  0.27118682  1
  O2-  O136  1  0.00185260  0.75311055  0.59991289  1
  O2-  O137  1  -0.00097539  0.76006491  0.94092683  1
  O2-  O138  1  0.50251851  0.24518625  0.27326054  1
  O2-  O139  1  0.50003871  0.24284832  0.60538443  1
  O2-  O140  1  0.49371076  0.25673825  0.93865989  1
  O2-  O141  1  0.50587656  0.74574947  0.27321972  1
  O2-  O142  1  0.50615165  0.75376975  0.60991953  1
  O2-  O143  1  0.50876633  0.74686309  0.93854768  1
  O2-  O144  1  0.07265637  0.18109936  0.09004076  1
  O2-  O145  1  0.06710980  0.17887466  0.42457612  1
  O2-  O146  1  0.07056188  0.18456404  0.75730647  1
  O2-  O147  1  0.06632766  0.67674643  0.09859891  1
  O2-  O148  1  0.06600784  0.67801640  0.43028950  1
  O2-  O149  1  0.07057044  0.67574343  0.76110204  1
  O2-  O150  1  0.56879876  0.18409127  0.09834116  1
  O2-  O151  1  0.58156361  0.18144385  0.42081945  1
  O2-  O152  1  0.57731849  0.18072689  0.75314291  1
  O2-  O153  1  0.57386494  0.67475474  0.08935161  1
  O2-  O154  1  0.57454207  0.67990333  0.42362752  1
  O2-  O155  1  0.56653239  0.67333536  0.75780556  1
  O2-  O156  1  0.17633375  0.43120408  0.23465256  1
  O2-  O157  1  0.17766879  0.42681388  0.57628230  1
  O2-  O158  1  0.17893437  0.43302822  0.89757643  1
  O2-  O159  1  0.18018174  0.92733401  0.23626377  1
  O2-  O160  1  0.18387998  0.92681857  0.56842675  1
  O2-  O161  1  0.18103726  0.92544535  0.90207336  1
  O2-  O162  1  0.67931608  0.42580226  0.24534777  1
  O2-  O163  1  0.67956310  0.43519766  0.56595311  1
  O2-  O164  1  0.67717667  0.43004755  0.90198413  1
  O2-  O165  1  0.67989750  0.92882425  0.24394988  1
  O2-  O166  1  0.67558521  0.92626123  0.57521757  1
  O2-  O167  1  0.68185628  0.92931101  0.90055625  1
  O2-  O168  1  0.42604995  0.32343496  0.08971044  1
  O2-  O169  1  0.42952261  0.32046948  0.43136031  1
  O2-  O170  1  0.43009690  0.32308274  0.76694878  1
  O2-  O171  1  0.43218957  0.81892507  0.09791206  1
  O2-  O172  1  0.43410353  0.81868235  0.43401643  1
  O2-  O173  1  0.43182802  0.82028191  0.75644810  1
  O2-  O174  1  0.93178434  0.32120872  0.10016096  1
  O2-  O175  1  0.92760964  0.31683175  0.42609466  1
  O2-  O176  1  0.92598884  0.32114333  0.75504542  1
  O2-  O177  1  0.92105670  0.81904522  0.09033602  1
  O2-  O178  1  0.92354453  0.82389232  0.42059268  1
  O2-  O179  1  0.92790426  0.82103230  0.76559129  1
  O2-  O180  1  0.32225381  0.06996148  0.23629072  1
  O2-  O181  1  0.31880892  0.07332445  0.56964937  1
  O2-  O182  1  0.32053420  0.07047955  0.90150058  1
  O2-  O183  1  0.32266181  0.57059454  0.24383552  1
  O2-  O184  1  0.32523301  0.56945065  0.57562412  1
  O2-  O185  1  0.32476697  0.57120048  0.91091157  1
  O2-  O186  1  0.82087310  0.07548812  0.24413363  1
  O2-  O187  1  0.81765124  0.07226354  0.56548575  1
  O2-  O188  1  0.81917697  0.07265803  0.90302739  1
  O2-  O189  1  0.81963581  0.56758808  0.23474093  1
  O2-  O190  1  0.82095334  0.57079615  0.57952000  1
  O2-  O191  1  0.82003844  0.56804875  0.90880930  1
  O2-  O192  1  0.04167190  0.08603077  0.27167938  1
  O2-  O193  1  0.04170836  0.08946912  0.60526250  1
  O2-  O194  1  0.05180900  0.08037173  0.94191936  1
  O2-  O195  1  0.03169524  0.58188622  0.26691719  1
  O2-  O196  1  0.04160899  0.57971638  0.59482704  1
  O2-  O197  1  0.03501214  0.58665886  0.92831552  1
  O2-  O198  1  0.55316136  0.08417422  0.27144684  1
  O2-  O199  1  0.55458095  0.08312174  0.60210600  1
  O2-  O200  1  0.54254579  0.08561158  0.92880577  1
  O2-  O201  1  0.55287817  0.58352156  0.27218578  1
  O2-  O202  1  0.53623366  0.58898161  0.60163745  1
  O2-  O203  1  0.54374743  0.58332154  0.93746035  1
  O2-  O204  1  0.16040178  0.20689415  0.27198959  1
  O2-  O205  1  0.16029847  0.21132418  0.60304265  1
  O2-  O206  1  0.16500768  0.20755220  0.93713891  1
  O2-  O207  1  0.16666457  0.70274801  0.26406404  1
  O2-  O208  1  0.17317333  0.70229024  0.59582713  1
  O2-  O209  1  0.16742758  0.70480744  0.93056752  1
  O2-  O210  1  0.66682709  0.20874823  0.26697546  1
  O2-  O211  1  0.66494170  0.21035516  0.59948626  1
  O2-  O212  1  0.66505903  0.21477661  0.93151868  1
  O2-  O213  1  0.66886612  0.70436912  0.27260223  1
  O2-  O214  1  0.66442020  0.69781375  0.60710186  1
  O2-  O215  1  0.66937575  0.69692176  0.93792524  1
  O2-  O216  1  0.08132707  0.46429108  0.06371907  1
  O2-  O217  1  0.08369791  0.46074326  0.40371429  1
  O2-  O218  1  0.08352891  0.45504496  0.72671909  1
  O2-  O219  1  0.08057194  0.94751813  0.06976444  1
  O2-  O220  1  0.07986879  0.95496139  0.40093822  1
  O2-  O221  1  0.08344886  0.95671261  0.73336020  1
  O2-  O222  1  0.58078305  0.45803558  0.07097595  1
  O2-  O223  1  0.58096623  0.45085702  0.39379549  1
  O2-  O224  1  0.58291965  0.46445721  0.73356139  1
  O2-  O225  1  0.58288624  0.96122150  0.06642689  1
  O2-  O226  1  0.59033425  0.95951288  0.39847911  1
  O2-  O227  1  0.58462701  0.95295533  0.72744045  1
  O2-  O228  1  0.20439144  0.33539583  0.06740653  1
  O2-  O229  1  0.20706778  0.33265501  0.40202363  1
  O2-  O230  1  0.20567542  0.33863692  0.73010345  1
  O2-  O231  1  0.21261676  0.82662158  0.06498314  1
  O2-  O232  1  0.20795238  0.82556539  0.39915853  1
  O2-  O233  1  0.20927691  0.82647179  0.73188736  1
  O2-  O234  1  0.71132913  0.33509346  0.07080326  1
  O2-  O235  1  0.70617245  0.33539415  0.39821724  1
  O2-  O236  1  0.70882766  0.33545689  0.73237710  1
  O2-  O237  1  0.70315023  0.82789671  0.06770384  1
  O2-  O238  1  0.70479144  0.83757021  0.39747367  1
  O2-  O239  1  0.69813960  0.83020665  0.72630158  1
  O2-  O240  1  0.45520086  0.41695491  0.26271559  1
  O2-  O241  1  0.46181432  0.41558657  0.59825513  1
  O2-  O242  1  0.44975716  0.41997057  0.94144920  1
  O2-  O243  1  0.46437686  0.91748561  0.26805423  1
  O2-  O244  1  0.45714925  0.91431613  0.60401549  1
  O2-  O245  1  0.46325378  0.91611742  0.92932981  1
  O2-  O246  1  0.95672330  0.41161741  0.27529206  1
  O2-  O247  1  0.95309357  0.41295119  0.60264020  1
  O2-  O248  1  0.96229508  0.41287036  0.92780873  1
  O2-  O249  1  0.94787056  0.91955402  0.27099767  1
  O2-  O250  1  0.95277871  0.92438102  0.60132936  1
  O2-  O251  1  0.94701868  0.92065086  0.94404395  1
  O2-  O252  1  0.32923313  0.29026723  0.26568281  1
  O2-  O253  1  0.33031183  0.29221537  0.60022701  1
  O2-  O254  1  0.33050444  0.29988282  0.93943334  1
  O2-  O255  1  0.33590291  0.78798296  0.26516832  1
  O2-  O256  1  0.34214202  0.78826441  0.60352318  1
  O2-  O257  1  0.33860895  0.78550862  0.92701851  1
  O2-  O258  1  0.83597237  0.29291125  0.27359033  1
  O2-  O259  1  0.83524427  0.29124895  0.60196617  1
  O2-  O260  1  0.83264256  0.29019386  0.93297269  1
  O2-  O261  1  0.83230567  0.79622541  0.27033155  1
  O2-  O262  1  0.82975820  0.79447963  0.59805689  1
  O2-  O263  1  0.83377005  0.79464195  0.93636035  1
  O2-  O264  1  0.42106003  0.04376313  0.06534668  1
  O2-  O265  1  0.42352682  0.04674152  0.40149601  1
  O2-  O266  1  0.42492080  0.05175156  0.72948452  1
  O2-  O267  1  0.41575665  0.55179639  0.06589275  1
  O2-  O268  1  0.41924730  0.54866345  0.39365655  1
  O2-  O269  1  0.41058349  0.53869543  0.73086899  1
  O2-  O270  1  0.92100057  0.05003240  0.07082037  1
  O2-  O271  1  0.91343772  0.04725999  0.39659644  1
  O2-  O272  1  0.91730788  0.04618848  0.73563048  1
  O2-  O273  1  0.91321147  0.53847374  0.05989109  1
  O2-  O274  1  0.91208101  0.53493966  0.40640057  1
  O2-  O275  1  0.91703267  0.54547832  0.72895534  1
  O2-  O276  1  0.29410652  0.16977866  0.06794339  1
  O2-  O277  1  0.28927951  0.16751985  0.40168761  1
  O2-  O278  1  0.28952333  0.17058534  0.73585370  1
  O2-  O279  1  0.29500481  0.66596924  0.06083008  1
  O2-  O280  1  0.29572619  0.66327901  0.39596304  1
  O2-  O281  1  0.29683903  0.66179344  0.72892778  1
  O2-  O282  1  0.78850954  0.16906944  0.06970377  1
  O2-  O283  1  0.79083534  0.16331912  0.39766253  1
  O2-  O284  1  0.78778501  0.16613408  0.73319829  1
  O2-  O285  1  0.80039856  0.66414941  0.06158906  1
  O2-  O286  1  0.79200022  0.66774799  0.40424253  1
  O2-  O287  1  0.79801132  0.66665963  0.73006686  1
