# generated using pymatgen
data_Ca2Al2SiO7
_symmetry_space_group_name_H-M   'P 1'
_cell_length_a   15.45842195
_cell_length_b   15.45773421
_cell_length_c   15.28418795
_cell_angle_alpha   89.98678793
_cell_angle_beta   89.99749003
_cell_angle_gamma   89.98983991
_symmetry_Int_Tables_number   1
_chemical_formula_structural   Ca2Al2SiO7
_chemical_formula_sum   'Ca48 Al48 Si24 O168'
_cell_volume   3652.18983826
_cell_formula_units_Z   24
loop_
 _symmetry_equiv_pos_site_id
 _symmetry_equiv_pos_as_xyz
  1  'x, y, z'
loop_
 _atom_type_symbol
 _atom_type_oxidation_number
  Ca2+  2.0
  Al0+  0.0
  Si0+  0.0
  O2-  -2.0
loop_
 _atom_site_type_symbol
 _atom_site_label
 _atom_site_symmetry_multiplicity
 _atom_site_fract_x
 _atom_site_fract_y
 _atom_site_fract_z
 _atom_site_occupancy
  Ca2+  Ca0  1  0.17843936  0.09045302  0.16848339  1
  Ca2+  Ca1  1  0.17059310  0.08660679  0.50264041  1
  Ca2+  Ca2  1  0.16992031  0.08868761  0.84386768  1
  Ca2+  Ca3  1  0.16344685  0.59034268  0.16884928  1
  Ca2+  Ca4  1  0.17043254  0.58652757  0.50479878  1
  Ca2+  Ca5  1  0.17112437  0.58567603  0.83955842  1
  Ca2+  Ca6  1  0.66805842  0.07524898  0.17652930  1
  Ca2+  Ca7  1  0.67808544  0.07454428  0.50729093  1
  Ca2+  Ca8  1  0.66404779  0.08263358  0.83442178  1
  Ca2+  Ca9  1  0.67305110  0.58490024  0.17401014  1
  Ca2+  Ca10  1  0.66746932  0.57480951  0.49948659  1
  Ca2+  Ca11  1  0.66801786  0.57808827  0.84094755  1
  Ca2+  Ca12  1  0.07393735  0.33006519  0.16364930  1
  Ca2+  Ca13  1  0.07378926  0.32721144  0.49484571  1
  Ca2+  Ca14  1  0.08230050  0.32131598  0.83132304  1
  Ca2+  Ca15  1  0.07068778  0.82438211  0.16263731  1
  Ca2+  Ca16  1  0.07430894  0.82698934  0.48997799  1
  Ca2+  Ca17  1  0.07622669  0.83279500  0.83481506  1
  Ca2+  Ca18  1  0.57955069  0.32784042  0.16013594  1
  Ca2+  Ca19  1  0.59479431  0.33034415  0.49837112  1
  Ca2+  Ca20  1  0.58553290  0.32367348  0.82883337  1
  Ca2+  Ca21  1  0.58833193  0.82461493  0.16211353  1
  Ca2+  Ca22  1  0.59036156  0.83062662  0.49382583  1
  Ca2+  Ca23  1  0.58207758  0.83106894  0.83426755  1
  Ca2+  Ca24  1  0.33160835  0.41307380  0.16875389  1
  Ca2+  Ca25  1  0.33113819  0.42607278  0.50595531  1
  Ca2+  Ca26  1  0.33528972  0.41810735  0.83725696  1
  Ca2+  Ca27  1  0.33996838  0.92679415  0.16853675  1
  Ca2+  Ca28  1  0.33251225  0.92253445  0.50089191  1
  Ca2+  Ca29  1  0.33233682  0.92168056  0.84458115  1
  Ca2+  Ca30  1  0.82966142  0.42700294  0.17645879  1
  Ca2+  Ca31  1  0.82677904  0.41689019  0.49818933  1
  Ca2+  Ca32  1  0.82705203  0.42118984  0.83784147  1
  Ca2+  Ca33  1  0.83301094  0.91856882  0.17480829  1
  Ca2+  Ca34  1  0.82558922  0.91729853  0.50182477  1
  Ca2+  Ca35  1  0.83023164  0.91877973  0.83480671  1
  Ca2+  Ca36  1  0.42044056  0.16802169  0.15574749  1
  Ca2+  Ca37  1  0.42485583  0.16394055  0.49713359  1
  Ca2+  Ca38  1  0.42667483  0.16696962  0.83555565  1
  Ca2+  Ca39  1  0.43257350  0.67285479  0.15896404  1
  Ca2+  Ca40  1  0.42215406  0.66685350  0.49327546  1
  Ca2+  Ca41  1  0.41836571  0.66926914  0.83154506  1
  Ca2+  Ca42  1  0.91321285  0.17228707  0.16401694  1
  Ca2+  Ca43  1  0.91336219  0.16513799  0.49526720  1
  Ca2+  Ca44  1  0.92730445  0.15796765  0.82568050  1
  Ca2+  Ca45  1  0.91331235  0.67353439  0.15992652  1
  Ca2+  Ca46  1  0.91834493  0.67099549  0.48515579  1
  Ca2+  Ca47  1  0.91323012  0.66907604  0.83815629  1
  Al0+  Al48  1  -0.00008860  -0.00138825  -0.00472784  1
  Al0+  Al49  1  0.00467627  -0.00066945  0.33168330  1
  Al0+  Al50  1  0.00107249  -0.00201052  0.66278605  1
  Al0+  Al51  1  -0.00026138  0.50038847  -0.00047381  1
  Al0+  Al52  1  0.00155334  0.49622496  0.33102676  1
  Al0+  Al53  1  0.00144001  0.49897835  0.66739889  1
  Al0+  Al54  1  0.49994112  0.00000876  -0.00176316  1
  Al0+  Al55  1  0.49951826  0.00084380  0.34292286  1
  Al0+  Al56  1  0.49896129  0.00053353  0.66547791  1
  Al0+  Al57  1  0.49811266  0.49953887  -0.00480410  1
  Al0+  Al58  1  0.49858215  0.49952910  0.33237470  1
  Al0+  Al59  1  0.49975316  0.50141716  0.67489398  1
  Al0+  Al60  1  0.24948120  0.25129294  -0.00222446  1
  Al0+  Al61  1  0.25159844  0.25144173  0.34063086  1
  Al0+  Al62  1  0.24954944  0.25175955  0.66158372  1
  Al0+  Al63  1  0.24843090  0.75035668  -0.00303743  1
  Al0+  Al64  1  0.25062386  0.75232465  0.32962552  1
  Al0+  Al65  1  0.25063916  0.75137442  0.66997624  1
  Al0+  Al66  1  0.74936557  0.25027889  -0.00295275  1
  Al0+  Al67  1  0.75059795  0.24926150  0.33346647  1
  Al0+  Al68  1  0.75133107  0.25028143  0.67121719  1
  Al0+  Al69  1  0.75009683  0.75014455  -0.00561541  1
  Al0+  Al70  1  0.75014412  0.74913477  0.33315662  1
  Al0+  Al71  1  0.74877874  0.75076149  0.66942176  1
  Al0+  Al72  1  0.07293196  0.67670268  0.31971697  1
  Al0+  Al73  1  0.82271966  0.57068930  0.34707318  1
  Al0+  Al74  1  0.06853412  0.18069666  0.98944185  1
  Al0+  Al75  1  0.81909289  0.56987253  0.01393877  1
  Al0+  Al76  1  0.67946514  0.92751623  0.34707154  1
  Al0+  Al77  1  0.57197623  0.67860299  0.98315157  1
  Al0+  Al78  1  0.32088172  0.07267885  0.34907946  1
  Al0+  Al79  1  0.67642023  0.42882956  0.34620758  1
  Al0+  Al80  1  0.42932482  0.82158913  0.98626895  1
  Al0+  Al81  1  0.42730035  0.32099091  0.98510270  1
  Al0+  Al82  1  0.56976268  0.67814497  0.32189485  1
  Al0+  Al83  1  0.07151753  0.17758951  0.65075243  1
  Al0+  Al84  1  0.92753663  0.82193976  0.98223699  1
  Al0+  Al85  1  0.31932011  0.57175468  0.68128079  1
  Al0+  Al86  1  0.82234510  0.06939587  0.68276899  1
  Al0+  Al87  1  0.82424601  0.07163240  0.34555865  1
  Al0+  Al88  1  0.92746512  0.31797898  0.31941552  1
  Al0+  Al89  1  0.68035562  0.42957150  0.68226119  1
  Al0+  Al90  1  0.31973970  0.07023214  0.01254584  1
  Al0+  Al91  1  0.07021425  0.67704408  0.98288015  1
  Al0+  Al92  1  0.57129249  0.17945641  0.65015593  1
  Al0+  Al93  1  0.57287135  0.17823024  0.98651925  1
  Al0+  Al94  1  0.67685720  0.92817829  0.68511424  1
  Al0+  Al95  1  0.92793680  0.82123097  0.31881985  1
  Si0+  Si96  1  0.82445624  0.57297787  0.68293758  1
  Si0+  Si97  1  0.56990512  0.67894156  0.65122722  1
  Si0+  Si98  1  0.17756544  0.42774679  0.68458232  1
  Si0+  Si99  1  0.31964934  0.07293403  0.68263537  1
  Si0+  Si100  1  0.18027561  0.92716252  0.35030609  1
  Si0+  Si101  1  0.07225223  0.67944403  0.65275508  1
  Si0+  Si102  1  0.17888885  0.42774533  0.34944800  1
  Si0+  Si103  1  0.92840285  0.81878007  0.64993914  1
  Si0+  Si104  1  0.67578485  0.42667318  0.01701257  1
  Si0+  Si105  1  0.07565215  0.17869811  0.31705091  1
  Si0+  Si106  1  0.67964439  0.93088625  0.01426878  1
  Si0+  Si107  1  0.31967109  0.57160880  0.34484069  1
  Si0+  Si108  1  0.17579562  0.92657097  0.01827799  1
  Si0+  Si109  1  0.92848709  0.32303784  0.65010002  1
  Si0+  Si110  1  0.42950523  0.32415849  0.64823685  1
  Si0+  Si111  1  0.42828105  0.82450730  0.31815650  1
  Si0+  Si112  1  0.18024905  0.92956418  0.68188448  1
  Si0+  Si113  1  0.42767891  0.32084939  0.32040519  1
  Si0+  Si114  1  0.82362285  0.07161975  0.01381407  1
  Si0+  Si115  1  0.92706463  0.32276440  0.98277746  1
  Si0+  Si116  1  0.17997292  0.42960589  0.01569945  1
  Si0+  Si117  1  0.42702044  0.82086093  0.65028603  1
  Si0+  Si118  1  0.32131174  0.57302329  0.01697471  1
  Si0+  Si119  1  0.56984808  0.17879647  0.32105452  1
  O2-  O120  1  0.24603638  -0.00506363  0.06115513  1
  O2-  O121  1  0.24623866  -0.00193910  0.39604287  1
  O2-  O122  1  0.24665619  0.00432279  0.72490797  1
  O2-  O123  1  0.24973610  0.50204655  0.05880691  1
  O2-  O124  1  0.24482636  0.50527092  0.38874002  1
  O2-  O125  1  0.24534084  0.49682485  0.72901940  1
  O2-  O126  1  0.75038095  0.00290358  0.05559198  1
  O2-  O127  1  0.75430374  -0.00236777  0.39559988  1
  O2-  O128  1  0.74775453  0.00137264  0.73507172  1
  O2-  O129  1  0.74350266  0.49599526  0.06074396  1
  O2-  O130  1  0.74904238  0.50020046  0.39694385  1
  O2-  O131  1  0.75584861  0.50435975  0.72704231  1
  O2-  O132  1  0.00085312  0.24065271  0.27346924  1
  O2-  O133  1  -0.00513905  0.25124919  0.60651115  1
  O2-  O134  1  -0.00944166  0.24933434  0.93865691  1
  O2-  O135  1  -0.00385311  0.74390587  0.27082968  1
  O2-  O136  1  -0.00371357  0.74351158  0.60949795  1
  O2-  O137  1  -0.00052506  0.74927902  0.93196512  1
  O2-  O138  1  0.49877417  0.25003479  0.27908410  1
  O2-  O139  1  0.49787112  0.25626223  0.60232026  1
  O2-  O140  1  0.50318930  0.25292080  0.93642316  1
  O2-  O141  1  0.49883347  0.75723746  0.27604381  1
  O2-  O142  1  0.50060847  0.75212313  0.60850179  1
  O2-  O143  1  0.49730151  0.74801661  0.93278341  1
  O2-  O144  1  0.06963001  0.18455909  0.10236259  1
  O2-  O145  1  0.07843863  0.18350131  0.42271316  1
  O2-  O146  1  0.07328847  0.17969051  0.76402663  1
  O2-  O147  1  0.06919598  0.67788707  0.09603893  1
  O2-  O148  1  0.07631651  0.68076444  0.43417547  1
  O2-  O149  1  0.07394326  0.68186031  0.75734646  1
  O2-  O150  1  0.57185268  0.17739449  0.10074520  1
  O2-  O151  1  0.56820233  0.17994220  0.42611452  1
  O2-  O152  1  0.56728547  0.17926772  0.76292858  1
  O2-  O153  1  0.57206050  0.67984426  0.09694329  1
  O2-  O154  1  0.56449316  0.67493369  0.43542021  1
  O2-  O155  1  0.56802330  0.67916053  0.75602149  1
  O2-  O156  1  0.18255016  0.42088346  0.24468034  1
  O2-  O157  1  0.17740482  0.42961418  0.57873969  1
  O2-  O158  1  0.18145233  0.42895114  0.91052648  1
  O2-  O159  1  0.18254813  0.92592977  0.24530298  1
  O2-  O160  1  0.18363222  0.92686659  0.57684974  1
  O2-  O161  1  0.17626122  0.92874548  0.91196706  1
  O2-  O162  1  0.67456004  0.42911900  0.23291132  1
  O2-  O163  1  0.68011880  0.43206318  0.56921792  1
  O2-  O164  1  0.67865603  0.42630501  0.91122691  1
  O2-  O165  1  0.67516301  0.93087652  0.23319808  1
  O2-  O166  1  0.67995722  0.92522297  0.57183124  1
  O2-  O167  1  0.67911008  0.93206268  0.90925996  1
  O2-  O168  1  0.42611080  0.31884469  0.09948254  1
  O2-  O169  1  0.42481107  0.32206858  0.42531582  1
  O2-  O170  1  0.42800915  0.32198548  0.75337917  1
  O2-  O171  1  0.43317128  0.82156991  0.10001852  1
  O2-  O172  1  0.42453553  0.82118554  0.42418563  1
  O2-  O173  1  0.42353943  0.81923981  0.75492015  1
  O2-  O174  1  0.92854432  0.32256368  0.08837752  1
  O2-  O175  1  0.93044619  0.31904244  0.43261024  1
  O2-  O176  1  0.93263202  0.32669263  0.75572372  1
  O2-  O177  1  0.92743416  0.82348558  0.09535393  1
  O2-  O178  1  0.93134579  0.82039829  0.43316108  1
  O2-  O179  1  0.93017725  0.81981073  0.75482323  1
  O2-  O180  1  0.32113875  0.07457643  0.23608836  1
  O2-  O181  1  0.31883345  0.07066592  0.57731244  1
  O2-  O182  1  0.31703015  0.07009501  0.89917677  1
  O2-  O183  1  0.32082921  0.56835015  0.24009835  1
  O2-  O184  1  0.31700363  0.57217208  0.56725889  1
  O2-  O185  1  0.31952322  0.57262365  0.91181192  1
  O2-  O186  1  0.81917359  0.07300005  0.23138244  1
  O2-  O187  1  0.82302994  0.06572772  0.56932348  1
  O2-  O188  1  0.82541182  0.07000981  0.90896355  1
  O2-  O189  1  0.82109134  0.56968517  0.23360345  1
  O2-  O190  1  0.82621114  0.57343893  0.57772247  1
  O2-  O191  1  0.81855913  0.56578086  0.90016850  1
  O2-  O192  1  0.06232679  0.08205192  0.27441251  1
  O2-  O193  1  0.04510861  0.07974035  0.59671332  1
  O2-  O194  1  0.04437589  0.08335346  0.93431652  1
  O2-  O195  1  0.05615551  0.57474128  0.27098451  1
  O2-  O196  1  0.05231467  0.58412614  0.60836647  1
  O2-  O197  1  0.04328488  0.57825048  0.92938822  1
  O2-  O198  1  0.53942397  0.08673577  0.27583588  1
  O2-  O199  1  0.53687989  0.08323148  0.59664346  1
  O2-  O200  1  0.54040619  0.08249185  0.93188292  1
  O2-  O201  1  0.53333235  0.58420698  0.26564161  1
  O2-  O202  1  0.53827403  0.58742230  0.60565211  1
  O2-  O203  1  0.54430127  0.57992743  0.93124212  1
  O2-  O204  1  0.16731927  0.21383748  0.27206655  1
  O2-  O205  1  0.16718899  0.21131429  0.59533943  1
  O2-  O206  1  0.16232654  0.21630478  0.93327551  1
  O2-  O207  1  0.16985042  0.70949512  0.26492972  1
  O2-  O208  1  0.16265049  0.71269109  0.60513440  1
  O2-  O209  1  0.16905541  0.70470371  0.93062921  1
  O2-  O210  1  0.66116351  0.20457584  0.27291013  1
  O2-  O211  1  0.67001315  0.20978562  0.60037894  1
  O2-  O212  1  0.67113586  0.20416573  0.93120965  1
  O2-  O213  1  0.66654469  0.70542371  0.26823190  1
  O2-  O214  1  0.66321365  0.70466871  0.60562991  1
  O2-  O215  1  0.66761118  0.70913988  0.92762675  1
  O2-  O216  1  0.08762748  0.45578601  0.06284254  1
  O2-  O217  1  0.08658117  0.44970289  0.39781777  1
  O2-  O218  1  0.08406958  0.45170270  0.73162045  1
  O2-  O219  1  0.08241580  0.95402013  0.06313744  1
  O2-  O220  1  0.08690872  0.95075967  0.39784902  1
  O2-  O221  1  0.08681087  0.95286395  0.72717131  1
  O2-  O222  1  0.57991481  0.44956389  0.05947826  1
  O2-  O223  1  0.57784708  0.45694957  0.40085132  1
  O2-  O224  1  0.58455602  0.46041722  0.73728340  1
  O2-  O225  1  0.58811082  0.95795681  0.06214404  1
  O2-  O226  1  0.58241148  0.95595301  0.40355712  1
  O2-  O227  1  0.57635858  0.95532064  0.73439262  1
  O2-  O228  1  0.21040930  0.33950696  0.06502627  1
  O2-  O229  1  0.21336244  0.34092441  0.40280652  1
  O2-  O230  1  0.20551928  0.33402058  0.72940992  1
  O2-  O231  1  0.19996823  0.83215357  0.06277999  1
  O2-  O232  1  0.20946548  0.83489749  0.39921086  1
  O2-  O233  1  0.21156677  0.84011921  0.73183905  1
  O2-  O234  1  0.70136770  0.33219803  0.06206943  1
  O2-  O235  1  0.70693518  0.33114217  0.39899446  1
  O2-  O236  1  0.71078344  0.33395107  0.73784586  1
  O2-  O237  1  0.70844436  0.83839975  0.05907695  1
  O2-  O238  1  0.70506121  0.82896953  0.40088016  1
  O2-  O239  1  0.70624718  0.82952497  0.73777266  1
  O2-  O240  1  0.45325073  0.41206160  0.27095444  1
  O2-  O241  1  0.45408458  0.41977500  0.60538260  1
  O2-  O242  1  0.44853308  0.42058419  0.93242132  1
  O2-  O243  1  0.45213189  0.91999421  0.27581501  1
  O2-  O244  1  0.45085879  0.91387402  0.60354608  1
  O2-  O245  1  0.45829973  0.91840518  0.93102966  1
  O2-  O246  1  0.96270162  0.41228913  0.26369320  1
  O2-  O247  1  0.95826344  0.41546517  0.60209282  1
  O2-  O248  1  0.95892352  0.41323494  0.93514227  1
  O2-  O249  1  0.96124280  0.91858147  0.26540043  1
  O2-  O250  1  0.96126440  0.90802659  0.60140827  1
  O2-  O251  1  0.95889393  0.91842666  0.92664016  1
  O2-  O252  1  0.33593015  0.29191098  0.27314213  1
  O2-  O253  1  0.33508348  0.30009371  0.60189719  1
  O2-  O254  1  0.33097526  0.29045017  0.92959667  1
  O2-  O255  1  0.33609901  0.79900808  0.26991977  1
  O2-  O256  1  0.33619813  0.78967328  0.60150940  1
  O2-  O257  1  0.32954942  0.79732240  0.93418198  1
  O2-  O258  1  0.83140082  0.28953306  0.26267096  1
  O2-  O259  1  0.83407674  0.30019900  0.60617868  1
  O2-  O260  1  0.83208527  0.30289353  0.93799942  1
  O2-  O261  1  0.82873238  0.79767993  0.26652623  1
  O2-  O262  1  0.83503016  0.79339754  0.60475011  1
  O2-  O263  1  0.83131529  0.79225631  0.92660624  1
  O2-  O264  1  0.41669940  0.03964217  0.06686708  1
  O2-  O265  1  0.41468003  0.04070079  0.40768476  1
  O2-  O266  1  0.41078949  0.04290868  0.72856995  1
  O2-  O267  1  0.41354266  0.54437312  0.06334480  1
  O2-  O268  1  0.40828930  0.53878409  0.39561596  1
  O2-  O269  1  0.41443366  0.54243120  0.73759907  1
  O2-  O270  1  0.91494593  0.04284556  0.06147043  1
  O2-  O271  1  0.92634808  0.05066171  0.39444368  1
  O2-  O272  1  0.92144883  0.03645169  0.73332018  1
  O2-  O273  1  0.91670605  0.53914962  0.06598560  1
  O2-  O274  1  0.92183596  0.54065813  0.39895114  1
  O2-  O275  1  0.91859752  0.54736394  0.72918325  1
  O2-  O276  1  0.28667057  0.16703425  0.06586712  1
  O2-  O277  1  0.29008067  0.16798165  0.40645596  1
  O2-  O278  1  0.29329735  0.16673658  0.72610968  1
  O2-  O279  1  0.29360902  0.66515943  0.06382211  1
  O2-  O280  1  0.29664344  0.66527435  0.39164384  1
  O2-  O281  1  0.28703458  0.66752494  0.73615394  1
  O2-  O282  1  0.79885147  0.16589628  0.05832896  1
  O2-  O283  1  0.79356278  0.16833720  0.40009749  1
  O2-  O284  1  0.80127203  0.16986975  0.73390263  1
  O2-  O285  1  0.78947998  0.66864405  0.06385559  1
  O2-  O286  1  0.79568976  0.66870344  0.40028508  1
  O2-  O287  1  0.79781695  0.66596821  0.72909256  1
