# generated using pymatgen
data_Ca2Al2SiO7
_symmetry_space_group_name_H-M   'P 1'
_cell_length_a   15.47090225
_cell_length_b   15.47116685
_cell_length_c   15.29200986
_cell_angle_alpha   89.99970956
_cell_angle_beta   90.02262817
_cell_angle_gamma   89.99772194
_symmetry_Int_Tables_number   1
_chemical_formula_structural   Ca2Al2SiO7
_chemical_formula_sum   'Ca48 Al48 Si24 O168'
_cell_volume   3660.18677128
_cell_formula_units_Z   24
loop_
 _symmetry_equiv_pos_site_id
 _symmetry_equiv_pos_as_xyz
  1  'x, y, z'
loop_
 _atom_type_symbol
 _atom_type_oxidation_number
  Ca2+  2.0
  Al0+  0.0
  Si0+  0.0
  O2-  -2.0
loop_
 _atom_site_type_symbol
 _atom_site_label
 _atom_site_symmetry_multiplicity
 _atom_site_fract_x
 _atom_site_fract_y
 _atom_site_fract_z
 _atom_site_occupancy
  Ca2+  Ca0  1  0.17596478  0.07183495  0.17471737  1
  Ca2+  Ca1  1  0.16651537  0.08090164  0.49611051  1
  Ca2+  Ca2  1  0.17621826  0.07642727  0.84862022  1
  Ca2+  Ca3  1  0.17017990  0.59218915  0.16783561  1
  Ca2+  Ca4  1  0.16331217  0.58846950  0.50244876  1
  Ca2+  Ca5  1  0.16776472  0.58304182  0.84569070  1
  Ca2+  Ca6  1  0.65861113  0.07393692  0.17085311  1
  Ca2+  Ca7  1  0.65934886  0.07239121  0.49674959  1
  Ca2+  Ca8  1  0.66556176  0.07277554  0.84192816  1
  Ca2+  Ca9  1  0.65472675  0.57531311  0.17180309  1
  Ca2+  Ca10  1  0.67128248  0.58151591  0.50261940  1
  Ca2+  Ca11  1  0.67128020  0.58206666  0.84426923  1
  Ca2+  Ca12  1  0.08304878  0.33019938  0.16536143  1
  Ca2+  Ca13  1  0.07404017  0.32608558  0.48631394  1
  Ca2+  Ca14  1  0.08751531  0.33512182  0.83236736  1
  Ca2+  Ca15  1  0.08500689  0.83095459  0.15776152  1
  Ca2+  Ca16  1  0.08463006  0.82367793  0.49025242  1
  Ca2+  Ca17  1  0.08695962  0.82405633  0.83454438  1
  Ca2+  Ca18  1  0.59121129  0.32353619  0.16061689  1
  Ca2+  Ca19  1  0.58461422  0.32682065  0.48681122  1
  Ca2+  Ca20  1  0.58835006  0.32939285  0.83787896  1
  Ca2+  Ca21  1  0.57659159  0.83254822  0.15819298  1
  Ca2+  Ca22  1  0.58059253  0.83240398  0.48761736  1
  Ca2+  Ca23  1  0.58146135  0.83703887  0.83687464  1
  Ca2+  Ca24  1  0.33108283  0.42452662  0.16322601  1
  Ca2+  Ca25  1  0.33132004  0.41986281  0.50091962  1
  Ca2+  Ca26  1  0.32577018  0.42664466  0.84721086  1
  Ca2+  Ca27  1  0.33352054  0.91910906  0.17164009  1
  Ca2+  Ca28  1  0.33265415  0.91697232  0.49130672  1
  Ca2+  Ca29  1  0.32927327  0.91945203  0.84689945  1
  Ca2+  Ca30  1  0.82472236  0.41768205  0.17256789  1
  Ca2+  Ca31  1  0.83157206  0.41986238  0.49880651  1
  Ca2+  Ca32  1  0.83062882  0.42723129  0.83985561  1
  Ca2+  Ca33  1  0.82248381  0.90707071  0.16813932  1
  Ca2+  Ca34  1  0.81837797  0.91023269  0.50190081  1
  Ca2+  Ca35  1  0.82457344  0.91127203  0.84065307  1
  Ca2+  Ca36  1  0.42338393  0.15798222  0.16228735  1
  Ca2+  Ca37  1  0.42058351  0.16753383  0.48916757  1
  Ca2+  Ca38  1  0.42156528  0.16030070  0.83840358  1
  Ca2+  Ca39  1  0.42380185  0.67724329  0.16085554  1
  Ca2+  Ca40  1  0.42597415  0.67595763  0.48767660  1
  Ca2+  Ca41  1  0.41735250  0.66921625  0.83973557  1
  Ca2+  Ca42  1  0.91705429  0.17131594  0.16678273  1
  Ca2+  Ca43  1  0.91969399  0.17446720  0.48672508  1
  Ca2+  Ca44  1  0.91784970  0.16882328  0.83300268  1
  Ca2+  Ca45  1  0.92832528  0.67366348  0.16073889  1
  Ca2+  Ca46  1  0.92503088  0.66072736  0.49745877  1
  Ca2+  Ca47  1  0.92367236  0.66924659  0.83369411  1
  Al0+  Al48  1  -0.00086637  0.00310279  -0.00233068  1
  Al0+  Al49  1  -0.00079531  -0.00030092  0.33502931  1
  Al0+  Al50  1  -0.00112421  -0.00158563  0.66624540  1
  Al0+  Al51  1  -0.00162606  0.49847488  0.00070169  1
  Al0+  Al52  1  -0.00076247  0.50040461  0.32571567  1
  Al0+  Al53  1  -0.00128689  0.49864218  0.66658517  1
  Al0+  Al54  1  0.50275746  0.00031074  -0.00316459  1
  Al0+  Al55  1  0.49840184  0.00168287  0.33575594  1
  Al0+  Al56  1  0.49836935  0.00032739  0.66927592  1
  Al0+  Al57  1  0.49875782  0.49832270  0.00308594  1
  Al0+  Al58  1  0.49853325  0.49903411  0.33753779  1
  Al0+  Al59  1  0.49805210  0.49920392  0.66654909  1
  Al0+  Al60  1  0.25168000  0.25124227  0.00625174  1
  Al0+  Al61  1  0.24940985  0.25114012  0.33420594  1
  Al0+  Al62  1  0.25135197  0.24995019  0.66553065  1
  Al0+  Al63  1  0.25157300  0.74965297  -0.00138253  1
  Al0+  Al64  1  0.25214804  0.75066170  0.33238854  1
  Al0+  Al65  1  0.25151706  0.75061284  0.66192260  1
  Al0+  Al66  1  0.75082675  0.25079804  -0.00406432  1
  Al0+  Al67  1  0.74879031  0.25137183  0.33088527  1
  Al0+  Al68  1  0.74945331  0.24785029  0.66489720  1
  Al0+  Al69  1  0.75235578  0.74953795  -0.00233070  1
  Al0+  Al70  1  0.75238759  0.74552374  0.33615575  1
  Al0+  Al71  1  0.74979110  0.74822374  0.67579234  1
  Al0+  Al72  1  0.67970824  0.92761882  0.34500036  1
  Al0+  Al73  1  0.17726515  0.92884141  0.01285903  1
  Al0+  Al74  1  0.32338333  0.07031544  0.01519144  1
  Al0+  Al75  1  0.68023331  0.42971763  0.01302114  1
  Al0+  Al76  1  0.56866702  0.18087533  0.32002179  1
  Al0+  Al77  1  0.17715121  0.92695726  0.34954353  1
  Al0+  Al78  1  0.43226883  0.82177949  0.31841457  1
  Al0+  Al79  1  0.17595045  0.42894502  0.01630394  1
  Al0+  Al80  1  0.67831137  0.42911346  0.34748607  1
  Al0+  Al81  1  0.07142096  0.67912913  0.98554626  1
  Al0+  Al82  1  0.92848900  0.32094583  0.31629113  1
  Al0+  Al83  1  0.57198941  0.17955677  0.98480827  1
  Al0+  Al84  1  0.68246884  0.92886182  0.01421526  1
  Al0+  Al85  1  0.92899026  0.82462946  0.98467302  1
  Al0+  Al86  1  0.67825215  0.93018179  0.68145401  1
  Al0+  Al87  1  0.43071700  0.82178278  0.98394143  1
  Al0+  Al88  1  0.57142572  0.67601442  0.98490497  1
  Al0+  Al89  1  0.57420025  0.67674771  0.32104832  1
  Al0+  Al90  1  0.82126435  0.56829770  0.68189398  1
  Al0+  Al91  1  0.32089978  0.57265236  0.01628961  1
  Al0+  Al92  1  0.07237167  0.17634490  0.31702879  1
  Al0+  Al93  1  0.32037476  0.07263048  0.35000328  1
  Al0+  Al94  1  0.06996242  0.67987887  0.65243421  1
  Al0+  Al95  1  0.07108680  0.68099324  0.31978492  1
  Si0+  Si96  1  0.42789016  0.32170791  0.65131183  1
  Si0+  Si97  1  0.56913367  0.17931962  0.65080062  1
  Si0+  Si98  1  0.43048288  0.82183061  0.65015246  1
  Si0+  Si99  1  0.57163185  0.67726894  0.65311022  1
  Si0+  Si100  1  0.32093217  0.57227445  0.68056465  1
  Si0+  Si101  1  0.92897812  0.31915025  0.65182255  1
  Si0+  Si102  1  0.17727544  0.43092201  0.34918543  1
  Si0+  Si103  1  0.07284243  0.18157725  0.98466940  1
  Si0+  Si104  1  0.31832698  0.07205101  0.68247869  1
  Si0+  Si105  1  0.42717703  0.32129327  0.98271678  1
  Si0+  Si106  1  0.82458037  0.56979502  0.35052642  1
  Si0+  Si107  1  0.82258385  0.07470893  0.01609311  1
  Si0+  Si108  1  0.07259228  0.17823991  0.65319203  1
  Si0+  Si109  1  0.92866943  0.32053049  0.98217892  1
  Si0+  Si110  1  0.18037887  0.42910235  0.67856841  1
  Si0+  Si111  1  0.32018021  0.57111035  0.35099926  1
  Si0+  Si112  1  0.67618756  0.42591111  0.68307112  1
  Si0+  Si113  1  0.82084056  0.07293526  0.34907651  1
  Si0+  Si114  1  0.92622073  0.82284692  0.31953605  1
  Si0+  Si115  1  0.82335604  0.07333556  0.68293669  1
  Si0+  Si116  1  0.92561645  0.82195397  0.64914142  1
  Si0+  Si117  1  0.17862036  0.92774289  0.68074479  1
  Si0+  Si118  1  0.42561272  0.32424604  0.31611201  1
  Si0+  Si119  1  0.82218729  0.57245680  0.01887522  1
  O2-  O120  1  0.25218080  -0.00277956  0.06291769  1
  O2-  O121  1  0.24639313  0.00218650  0.40054782  1
  O2-  O122  1  0.24512032  0.00298440  0.72271130  1
  O2-  O123  1  0.24334796  0.50536829  0.06546341  1
  O2-  O124  1  0.24742776  0.50142802  0.39408018  1
  O2-  O125  1  0.24825375  0.50218775  0.72136279  1
  O2-  O126  1  0.75884711  0.00215276  0.06003520  1
  O2-  O127  1  0.75521573  0.00139212  0.39392782  1
  O2-  O128  1  0.75595971  0.00352888  0.72616630  1
  O2-  O129  1  0.74835801  0.50883709  0.06169901  1
  O2-  O130  1  0.75148526  0.50489881  0.39464495  1
  O2-  O131  1  0.74304972  0.49584038  0.72705133  1
  O2-  O132  1  -0.00040584  0.24761606  0.26734725  1
  O2-  O133  1  -0.00177133  0.24572697  0.61079867  1
  O2-  O134  1  0.00339418  0.25323378  0.93944796  1
  O2-  O135  1  0.00114172  0.76085040  0.27657643  1
  O2-  O136  1  -0.00412090  0.75498822  0.60457324  1
  O2-  O137  1  0.00236557  0.75358314  0.93433806  1
  O2-  O138  1  0.49339957  0.25474528  0.27348799  1
  O2-  O139  1  0.50203493  0.25429662  0.60910140  1
  O2-  O140  1  0.49595902  0.25309739  0.93713738  1
  O2-  O141  1  0.50950141  0.75439516  0.27125714  1
  O2-  O142  1  0.50337709  0.75092323  0.61050039  1
  O2-  O143  1  0.50212935  0.74941521  0.93221654  1
  O2-  O144  1  0.07062225  0.18203702  0.08882789  1
  O2-  O145  1  0.06984604  0.18109391  0.43229460  1
  O2-  O146  1  0.07480002  0.18167674  0.75823502  1
  O2-  O147  1  0.06810760  0.67845224  0.09869373  1
  O2-  O148  1  0.06774929  0.67840499  0.43375404  1
  O2-  O149  1  0.07201568  0.67927056  0.76453416  1
  O2-  O150  1  0.57320612  0.18108282  0.09715933  1
  O2-  O151  1  0.56755631  0.18226057  0.43438332  1
  O2-  O152  1  0.56847737  0.17978923  0.75561074  1
  O2-  O153  1  0.56903388  0.67600498  0.09785067  1
  O2-  O154  1  0.57139578  0.67722030  0.43609014  1
  O2-  O155  1  0.56844168  0.67345586  0.75747746  1
  O2-  O156  1  0.17816912  0.43125218  0.24494924  1
  O2-  O157  1  0.18247030  0.42739073  0.57350736  1
  O2-  O158  1  0.17928328  0.42753137  0.90114111  1
  O2-  O159  1  0.17891500  0.92570030  0.23698846  1
  O2-  O160  1  0.17952498  0.92783381  0.57600883  1
  O2-  O161  1  0.17825378  0.93329412  0.89779780  1
  O2-  O162  1  0.67956116  0.42895819  0.23499083  1
  O2-  O163  1  0.67632760  0.42494039  0.57761480  1
  O2-  O164  1  0.68537774  0.42854189  0.89899670  1
  O2-  O165  1  0.68083173  0.92836643  0.23277260  1
  O2-  O166  1  0.67717121  0.93197685  0.56804779  1
  O2-  O167  1  0.68239758  0.93289096  0.90058853  1
  O2-  O168  1  0.42685188  0.32169816  0.08773546  1
  O2-  O169  1  0.42720676  0.32459079  0.42300718  1
  O2-  O170  1  0.42405980  0.32202228  0.75560134  1
  O2-  O171  1  0.43303168  0.82354022  0.09668706  1
  O2-  O172  1  0.43252855  0.81857837  0.43347981  1
  O2-  O173  1  0.42773521  0.82261136  0.75463137  1
  O2-  O174  1  0.92534620  0.31775969  0.08639057  1
  O2-  O175  1  0.93049834  0.32052005  0.43124948  1
  O2-  O176  1  0.92971454  0.31891489  0.75689529  1
  O2-  O177  1  0.92868026  0.82225101  0.09828923  1
  O2-  O178  1  0.92347590  0.81940195  0.42560187  1
  O2-  O179  1  0.92772450  0.82298191  0.75410890  1
  O2-  O180  1  0.32143651  0.07177338  0.23756161  1
  O2-  O181  1  0.31910522  0.07546849  0.57799488  1
  O2-  O182  1  0.31940240  0.07144949  0.90002927  1
  O2-  O183  1  0.32085266  0.56989434  0.24679730  1
  O2-  O184  1  0.32225974  0.57015981  0.57539833  1
  O2-  O185  1  0.32074910  0.56852466  0.90133646  1
  O2-  O186  1  0.81978057  0.07478873  0.24397518  1
  O2-  O187  1  0.82400313  0.07740600  0.57782535  1
  O2-  O188  1  0.82018755  0.07744032  0.90981538  1
  O2-  O189  1  0.82837850  0.56836138  0.24583551  1
  O2-  O190  1  0.82223450  0.56487388  0.56881251  1
  O2-  O191  1  0.82401680  0.56780581  0.91263727  1
  O2-  O192  1  0.04599090  0.07700017  0.26697639  1
  O2-  O193  1  0.04880877  0.08452023  0.60783526  1
  O2-  O194  1  0.04376512  0.09170371  0.93366245  1
  O2-  O195  1  0.03889240  0.58642633  0.26498928  1
  O2-  O196  1  0.03920534  0.58152114  0.60009393  1
  O2-  O197  1  0.03997960  0.57975517  0.93363112  1
  O2-  O198  1  0.53903452  0.08422795  0.26811434  1
  O2-  O199  1  0.53598362  0.08875216  0.60418560  1
  O2-  O200  1  0.54049986  0.08515261  0.92718170  1
  O2-  O201  1  0.53813411  0.58001637  0.27116126  1
  O2-  O202  1  0.54206725  0.58552558  0.60486796  1
  O2-  O203  1  0.54138946  0.57711714  0.93192595  1
  O2-  O204  1  0.17004150  0.20825306  0.26683602  1
  O2-  O205  1  0.16291679  0.20948341  0.60459565  1
  O2-  O206  1  0.16505497  0.21016604  0.93741694  1
  O2-  O207  1  0.16937410  0.70636337  0.26937625  1
  O2-  O208  1  0.16742524  0.70977595  0.59805974  1
  O2-  O209  1  0.17069337  0.70271584  0.93203446  1
  O2-  O210  1  0.66442551  0.21146098  0.26674642  1
  O2-  O211  1  0.66285235  0.20233345  0.60435239  1
  O2-  O212  1  0.66699967  0.21357769  0.92770272  1
  O2-  O213  1  0.67635023  0.69240710  0.27308111  1
  O2-  O214  1  0.66575179  0.70194749  0.60936191  1
  O2-  O215  1  0.67121340  0.70188483  0.93378196  1
  O2-  O216  1  0.07482148  0.44780187  0.06577443  1
  O2-  O217  1  0.08485051  0.45909563  0.39577171  1
  O2-  O218  1  0.08731568  0.45191903  0.72489039  1
  O2-  O219  1  0.07947133  0.96074780  0.06381839  1
  O2-  O220  1  0.07716918  0.95206122  0.40354578  1
  O2-  O221  1  0.08429192  0.94985691  0.72565792  1
  O2-  O222  1  0.58149675  0.45073601  0.06502235  1
  O2-  O223  1  0.58104397  0.45609688  0.40382509  1
  O2-  O224  1  0.58090130  0.44869697  0.72711654  1
  O2-  O225  1  0.58671354  0.96344380  0.06495230  1
  O2-  O226  1  0.58488825  0.96145795  0.40119380  1
  O2-  O227  1  0.58253363  0.96490866  0.73507232  1
  O2-  O228  1  0.20903281  0.33330549  0.07063926  1
  O2-  O229  1  0.20489569  0.33956330  0.39850778  1
  O2-  O230  1  0.21057978  0.33794616  0.72680935  1
  O2-  O231  1  0.19962334  0.82849481  0.06082220  1
  O2-  O232  1  0.21192511  0.83011941  0.40459170  1
  O2-  O233  1  0.21204007  0.83719572  0.72705168  1
  O2-  O234  1  0.71685335  0.33409239  0.06449802  1
  O2-  O235  1  0.71189993  0.33332845  0.40293604  1
  O2-  O236  1  0.70333385  0.33164381  0.72740856  1
  O2-  O237  1  0.71127951  0.83119502  0.06606986  1
  O2-  O238  1  0.71062708  0.83064273  0.40075313  1
  O2-  O239  1  0.70522494  0.83320572  0.73562718  1
  O2-  O240  1  0.45142154  0.41763325  0.27196790  1
  O2-  O241  1  0.45141617  0.41472751  0.60300891  1
  O2-  O242  1  0.45374617  0.41383567  0.93488018  1
  O2-  O243  1  0.45479650  0.92165195  0.26933320  1
  O2-  O244  1  0.45793981  0.91447494  0.60381436  1
  O2-  O245  1  0.46113938  0.91880330  0.92800289  1
  O2-  O246  1  0.95812084  0.41710294  0.26222997  1
  O2-  O247  1  0.95920443  0.40922845  0.60327858  1
  O2-  O248  1  0.95378056  0.41270443  0.93406686  1
  O2-  O249  1  0.94185245  0.91907951  0.27691595  1
  O2-  O250  1  0.94733793  0.91731784  0.60364589  1
  O2-  O251  1  0.95102446  0.92514295  0.93104213  1
  O2-  O252  1  0.33117029  0.30243836  0.27235672  1
  O2-  O253  1  0.33750192  0.29114371  0.60115883  1
  O2-  O254  1  0.33357143  0.29492034  0.93534593  1
  O2-  O255  1  0.33570444  0.78880157  0.26742671  1
  O2-  O256  1  0.34005243  0.79209340  0.60087439  1
  O2-  O257  1  0.33239791  0.79350264  0.92966223  1
  O2-  O258  1  0.83070228  0.29243384  0.26419373  1
  O2-  O259  1  0.83626354  0.29315908  0.60432473  1
  O2-  O260  1  0.84030677  0.28839495  0.93009733  1
  O2-  O261  1  0.83621307  0.78972624  0.27125403  1
  O2-  O262  1  0.83129212  0.79325468  0.60589240  1
  O2-  O263  1  0.83267397  0.79235319  0.92922588  1
  O2-  O264  1  0.42276532  0.04391893  0.06395549  1
  O2-  O265  1  0.41721726  0.04203744  0.40669108  1
  O2-  O266  1  0.40945167  0.04211315  0.72946796  1
  O2-  O267  1  0.41590183  0.53706226  0.07036178  1
  O2-  O268  1  0.40967675  0.53980655  0.40216546  1
  O2-  O269  1  0.41172547  0.54219962  0.72863047  1
  O2-  O270  1  0.91818912  0.05655970  0.05956155  1
  O2-  O271  1  0.91533419  0.05230580  0.39608212  1
  O2-  O272  1  0.91816496  0.05055309  0.72926750  1
  O2-  O273  1  0.91283712  0.53978822  0.06535606  1
  O2-  O274  1  0.91609777  0.53700128  0.39858370  1
  O2-  O275  1  0.91622594  0.53237458  0.73678040  1
  O2-  O276  1  0.29706970  0.16873827  0.06654820  1
  O2-  O277  1  0.29363990  0.17267037  0.40379280  1
  O2-  O278  1  0.29213464  0.16462005  0.73019394  1
  O2-  O279  1  0.29789234  0.67174662  0.06786482  1
  O2-  O280  1  0.29324869  0.66231927  0.39989215  1
  O2-  O281  1  0.29468088  0.66496446  0.72601532  1
  O2-  O282  1  0.79307507  0.16681081  0.06175835  1
  O2-  O283  1  0.79134066  0.16507016  0.39695889  1
  O2-  O284  1  0.79645375  0.16671510  0.73034131  1
  O2-  O285  1  0.80409309  0.66791350  0.06154502  1
  O2-  O286  1  0.80362680  0.66310660  0.39975821  1
  O2-  O287  1  0.79452339  0.66449176  0.73754292  1
