# generated using pymatgen
data_Ca2Al2SiO7
_symmetry_space_group_name_H-M   'P 1'
_cell_length_a   15.45691184
_cell_length_b   15.45716040
_cell_length_c   15.28320660
_cell_angle_alpha   89.99592123
_cell_angle_beta   90.01186186
_cell_angle_gamma   89.99598815
_symmetry_Int_Tables_number   1
_chemical_formula_structural   Ca2Al2SiO7
_chemical_formula_sum   'Ca48 Al48 Si24 O168'
_cell_volume   3651.46309737
_cell_formula_units_Z   24
loop_
 _symmetry_equiv_pos_site_id
 _symmetry_equiv_pos_as_xyz
  1  'x, y, z'
loop_
 _atom_type_symbol
 _atom_type_oxidation_number
  Ca2+  2.0
  Al0+  0.0
  Si0+  0.0
  O2-  -2.0
loop_
 _atom_site_type_symbol
 _atom_site_label
 _atom_site_symmetry_multiplicity
 _atom_site_fract_x
 _atom_site_fract_y
 _atom_site_fract_z
 _atom_site_occupancy
  Ca2+  Ca0  1  0.16294816  0.07475114  0.17103172  1
  Ca2+  Ca1  1  0.16733172  0.08052257  0.50192020  1
  Ca2+  Ca2  1  0.16234154  0.08045577  0.84145769  1
  Ca2+  Ca3  1  0.16724372  0.58355505  0.17652206  1
  Ca2+  Ca4  1  0.16714240  0.57645727  0.50415555  1
  Ca2+  Ca5  1  0.16826718  0.58231750  0.83686643  1
  Ca2+  Ca6  1  0.66344606  0.06946411  0.17091418  1
  Ca2+  Ca7  1  0.67422538  0.07915639  0.50613872  1
  Ca2+  Ca8  1  0.67010488  0.08294217  0.83996513  1
  Ca2+  Ca9  1  0.67389045  0.59449221  0.16846029  1
  Ca2+  Ca10  1  0.66579783  0.58416598  0.49998298  1
  Ca2+  Ca11  1  0.67294141  0.58462871  0.84514895  1
  Ca2+  Ca12  1  0.07665391  0.33361061  0.16094151  1
  Ca2+  Ca13  1  0.08640766  0.33293488  0.49502689  1
  Ca2+  Ca14  1  0.08109124  0.32497826  0.82997663  1
  Ca2+  Ca15  1  0.08115459  0.83049179  0.15981063  1
  Ca2+  Ca16  1  0.07746636  0.82874181  0.48774005  1
  Ca2+  Ca17  1  0.08302324  0.83229676  0.83469628  1
  Ca2+  Ca18  1  0.57798570  0.32386975  0.15895394  1
  Ca2+  Ca19  1  0.58414589  0.32573012  0.49757148  1
  Ca2+  Ca20  1  0.58619539  0.32113286  0.83081895  1
  Ca2+  Ca21  1  0.58720406  0.82758325  0.16253815  1
  Ca2+  Ca22  1  0.57626431  0.83013229  0.49274734  1
  Ca2+  Ca23  1  0.58032332  0.83147612  0.83206373  1
  Ca2+  Ca24  1  0.32343557  0.42242430  0.17856440  1
  Ca2+  Ca25  1  0.32303802  0.42918662  0.50462071  1
  Ca2+  Ca26  1  0.32867611  0.41935371  0.83246672  1
  Ca2+  Ca27  1  0.31973195  0.92259169  0.17304608  1
  Ca2+  Ca28  1  0.32899238  0.91523754  0.49891177  1
  Ca2+  Ca29  1  0.32851704  0.91432188  0.83861311  1
  Ca2+  Ca30  1  0.84219055  0.42050447  0.16721879  1
  Ca2+  Ca31  1  0.83610179  0.41522943  0.50044502  1
  Ca2+  Ca32  1  0.83654315  0.42282417  0.84134033  1
  Ca2+  Ca33  1  0.82559563  0.90344370  0.16904672  1
  Ca2+  Ca34  1  0.82870171  0.91558255  0.50182302  1
  Ca2+  Ca35  1  0.82995499  0.92193087  0.84269850  1
  Ca2+  Ca36  1  0.41723109  0.16248055  0.16358021  1
  Ca2+  Ca37  1  0.42027952  0.16191636  0.49641095  1
  Ca2+  Ca38  1  0.43107143  0.16021381  0.82875082  1
  Ca2+  Ca39  1  0.42748189  0.65961111  0.16431779  1
  Ca2+  Ca40  1  0.41499112  0.66632891  0.49558442  1
  Ca2+  Ca41  1  0.41784144  0.67258311  0.82735794  1
  Ca2+  Ca42  1  0.92121897  0.17965867  0.15924281  1
  Ca2+  Ca43  1  0.92072116  0.16981782  0.49740734  1
  Ca2+  Ca44  1  0.92730399  0.16239092  0.82895292  1
  Ca2+  Ca45  1  0.92899425  0.67441200  0.16064479  1
  Ca2+  Ca46  1  0.92414382  0.67302750  0.48698775  1
  Ca2+  Ca47  1  0.91730940  0.67066765  0.84012929  1
  Al0+  Al48  1  -0.00146333  0.00095999  -0.00060030  1
  Al0+  Al49  1  -0.00309263  0.00227926  0.33286420  1
  Al0+  Al50  1  -0.00135492  0.00112628  0.66501662  1
  Al0+  Al51  1  0.00029879  0.50166582  -0.00351739  1
  Al0+  Al52  1  -0.00119171  0.50055619  0.33142303  1
  Al0+  Al53  1  -0.00058431  0.49942309  0.67159405  1
  Al0+  Al54  1  0.50017272  -0.00006277  0.00051109  1
  Al0+  Al55  1  0.50168718  -0.00250677  0.34099838  1
  Al0+  Al56  1  0.49962231  -0.00300892  0.65708919  1
  Al0+  Al57  1  0.50064794  0.49947613  -0.00488111  1
  Al0+  Al58  1  0.50068087  0.49762541  0.33310462  1
  Al0+  Al59  1  0.50072468  0.49901810  0.67187420  1
  Al0+  Al60  1  0.25034868  0.25244674  -0.00271631  1
  Al0+  Al61  1  0.25177129  0.24995383  0.34070158  1
  Al0+  Al62  1  0.25105006  0.24938983  0.66725882  1
  Al0+  Al63  1  0.25057244  0.75029682  0.00249699  1
  Al0+  Al64  1  0.25220458  0.75224024  0.33668432  1
  Al0+  Al65  1  0.25003886  0.75001538  0.66562954  1
  Al0+  Al66  1  0.74827436  0.25182181  -0.00628671  1
  Al0+  Al67  1  0.75037909  0.24941159  0.32815788  1
  Al0+  Al68  1  0.75179417  0.24917313  0.66682500  1
  Al0+  Al69  1  0.75053523  0.74921990  -0.00097239  1
  Al0+  Al70  1  0.74881383  0.74930548  0.33457167  1
  Al0+  Al71  1  0.74876434  0.74997285  0.66691253  1
  Al0+  Al72  1  0.57117572  0.67930977  0.98575466  1
  Al0+  Al73  1  0.32124339  0.07074158  0.34962469  1
  Al0+  Al74  1  0.42778281  0.81871326  0.65166333  1
  Al0+  Al75  1  0.07427788  0.67991791  0.98381321  1
  Al0+  Al76  1  0.07379787  0.68056891  0.32048317  1
  Al0+  Al77  1  0.57259322  0.17913091  0.65061702  1
  Al0+  Al78  1  0.92897199  0.32046128  0.31996141  1
  Al0+  Al79  1  0.68150047  0.92650223  0.34927017  1
  Al0+  Al80  1  0.17580509  0.43069197  0.34771955  1
  Al0+  Al81  1  0.17505986  0.92954676  0.34930098  1
  Al0+  Al82  1  0.17777224  0.92966852  0.01236089  1
  Al0+  Al83  1  0.82050480  0.06996242  0.68071549  1
  Al0+  Al84  1  0.17791460  0.42759263  0.68539485  1
  Al0+  Al85  1  0.67958210  0.93056366  0.01274130  1
  Al0+  Al86  1  0.92807946  0.82343932  0.31914047  1
  Al0+  Al87  1  0.32424884  0.57164092  0.34696396  1
  Al0+  Al88  1  0.07122824  0.17931472  0.98622739  1
  Al0+  Al89  1  0.07233732  0.17828790  0.65081993  1
  Al0+  Al90  1  0.56834246  0.17745248  0.98775158  1
  Al0+  Al91  1  0.92830452  0.82135295  0.98409762  1
  Al0+  Al92  1  0.92872085  0.32284192  0.98279150  1
  Al0+  Al93  1  0.32084042  0.57284730  0.68457614  1
  Al0+  Al94  1  0.82067375  0.56948837  0.01544303  1
  Al0+  Al95  1  0.56823698  0.67776141  0.32038623  1
  Si0+  Si96  1  0.17850183  0.93039972  0.68137866  1
  Si0+  Si97  1  0.42887469  0.82428395  0.31480368  1
  Si0+  Si98  1  0.67970676  0.42793551  0.68173297  1
  Si0+  Si99  1  0.82006440  0.57258066  0.68121934  1
  Si0+  Si100  1  0.57328755  0.67637771  0.65046415  1
  Si0+  Si101  1  0.81922628  0.07612834  0.34882894  1
  Si0+  Si102  1  0.42928107  0.32256705  0.64884751  1
  Si0+  Si103  1  0.07480143  0.17911829  0.31783889  1
  Si0+  Si104  1  0.06902975  0.67899027  0.65252686  1
  Si0+  Si105  1  0.81887292  0.56925585  0.34789822  1
  Si0+  Si106  1  0.67870741  0.42539689  0.34701725  1
  Si0+  Si107  1  0.67620572  0.42697597  0.01752069  1
  Si0+  Si108  1  0.67703188  0.92779473  0.68370884  1
  Si0+  Si109  1  0.57080465  0.17756298  0.31886272  1
  Si0+  Si110  1  0.92772964  0.82099589  0.65214188  1
  Si0+  Si111  1  0.92991986  0.32313466  0.64954899  1
  Si0+  Si112  1  0.18021658  0.42978610  0.01501130  1
  Si0+  Si113  1  0.42838840  0.82141699  0.98574570  1
  Si0+  Si114  1  0.32316650  0.06969855  0.68177100  1
  Si0+  Si115  1  0.42942516  0.31932014  0.32024241  1
  Si0+  Si116  1  0.82195077  0.07494309  0.01735648  1
  Si0+  Si117  1  0.32222372  0.07327993  0.01341476  1
  Si0+  Si118  1  0.42711013  0.32338425  0.98182673  1
  Si0+  Si119  1  0.32277185  0.57118182  0.01524299  1
  O2-  O120  1  0.24917595  0.00921650  0.05651918  1
  O2-  O121  1  0.24696302  0.00150305  0.40058832  1
  O2-  O122  1  0.24926060  0.00204010  0.72444991  1
  O2-  O123  1  0.25070838  0.50135139  0.05698273  1
  O2-  O124  1  0.24563030  0.50608913  0.39608569  1
  O2-  O125  1  0.24915897  0.50089816  0.73550393  1
  O2-  O126  1  0.75431529  0.00491457  0.06123246  1
  O2-  O127  1  0.75702567  0.00149743  0.39366721  1
  O2-  O128  1  0.74475808  -0.00333939  0.72818899  1
  O2-  O129  1  0.74573859  0.49401905  0.06258164  1
  O2-  O130  1  0.74909418  0.49667133  0.39022304  1
  O2-  O131  1  0.74750484  0.50246911  0.72241711  1
  O2-  O132  1  0.00748620  0.24957034  0.27450781  1
  O2-  O133  1  0.00075965  0.25693679  0.60540008  1
  O2-  O134  1  -0.00232051  0.24810883  0.93329396  1
  O2-  O135  1  0.00697657  0.75789022  0.27113478  1
  O2-  O136  1  -0.00297848  0.74864689  0.61021947  1
  O2-  O137  1  0.00375358  0.75336216  0.93292970  1
  O2-  O138  1  0.49644699  0.24494201  0.27674293  1
  O2-  O139  1  0.49727017  0.25327257  0.60354118  1
  O2-  O140  1  0.49423637  0.25211815  0.93936532  1
  O2-  O141  1  0.49280539  0.75057641  0.27152818  1
  O2-  O142  1  0.50191826  0.74183468  0.60700638  1
  O2-  O143  1  0.49636896  0.75309910  0.93952897  1
  O2-  O144  1  0.07303242  0.18263799  0.09985854  1
  O2-  O145  1  0.07283396  0.17964750  0.42369775  1
  O2-  O146  1  0.06991242  0.17578999  0.76354185  1
  O2-  O147  1  0.07568618  0.67942239  0.09696992  1
  O2-  O148  1  0.06709224  0.67777688  0.43492983  1
  O2-  O149  1  0.06890433  0.68056229  0.75741497  1
  O2-  O150  1  0.56477915  0.17737695  0.10121751  1
  O2-  O151  1  0.57298801  0.18164479  0.42397750  1
  O2-  O152  1  0.57128031  0.17979191  0.76382492  1
  O2-  O153  1  0.56952538  0.67884094  0.09877122  1
  O2-  O154  1  0.56913301  0.67776050  0.43378021  1
  O2-  O155  1  0.57687518  0.67882828  0.75583022  1
  O2-  O156  1  0.17874623  0.42871294  0.23359427  1
  O2-  O157  1  0.17670873  0.43094443  0.57196200  1
  O2-  O158  1  0.18316159  0.42819086  0.91012384  1
  O2-  O159  1  0.17661943  0.93207048  0.23562600  1
  O2-  O160  1  0.17822492  0.93090124  0.57664219  1
  O2-  O161  1  0.18221353  0.92907233  0.89857169  1
  O2-  O162  1  0.67744455  0.42229550  0.24256154  1
  O2-  O163  1  0.67995876  0.42735548  0.57614631  1
  O2-  O164  1  0.67521113  0.42878058  0.91152994  1
  O2-  O165  1  0.67958757  0.92788034  0.23610544  1
  O2-  O166  1  0.68031047  0.92614480  0.57812990  1
  O2-  O167  1  0.67778131  0.93329647  0.89938171  1
  O2-  O168  1  0.42728647  0.32475745  0.08774158  1
  O2-  O169  1  0.43400195  0.32056997  0.42505343  1
  O2-  O170  1  0.43208988  0.32155841  0.75465101  1
  O2-  O171  1  0.42880709  0.82140910  0.09091008  1
  O2-  O172  1  0.43257683  0.82506293  0.42059308  1
  O2-  O173  1  0.42955628  0.81995021  0.76520213  1
  O2-  O174  1  0.93191486  0.32233255  0.09661614  1
  O2-  O175  1  0.92423655  0.31746431  0.43311908  1
  O2-  O176  1  0.92886278  0.32344457  0.75460646  1
  O2-  O177  1  0.92805445  0.81745762  0.09713540  1
  O2-  O178  1  0.92624523  0.81787263  0.43389678  1
  O2-  O179  1  0.92694783  0.82063104  0.75683942  1
  O2-  O180  1  0.32255014  0.07031967  0.23562826  1
  O2-  O181  1  0.32326461  0.06785317  0.57707674  1
  O2-  O182  1  0.32576541  0.07051341  0.90762147  1
  O2-  O183  1  0.32885998  0.56407573  0.23313209  1
  O2-  O184  1  0.31986960  0.57158582  0.57136035  1
  O2-  O185  1  0.32332305  0.57022348  0.91023258  1
  O2-  O186  1  0.81291547  0.08319555  0.24398183  1
  O2-  O187  1  0.81955681  0.06858121  0.56741042  1
  O2-  O188  1  0.81980424  0.07355516  0.91134963  1
  O2-  O189  1  0.81797937  0.56916829  0.24330069  1
  O2-  O190  1  0.81987065  0.57310510  0.57583450  1
  O2-  O191  1  0.81728518  0.56852146  0.90149469  1
  O2-  O192  1  0.04699000  0.08644501  0.27172327  1
  O2-  O193  1  0.03677071  0.08324422  0.59592939  1
  O2-  O194  1  0.04433757  0.08086958  0.93277727  1
  O2-  O195  1  0.04000614  0.58403150  0.26724547  1
  O2-  O196  1  0.04019059  0.58637007  0.60735974  1
  O2-  O197  1  0.04282341  0.58333884  0.92972102  1
  O2-  O198  1  0.54455874  0.08399126  0.27515769  1
  O2-  O199  1  0.54252008  0.08298826  0.59618708  1
  O2-  O200  1  0.53665968  0.08240989  0.93077253  1
  O2-  O201  1  0.54217534  0.57957399  0.26608575  1
  O2-  O202  1  0.55230860  0.57999117  0.60793955  1
  O2-  O203  1  0.54280764  0.58221549  0.93099505  1
  O2-  O204  1  0.17017831  0.20181472  0.27461299  1
  O2-  O205  1  0.17133817  0.20460365  0.59944047  1
  O2-  O206  1  0.17013652  0.20762716  0.93278715  1
  O2-  O207  1  0.17530861  0.70101807  0.27107490  1
  O2-  O208  1  0.16044744  0.70718695  0.60588162  1
  O2-  O209  1  0.17331610  0.70776939  0.93103594  1
  O2-  O210  1  0.65954558  0.20939434  0.26896761  1
  O2-  O211  1  0.66851618  0.21328529  0.59698671  1
  O2-  O212  1  0.66349443  0.20865841  0.93150523  1
  O2-  O213  1  0.66461791  0.71084029  0.26810784  1
  O2-  O214  1  0.66611037  0.70411660  0.60242692  1
  O2-  O215  1  0.66623516  0.71073957  0.93070244  1
  O2-  O216  1  0.08778026  0.45707603  0.05991664  1
  O2-  O217  1  0.07662843  0.45620637  0.40130209  1
  O2-  O218  1  0.07890862  0.45562312  0.73789513  1
  O2-  O219  1  0.08038858  0.95761837  0.06578152  1
  O2-  O220  1  0.07525496  0.95668948  0.40158491  1
  O2-  O221  1  0.08637088  0.95784423  0.72787438  1
  O2-  O222  1  0.58160414  0.45226864  0.06221498  1
  O2-  O223  1  0.58826823  0.45336311  0.39695986  1
  O2-  O224  1  0.58750712  0.45036936  0.73074115  1
  O2-  O225  1  0.58305867  0.96168831  0.06791126  1
  O2-  O226  1  0.58662309  0.95833129  0.40520971  1
  O2-  O227  1  0.58185840  0.95289028  0.72569903  1
  O2-  O228  1  0.20909794  0.33825336  0.06325463  1
  O2-  O229  1  0.20770908  0.33391205  0.40170154  1
  O2-  O230  1  0.20928682  0.32880620  0.73695469  1
  O2-  O231  1  0.21255931  0.83498123  0.06783074  1
  O2-  O232  1  0.20424498  0.83155860  0.40325026  1
  O2-  O233  1  0.20744994  0.83868690  0.72801761  1
  O2-  O234  1  0.69878070  0.33178016  0.06200403  1
  O2-  O235  1  0.70860886  0.33462286  0.39622141  1
  O2-  O236  1  0.71074696  0.33776054  0.73012044  1
  O2-  O237  1  0.70997563  0.83352430  0.06547613  1
  O2-  O238  1  0.71188385  0.83081736  0.40596573  1
  O2-  O239  1  0.70268690  0.83355624  0.72932959  1
  O2-  O240  1  0.46138783  0.40805661  0.26957374  1
  O2-  O241  1  0.45753794  0.41630951  0.60409988  1
  O2-  O242  1  0.45577604  0.41450145  0.93247800  1
  O2-  O243  1  0.46118054  0.91623157  0.26934736  1
  O2-  O244  1  0.45933987  0.91267358  0.59335430  1
  O2-  O245  1  0.45400486  0.91460830  0.93847024  1
  O2-  O246  1  0.95555483  0.41787667  0.26641878  1
  O2-  O247  1  0.95220710  0.41848969  0.60424618  1
  O2-  O248  1  0.95937593  0.41972529  0.92929773  1
  O2-  O249  1  0.94345800  0.92575708  0.26959547  1
  O2-  O250  1  0.95646460  0.91166351  0.60406555  1
  O2-  O251  1  0.95149686  0.92158554  0.93294231  1
  O2-  O252  1  0.33676829  0.29394533  0.27308370  1
  O2-  O253  1  0.33549883  0.29770636  0.60417638  1
  O2-  O254  1  0.33382857  0.30048152  0.93472865  1
  O2-  O255  1  0.33274712  0.80624553  0.27223572  1
  O2-  O256  1  0.33104122  0.78968821  0.59654735  1
  O2-  O257  1  0.33597124  0.79459413  0.93822941  1
  O2-  O258  1  0.83357454  0.28856125  0.26303023  1
  O2-  O259  1  0.83662357  0.29555518  0.60358862  1
  O2-  O260  1  0.82767682  0.30213310  0.93199441  1
  O2-  O261  1  0.83201036  0.78642319  0.26797437  1
  O2-  O262  1  0.83494353  0.79352471  0.60531278  1
  O2-  O263  1  0.83242385  0.78758587  0.92891854  1
  O2-  O264  1  0.41317071  0.04358885  0.06255261  1
  O2-  O265  1  0.41880111  0.04064900  0.40413530  1
  O2-  O266  1  0.41490498  0.03724385  0.72737719  1
  O2-  O267  1  0.41497514  0.54049798  0.06067348  1
  O2-  O268  1  0.41975494  0.53485821  0.40243892  1
  O2-  O269  1  0.42081726  0.54502318  0.73661859  1
  O2-  O270  1  0.91619852  0.05312745  0.06266141  1
  O2-  O271  1  0.91516812  0.05810399  0.39238708  1
  O2-  O272  1  0.91641164  0.03708618  0.73493072  1
  O2-  O273  1  0.91838703  0.53944498  0.06773419  1
  O2-  O274  1  0.90977298  0.54143954  0.39692441  1
  O2-  O275  1  0.91052638  0.54432169  0.73020148  1
  O2-  O276  1  0.30266296  0.16943186  0.05729584  1
  O2-  O277  1  0.29895178  0.16972477  0.40481045  1
  O2-  O278  1  0.30200078  0.16335111  0.72792656  1
  O2-  O279  1  0.29844600  0.66328331  0.06285773  1
  O2-  O280  1  0.30706190  0.67326610  0.39616698  1
  O2-  O281  1  0.29124975  0.67161005  0.73671097  1
  O2-  O282  1  0.79437524  0.16958767  0.06023740  1
  O2-  O283  1  0.78590180  0.16615885  0.39903991  1
  O2-  O284  1  0.79118876  0.16721689  0.73424655  1
  O2-  O285  1  0.78696819  0.66499648  0.06859636  1
  O2-  O286  1  0.78806858  0.65868177  0.39815983  1
  O2-  O287  1  0.79232316  0.66427313  0.72942848  1
