# generated using pymatgen
data_Ca2Al2SiO7
_symmetry_space_group_name_H-M   'P 1'
_cell_length_a   15.45922009
_cell_length_b   15.45904233
_cell_length_c   15.28396472
_cell_angle_alpha   90.00019424
_cell_angle_beta   89.98730261
_cell_angle_gamma   90.00227847
_symmetry_Int_Tables_number   1
_chemical_formula_structural   Ca2Al2SiO7
_chemical_formula_sum   'Ca48 Al48 Si24 O168'
_cell_volume   3652.63420632
_cell_formula_units_Z   24
loop_
 _symmetry_equiv_pos_site_id
 _symmetry_equiv_pos_as_xyz
  1  'x, y, z'
loop_
 _atom_type_symbol
 _atom_type_oxidation_number
  Ca2+  2.0
  Al0+  0.0
  Si0+  0.0
  O2-  -2.0
loop_
 _atom_site_type_symbol
 _atom_site_label
 _atom_site_symmetry_multiplicity
 _atom_site_fract_x
 _atom_site_fract_y
 _atom_site_fract_z
 _atom_site_occupancy
  Ca2+  Ca0  1  0.17824853  0.08145191  0.16940559  1
  Ca2+  Ca1  1  0.17042357  0.08446739  0.49782855  1
  Ca2+  Ca2  1  0.17342128  0.08199332  0.84112710  1
  Ca2+  Ca3  1  0.17874434  0.58330869  0.16956718  1
  Ca2+  Ca4  1  0.17935047  0.58116936  0.51040766  1
  Ca2+  Ca5  1  0.17305413  0.57661448  0.83724151  1
  Ca2+  Ca6  1  0.66370889  0.06872202  0.17194416  1
  Ca2+  Ca7  1  0.65798393  0.07728636  0.49793685  1
  Ca2+  Ca8  1  0.67439203  0.07582149  0.84641299  1
  Ca2+  Ca9  1  0.66334756  0.58227583  0.17193237  1
  Ca2+  Ca10  1  0.67169886  0.59193564  0.49983462  1
  Ca2+  Ca11  1  0.66089506  0.58015578  0.83861581  1
  Ca2+  Ca12  1  0.07958194  0.33849321  0.16446127  1
  Ca2+  Ca13  1  0.07441949  0.34443920  0.49866188  1
  Ca2+  Ca14  1  0.08161086  0.34057113  0.82807899  1
  Ca2+  Ca15  1  0.06953246  0.83725516  0.16153502  1
  Ca2+  Ca16  1  0.07822243  0.82544447  0.49494146  1
  Ca2+  Ca17  1  0.07931515  0.82748588  0.82980577  1
  Ca2+  Ca18  1  0.57932017  0.33185527  0.16537297  1
  Ca2+  Ca19  1  0.56928294  0.32833921  0.49091085  1
  Ca2+  Ca20  1  0.57718022  0.33618442  0.82844840  1
  Ca2+  Ca21  1  0.58644661  0.82336057  0.15935840  1
  Ca2+  Ca22  1  0.58494987  0.82307504  0.49365079  1
  Ca2+  Ca23  1  0.58103833  0.82441136  0.83604943  1
  Ca2+  Ca24  1  0.33372041  0.42739754  0.17143584  1
  Ca2+  Ca25  1  0.33605948  0.42302624  0.50650634  1
  Ca2+  Ca26  1  0.32741603  0.42494227  0.83828344  1
  Ca2+  Ca27  1  0.34838211  0.92733911  0.16803993  1
  Ca2+  Ca28  1  0.33935970  0.92620794  0.49964065  1
  Ca2+  Ca29  1  0.33716937  0.92211816  0.84372788  1
  Ca2+  Ca30  1  0.82569799  0.42182305  0.17315511  1
  Ca2+  Ca31  1  0.83635508  0.41756869  0.50147168  1
  Ca2+  Ca32  1  0.82712702  0.41732470  0.84013207  1
  Ca2+  Ca33  1  0.82522480  0.91134669  0.17175902  1
  Ca2+  Ca34  1  0.82829498  0.91075901  0.49740481  1
  Ca2+  Ca35  1  0.82921913  0.92189887  0.84636265  1
  Ca2+  Ca36  1  0.41555934  0.16710097  0.16606137  1
  Ca2+  Ca37  1  0.41522317  0.17883995  0.48931805  1
  Ca2+  Ca38  1  0.41542244  0.17290234  0.82917012  1
  Ca2+  Ca39  1  0.42358264  0.66656209  0.15857443  1
  Ca2+  Ca40  1  0.42612201  0.65740452  0.49446147  1
  Ca2+  Ca41  1  0.42425926  0.65726853  0.83210229  1
  Ca2+  Ca42  1  0.91326171  0.16981052  0.16296381  1
  Ca2+  Ca43  1  0.91792251  0.18083619  0.49383023  1
  Ca2+  Ca44  1  0.91600038  0.17205214  0.82894311  1
  Ca2+  Ca45  1  0.90919157  0.67616676  0.16478368  1
  Ca2+  Ca46  1  0.92484903  0.66447515  0.49084262  1
  Ca2+  Ca47  1  0.92277762  0.67121684  0.83002343  1
  Al0+  Al48  1  0.00137138  0.00344661  -0.00227728  1
  Al0+  Al49  1  -0.00112763  0.00027559  0.33170424  1
  Al0+  Al50  1  -0.00028353  0.00156070  0.66615722  1
  Al0+  Al51  1  -0.00061153  0.49988365  0.00292739  1
  Al0+  Al52  1  -0.00025177  0.50062423  0.32977818  1
  Al0+  Al53  1  0.00020054  0.50224735  0.66306520  1
  Al0+  Al54  1  0.50249764  -0.00017756  0.00215455  1
  Al0+  Al55  1  0.50035459  0.00004936  0.34256737  1
  Al0+  Al56  1  0.50148389  -0.00248194  0.66954102  1
  Al0+  Al57  1  0.49944523  0.49817335  0.00349949  1
  Al0+  Al58  1  0.50012521  0.49766270  0.32994357  1
  Al0+  Al59  1  0.50233085  0.49949549  0.66088927  1
  Al0+  Al60  1  0.24794082  0.24940501  0.00640659  1
  Al0+  Al61  1  0.24780537  0.25002497  0.33372645  1
  Al0+  Al62  1  0.24873594  0.24976614  0.66585240  1
  Al0+  Al63  1  0.24860735  0.75106243  0.00034187  1
  Al0+  Al64  1  0.25035431  0.74968240  0.33815205  1
  Al0+  Al65  1  0.25110194  0.75261402  0.66631702  1
  Al0+  Al66  1  0.74979683  0.25120660  0.00629239  1
  Al0+  Al67  1  0.74975617  0.24828398  0.32635757  1
  Al0+  Al68  1  0.75087028  0.24877309  0.66248583  1
  Al0+  Al69  1  0.75059568  0.75007522  -0.00868628  1
  Al0+  Al70  1  0.75014129  0.74903067  0.33552045  1
  Al0+  Al71  1  0.74851908  0.75106845  0.66644024  1
  Al0+  Al72  1  0.57009748  0.67997339  0.32003527  1
  Al0+  Al73  1  0.31967889  0.07056021  0.34861561  1
  Al0+  Al74  1  0.32088944  0.57256452  0.01553686  1
  Al0+  Al75  1  0.92963835  0.82228026  0.98510969  1
  Al0+  Al76  1  0.56969050  0.17611119  0.31707600  1
  Al0+  Al77  1  0.57004107  0.67975475  0.65100842  1
  Al0+  Al78  1  0.67789401  0.42930940  0.01276269  1
  Al0+  Al79  1  0.42876846  0.31918342  0.65496587  1
  Al0+  Al80  1  0.81936790  0.56968663  0.34646168  1
  Al0+  Al81  1  0.82371580  0.07212203  0.01567823  1
  Al0+  Al82  1  0.07184659  0.68066651  0.65334491  1
  Al0+  Al83  1  0.92939750  0.32262823  0.31670448  1
  Al0+  Al84  1  0.68017961  0.92862090  0.34949118  1
  Al0+  Al85  1  0.32255910  0.57079260  0.34877877  1
  Al0+  Al86  1  0.56978468  0.67629014  0.98396820  1
  Al0+  Al87  1  0.68153936  0.92769888  0.01508281  1
  Al0+  Al88  1  0.42653932  0.32058135  0.31518272  1
  Al0+  Al89  1  0.93017312  0.81926512  0.32079473  1
  Al0+  Al90  1  0.42829074  0.82282246  0.98637052  1
  Al0+  Al91  1  0.32488832  0.57209031  0.68236138  1
  Al0+  Al92  1  0.32174183  0.06954140  0.01253297  1
  Al0+  Al93  1  0.92875407  0.32106775  0.65447895  1
  Al0+  Al94  1  0.17700303  0.42882178  0.01679022  1
  Al0+  Al95  1  0.17772136  0.42948840  0.68096796  1
  Si0+  Si96  1  0.07226657  0.18124664  0.98421159  1
  Si0+  Si97  1  0.82126043  0.57222166  0.68124439  1
  Si0+  Si98  1  0.82199537  0.57212350  0.01389328  1
  Si0+  Si99  1  0.17718833  0.92992824  0.68159848  1
  Si0+  Si100  1  0.57187009  0.17987871  0.98518952  1
  Si0+  Si101  1  0.42722839  0.31907187  0.98522820  1
  Si0+  Si102  1  0.67989067  0.92805319  0.68452064  1
  Si0+  Si103  1  0.82338146  0.07288822  0.35220536  1
  Si0+  Si104  1  0.07074792  0.17721726  0.31463126  1
  Si0+  Si105  1  0.92840736  0.82355776  0.64980055  1
  Si0+  Si106  1  0.32067025  0.07032785  0.68152458  1
  Si0+  Si107  1  0.07196041  0.67664716  0.98363672  1
  Si0+  Si108  1  0.67862646  0.42515303  0.35144330  1
  Si0+  Si109  1  0.17675469  0.92764742  0.01536205  1
  Si0+  Si110  1  0.42805863  0.82550001  0.64880998  1
  Si0+  Si111  1  0.17747244  0.42906038  0.35061948  1
  Si0+  Si112  1  0.07201362  0.17614208  0.64941124  1
  Si0+  Si113  1  0.07469521  0.67799594  0.31530303  1
  Si0+  Si114  1  0.82072768  0.07178517  0.68052914  1
  Si0+  Si115  1  0.68144731  0.42745005  0.67852621  1
  Si0+  Si116  1  0.17419576  0.92826629  0.35067371  1
  Si0+  Si117  1  0.92829523  0.32137015  0.98502234  1
  Si0+  Si118  1  0.42660643  0.82203232  0.32008976  1
  Si0+  Si119  1  0.57222817  0.17568065  0.65214365  1
  O2-  O120  1  0.25229894  -0.01078852  0.05861085  1
  O2-  O121  1  0.24557674  -0.00545914  0.39525454  1
  O2-  O122  1  0.25007829  -0.00081629  0.72407525  1
  O2-  O123  1  0.24852048  0.50095307  0.06577881  1
  O2-  O124  1  0.24784086  0.49557282  0.39497924  1
  O2-  O125  1  0.25108310  0.50033325  0.73059737  1
  O2-  O126  1  0.75573248  -0.00288823  0.06573536  1
  O2-  O127  1  0.75355703  0.00556819  0.39728959  1
  O2-  O128  1  0.75103247  0.00038524  0.72409009  1
  O2-  O129  1  0.74991641  0.50714208  0.05736033  1
  O2-  O130  1  0.74738732  0.49363331  0.39647145  1
  O2-  O131  1  0.75132510  0.49940266  0.72221144  1
  O2-  O132  1  0.00269069  0.24636579  0.27040172  1
  O2-  O133  1  0.00615255  0.24870293  0.60768563  1
  O2-  O134  1  0.00033139  0.25167171  0.94197787  1
  O2-  O135  1  0.00629452  0.74744941  0.27186847  1
  O2-  O136  1  -0.00399733  0.75425873  0.60582680  1
  O2-  O137  1  0.00462006  0.74735754  0.93924563  1
  O2-  O138  1  0.49834025  0.24773492  0.26556121  1
  O2-  O139  1  0.50148987  0.24199118  0.60892962  1
  O2-  O140  1  0.49970349  0.24931103  0.94179101  1
  O2-  O141  1  0.49189855  0.75131441  0.27517234  1
  O2-  O142  1  0.49185493  0.75186190  0.60594520  1
  O2-  O143  1  0.49492691  0.74662565  0.93439885  1
  O2-  O144  1  0.07317242  0.18032537  0.08881737  1
  O2-  O145  1  0.06922086  0.17554026  0.42060191  1
  O2-  O146  1  0.07012530  0.17065977  0.75493949  1
  O2-  O147  1  0.07032710  0.67680012  0.08900997  1
  O2-  O148  1  0.07329055  0.67899250  0.42128166  1
  O2-  O149  1  0.06793824  0.68300134  0.76655023  1
  O2-  O150  1  0.57110417  0.17993866  0.08948485  1
  O2-  O151  1  0.56686373  0.17842133  0.43170341  1
  O2-  O152  1  0.57350281  0.17599732  0.75809954  1
  O2-  O153  1  0.57116212  0.67702093  0.09726042  1
  O2-  O154  1  0.57106242  0.68271229  0.43356257  1
  O2-  O155  1  0.57316644  0.68046299  0.76361269  1
  O2-  O156  1  0.17734518  0.43119998  0.24509727  1
  O2-  O157  1  0.17703202  0.43108388  0.56765508  1
  O2-  O158  1  0.17659119  0.42883238  0.90305437  1
  O2-  O159  1  0.17037602  0.93071068  0.24550182  1
  O2-  O160  1  0.17462498  0.93287206  0.57674906  1
  O2-  O161  1  0.17411670  0.93261643  0.90923967  1
  O2-  O162  1  0.68004222  0.42657121  0.24574929  1
  O2-  O163  1  0.68377934  0.42506283  0.57395366  1
  O2-  O164  1  0.68064753  0.42644230  0.89856354  1
  O2-  O165  1  0.68165066  0.92689594  0.23712433  1
  O2-  O166  1  0.67980707  0.92782964  0.57953329  1
  O2-  O167  1  0.68218053  0.93148900  0.90060666  1
  O2-  O168  1  0.42759794  0.31726001  0.08972547  1
  O2-  O169  1  0.42747553  0.31947600  0.42940097  1
  O2-  O170  1  0.43093466  0.31696605  0.76863273  1
  O2-  O171  1  0.43278090  0.82462361  0.09977551  1
  O2-  O172  1  0.42807884  0.82189988  0.42619283  1
  O2-  O173  1  0.43175913  0.83406064  0.75365153  1
  O2-  O174  1  0.92934602  0.32076999  0.08966708  1
  O2-  O175  1  0.93168545  0.32178991  0.43035724  1
  O2-  O176  1  0.92495727  0.31735136  0.76771737  1
  O2-  O177  1  0.92986823  0.82072107  0.09815196  1
  O2-  O178  1  0.93276184  0.81749066  0.43437745  1
  O2-  O179  1  0.93016546  0.82505829  0.75541584  1
  O2-  O180  1  0.31891913  0.06833656  0.23568316  1
  O2-  O181  1  0.32011255  0.06926517  0.57666223  1
  O2-  O182  1  0.31836689  0.07206203  0.89864301  1
  O2-  O183  1  0.32050209  0.57288303  0.23608433  1
  O2-  O184  1  0.32446099  0.56920273  0.56874133  1
  O2-  O185  1  0.32138070  0.56846911  0.90185554  1
  O2-  O186  1  0.82564885  0.07045878  0.24713326  1
  O2-  O187  1  0.82098245  0.07248184  0.57591955  1
  O2-  O188  1  0.82079843  0.07352508  0.90081367  1
  O2-  O189  1  0.81706884  0.56982520  0.23340184  1
  O2-  O190  1  0.82097581  0.57321260  0.57628768  1
  O2-  O191  1  0.82571077  0.56789705  0.90766485  1
  O2-  O192  1  0.04516016  0.08404065  0.26812961  1
  O2-  O193  1  0.04229177  0.08477856  0.60000638  1
  O2-  O194  1  0.04621210  0.09016480  0.93355682  1
  O2-  O195  1  0.04865462  0.58534087  0.26923599  1
  O2-  O196  1  0.04047322  0.58584893  0.59699318  1
  O2-  O197  1  0.04219780  0.58395857  0.93688104  1
  O2-  O198  1  0.53954080  0.07647447  0.26828517  1
  O2-  O199  1  0.54791701  0.08101117  0.60772623  1
  O2-  O200  1  0.54518905  0.08822106  0.93666153  1
  O2-  O201  1  0.54491232  0.58169868  0.26836560  1
  O2-  O202  1  0.54582355  0.58231547  0.59587490  1
  O2-  O203  1  0.54164418  0.57628445  0.93169400  1
  O2-  O204  1  0.16424183  0.20241855  0.26920681  1
  O2-  O205  1  0.16636520  0.19761768  0.60383211  1
  O2-  O206  1  0.16360966  0.20962389  0.93504064  1
  O2-  O207  1  0.16851677  0.70458808  0.27072447  1
  O2-  O208  1  0.16800002  0.71307116  0.59881200  1
  O2-  O209  1  0.16540157  0.70084538  0.93678546  1
  O2-  O210  1  0.66894776  0.19977734  0.26492905  1
  O2-  O211  1  0.66473772  0.20129484  0.60449284  1
  O2-  O212  1  0.66376854  0.21011017  0.93803894  1
  O2-  O213  1  0.66596341  0.71294318  0.26739082  1
  O2-  O214  1  0.66657513  0.71495361  0.59782066  1
  O2-  O215  1  0.66766503  0.70435490  0.92866534  1
  O2-  O216  1  0.07809622  0.45624569  0.06962343  1
  O2-  O217  1  0.08383027  0.45707553  0.39532474  1
  O2-  O218  1  0.07860685  0.45948398  0.73321545  1
  O2-  O219  1  0.08715585  0.96274146  0.06335743  1
  O2-  O220  1  0.08261011  0.95790957  0.39997449  1
  O2-  O221  1  0.08588418  0.95977090  0.73032373  1
  O2-  O222  1  0.58187153  0.45504144  0.06874791  1
  O2-  O223  1  0.58443716  0.45042963  0.39550031  1
  O2-  O224  1  0.58984794  0.45568937  0.72560788  1
  O2-  O225  1  0.58489674  0.95921236  0.06813296  1
  O2-  O226  1  0.58510955  0.95879039  0.40795653  1
  O2-  O227  1  0.58805247  0.95564673  0.73220967  1
  O2-  O228  1  0.20310876  0.33050186  0.06987256  1
  O2-  O229  1  0.19691827  0.33338101  0.39479892  1
  O2-  O230  1  0.20153723  0.32817387  0.73185803  1
  O2-  O231  1  0.19023969  0.83174290  0.05939854  1
  O2-  O232  1  0.19753347  0.83422711  0.39689746  1
  O2-  O233  1  0.20219031  0.83815755  0.72958066  1
  O2-  O234  1  0.71125439  0.33589309  0.07010176  1
  O2-  O235  1  0.70479248  0.33063368  0.39541309  1
  O2-  O236  1  0.70894426  0.33527576  0.72691343  1
  O2-  O237  1  0.70923195  0.82740948  0.06337146  1
  O2-  O238  1  0.71580698  0.83442500  0.40558440  1
  O2-  O239  1  0.70893068  0.83705403  0.73246315  1
  O2-  O240  1  0.45805103  0.41724089  0.26165527  1
  O2-  O241  1  0.46317013  0.41281604  0.59856980  1
  O2-  O242  1  0.45604252  0.41048330  0.93837105  1
  O2-  O243  1  0.45520500  0.91587437  0.27794122  1
  O2-  O244  1  0.46043876  0.91684981  0.59982510  1
  O2-  O245  1  0.46088991  0.92060052  0.93156264  1
  O2-  O246  1  0.96050664  0.41840668  0.26149767  1
  O2-  O247  1  0.95627852  0.41792587  0.59984771  1
  O2-  O248  1  0.95472330  0.41400668  0.93782933  1
  O2-  O249  1  0.95799797  0.91695264  0.26749539  1
  O2-  O250  1  0.95468038  0.91715941  0.60366289  1
  O2-  O251  1  0.96157538  0.91953517  0.93147773  1
  O2-  O252  1  0.32698052  0.29261396  0.26534389  1
  O2-  O253  1  0.33211739  0.28942748  0.60059387  1
  O2-  O254  1  0.33540839  0.28825217  0.93925871  1
  O2-  O255  1  0.33072507  0.80310188  0.27625458  1
  O2-  O256  1  0.33182095  0.80902074  0.60544860  1
  O2-  O257  1  0.32551597  0.80471662  0.93675245  1
  O2-  O258  1  0.83285801  0.29316698  0.26309202  1
  O2-  O259  1  0.83457004  0.28685467  0.59692431  1
  O2-  O260  1  0.83626399  0.29215910  0.93800642  1
  O2-  O261  1  0.83509930  0.78513574  0.26752636  1
  O2-  O262  1  0.83402170  0.79838783  0.60632161  1
  O2-  O263  1  0.83549500  0.79193674  0.92636245  1
  O2-  O264  1  0.41886432  0.04326491  0.06652386  1
  O2-  O265  1  0.41411350  0.04046229  0.40723033  1
  O2-  O266  1  0.41343183  0.04322662  0.72827682  1
  O2-  O267  1  0.41790585  0.54135925  0.06833983  1
  O2-  O268  1  0.41961496  0.53741319  0.40061470  1
  O2-  O269  1  0.42381204  0.53977014  0.73246691  1
  O2-  O270  1  0.92471915  0.05056428  0.06515933  1
  O2-  O271  1  0.91662572  0.04592931  0.39923901  1
  O2-  O272  1  0.91344435  0.04570107  0.72808370  1
  O2-  O273  1  0.91309204  0.54455278  0.06299799  1
  O2-  O274  1  0.91797657  0.54047137  0.39865299  1
  O2-  O275  1  0.91280724  0.54525083  0.72874323  1
  O2-  O276  1  0.28547328  0.16245269  0.06869597  1
  O2-  O277  1  0.28500153  0.16628319  0.40303528  1
  O2-  O278  1  0.29250560  0.16164469  0.72928338  1
  O2-  O279  1  0.29398104  0.67215735  0.06725384  1
  O2-  O280  1  0.29362220  0.66815231  0.40367487  1
  O2-  O281  1  0.29939914  0.67350109  0.73092580  1
  O2-  O282  1  0.79425068  0.16930751  0.06857533  1
  O2-  O283  1  0.79844559  0.16802125  0.39582818  1
  O2-  O284  1  0.79227664  0.16333472  0.72902178  1
  O2-  O285  1  0.79995541  0.66767920  0.05549093  1
  O2-  O286  1  0.78855980  0.66448421  0.40382681  1
  O2-  O287  1  0.79254938  0.66406696  0.72869426  1
