# generated using pymatgen
data_Ca2Al2SiO7
_symmetry_space_group_name_H-M   'P 1'
_cell_length_a   15.45447966
_cell_length_b   15.45425611
_cell_length_c   15.28133565
_cell_angle_alpha   89.99016083
_cell_angle_beta   90.00457534
_cell_angle_gamma   90.01793487
_symmetry_Int_Tables_number   1
_chemical_formula_structural   Ca2Al2SiO7
_chemical_formula_sum   'Ca48 Al48 Si24 O168'
_cell_volume   3649.75555620
_cell_formula_units_Z   24
loop_
 _symmetry_equiv_pos_site_id
 _symmetry_equiv_pos_as_xyz
  1  'x, y, z'
loop_
 _atom_type_symbol
 _atom_type_oxidation_number
  Ca2+  2.0
  Al0+  0.0
  Si0+  0.0
  O2-  -2.0
loop_
 _atom_site_type_symbol
 _atom_site_label
 _atom_site_symmetry_multiplicity
 _atom_site_fract_x
 _atom_site_fract_y
 _atom_site_fract_z
 _atom_site_occupancy
  Ca2+  Ca0  1  0.16624003  0.07349496  0.17584812  1
  Ca2+  Ca1  1  0.17218333  0.08936857  0.50432700  1
  Ca2+  Ca2  1  0.16619024  0.08161152  0.83405842  1
  Ca2+  Ca3  1  0.17187958  0.58406772  0.17624464  1
  Ca2+  Ca4  1  0.17126843  0.57547150  0.50239071  1
  Ca2+  Ca5  1  0.17540165  0.58452059  0.83916297  1
  Ca2+  Ca6  1  0.66723556  0.07957624  0.17615321  1
  Ca2+  Ca7  1  0.66601763  0.07355609  0.50553979  1
  Ca2+  Ca8  1  0.67162051  0.07865541  0.83295584  1
  Ca2+  Ca9  1  0.68019354  0.57750724  0.16759370  1
  Ca2+  Ca10  1  0.67296736  0.58850532  0.50329431  1
  Ca2+  Ca11  1  0.67023904  0.58013151  0.84235570  1
  Ca2+  Ca12  1  0.08479205  0.33023774  0.16554237  1
  Ca2+  Ca13  1  0.09307184  0.32702871  0.49599349  1
  Ca2+  Ca14  1  0.07816698  0.33360944  0.82657036  1
  Ca2+  Ca15  1  0.08560785  0.82567985  0.15848793  1
  Ca2+  Ca16  1  0.08429643  0.82846835  0.49036317  1
  Ca2+  Ca17  1  0.08369845  0.83089822  0.83755059  1
  Ca2+  Ca18  1  0.57900359  0.33109176  0.15925414  1
  Ca2+  Ca19  1  0.57785014  0.32345332  0.49096276  1
  Ca2+  Ca20  1  0.57567100  0.34225776  0.83289294  1
  Ca2+  Ca21  1  0.58109873  0.83412831  0.16550554  1
  Ca2+  Ca22  1  0.58522534  0.83469507  0.49714527  1
  Ca2+  Ca23  1  0.58349168  0.82502557  0.82321333  1
  Ca2+  Ca24  1  0.33048472  0.42556720  0.17104785  1
  Ca2+  Ca25  1  0.32156468  0.42222259  0.50325632  1
  Ca2+  Ca26  1  0.32927824  0.42389822  0.83814845  1
  Ca2+  Ca27  1  0.31837158  0.91870998  0.17371597  1
  Ca2+  Ca28  1  0.32731060  0.92789454  0.49897026  1
  Ca2+  Ca29  1  0.32795730  0.92393458  0.83769165  1
  Ca2+  Ca30  1  0.84211264  0.42556897  0.16581581  1
  Ca2+  Ca31  1  0.83572284  0.42291623  0.49913848  1
  Ca2+  Ca32  1  0.82711241  0.42012844  0.84579682  1
  Ca2+  Ca33  1  0.82899869  0.91156793  0.17014735  1
  Ca2+  Ca34  1  0.82313809  0.92200649  0.50565509  1
  Ca2+  Ca35  1  0.83530157  0.91878616  0.83420239  1
  Ca2+  Ca36  1  0.41898595  0.16931473  0.16535430  1
  Ca2+  Ca37  1  0.41693951  0.16079337  0.49075098  1
  Ca2+  Ca38  1  0.41159568  0.17384537  0.82936553  1
  Ca2+  Ca39  1  0.41181290  0.66329716  0.16094029  1
  Ca2+  Ca40  1  0.41890699  0.66056931  0.49803418  1
  Ca2+  Ca41  1  0.42001994  0.66131637  0.82610230  1
  Ca2+  Ca42  1  0.92362765  0.17259750  0.16143361  1
  Ca2+  Ca43  1  0.92777311  0.16330280  0.49648627  1
  Ca2+  Ca44  1  0.92077542  0.17069264  0.82600687  1
  Ca2+  Ca45  1  0.92757639  0.66547583  0.15922131  1
  Ca2+  Ca46  1  0.92293849  0.66735550  0.48971849  1
  Ca2+  Ca47  1  0.91874036  0.66811564  0.83499177  1
  Al0+  Al48  1  -0.00051966  -0.00186763  0.00052992  1
  Al0+  Al49  1  -0.00261140  -0.00030551  0.33130875  1
  Al0+  Al50  1  -0.00087566  0.00089056  0.66477097  1
  Al0+  Al51  1  0.00176275  0.49853608  -0.00653959  1
  Al0+  Al52  1  0.00003398  0.50116532  0.33799758  1
  Al0+  Al53  1  -0.00114649  0.50020120  0.66926936  1
  Al0+  Al54  1  0.50091745  0.00026963  -0.00180806  1
  Al0+  Al55  1  0.50002636  -0.00155734  0.33405753  1
  Al0+  Al56  1  0.49826413  -0.00093635  0.67592984  1
  Al0+  Al57  1  0.49994634  0.49805619  0.00435664  1
  Al0+  Al58  1  0.50196301  0.49979752  0.33501077  1
  Al0+  Al59  1  0.50019057  0.50074695  0.66081813  1
  Al0+  Al60  1  0.25366995  0.25039868  -0.00452356  1
  Al0+  Al61  1  0.25044614  0.25116610  0.33198169  1
  Al0+  Al62  1  0.24811696  0.25098905  0.67164335  1
  Al0+  Al63  1  0.25097715  0.75197599  0.00159895  1
  Al0+  Al64  1  0.25180446  0.75140764  0.33819386  1
  Al0+  Al65  1  0.25091168  0.75086738  0.66728669  1
  Al0+  Al66  1  0.75000630  0.24703918  -0.00070684  1
  Al0+  Al67  1  0.74961061  0.25063288  0.32822738  1
  Al0+  Al68  1  0.74944824  0.25081043  0.66807043  1
  Al0+  Al69  1  0.75090242  0.75012270  0.00028021  1
  Al0+  Al70  1  0.74875552  0.74947830  0.34006336  1
  Al0+  Al71  1  0.74923748  0.74983231  0.66520411  1
  Al0+  Al72  1  0.67932661  0.93016119  0.34615491  1
  Al0+  Al73  1  0.67849268  0.42673589  0.01517041  1
  Al0+  Al74  1  0.82204383  0.07169475  0.68138086  1
  Al0+  Al75  1  0.92750551  0.82099909  0.98426146  1
  Al0+  Al76  1  0.32376639  0.57299698  0.34917720  1
  Al0+  Al77  1  0.07184590  0.68039233  0.32166183  1
  Al0+  Al78  1  0.32003017  0.07149245  0.68175514  1
  Al0+  Al79  1  0.31888561  0.07061197  0.34500361  1
  Al0+  Al80  1  0.82318756  0.57130882  0.01398973  1
  Al0+  Al81  1  0.43125799  0.32076096  0.98548995  1
  Al0+  Al82  1  0.67925727  0.92789545  0.68417511  1
  Al0+  Al83  1  0.17489712  0.92884453  0.34862009  1
  Al0+  Al84  1  0.57039136  0.67934077  0.65194168  1
  Al0+  Al85  1  0.31968376  0.57032111  0.01335865  1
  Al0+  Al86  1  0.17786371  0.42946995  0.68474045  1
  Al0+  Al87  1  0.17813350  0.42920532  0.34670560  1
  Al0+  Al88  1  0.57035593  0.17716984  0.32055045  1
  Al0+  Al89  1  0.06964387  0.18069566  0.65296685  1
  Al0+  Al90  1  0.92931818  0.32011274  0.98619103  1
  Al0+  Al91  1  0.17949285  0.93170281  0.01317455  1
  Al0+  Al92  1  0.07211636  0.17846133  0.31904431  1
  Al0+  Al93  1  0.82012550  0.56968130  0.34751800  1
  Al0+  Al94  1  0.07414093  0.67839200  0.98423694  1
  Al0+  Al95  1  0.32177172  0.57084665  0.68219189  1
  Si0+  Si96  1  0.57038200  0.17826703  0.65331129  1
  Si0+  Si97  1  0.57296344  0.67779511  0.31652308  1
  Si0+  Si98  1  0.92534189  0.32394158  0.64867964  1
  Si0+  Si99  1  0.57273679  0.17501426  0.98025058  1
  Si0+  Si100  1  0.67816575  0.92870936  0.01521914  1
  Si0+  Si101  1  0.92773987  0.32271674  0.31676220  1
  Si0+  Si102  1  0.17783957  0.42569671  0.01568382  1
  Si0+  Si103  1  0.56972790  0.68030732  0.98813432  1
  Si0+  Si104  1  0.07224285  0.17721664  0.98366490  1
  Si0+  Si105  1  0.07126266  0.67871542  0.65114418  1
  Si0+  Si106  1  0.92546298  0.82080003  0.31843397  1
  Si0+  Si107  1  0.82056208  0.57136235  0.68196900  1
  Si0+  Si108  1  0.17628177  0.92696059  0.68316612  1
  Si0+  Si109  1  0.82155051  0.07546555  0.34843563  1
  Si0+  Si110  1  0.42901523  0.32047261  0.65033780  1
  Si0+  Si111  1  0.32364926  0.07375390  0.01728682  1
  Si0+  Si112  1  0.42910518  0.82264780  0.98507794  1
  Si0+  Si113  1  0.92905037  0.82052238  0.64981808  1
  Si0+  Si114  1  0.67805900  0.42633651  0.35063331  1
  Si0+  Si115  1  0.42728649  0.82423307  0.64921998  1
  Si0+  Si116  1  0.67888476  0.42888809  0.67919714  1
  Si0+  Si117  1  0.43110738  0.82002337  0.31817913  1
  Si0+  Si118  1  0.42888175  0.32328433  0.31635142  1
  Si0+  Si119  1  0.82114986  0.07013382  0.01604810  1
  O2-  O120  1  0.25242435  0.00783393  0.06022521  1
  O2-  O121  1  0.24137020  0.00632704  0.39794762  1
  O2-  O122  1  0.24502143  -0.00375823  0.72682591  1
  O2-  O123  1  0.24210574  0.49870684  0.05944451  1
  O2-  O124  1  0.25000633  0.50185923  0.39644064  1
  O2-  O125  1  0.24837459  0.50269142  0.73475697  1
  O2-  O126  1  0.74902768  -0.00051925  0.05765789  1
  O2-  O127  1  0.75255949  0.00649593  0.39165364  1
  O2-  O128  1  0.75129906  -0.00034018  0.73409558  1
  O2-  O129  1  0.75499686  0.49490211  0.06370806  1
  O2-  O130  1  0.74550775  0.49538371  0.39603444  1
  O2-  O131  1  0.75014521  0.49909453  0.72220505  1
  O2-  O132  1  -0.00357187  0.25317030  0.27358780  1
  O2-  O133  1  -0.00528291  0.25563675  0.60552173  1
  O2-  O134  1  0.00616456  0.24805207  0.93889492  1
  O2-  O135  1  -0.00106437  0.75724331  0.27492017  1
  O2-  O136  1  0.00115092  0.75053395  0.60812959  1
  O2-  O137  1  -0.00117963  0.74805110  0.93418001  1
  O2-  O138  1  0.49754729  0.25331296  0.27353454  1
  O2-  O139  1  0.49767002  0.24635551  0.60899164  1
  O2-  O140  1  0.50568579  0.24580792  0.93686547  1
  O2-  O141  1  0.49808825  0.74478778  0.27451028  1
  O2-  O142  1  0.49536955  0.75430633  0.60537127  1
  O2-  O143  1  0.49924333  0.75059953  0.94364236  1
  O2-  O144  1  0.07040057  0.17693742  0.08937441  1
  O2-  O145  1  0.07094842  0.17960463  0.43215931  1
  O2-  O146  1  0.06724079  0.18077945  0.76628539  1
  O2-  O147  1  0.07543168  0.68056316  0.09795072  1
  O2-  O148  1  0.06808196  0.68068945  0.43545060  1
  O2-  O149  1  0.07011988  0.67951243  0.75603142  1
  O2-  O150  1  0.57068453  0.17062485  0.08579307  1
  O2-  O151  1  0.56923136  0.17787342  0.43426396  1
  O2-  O152  1  0.57140080  0.18146262  0.75832170  1
  O2-  O153  1  0.56988185  0.68325395  0.09336901  1
  O2-  O154  1  0.57439879  0.67993191  0.42158001  1
  O2-  O155  1  0.57082570  0.67866186  0.76566591  1
  O2-  O156  1  0.17881895  0.42958561  0.23282896  1
  O2-  O157  1  0.17945890  0.42951927  0.57132364  1
  O2-  O158  1  0.18119745  0.42414079  0.91022029  1
  O2-  O159  1  0.17830318  0.92754496  0.23495890  1
  O2-  O160  1  0.17683823  0.92617688  0.57786594  1
  O2-  O161  1  0.18212106  0.93335546  0.89967610  1
  O2-  O162  1  0.67736966  0.42742775  0.24551820  1
  O2-  O163  1  0.68032429  0.42776285  0.57409670  1
  O2-  O164  1  0.67691548  0.43225328  0.90076275  1
  O2-  O165  1  0.68031991  0.92945850  0.23244157  1
  O2-  O166  1  0.67987820  0.92970967  0.57052876  1
  O2-  O167  1  0.67650843  0.92921322  0.91054149  1
  O2-  O168  1  0.43215054  0.31866993  0.09840211  1
  O2-  O169  1  0.43135234  0.32336883  0.42233127  1
  O2-  O170  1  0.43276789  0.32200420  0.75558492  1
  O2-  O171  1  0.43123631  0.82473576  0.09027153  1
  O2-  O172  1  0.43430501  0.82281056  0.42300374  1
  O2-  O173  1  0.42842280  0.82387479  0.75532179  1
  O2-  O174  1  0.93020700  0.31727530  0.09936797  1
  O2-  O175  1  0.92401043  0.32101615  0.42235812  1
  O2-  O176  1  0.92385832  0.32338518  0.75427575  1
  O2-  O177  1  0.92623966  0.82128622  0.09774309  1
  O2-  O178  1  0.92346709  0.81797750  0.42445699  1
  O2-  O179  1  0.92819424  0.81914708  0.75476430  1
  O2-  O180  1  0.32057221  0.06647693  0.23143185  1
  O2-  O181  1  0.32168412  0.07088209  0.56892292  1
  O2-  O182  1  0.32424019  0.07185267  0.91138894  1
  O2-  O183  1  0.32412124  0.57097094  0.23531984  1
  O2-  O184  1  0.32152646  0.56808568  0.56911208  1
  O2-  O185  1  0.32249096  0.56928374  0.90046900  1
  O2-  O186  1  0.82021233  0.07549471  0.24251965  1
  O2-  O187  1  0.82028464  0.07010983  0.56772680  1
  O2-  O188  1  0.82045875  0.07022457  0.91106950  1
  O2-  O189  1  0.82034578  0.56971428  0.23490585  1
  O2-  O190  1  0.82074446  0.57125661  0.57672094  1
  O2-  O191  1  0.81708270  0.57275616  0.89995702  1
  O2-  O192  1  0.03972034  0.08185073  0.26445080  1
  O2-  O193  1  0.03995689  0.08354655  0.59826366  1
  O2-  O194  1  0.04283559  0.08490793  0.93762695  1
  O2-  O195  1  0.03866079  0.58382862  0.26922124  1
  O2-  O196  1  0.04060780  0.58692014  0.60509519  1
  O2-  O197  1  0.05015697  0.57959122  0.93026851  1
  O2-  O198  1  0.53905056  0.08124527  0.26503445  1
  O2-  O199  1  0.54344573  0.08430125  0.61002328  1
  O2-  O200  1  0.54480219  0.08238678  0.93189579  1
  O2-  O201  1  0.55054986  0.58379055  0.27101606  1
  O2-  O202  1  0.54197289  0.58329288  0.59435696  1
  O2-  O203  1  0.54227441  0.58799565  0.94219052  1
  O2-  O204  1  0.16839577  0.20866042  0.26368678  1
  O2-  O205  1  0.16730206  0.21216324  0.60086660  1
  O2-  O206  1  0.16774069  0.19857578  0.93964058  1
  O2-  O207  1  0.17044199  0.70887658  0.27044921  1
  O2-  O208  1  0.16408446  0.70535481  0.60517957  1
  O2-  O209  1  0.17079166  0.71392466  0.93022382  1
  O2-  O210  1  0.66687508  0.20642008  0.26468410  1
  O2-  O211  1  0.66169261  0.20757515  0.60524789  1
  O2-  O212  1  0.66745588  0.19685299  0.93558841  1
  O2-  O213  1  0.66335860  0.71111951  0.26951953  1
  O2-  O214  1  0.66709855  0.71066815  0.59692851  1
  O2-  O215  1  0.66080287  0.70860594  0.93960275  1
  O2-  O216  1  0.08190711  0.44481713  0.05791311  1
  O2-  O217  1  0.08075439  0.45509341  0.40251104  1
  O2-  O218  1  0.07768568  0.45600703  0.73534235  1
  O2-  O219  1  0.08209243  0.95866808  0.06717455  1
  O2-  O220  1  0.07320338  0.94894178  0.39783318  1
  O2-  O221  1  0.08283485  0.95319556  0.72837159  1
  O2-  O222  1  0.58333199  0.45940664  0.07105300  1
  O2-  O223  1  0.58482113  0.45059413  0.39777685  1
  O2-  O224  1  0.58715522  0.45861034  0.72509987  1
  O2-  O225  1  0.58595810  0.95697508  0.06257520  1
  O2-  O226  1  0.58395348  0.96073093  0.40145623  1
  O2-  O227  1  0.58145016  0.95468191  0.73849708  1
  O2-  O228  1  0.20844137  0.33284811  0.06126018  1
  O2-  O229  1  0.20940181  0.33190608  0.40023498  1
  O2-  O230  1  0.20691371  0.33235861  0.73866438  1
  O2-  O231  1  0.21408820  0.83696215  0.06783131  1
  O2-  O232  1  0.21052866  0.83434811  0.40409177  1
  O2-  O233  1  0.20284466  0.83415837  0.73030306  1
  O2-  O234  1  0.70026858  0.32505991  0.06380234  1
  O2-  O235  1  0.70447511  0.33245955  0.39631848  1
  O2-  O236  1  0.70354132  0.33756706  0.72889304  1
  O2-  O237  1  0.70506242  0.83714317  0.06324778  1
  O2-  O238  1  0.70940799  0.83509921  0.40284804  1
  O2-  O239  1  0.70908465  0.82899148  0.73528052  1
  O2-  O240  1  0.45767095  0.41627065  0.26990568  1
  O2-  O241  1  0.46029363  0.40975149  0.60038822  1
  O2-  O242  1  0.46467210  0.41699095  0.93083661  1
  O2-  O243  1  0.46431140  0.90863398  0.26755098  1
  O2-  O244  1  0.45574124  0.91793349  0.60457886  1
  O2-  O245  1  0.45819804  0.91375767  0.93599939  1
  O2-  O246  1  0.95555734  0.41616618  0.27223434  1
  O2-  O247  1  0.95027271  0.41865254  0.60375105  1
  O2-  O248  1  0.95473512  0.41647696  0.92903745  1
  O2-  O249  1  0.94199070  0.91670388  0.27370733  1
  O2-  O250  1  0.95462469  0.91278873  0.60243489  1
  O2-  O251  1  0.95766040  0.91920629  0.93052866  1
  O2-  O252  1  0.33596040  0.29900052  0.26929829  1
  O2-  O253  1  0.33594134  0.29360969  0.60660359  1
  O2-  O254  1  0.33572039  0.29047218  0.92778341  1
  O2-  O255  1  0.33814376  0.79544914  0.27140255  1
  O2-  O256  1  0.33294238  0.80113534  0.60334770  1
  O2-  O257  1  0.33787980  0.79665133  0.93685534  1
  O2-  O258  1  0.83457820  0.29886604  0.26826967  1
  O2-  O259  1  0.83125666  0.29904632  0.60237119  1
  O2-  O260  1  0.83232408  0.28784372  0.93234216  1
  O2-  O261  1  0.83283795  0.78998557  0.27270276  1
  O2-  O262  1  0.83770365  0.79090689  0.60226129  1
  O2-  O263  1  0.82836688  0.79402784  0.93024706  1
  O2-  O264  1  0.41754198  0.04542930  0.06127448  1
  O2-  O265  1  0.41483566  0.03519216  0.39911562  1
  O2-  O266  1  0.41479945  0.04158710  0.73997048  1
  O2-  O267  1  0.41485373  0.53755487  0.06857318  1
  O2-  O268  1  0.42305241  0.54409494  0.40086557  1
  O2-  O269  1  0.42156208  0.54016244  0.73177934  1
  O2-  O270  1  0.91223064  0.04195237  0.06411620  1
  O2-  O271  1  0.91433387  0.04864196  0.39469135  1
  O2-  O272  1  0.91991243  0.04226976  0.73480170  1
  O2-  O273  1  0.92352441  0.54386302  0.06328328  1
  O2-  O274  1  0.91460349  0.53886586  0.40503577  1
  O2-  O275  1  0.91200728  0.54544240  0.73002913  1
  O2-  O276  1  0.30218554  0.16893927  0.06080710  1
  O2-  O277  1  0.29943782  0.17123856  0.39605801  1
  O2-  O278  1  0.28887054  0.16677160  0.73729445  1
  O2-  O279  1  0.29464500  0.66894070  0.06569499  1
  O2-  O280  1  0.29977004  0.67154518  0.40236988  1
  O2-  O281  1  0.29806832  0.67198825  0.73225530  1
  O2-  O282  1  0.79344436  0.16106482  0.06467196  1
  O2-  O283  1  0.79684700  0.16917201  0.39387058  1
  O2-  O284  1  0.79273666  0.17043335  0.73424394  1
  O2-  O285  1  0.79038780  0.66829041  0.06755789  1
  O2-  O286  1  0.78669402  0.66404171  0.40453016  1
  O2-  O287  1  0.79137711  0.66268025  0.72824159  1
