# generated using pymatgen
data_Ca2Al2SiO7
_symmetry_space_group_name_H-M   'P 1'
_cell_length_a   15.46325258
_cell_length_b   15.46012561
_cell_length_c   15.28488694
_cell_angle_alpha   89.99311005
_cell_angle_beta   90.03402976
_cell_angle_gamma   90.00667829
_symmetry_Int_Tables_number   1
_chemical_formula_structural   Ca2Al2SiO7
_chemical_formula_sum   'Ca48 Al48 Si24 O168'
_cell_volume   3654.06287546
_cell_formula_units_Z   24
loop_
 _symmetry_equiv_pos_site_id
 _symmetry_equiv_pos_as_xyz
  1  'x, y, z'
loop_
 _atom_type_symbol
 _atom_type_oxidation_number
  Ca2+  2.0
  Al0+  0.0
  Si0+  0.0
  O2-  -2.0
loop_
 _atom_site_type_symbol
 _atom_site_label
 _atom_site_symmetry_multiplicity
 _atom_site_fract_x
 _atom_site_fract_y
 _atom_site_fract_z
 _atom_site_occupancy
  Ca2+  Ca0  1  0.16232857  0.07346967  0.17450274  1
  Ca2+  Ca1  1  0.16731908  0.07998155  0.51284931  1
  Ca2+  Ca2  1  0.16497468  0.07692672  0.83581301  1
  Ca2+  Ca3  1  0.17231153  0.57724993  0.17542597  1
  Ca2+  Ca4  1  0.17595567  0.57529755  0.50915537  1
  Ca2+  Ca5  1  0.16836793  0.58549010  0.83444819  1
  Ca2+  Ca6  1  0.65788103  0.07735883  0.17045589  1
  Ca2+  Ca7  1  0.65807145  0.07496451  0.50661733  1
  Ca2+  Ca8  1  0.65482975  0.07501300  0.83746635  1
  Ca2+  Ca9  1  0.66671714  0.57893030  0.16254605  1
  Ca2+  Ca10  1  0.66752266  0.58311959  0.50763532  1
  Ca2+  Ca11  1  0.67069864  0.58315611  0.84542779  1
  Ca2+  Ca12  1  0.08280262  0.33063068  0.16243729  1
  Ca2+  Ca13  1  0.09599995  0.32497572  0.49821900  1
  Ca2+  Ca14  1  0.07626077  0.33503770  0.82559039  1
  Ca2+  Ca15  1  0.08772474  0.82883154  0.15768803  1
  Ca2+  Ca16  1  0.09449479  0.83116229  0.49848314  1
  Ca2+  Ca17  1  0.09102539  0.82576013  0.82882971  1
  Ca2+  Ca18  1  0.57969708  0.32475193  0.15271788  1
  Ca2+  Ca19  1  0.57980794  0.31901620  0.49445756  1
  Ca2+  Ca20  1  0.58067536  0.32763101  0.83081361  1
  Ca2+  Ca21  1  0.58417689  0.83163716  0.15889297  1
  Ca2+  Ca22  1  0.58501831  0.83199785  0.49824811  1
  Ca2+  Ca23  1  0.59194656  0.82545737  0.82741123  1
  Ca2+  Ca24  1  0.33365565  0.42164164  0.17219005  1
  Ca2+  Ca25  1  0.32547867  0.42383568  0.50527987  1
  Ca2+  Ca26  1  0.33178246  0.41740140  0.83351414  1
  Ca2+  Ca27  1  0.32254589  0.91574361  0.16898645  1
  Ca2+  Ca28  1  0.32255772  0.92394933  0.50744067  1
  Ca2+  Ca29  1  0.32586630  0.92225724  0.83205831  1
  Ca2+  Ca30  1  0.83425348  0.41750441  0.16027007  1
  Ca2+  Ca31  1  0.83152694  0.41737320  0.50260021  1
  Ca2+  Ca32  1  0.82798097  0.42094454  0.84501584  1
  Ca2+  Ca33  1  0.82033882  0.91663643  0.16885774  1
  Ca2+  Ca34  1  0.82212013  0.91793187  0.50394201  1
  Ca2+  Ca35  1  0.82355296  0.91865805  0.83756097  1
  Ca2+  Ca36  1  0.42514744  0.17325903  0.15993147  1
  Ca2+  Ca37  1  0.42309961  0.15605250  0.49904293  1
  Ca2+  Ca38  1  0.42215118  0.16772390  0.83079696  1
  Ca2+  Ca39  1  0.41989174  0.66673809  0.15985806  1
  Ca2+  Ca40  1  0.41500928  0.66188913  0.50045980  1
  Ca2+  Ca41  1  0.42742364  0.66611149  0.82644002  1
  Ca2+  Ca42  1  0.92287250  0.17183244  0.16350941  1
  Ca2+  Ca43  1  0.93000787  0.16497635  0.49770425  1
  Ca2+  Ca44  1  0.91959494  0.17324848  0.83037309  1
  Ca2+  Ca45  1  0.92385711  0.66648082  0.15602915  1
  Ca2+  Ca46  1  0.92502833  0.66958223  0.50095549  1
  Ca2+  Ca47  1  0.92794831  0.66214267  0.83102462  1
  Al0+  Al48  1  -0.00160645  -0.00179882  0.00505074  1
  Al0+  Al49  1  -0.00387305  -0.00129153  0.33231908  1
  Al0+  Al50  1  -0.00441168  0.00075329  0.66796736  1
  Al0+  Al51  1  0.00085090  0.49967327  -0.00339724  1
  Al0+  Al52  1  -0.00044242  0.50003029  0.33756186  1
  Al0+  Al53  1  -0.00111884  0.50258107  0.66276493  1
  Al0+  Al54  1  0.49610857  0.00017637  0.00212781  1
  Al0+  Al55  1  0.49827726  -0.00400358  0.33165925  1
  Al0+  Al56  1  0.49766810  -0.00227317  0.67125037  1
  Al0+  Al57  1  0.50009422  0.50035653  -0.00348423  1
  Al0+  Al58  1  0.50270357  0.49999037  0.33712477  1
  Al0+  Al59  1  0.50023036  0.49922921  0.66385814  1
  Al0+  Al60  1  0.25197789  0.24963490  -0.00268332  1
  Al0+  Al61  1  0.25218735  0.24915874  0.32956108  1
  Al0+  Al62  1  0.24931153  0.25208438  0.67172752  1
  Al0+  Al63  1  0.25096447  0.75014922  -0.00040387  1
  Al0+  Al64  1  0.25249447  0.75049222  0.33898609  1
  Al0+  Al65  1  0.25189275  0.74942375  0.66842181  1
  Al0+  Al66  1  0.75177035  0.24876520  -0.00414976  1
  Al0+  Al67  1  0.75226365  0.24926657  0.32940306  1
  Al0+  Al68  1  0.74918574  0.24970064  0.66024487  1
  Al0+  Al69  1  0.75243355  0.75167105  0.00530076  1
  Al0+  Al70  1  0.75084112  0.74993321  0.33661491  1
  Al0+  Al71  1  0.75080108  0.74978117  0.66478762  1
  Al0+  Al72  1  0.17806254  0.42703844  0.34723403  1
  Al0+  Al73  1  0.42791936  0.32321900  0.98353675  1
  Al0+  Al74  1  0.07215263  0.67979597  0.98794665  1
  Al0+  Al75  1  0.57060803  0.17703291  0.31923649  1
  Al0+  Al76  1  0.07253515  0.68100779  0.65078148  1
  Al0+  Al77  1  0.06999725  0.18001436  0.65590319  1
  Al0+  Al78  1  0.07220992  0.17830387  0.32018933  1
  Al0+  Al79  1  0.17726463  0.43039089  0.68406465  1
  Al0+  Al80  1  0.67808054  0.92995675  0.34816070  1
  Al0+  Al81  1  0.56839697  0.17786668  0.65213322  1
  Al0+  Al82  1  0.17532302  0.92966345  0.68226557  1
  Al0+  Al83  1  0.17632524  0.93023396  0.34673007  1
  Al0+  Al84  1  0.93117624  0.32033035  0.98659558  1
  Al0+  Al85  1  0.67974189  0.92961934  0.68040236  1
  Al0+  Al86  1  0.17961440  0.92952758  0.01433174  1
  Al0+  Al87  1  0.32356941  0.57112280  0.34810418  1
  Al0+  Al88  1  0.67788861  0.42802120  0.01338830  1
  Al0+  Al89  1  0.82339764  0.57099942  0.01473400  1
  Al0+  Al90  1  0.67793597  0.93088300  0.01385101  1
  Al0+  Al91  1  0.57228462  0.67868565  0.65218173  1
  Al0+  Al92  1  0.57189934  0.68236519  0.98853778  1
  Al0+  Al93  1  0.57111504  0.17716986  0.98437037  1
  Al0+  Al94  1  0.32306995  0.57073554  0.68495892  1
  Al0+  Al95  1  0.32104897  0.07305220  0.68284386  1
  Si0+  Si96  1  0.82323714  0.07285581  0.01830960  1
  Si0+  Si97  1  0.42720459  0.32260809  0.64759689  1
  Si0+  Si98  1  0.42886749  0.82098192  0.64873727  1
  Si0+  Si99  1  0.07191045  0.17561420  0.98472907  1
  Si0+  Si100  1  0.42891933  0.81832577  0.31758310  1
  Si0+  Si101  1  0.92836364  0.32454449  0.31529517  1
  Si0+  Si102  1  0.92643741  0.81957715  0.31718905  1
  Si0+  Si103  1  0.68048056  0.42743132  0.34817183  1
  Si0+  Si104  1  0.43091723  0.32392947  0.31694345  1
  Si0+  Si105  1  0.92727717  0.32345716  0.64797194  1
  Si0+  Si106  1  0.82093973  0.07365060  0.35102591  1
  Si0+  Si107  1  0.92699867  0.82199235  0.64938219  1
  Si0+  Si108  1  0.57364715  0.67811190  0.31793462  1
  Si0+  Si109  1  0.82040980  0.07442610  0.68363263  1
  Si0+  Si110  1  0.67999365  0.42712043  0.67906016  1
  Si0+  Si111  1  0.42660291  0.82188648  0.98259458  1
  Si0+  Si112  1  0.32074971  0.07055992  0.34736995  1
  Si0+  Si113  1  0.81950368  0.57077890  0.68063837  1
  Si0+  Si114  1  0.17872785  0.42812057  0.01387640  1
  Si0+  Si115  1  0.82107837  0.57151827  0.35006126  1
  Si0+  Si116  1  0.07115070  0.68087319  0.31985059  1
  Si0+  Si117  1  0.32100964  0.57069581  0.01393059  1
  Si0+  Si118  1  0.32044510  0.07410932  0.01994195  1
  Si0+  Si119  1  0.92821410  0.82293380  0.98394346  1
  O2-  O120  1  0.24941221  0.00724590  0.06352385  1
  O2-  O121  1  0.24406130  0.01136211  0.39210959  1
  O2-  O122  1  0.24413571  0.00497340  0.73151981  1
  O2-  O123  1  0.25105985  0.49823262  0.05585582  1
  O2-  O124  1  0.25005460  0.49972463  0.39584448  1
  O2-  O125  1  0.24894091  0.50165395  0.73585950  1
  O2-  O126  1  0.74911476  0.00891207  0.06141318  1
  O2-  O127  1  0.74808173  0.00891817  0.39491439  1
  O2-  O128  1  0.74959497  0.00817081  0.72772829  1
  O2-  O129  1  0.74960830  0.50037610  0.06507732  1
  O2-  O130  1  0.75058596  0.49934978  0.39147098  1
  O2-  O131  1  0.74907783  0.49942862  0.72155405  1
  O2-  O132  1  0.00049876  0.25727211  0.27449440  1
  O2-  O133  1  -0.00127765  0.25694420  0.60566632  1
  O2-  O134  1  0.00601381  0.24619394  0.93997999  1
  O2-  O135  1  0.00185501  0.75259737  0.27554921  1
  O2-  O136  1  0.00223671  0.76062071  0.60406301  1
  O2-  O137  1  -0.00232752  0.75485331  0.94081215  1
  O2-  O138  1  0.49937264  0.25489331  0.27308253  1
  O2-  O139  1  0.49231388  0.25007960  0.60314094  1
  O2-  O140  1  0.50179057  0.25210359  0.93511870  1
  O2-  O141  1  0.50018132  0.74651603  0.27639941  1
  O2-  O142  1  0.49713694  0.75162009  0.60357223  1
  O2-  O143  1  0.50123116  0.75929834  0.93948437  1
  O2-  O144  1  0.07001030  0.17599447  0.09077366  1
  O2-  O145  1  0.06984180  0.17736972  0.43318287  1
  O2-  O146  1  0.06428162  0.17956639  0.76884551  1
  O2-  O147  1  0.07274109  0.68040767  0.10195758  1
  O2-  O148  1  0.06843965  0.68206988  0.42465724  1
  O2-  O149  1  0.06866401  0.67947076  0.76379206  1
  O2-  O150  1  0.56744357  0.17728865  0.09852920  1
  O2-  O151  1  0.56795508  0.17709526  0.43253525  1
  O2-  O152  1  0.57037092  0.18088554  0.76443440  1
  O2-  O153  1  0.56837868  0.68209452  0.10240482  1
  O2-  O154  1  0.57598853  0.67911549  0.42288299  1
  O2-  O155  1  0.57561034  0.68064937  0.76502402  1
  O2-  O156  1  0.17691950  0.43065990  0.23292227  1
  O2-  O157  1  0.17901845  0.43065926  0.57035290  1
  O2-  O158  1  0.17718000  0.42940453  0.90935939  1
  O2-  O159  1  0.17988319  0.92729984  0.23344268  1
  O2-  O160  1  0.17815679  0.93179711  0.56828058  1
  O2-  O161  1  0.18093889  0.92956994  0.90185927  1
  O2-  O162  1  0.67959563  0.42883678  0.24359712  1
  O2-  O163  1  0.68344087  0.42742006  0.57314657  1
  O2-  O164  1  0.67979820  0.43035848  0.89954269  1
  O2-  O165  1  0.67994840  0.92807161  0.23521139  1
  O2-  O166  1  0.68188727  0.92940511  0.56691680  1
  O2-  O167  1  0.68173214  0.92931959  0.90094251  1
  O2-  O168  1  0.42729955  0.32222952  0.09786225  1
  O2-  O169  1  0.43308430  0.32550597  0.42224750  1
  O2-  O170  1  0.43192858  0.32537644  0.75281287  1
  O2-  O171  1  0.42417672  0.81797529  0.08883414  1
  O2-  O172  1  0.42950540  0.82036361  0.42228067  1
  O2-  O173  1  0.43067742  0.82071036  0.75432482  1
  O2-  O174  1  0.93510025  0.32019209  0.09999369  1
  O2-  O175  1  0.92362152  0.32464859  0.42069309  1
  O2-  O176  1  0.92472354  0.32319075  0.75335142  1
  O2-  O177  1  0.92911460  0.82224520  0.09005521  1
  O2-  O178  1  0.92237679  0.81621030  0.42207661  1
  O2-  O179  1  0.92251071  0.81744304  0.75451485  1
  O2-  O180  1  0.32204963  0.06655936  0.24186767  1
  O2-  O181  1  0.32169530  0.06886506  0.56850567  1
  O2-  O182  1  0.32047499  0.07362224  0.91472946  1
  O2-  O183  1  0.32301657  0.57149784  0.23372055  1
  O2-  O184  1  0.32247214  0.56733056  0.57122959  1
  O2-  O185  1  0.32004381  0.57284310  0.90955011  1
  O2-  O186  1  0.82241185  0.07224822  0.24563333  1
  O2-  O187  1  0.82121599  0.07329053  0.57787189  1
  O2-  O188  1  0.82882632  0.06936402  0.91301013  1
  O2-  O189  1  0.82255214  0.57314622  0.24552748  1
  O2-  O190  1  0.81860799  0.57015987  0.57471103  1
  O2-  O191  1  0.82319047  0.56959558  0.90096590  1
  O2-  O192  1  0.03585366  0.08263677  0.26589991  1
  O2-  O193  1  0.03581822  0.08394912  0.60112135  1
  O2-  O194  1  0.04248667  0.08230121  0.94050734  1
  O2-  O195  1  0.04140376  0.58829190  0.27461249  1
  O2-  O196  1  0.03466623  0.58707479  0.59475303  1
  O2-  O197  1  0.04082301  0.58469920  0.93255552  1
  O2-  O198  1  0.53726452  0.08045456  0.26664534  1
  O2-  O199  1  0.53747796  0.07955745  0.60091816  1
  O2-  O200  1  0.53729809  0.07933591  0.93308238  1
  O2-  O201  1  0.54863587  0.58455500  0.27239708  1
  O2-  O202  1  0.54432771  0.58119428  0.59738521  1
  O2-  O203  1  0.54128306  0.58653737  0.93446813  1
  O2-  O204  1  0.16991281  0.20319917  0.26475714  1
  O2-  O205  1  0.16829918  0.20776273  0.60328244  1
  O2-  O206  1  0.16677866  0.19719475  0.94148052  1
  O2-  O207  1  0.16462796  0.70723711  0.27498693  1
  O2-  O208  1  0.17074031  0.70765249  0.59818369  1
  O2-  O209  1  0.16774875  0.71159546  0.93329276  1
  O2-  O210  1  0.66924593  0.20446500  0.26775241  1
  O2-  O211  1  0.66478187  0.20940416  0.59626653  1
  O2-  O212  1  0.67166018  0.19815110  0.93384020  1
  O2-  O213  1  0.66512807  0.70832143  0.27128183  1
  O2-  O214  1  0.66832136  0.71064934  0.59640463  1
  O2-  O215  1  0.67064444  0.71050762  0.93763360  1
  O2-  O216  1  0.08820882  0.45767834  0.06206854  1
  O2-  O217  1  0.07929952  0.45337014  0.40067198  1
  O2-  O218  1  0.07679439  0.46005539  0.73241323  1
  O2-  O219  1  0.08138747  0.95491886  0.06874757  1
  O2-  O220  1  0.07583882  0.95069694  0.39672875  1
  O2-  O221  1  0.07459748  0.95265186  0.73281927  1
  O2-  O222  1  0.57983251  0.45822663  0.06709271  1
  O2-  O223  1  0.58990311  0.45456721  0.39797694  1
  O2-  O224  1  0.58723067  0.45191269  0.72348807  1
  O2-  O225  1  0.57897188  0.95621130  0.06681047  1
  O2-  O226  1  0.57960321  0.95572090  0.40046569  1
  O2-  O227  1  0.58250900  0.95459000  0.73387555  1
  O2-  O228  1  0.20485621  0.33503242  0.06029584  1
  O2-  O229  1  0.20802714  0.32780892  0.39776748  1
  O2-  O230  1  0.20204911  0.33194335  0.73756196  1
  O2-  O231  1  0.21486863  0.83361664  0.06857867  1
  O2-  O232  1  0.21360773  0.83644160  0.40133426  1
  O2-  O233  1  0.20800633  0.83198654  0.73295687  1
  O2-  O234  1  0.70815056  0.32906300  0.06486272  1
  O2-  O235  1  0.71026672  0.33574053  0.39537096  1
  O2-  O236  1  0.70967344  0.33590805  0.72572484  1
  O2-  O237  1  0.71248371  0.83654961  0.07071870  1
  O2-  O238  1  0.71371238  0.83430407  0.40193669  1
  O2-  O239  1  0.71592073  0.83369314  0.73239490  1
  O2-  O240  1  0.45829263  0.41762499  0.27089960  1
  O2-  O241  1  0.45786620  0.41362687  0.59868213  1
  O2-  O242  1  0.45429230  0.42122008  0.92982960  1
  O2-  O243  1  0.45716087  0.90841739  0.26692048  1
  O2-  O244  1  0.45592406  0.91379951  0.60199571  1
  O2-  O245  1  0.44470479  0.91797673  0.94048139  1
  O2-  O246  1  0.95183724  0.41951231  0.27034612  1
  O2-  O247  1  0.94903086  0.41785255  0.60172799  1
  O2-  O248  1  0.96120246  0.41580292  0.93045271  1
  O2-  O249  1  0.94730469  0.91295944  0.27044182  1
  O2-  O250  1  0.94291252  0.91840998  0.60550586  1
  O2-  O251  1  0.95212343  0.91705095  0.93840173  1
  O2-  O252  1  0.33739821  0.29988390  0.26990121  1
  O2-  O253  1  0.33148429  0.30146180  0.60513553  1
  O2-  O254  1  0.32993462  0.29384407  0.92962039  1
  O2-  O255  1  0.33736410  0.78962350  0.26880394  1
  O2-  O256  1  0.33554371  0.79582106  0.60195824  1
  O2-  O257  1  0.33657559  0.78995064  0.93412099  1
  O2-  O258  1  0.83657589  0.29608332  0.26658324  1
  O2-  O259  1  0.83559478  0.29478269  0.59837282  1
  O2-  O260  1  0.83539132  0.29131726  0.93033874  1
  O2-  O261  1  0.83665374  0.78610604  0.26816264  1
  O2-  O262  1  0.83798321  0.78714349  0.59828499  1
  O2-  O263  1  0.83505256  0.79724489  0.93805719  1
  O2-  O264  1  0.41223932  0.04499701  0.06791870  1
  O2-  O265  1  0.41039111  0.03465912  0.39523906  1
  O2-  O266  1  0.41585175  0.03779044  0.73863363  1
  O2-  O267  1  0.41278327  0.54392259  0.06194047  1
  O2-  O268  1  0.42257891  0.54445304  0.40142704  1
  O2-  O269  1  0.42276418  0.54084837  0.73502183  1
  O2-  O270  1  0.91358965  0.04202940  0.06937324  1
  O2-  O271  1  0.91179539  0.04137780  0.39910250  1
  O2-  O272  1  0.91161730  0.04674327  0.73288911  1
  O2-  O273  1  0.92089695  0.53839985  0.06875133  1
  O2-  O274  1  0.91207557  0.54430474  0.39981016  1
  O2-  O275  1  0.91149413  0.54410902  0.72672435  1
  O2-  O276  1  0.29768558  0.16872330  0.06584607  1
  O2-  O277  1  0.30697616  0.16753380  0.38975143  1
  O2-  O278  1  0.29986429  0.17267477  0.73457566  1
  O2-  O279  1  0.29217076  0.66168784  0.06291182  1
  O2-  O280  1  0.29634708  0.66877681  0.40212821  1
  O2-  O281  1  0.29877337  0.67054693  0.73532531  1
  O2-  O282  1  0.80353220  0.16823231  0.06242204  1
  O2-  O283  1  0.80178557  0.16928582  0.39574772  1
  O2-  O284  1  0.79703684  0.16967278  0.72694561  1
  O2-  O285  1  0.79829433  0.66945548  0.06921605  1
  O2-  O286  1  0.79120396  0.66165892  0.39956070  1
  O2-  O287  1  0.79175683  0.66203407  0.72750404  1
