# generated using pymatgen
data_Ca2Al2SiO7
_symmetry_space_group_name_H-M   'P 1'
_cell_length_a   15.46111311
_cell_length_b   15.46077344
_cell_length_c   15.28517121
_cell_angle_alpha   89.98892364
_cell_angle_beta   89.99335332
_cell_angle_gamma   90.03777289
_symmetry_Int_Tables_number   1
_chemical_formula_structural   Ca2Al2SiO7
_chemical_formula_sum   'Ca48 Al48 Si24 O168'
_cell_volume   3653.77816199
_cell_formula_units_Z   24
loop_
 _symmetry_equiv_pos_site_id
 _symmetry_equiv_pos_as_xyz
  1  'x, y, z'
loop_
 _atom_type_symbol
 _atom_type_oxidation_number
  Ca2+  2.0
  Al0+  0.0
  Si0+  0.0
  O2-  -2.0
loop_
 _atom_site_type_symbol
 _atom_site_label
 _atom_site_symmetry_multiplicity
 _atom_site_fract_x
 _atom_site_fract_y
 _atom_site_fract_z
 _atom_site_occupancy
  Ca2+  Ca0  1  0.16927956  0.07700752  0.17461940  1
  Ca2+  Ca1  1  0.17277457  0.08853891  0.50019528  1
  Ca2+  Ca2  1  0.17781393  0.08055364  0.84184231  1
  Ca2+  Ca3  1  0.17977552  0.58111346  0.16915573  1
  Ca2+  Ca4  1  0.17729566  0.58774614  0.50564282  1
  Ca2+  Ca5  1  0.17474800  0.58982970  0.83627862  1
  Ca2+  Ca6  1  0.66574150  0.08002849  0.16438602  1
  Ca2+  Ca7  1  0.66914847  0.07796329  0.50462333  1
  Ca2+  Ca8  1  0.67502094  0.08206540  0.84309338  1
  Ca2+  Ca9  1  0.66553389  0.57340466  0.16683424  1
  Ca2+  Ca10  1  0.67241625  0.56899021  0.50675476  1
  Ca2+  Ca11  1  0.67555277  0.57268589  0.84151063  1
  Ca2+  Ca12  1  0.07803709  0.32541410  0.16103262  1
  Ca2+  Ca13  1  0.07528237  0.32816154  0.49424975  1
  Ca2+  Ca14  1  0.06691803  0.33676515  0.82835807  1
  Ca2+  Ca15  1  0.08854515  0.83691721  0.16266359  1
  Ca2+  Ca16  1  0.08597118  0.83045403  0.49670673  1
  Ca2+  Ca17  1  0.08577974  0.82929648  0.82944517  1
  Ca2+  Ca18  1  0.58288125  0.33167763  0.16119005  1
  Ca2+  Ca19  1  0.58136037  0.33614568  0.49432216  1
  Ca2+  Ca20  1  0.59038946  0.33096653  0.83417246  1
  Ca2+  Ca21  1  0.58783456  0.82906028  0.15583838  1
  Ca2+  Ca22  1  0.58251927  0.83145485  0.49321866  1
  Ca2+  Ca23  1  0.59079013  0.82582582  0.83479277  1
  Ca2+  Ca24  1  0.34658831  0.42738288  0.17094501  1
  Ca2+  Ca25  1  0.33754429  0.42530759  0.50219595  1
  Ca2+  Ca26  1  0.33248723  0.42808470  0.83638595  1
  Ca2+  Ca27  1  0.32596993  0.92954384  0.16907564  1
  Ca2+  Ca28  1  0.32971255  0.93077613  0.50158061  1
  Ca2+  Ca29  1  0.32778173  0.92511704  0.84020370  1
  Ca2+  Ca30  1  0.82380640  0.41247007  0.16293581  1
  Ca2+  Ca31  1  0.82301432  0.41356945  0.50960491  1
  Ca2+  Ca32  1  0.82891923  0.41815511  0.84005496  1
  Ca2+  Ca33  1  0.82121992  0.91860726  0.16658392  1
  Ca2+  Ca34  1  0.82866264  0.92284222  0.50224036  1
  Ca2+  Ca35  1  0.83214893  0.92956308  0.84126120  1
  Ca2+  Ca36  1  0.41717690  0.16888364  0.16036516  1
  Ca2+  Ca37  1  0.41134613  0.17396954  0.49069105  1
  Ca2+  Ca38  1  0.42262377  0.15755407  0.83166894  1
  Ca2+  Ca39  1  0.42104566  0.66588281  0.15755785  1
  Ca2+  Ca40  1  0.41454285  0.66478140  0.49398581  1
  Ca2+  Ca41  1  0.42037250  0.66172918  0.83216048  1
  Ca2+  Ca42  1  0.91934300  0.16780247  0.15866110  1
  Ca2+  Ca43  1  0.91770995  0.16885489  0.49736242  1
  Ca2+  Ca44  1  0.90418904  0.17632892  0.83011254  1
  Ca2+  Ca45  1  0.91577371  0.66808494  0.15769994  1
  Ca2+  Ca46  1  0.92290044  0.66048319  0.50037547  1
  Ca2+  Ca47  1  0.91895447  0.66309783  0.82505305  1
  Al0+  Al48  1  0.00059100  -0.00068829  0.00442370  1
  Al0+  Al49  1  -0.00083534  -0.00176085  0.33280918  1
  Al0+  Al50  1  -0.00029193  -0.00079865  0.66869938  1
  Al0+  Al51  1  0.00107146  0.50030656  -0.00027914  1
  Al0+  Al52  1  0.00111508  0.50153846  0.32910048  1
  Al0+  Al53  1  0.00030365  0.49959176  0.65594889  1
  Al0+  Al54  1  0.49789327  -0.00044720  0.00105803  1
  Al0+  Al55  1  0.49941658  -0.00052238  0.34044297  1
  Al0+  Al56  1  0.49885230  -0.00204166  0.66789117  1
  Al0+  Al57  1  0.50134854  0.50073097  0.00004487  1
  Al0+  Al58  1  0.50263918  0.50024420  0.33786426  1
  Al0+  Al59  1  0.49985371  0.49873068  0.67358303  1
  Al0+  Al60  1  0.24946008  0.25240477  -0.00093349  1
  Al0+  Al61  1  0.24845427  0.25349965  0.32552567  1
  Al0+  Al62  1  0.25100651  0.25094055  0.67174925  1
  Al0+  Al63  1  0.25109084  0.75015489  0.00637441  1
  Al0+  Al64  1  0.25091126  0.75121266  0.33844637  1
  Al0+  Al65  1  0.25098982  0.75113176  0.66486565  1
  Al0+  Al66  1  0.74884807  0.25017760  0.00047449  1
  Al0+  Al67  1  0.74887639  0.25038991  0.33631029  1
  Al0+  Al68  1  0.74783285  0.24705800  0.66632350  1
  Al0+  Al69  1  0.75191082  0.74952490  -0.00166156  1
  Al0+  Al70  1  0.75134934  0.75007600  0.33796413  1
  Al0+  Al71  1  0.74949914  0.74803135  0.66451698  1
  Al0+  Al72  1  0.82355288  0.57037471  0.67974891  1
  Al0+  Al73  1  0.31953785  0.57226121  0.68094067  1
  Al0+  Al74  1  0.68134849  0.42918627  0.34770794  1
  Al0+  Al75  1  0.32088818  0.07317035  0.68099637  1
  Al0+  Al76  1  0.67898166  0.92804994  0.01215687  1
  Al0+  Al77  1  0.32077473  0.56923836  0.34707983  1
  Al0+  Al78  1  0.67901798  0.42738039  0.68390126  1
  Al0+  Al79  1  0.82428056  0.57137550  0.01429856  1
  Al0+  Al80  1  0.06914486  0.17903899  0.31950442  1
  Al0+  Al81  1  0.31957383  0.07501108  0.34797375  1
  Al0+  Al82  1  0.32073106  0.56889307  0.01350893  1
  Al0+  Al83  1  0.56781653  0.17847814  0.98668001  1
  Al0+  Al84  1  0.32202446  0.07431087  0.01547117  1
  Al0+  Al85  1  0.67824308  0.92751372  0.34772231  1
  Al0+  Al86  1  0.67949213  0.42891493  0.01623103  1
  Al0+  Al87  1  0.07168082  0.68021238  0.65210010  1
  Al0+  Al88  1  0.92713234  0.31902502  0.65135845  1
  Al0+  Al89  1  0.17927487  0.92951794  0.01422142  1
  Al0+  Al90  1  0.93016887  0.31943947  0.98660051  1
  Al0+  Al91  1  0.82069034  0.07307321  0.01597879  1
  Al0+  Al92  1  0.43071713  0.32234364  0.32066618  1
  Al0+  Al93  1  0.57254086  0.67854067  0.98561891  1
  Al0+  Al94  1  0.17708502  0.92974497  0.35120003  1
  Al0+  Al95  1  0.82065210  0.06853001  0.67907024  1
  Si0+  Si96  1  0.17494094  0.42912674  0.34936875  1
  Si0+  Si97  1  0.17744996  0.42772306  0.68142139  1
  Si0+  Si98  1  0.07395856  0.17778039  0.65200522  1
  Si0+  Si99  1  0.57109721  0.68104513  0.31982313  1
  Si0+  Si100  1  0.42996688  0.82071338  0.64981998  1
  Si0+  Si101  1  0.67669187  0.92619756  0.68288519  1
  Si0+  Si102  1  0.92678919  0.82363617  0.64883776  1
  Si0+  Si103  1  0.17642090  0.42868152  0.01617227  1
  Si0+  Si104  1  0.42678570  0.32423093  0.98101995  1
  Si0+  Si105  1  0.07232977  0.68046740  0.98648415  1
  Si0+  Si106  1  0.07243951  0.17576571  0.98201807  1
  Si0+  Si107  1  0.57030030  0.67700769  0.65023728  1
  Si0+  Si108  1  0.42697433  0.82002401  0.98334131  1
  Si0+  Si109  1  0.42868163  0.82192041  0.31847249  1
  Si0+  Si110  1  0.92910399  0.82165956  0.98452102  1
  Si0+  Si111  1  0.57228794  0.17597632  0.31826311  1
  Si0+  Si112  1  0.92835743  0.81928401  0.31721630  1
  Si0+  Si113  1  0.82101222  0.07124870  0.34956942  1
  Si0+  Si114  1  0.92554536  0.32279983  0.31540704  1
  Si0+  Si115  1  0.42857964  0.32122121  0.65290527  1
  Si0+  Si116  1  0.56891115  0.17671424  0.65089046  1
  Si0+  Si117  1  0.07331743  0.68000127  0.31580604  1
  Si0+  Si118  1  0.82397933  0.57297187  0.35007828  1
  Si0+  Si119  1  0.17890272  0.92857306  0.68248884  1
  O2-  O120  1  0.24570740  0.00644246  0.06380649  1
  O2-  O121  1  0.24641932  0.00477551  0.39992477  1
  O2-  O122  1  0.24318476  0.00105977  0.72591441  1
  O2-  O123  1  0.25068854  0.49075190  0.06114307  1
  O2-  O124  1  0.24491692  0.49610212  0.39433604  1
  O2-  O125  1  0.24211439  0.50004587  0.72636610  1
  O2-  O126  1  0.74773213  0.00145443  0.06468443  1
  O2-  O127  1  0.74957216  0.00532315  0.39393954  1
  O2-  O128  1  0.74801699  -0.00808512  0.72544268  1
  O2-  O129  1  0.75103177  0.50199513  0.06548217  1
  O2-  O130  1  0.76060336  0.49947142  0.39329965  1
  O2-  O131  1  0.75408701  0.49763790  0.73115911  1
  O2-  O132  1  -0.00634275  0.25317664  0.27249122  1
  O2-  O133  1  0.00327149  0.24400735  0.60679308  1
  O2-  O134  1  0.00305176  0.24334996  0.93748603  1
  O2-  O135  1  0.00084672  0.74965618  0.27409229  1
  O2-  O136  1  -0.00576674  0.75298068  0.60493160  1
  O2-  O137  1  0.00064781  0.75029043  0.94358329  1
  O2-  O138  1  0.50156516  0.24322595  0.27541191  1
  O2-  O139  1  0.49761791  0.24825865  0.61011631  1
  O2-  O140  1  0.49118782  0.25108475  0.93741539  1
  O2-  O141  1  0.50190542  0.75314472  0.27611913  1
  O2-  O142  1  0.50051623  0.74899470  0.60682017  1
  O2-  O143  1  0.49824013  0.75417604  0.93805173  1
  O2-  O144  1  0.07145032  0.17748058  0.08768329  1
  O2-  O145  1  0.06693895  0.18148164  0.43329408  1
  O2-  O146  1  0.07609645  0.17959168  0.75716447  1
  O2-  O147  1  0.07267099  0.68160487  0.09177018  1
  O2-  O148  1  0.07268089  0.67977132  0.42092426  1
  O2-  O149  1  0.07480989  0.68441625  0.76536057  1
  O2-  O150  1  0.56740126  0.17950477  0.09995841  1
  O2-  O151  1  0.57377454  0.17686499  0.42430357  1
  O2-  O152  1  0.56854880  0.17447176  0.75577240  1
  O2-  O153  1  0.57022521  0.67901700  0.09933986  1
  O2-  O154  1  0.56901990  0.68207930  0.42534441  1
  O2-  O155  1  0.56992702  0.67869979  0.75505477  1
  O2-  O156  1  0.17145895  0.43348517  0.24401559  1
  O2-  O157  1  0.18173244  0.42515429  0.57581326  1
  O2-  O158  1  0.17446600  0.43277355  0.91041626  1
  O2-  O159  1  0.17971342  0.92881458  0.23812883  1
  O2-  O160  1  0.18044417  0.92782486  0.57716688  1
  O2-  O161  1  0.18130914  0.92698072  0.90017570  1
  O2-  O162  1  0.68025404  0.43026533  0.23530082  1
  O2-  O163  1  0.67731456  0.42929707  0.56979134  1
  O2-  O164  1  0.68114311  0.42925376  0.90304220  1
  O2-  O165  1  0.68038589  0.92351810  0.23550269  1
  O2-  O166  1  0.67555837  0.92819979  0.57685126  1
  O2-  O167  1  0.68355362  0.92763193  0.89844128  1
  O2-  O168  1  0.42944488  0.32618649  0.08667596  1
  O2-  O169  1  0.43291313  0.32371540  0.43451248  1
  O2-  O170  1  0.42774825  0.32201400  0.75761966  1
  O2-  O171  1  0.42579862  0.81687569  0.08905294  1
  O2-  O172  1  0.42971683  0.81980306  0.42407267  1
  O2-  O173  1  0.43010093  0.82152611  0.75464054  1
  O2-  O174  1  0.93359777  0.31904690  0.09987874  1
  O2-  O175  1  0.92585484  0.32220210  0.42117400  1
  O2-  O176  1  0.92810200  0.31911922  0.76429324  1
  O2-  O177  1  0.92815520  0.82046872  0.08981885  1
  O2-  O178  1  0.92717842  0.81751534  0.42236997  1
  O2-  O179  1  0.92804239  0.82560160  0.75422776  1
  O2-  O180  1  0.32035732  0.07205026  0.23513293  1
  O2-  O181  1  0.32069397  0.07398952  0.56812959  1
  O2-  O182  1  0.32098605  0.06950949  0.90139894  1
  O2-  O183  1  0.32121453  0.56974223  0.23419102  1
  O2-  O184  1  0.32061295  0.57055124  0.56772142  1
  O2-  O185  1  0.31753528  0.57055733  0.90030897  1
  O2-  O186  1  0.82098452  0.07039689  0.24444419  1
  O2-  O187  1  0.81863679  0.06699003  0.56551260  1
  O2-  O188  1  0.81977489  0.07117028  0.90217490  1
  O2-  O189  1  0.82233168  0.57713603  0.24494529  1
  O2-  O190  1  0.81988629  0.56962906  0.56570757  1
  O2-  O191  1  0.82627811  0.57005865  0.90101066  1
  O2-  O192  1  0.03896819  0.08144215  0.26668387  1
  O2-  O193  1  0.05027503  0.08268935  0.60734748  1
  O2-  O194  1  0.04963294  0.08060453  0.93797466  1
  O2-  O195  1  0.04792797  0.58763074  0.26756061  1
  O2-  O196  1  0.04626389  0.58417980  0.59319989  1
  O2-  O197  1  0.04728580  0.58847130  0.93859435  1
  O2-  O198  1  0.54908100  0.08054125  0.27495392  1
  O2-  O199  1  0.54173237  0.08408845  0.60348234  1
  O2-  O200  1  0.53906942  0.08107224  0.93122394  1
  O2-  O201  1  0.54152777  0.58961279  0.27376038  1
  O2-  O202  1  0.53954523  0.58496322  0.60474201  1
  O2-  O203  1  0.53951028  0.58322532  0.93045250  1
  O2-  O204  1  0.16364072  0.21077392  0.26211800  1
  O2-  O205  1  0.16703263  0.20714746  0.60546234  1
  O2-  O206  1  0.16651086  0.20237110  0.93640438  1
  O2-  O207  1  0.16541131  0.70972049  0.26991477  1
  O2-  O208  1  0.16750018  0.71444941  0.59652781  1
  O2-  O209  1  0.16387830  0.71090607  0.93931384  1
  O2-  O210  1  0.66579270  0.20337361  0.27257844  1
  O2-  O211  1  0.65978010  0.20415095  0.60167289  1
  O2-  O212  1  0.66433143  0.21040567  0.93263005  1
  O2-  O213  1  0.66441818  0.70763257  0.27504382  1
  O2-  O214  1  0.66235765  0.70311226  0.60121971  1
  O2-  O215  1  0.66867388  0.71007343  0.92994306  1
  O2-  O216  1  0.08687941  0.46024778  0.06585192  1
  O2-  O217  1  0.08166179  0.45612071  0.39664067  1
  O2-  O218  1  0.08206716  0.45143389  0.72289020  1
  O2-  O219  1  0.08013356  0.95138379  0.06777886  1
  O2-  O220  1  0.07650517  0.95281442  0.40216749  1
  O2-  O221  1  0.08348104  0.94730914  0.72724496  1
  O2-  O222  1  0.58123505  0.45821863  0.06807977  1
  O2-  O223  1  0.58809339  0.46550983  0.40450877  1
  O2-  O224  1  0.58195381  0.45708870  0.73742659  1
  O2-  O225  1  0.57921433  0.95105627  0.06324803  1
  O2-  O226  1  0.58205163  0.95427230  0.40453180  1
  O2-  O227  1  0.58392239  0.95241168  0.72898969  1
  O2-  O228  1  0.19476897  0.33271973  0.05947692  1
  O2-  O229  1  0.19858505  0.33480962  0.39294334  1
  O2-  O230  1  0.20550865  0.33722048  0.73204617  1
  O2-  O231  1  0.21107753  0.83357528  0.07008216  1
  O2-  O232  1  0.20886768  0.83249266  0.40448101  1
  O2-  O233  1  0.21042899  0.83733820  0.72926483  1
  O2-  O234  1  0.70891465  0.33177470  0.06969089  1
  O2-  O235  1  0.70691863  0.33139115  0.40295633  1
  O2-  O236  1  0.70423739  0.32726545  0.73267237  1
  O2-  O237  1  0.71100851  0.83125635  0.06575152  1
  O2-  O238  1  0.71303996  0.83311508  0.40500020  1
  O2-  O239  1  0.69897073  0.83062962  0.72513152  1
  O2-  O240  1  0.46767995  0.41780498  0.26715473  1
  O2-  O241  1  0.45834267  0.41318269  0.60585627  1
  O2-  O242  1  0.45666774  0.41615237  0.93378932  1
  O2-  O243  1  0.45426404  0.91530268  0.27375229  1
  O2-  O244  1  0.45937284  0.91195386  0.60063338  1
  O2-  O245  1  0.44848818  0.91463759  0.93802702  1
  O2-  O246  1  0.95176116  0.41689765  0.27013804  1
  O2-  O247  1  0.95699491  0.41407075  0.59333316  1
  O2-  O248  1  0.96436420  0.41594249  0.93261805  1
  O2-  O249  1  0.95337668  0.91142578  0.26975264  1
  O2-  O250  1  0.95486810  0.91630463  0.60070453  1
  O2-  O251  1  0.95807450  0.91356650  0.93708908  1
  O2-  O252  1  0.33267257  0.30143916  0.26519021  1
  O2-  O253  1  0.33583784  0.29509013  0.60557620  1
  O2-  O254  1  0.33021249  0.30636824  0.93676665  1
  O2-  O255  1  0.33735383  0.79134723  0.27219666  1
  O2-  O256  1  0.33871040  0.79333855  0.60131333  1
  O2-  O257  1  0.33472050  0.78928379  0.93639089  1
  O2-  O258  1  0.83148603  0.29657816  0.27089678  1
  O2-  O259  1  0.83123930  0.28447252  0.59697530  1
  O2-  O260  1  0.83324132  0.29000673  0.93317688  1
  O2-  O261  1  0.83695750  0.78866102  0.26979268  1
  O2-  O262  1  0.83215077  0.80011226  0.60248784  1
  O2-  O263  1  0.83896258  0.79474958  0.93410131  1
  O2-  O264  1  0.41794684  0.04212900  0.06937435  1
  O2-  O265  1  0.41700890  0.04512818  0.40294004  1
  O2-  O266  1  0.41609122  0.03651441  0.73365928  1
  O2-  O267  1  0.41780915  0.54111433  0.06678391  1
  O2-  O268  1  0.41643270  0.53832017  0.40249158  1
  O2-  O269  1  0.41406987  0.53902416  0.73602321  1
  O2-  O270  1  0.91868020  0.04380308  0.06780995  1
  O2-  O271  1  0.91252942  0.04102740  0.39666761  1
  O2-  O272  1  0.91797973  0.04171602  0.73371241  1
  O2-  O273  1  0.92242357  0.54366894  0.06847420  1
  O2-  O274  1  0.92060154  0.55187850  0.39215950  1
  O2-  O275  1  0.92565707  0.54776272  0.72631639  1
  O2-  O276  1  0.30043281  0.17618991  0.06313401  1
  O2-  O277  1  0.29115622  0.17543013  0.39731748  1
  O2-  O278  1  0.29469570  0.16968021  0.73678745  1
  O2-  O279  1  0.28751365  0.66320552  0.06944197  1
  O2-  O280  1  0.29029528  0.66549348  0.40165578  1
  O2-  O281  1  0.29063252  0.66977457  0.73341570  1
  O2-  O282  1  0.79223050  0.16997496  0.06958875  1
  O2-  O283  1  0.79804833  0.16537391  0.39586561  1
  O2-  O284  1  0.78585794  0.16294896  0.73260658  1
  O2-  O285  1  0.79793678  0.67061797  0.06535671  1
  O2-  O286  1  0.79516727  0.66396065  0.39952615  1
  O2-  O287  1  0.79608519  0.67030120  0.73005452  1
