# generated using pymatgen
data_Ca2Al2SiO7
_symmetry_space_group_name_H-M   'P 1'
_cell_length_a   15.45852240
_cell_length_b   15.45869937
_cell_length_c   15.28427038
_cell_angle_alpha   89.99955562
_cell_angle_beta   89.99337144
_cell_angle_gamma   90.00989950
_symmetry_Int_Tables_number   1
_chemical_formula_structural   Ca2Al2SiO7
_chemical_formula_sum   'Ca48 Al48 Si24 O168'
_cell_volume   3652.46138877
_cell_formula_units_Z   24
loop_
 _symmetry_equiv_pos_site_id
 _symmetry_equiv_pos_as_xyz
  1  'x, y, z'
loop_
 _atom_type_symbol
 _atom_type_oxidation_number
  Ca2+  2.0
  Al0+  0.0
  Si0+  0.0
  O2-  -2.0
loop_
 _atom_site_type_symbol
 _atom_site_label
 _atom_site_symmetry_multiplicity
 _atom_site_fract_x
 _atom_site_fract_y
 _atom_site_fract_z
 _atom_site_occupancy
  Ca2+  Ca0  1  0.16941257  0.07734787  0.18059381  1
  Ca2+  Ca1  1  0.16675123  0.08104812  0.49554692  1
  Ca2+  Ca2  1  0.16910446  0.07891093  0.83695114  1
  Ca2+  Ca3  1  0.17467637  0.58371526  0.17244021  1
  Ca2+  Ca4  1  0.17416472  0.58235577  0.50288109  1
  Ca2+  Ca5  1  0.17340689  0.60001666  0.83496194  1
  Ca2+  Ca6  1  0.67713125  0.07967334  0.17589656  1
  Ca2+  Ca7  1  0.67170674  0.07855095  0.50170921  1
  Ca2+  Ca8  1  0.67643875  0.07455550  0.83481696  1
  Ca2+  Ca9  1  0.66418676  0.57050310  0.17090245  1
  Ca2+  Ca10  1  0.66977992  0.57633561  0.50253361  1
  Ca2+  Ca11  1  0.67315099  0.57984359  0.83574952  1
  Ca2+  Ca12  1  0.08228640  0.32828167  0.16628521  1
  Ca2+  Ca13  1  0.08258716  0.32838754  0.48874382  1
  Ca2+  Ca14  1  0.07617467  0.33261101  0.83238117  1
  Ca2+  Ca15  1  0.08166793  0.83118829  0.15930131  1
  Ca2+  Ca16  1  0.07966782  0.83140559  0.49875099  1
  Ca2+  Ca17  1  0.07196850  0.82343316  0.83078874  1
  Ca2+  Ca18  1  0.58556016  0.33202915  0.16746785  1
  Ca2+  Ca19  1  0.57931146  0.32748004  0.48561661  1
  Ca2+  Ca20  1  0.58756074  0.33406739  0.83310414  1
  Ca2+  Ca21  1  0.57735268  0.83627674  0.16458330  1
  Ca2+  Ca22  1  0.58271061  0.83984348  0.49666222  1
  Ca2+  Ca23  1  0.57257768  0.83914489  0.82650566  1
  Ca2+  Ca24  1  0.32983973  0.42754947  0.17849930  1
  Ca2+  Ca25  1  0.33287041  0.42304136  0.49956647  1
  Ca2+  Ca26  1  0.33018963  0.43214991  0.83962526  1
  Ca2+  Ca27  1  0.32648968  0.91854267  0.17562118  1
  Ca2+  Ca28  1  0.33034609  0.91810174  0.50053956  1
  Ca2+  Ca29  1  0.33539158  0.90930605  0.83682488  1
  Ca2+  Ca30  1  0.82504080  0.40988427  0.16753883  1
  Ca2+  Ca31  1  0.82725564  0.41866695  0.50314693  1
  Ca2+  Ca32  1  0.83213942  0.42129066  0.83987236  1
  Ca2+  Ca33  1  0.83431579  0.92458637  0.17488056  1
  Ca2+  Ca34  1  0.82444390  0.92451023  0.50780670  1
  Ca2+  Ca35  1  0.84303686  0.92265765  0.83598300  1
  Ca2+  Ca36  1  0.41912107  0.16883075  0.17008158  1
  Ca2+  Ca37  1  0.42249301  0.17203434  0.48364941  1
  Ca2+  Ca38  1  0.42174099  0.17003876  0.82652628  1
  Ca2+  Ca39  1  0.41252333  0.66858741  0.16060696  1
  Ca2+  Ca40  1  0.41093154  0.66797573  0.49939052  1
  Ca2+  Ca41  1  0.41291296  0.67366902  0.82870493  1
  Ca2+  Ca42  1  0.91687895  0.16568068  0.16347946  1
  Ca2+  Ca43  1  0.91781966  0.16097158  0.49345451  1
  Ca2+  Ca44  1  0.90546217  0.16972775  0.83395807  1
  Ca2+  Ca45  1  0.92644173  0.67572239  0.15471414  1
  Ca2+  Ca46  1  0.91496789  0.66861404  0.49975381  1
  Ca2+  Ca47  1  0.92317931  0.67180571  0.82053172  1
  Al0+  Al48  1  0.00290552  -0.00023664  0.00022118  1
  Al0+  Al49  1  0.00035252  0.00030016  0.33674277  1
  Al0+  Al50  1  0.00111499  0.00034734  0.66839835  1
  Al0+  Al51  1  0.00259042  0.49730105  -0.00765456  1
  Al0+  Al52  1  0.00143613  0.50149262  0.33327053  1
  Al0+  Al53  1  -0.00046726  0.49726693  0.66481324  1
  Al0+  Al54  1  0.50170183  0.00157412  -0.00455079  1
  Al0+  Al55  1  0.50012198  0.00038034  0.33285047  1
  Al0+  Al56  1  0.50027242  0.00145042  0.66535074  1
  Al0+  Al57  1  0.49961693  0.50007101  0.00652255  1
  Al0+  Al58  1  0.50122995  0.50161478  0.33761217  1
  Al0+  Al59  1  0.49641148  0.50069019  0.67169423  1
  Al0+  Al60  1  0.25171724  0.25147123  -0.00259869  1
  Al0+  Al61  1  0.24913249  0.25137319  0.33029811  1
  Al0+  Al62  1  0.24923029  0.25074908  0.66836500  1
  Al0+  Al63  1  0.25090438  0.75185408  -0.00227861  1
  Al0+  Al64  1  0.24910440  0.75014860  0.34043873  1
  Al0+  Al65  1  0.25004369  0.75050806  0.66142927  1
  Al0+  Al66  1  0.75066309  0.24794125  0.00292036  1
  Al0+  Al67  1  0.74963308  0.25057077  0.33730331  1
  Al0+  Al68  1  0.74923859  0.24735897  0.66835085  1
  Al0+  Al69  1  0.74809468  0.75076848  -0.00315564  1
  Al0+  Al70  1  0.74901032  0.75091241  0.33258418  1
  Al0+  Al71  1  0.74692871  0.74812657  0.67066934  1
  Al0+  Al72  1  0.92627899  0.82189569  0.64946917  1
  Al0+  Al73  1  0.82140031  0.07141851  0.34841428  1
  Al0+  Al74  1  0.92839246  0.31778048  0.98667188  1
  Al0+  Al75  1  0.68125441  0.43020812  0.01398664  1
  Al0+  Al76  1  0.82257632  0.06949173  0.68431565  1
  Al0+  Al77  1  0.67836844  0.92713464  0.34683181  1
  Al0+  Al78  1  0.06960445  0.17853106  0.32037447  1
  Al0+  Al79  1  0.43192591  0.82056797  0.98832188  1
  Al0+  Al80  1  0.32124409  0.07168940  0.34635751  1
  Al0+  Al81  1  0.42901425  0.32377793  0.31727531  1
  Al0+  Al82  1  0.68063469  0.42951191  0.34708015  1
  Al0+  Al83  1  0.82144900  0.56939532  0.67941694  1
  Al0+  Al84  1  0.31736598  0.57192923  0.01409448  1
  Al0+  Al85  1  0.06997513  0.67783709  0.64744554  1
  Al0+  Al86  1  0.67659604  0.92791352  0.68321193  1
  Al0+  Al87  1  0.17727901  0.42885495  0.34702143  1
  Al0+  Al88  1  0.07108289  0.67870998  0.98600929  1
  Al0+  Al89  1  0.57249752  0.17769317  0.31651967  1
  Al0+  Al90  1  0.92708898  0.82265267  0.98636542  1
  Al0+  Al91  1  0.17789094  0.92795376  0.34970822  1
  Al0+  Al92  1  0.31782266  0.57094386  0.68298708  1
  Al0+  Al93  1  0.43067461  0.82133678  0.64995671  1
  Al0+  Al94  1  0.82125617  0.06733867  0.01556518  1
  Al0+  Al95  1  0.32197473  0.57180489  0.35008719  1
  Si0+  Si96  1  0.07325993  0.17934780  0.65189851  1
  Si0+  Si97  1  0.67741985  0.42731984  0.68287915  1
  Si0+  Si98  1  0.67472068  0.92718613  0.01647106  1
  Si0+  Si99  1  0.18311481  0.93210956  0.01311041  1
  Si0+  Si100  1  0.82292882  0.57352253  0.34648508  1
  Si0+  Si101  1  0.32431134  0.07454404  0.01317061  1
  Si0+  Si102  1  0.07191715  0.67943912  0.31805025  1
  Si0+  Si103  1  0.17706230  0.42419408  0.01688499  1
  Si0+  Si104  1  0.17753020  0.42518580  0.68547341  1
  Si0+  Si105  1  0.92757433  0.32454146  0.31747127  1
  Si0+  Si106  1  0.42896403  0.32280548  0.98378198  1
  Si0+  Si107  1  0.07471845  0.17762648  0.98273873  1
  Si0+  Si108  1  0.56994066  0.18141848  0.65147653  1
  Si0+  Si109  1  0.57249291  0.67909650  0.31827520  1
  Si0+  Si110  1  0.82531656  0.57341353  0.01450381  1
  Si0+  Si111  1  0.42796012  0.81985177  0.31923473  1
  Si0+  Si112  1  0.18045418  0.92954058  0.68346735  1
  Si0+  Si113  1  0.42801551  0.32190335  0.65329994  1
  Si0+  Si114  1  0.32088315  0.07254319  0.68173302  1
  Si0+  Si115  1  0.92755394  0.31862400  0.65116615  1
  Si0+  Si116  1  0.92867352  0.82028053  0.31942611  1
  Si0+  Si117  1  0.57078339  0.67463350  0.64992828  1
  Si0+  Si118  1  0.57146619  0.67398560  0.98362079  1
  Si0+  Si119  1  0.57092031  0.18060652  0.98310640  1
  O2-  O120  1  0.25222568  0.00517125  0.05466296  1
  O2-  O121  1  0.25040922  0.00027498  0.39902338  1
  O2-  O122  1  0.25246495  0.00037448  0.72611498  1
  O2-  O123  1  0.24255792  0.49666256  0.05894062  1
  O2-  O124  1  0.25077845  0.49804128  0.39831292  1
  O2-  O125  1  0.24081370  0.49851134  0.73022802  1
  O2-  O126  1  0.75093528  -0.01257736  0.05984311  1
  O2-  O127  1  0.74801670  0.00058002  0.39692616  1
  O2-  O128  1  0.75512523  -0.00733785  0.73400988  1
  O2-  O129  1  0.75586936  0.50610211  0.06025699  1
  O2-  O130  1  0.75730994  0.50246426  0.39179823  1
  O2-  O131  1  0.74626924  0.49518035  0.72692861  1
  O2-  O132  1  -0.00462935  0.25421292  0.27446176  1
  O2-  O133  1  -0.00071736  0.24774450  0.61072433  1
  O2-  O134  1  0.00455781  0.24458207  0.93816141  1
  O2-  O135  1  0.00048360  0.75015593  0.27648240  1
  O2-  O136  1  -0.00448047  0.74775889  0.59757167  1
  O2-  O137  1  -0.00997401  0.74175739  0.93726635  1
  O2-  O138  1  0.50047527  0.25069998  0.26666089  1
  O2-  O139  1  0.50019288  0.25361424  0.61014757  1
  O2-  O140  1  0.49908944  0.25136554  0.94008979  1
  O2-  O141  1  0.49952121  0.74920105  0.27723446  1
  O2-  O142  1  0.50672364  0.74730700  0.60463062  1
  O2-  O143  1  0.50726525  0.74726111  0.94012222  1
  O2-  O144  1  0.07738859  0.17790277  0.08771727  1
  O2-  O145  1  0.06738540  0.17953307  0.43398606  1
  O2-  O146  1  0.07837245  0.18195921  0.75708280  1
  O2-  O147  1  0.07307650  0.68343420  0.10011679  1
  O2-  O148  1  0.07058703  0.67832811  0.42268434  1
  O2-  O149  1  0.07011131  0.68183481  0.76118423  1
  O2-  O150  1  0.56939699  0.17950235  0.08750704  1
  O2-  O151  1  0.57125052  0.18030492  0.43067692  1
  O2-  O152  1  0.56867688  0.18308483  0.75723583  1
  O2-  O153  1  0.56936855  0.67200655  0.08942157  1
  O2-  O154  1  0.57549614  0.67885585  0.42313988  1
  O2-  O155  1  0.56647472  0.67003199  0.75550092  1
  O2-  O156  1  0.17458421  0.43379577  0.23324239  1
  O2-  O157  1  0.18146567  0.41943229  0.58056827  1
  O2-  O158  1  0.18146355  0.41696065  0.91141977  1
  O2-  O159  1  0.17984743  0.92607927  0.23532902  1
  O2-  O160  1  0.18035923  0.93223852  0.57875243  1
  O2-  O161  1  0.18452346  0.93355389  0.90777826  1
  O2-  O162  1  0.68140334  0.43084121  0.23389521  1
  O2-  O163  1  0.67748837  0.42662370  0.57747148  1
  O2-  O164  1  0.68144796  0.43085485  0.90044219  1
  O2-  O165  1  0.68186520  0.92403025  0.23288865  1
  O2-  O166  1  0.67388974  0.93520792  0.57017864  1
  O2-  O167  1  0.66747464  0.93311916  0.91165258  1
  O2-  O168  1  0.42737979  0.32181340  0.08803880  1
  O2-  O169  1  0.43237063  0.32297842  0.43170560  1
  O2-  O170  1  0.42859329  0.31922607  0.75898330  1
  O2-  O171  1  0.43109996  0.82123348  0.10150046  1
  O2-  O172  1  0.42816351  0.81911666  0.42414615  1
  O2-  O173  1  0.43021282  0.82042198  0.76350263  1
  O2-  O174  1  0.92783198  0.31527059  0.09941385  1
  O2-  O175  1  0.92869800  0.32677153  0.42341238  1
  O2-  O176  1  0.92666895  0.31791362  0.75637368  1
  O2-  O177  1  0.93258150  0.82419534  0.10049571  1
  O2-  O178  1  0.92696033  0.81756397  0.42405599  1
  O2-  O179  1  0.93189576  0.82194515  0.76314030  1
  O2-  O180  1  0.32028315  0.06712605  0.23199788  1
  O2-  O181  1  0.31926405  0.07555827  0.57749583  1
  O2-  O182  1  0.32309829  0.07545841  0.90741709  1
  O2-  O183  1  0.31892744  0.57502022  0.23618161  1
  O2-  O184  1  0.32005100  0.56675769  0.57068464  1
  O2-  O185  1  0.31710773  0.57174026  0.90090885  1
  O2-  O186  1  0.82241486  0.06860734  0.23447259  1
  O2-  O187  1  0.81986412  0.07380817  0.57156970  1
  O2-  O188  1  0.81800559  0.06916406  0.90264650  1
  O2-  O189  1  0.82154167  0.57495342  0.24082974  1
  O2-  O190  1  0.81983800  0.56472211  0.56611079  1
  O2-  O191  1  0.82284658  0.57023129  0.90894783  1
  O2-  O192  1  0.04012737  0.08121569  0.26570861  1
  O2-  O193  1  0.04878762  0.08644323  0.60649420  1
  O2-  O194  1  0.05132210  0.08371033  0.93662809  1
  O2-  O195  1  0.04509207  0.58795640  0.26910702  1
  O2-  O196  1  0.04517087  0.57646101  0.59829152  1
  O2-  O197  1  0.05713930  0.57701357  0.93439171  1
  O2-  O198  1  0.54373378  0.07931244  0.26258597  1
  O2-  O199  1  0.53992405  0.09099827  0.60444694  1
  O2-  O200  1  0.54179535  0.09039917  0.93261433  1
  O2-  O201  1  0.54459495  0.58762701  0.27064747  1
  O2-  O202  1  0.53969509  0.58209106  0.60301439  1
  O2-  O203  1  0.54175031  0.58201679  0.93630297  1
  O2-  O204  1  0.16570055  0.20705227  0.26411876  1
  O2-  O205  1  0.16415142  0.20982337  0.60346522  1
  O2-  O206  1  0.16792319  0.20457642  0.93414754  1
  O2-  O207  1  0.16407920  0.70920732  0.27229118  1
  O2-  O208  1  0.16731564  0.71000057  0.59533739  1
  O2-  O209  1  0.16497415  0.71905541  0.93157754  1
  O2-  O210  1  0.67128067  0.20880713  0.26542727  1
  O2-  O211  1  0.66202533  0.20822985  0.60449579  1
  O2-  O212  1  0.66140835  0.21123258  0.93540947  1
  O2-  O213  1  0.66291234  0.70724183  0.26729224  1
  O2-  O214  1  0.66640312  0.69311998  0.60594978  1
  O2-  O215  1  0.66701856  0.69344015  0.93880693  1
  O2-  O216  1  0.08092901  0.44431120  0.05903765  1
  O2-  O217  1  0.07941472  0.45794914  0.40174667  1
  O2-  O218  1  0.08114554  0.44447144  0.72761215  1
  O2-  O219  1  0.09174647  0.95797102  0.06185249  1
  O2-  O220  1  0.08145720  0.95789075  0.40400855  1
  O2-  O221  1  0.09033137  0.95965973  0.73263372  1
  O2-  O222  1  0.58500156  0.45966302  0.06928371  1
  O2-  O223  1  0.58646997  0.46282605  0.40313911  1
  O2-  O224  1  0.58386357  0.45268789  0.72964924  1
  O2-  O225  1  0.58414714  0.96174604  0.06465960  1
  O2-  O226  1  0.57906690  0.95238056  0.39753387  1
  O2-  O227  1  0.58036101  0.96616345  0.73723730  1
  O2-  O228  1  0.20666313  0.33181638  0.06412353  1
  O2-  O229  1  0.20215544  0.32965333  0.39870998  1
  O2-  O230  1  0.20828163  0.33396046  0.73550557  1
  O2-  O231  1  0.21390783  0.84213389  0.06146280  1
  O2-  O232  1  0.20703122  0.83195264  0.40541374  1
  O2-  O233  1  0.21049577  0.83818522  0.72924429  1
  O2-  O234  1  0.71284992  0.33399897  0.06744837  1
  O2-  O235  1  0.70922121  0.33436432  0.40384934  1
  O2-  O236  1  0.70372151  0.33396257  0.72909633  1
  O2-  O237  1  0.68875829  0.82901990  0.05742195  1
  O2-  O238  1  0.70670951  0.82915640  0.40088619  1
  O2-  O239  1  0.69065840  0.82539522  0.73203751  1
  O2-  O240  1  0.45992309  0.42284518  0.26644520  1
  O2-  O241  1  0.45315718  0.41486250  0.60808530  1
  O2-  O242  1  0.45926752  0.41440541  0.93708204  1
  O2-  O243  1  0.45409365  0.91152946  0.27087122  1
  O2-  O244  1  0.45867753  0.91996639  0.59815732  1
  O2-  O245  1  0.45957468  0.91801205  0.93193263  1
  O2-  O246  1  0.95338463  0.41776802  0.26979730  1
  O2-  O247  1  0.95404092  0.40963711  0.60239331  1
  O2-  O248  1  0.95698181  0.41378230  0.92925746  1
  O2-  O249  1  0.95751715  0.91210888  0.27344317  1
  O2-  O250  1  0.95896298  0.92093348  0.59961738  1
  O2-  O251  1  0.96630830  0.91744694  0.93220515  1
  O2-  O252  1  0.33031473  0.29775223  0.26405575  1
  O2-  O253  1  0.33634814  0.29240321  0.60723327  1
  O2-  O254  1  0.33780136  0.29527345  0.93374368  1
  O2-  O255  1  0.33547511  0.79093833  0.27301180  1
  O2-  O256  1  0.33465617  0.79052935  0.59611233  1
  O2-  O257  1  0.33642716  0.78963767  0.93235517  1
  O2-  O258  1  0.83363329  0.29892943  0.27318783  1
  O2-  O259  1  0.83518466  0.29068818  0.60429125  1
  O2-  O260  1  0.83261915  0.28461438  0.93133740  1
  O2-  O261  1  0.83754243  0.79219964  0.27006001  1
  O2-  O262  1  0.82489351  0.79541758  0.60186117  1
  O2-  O263  1  0.82436563  0.80754753  0.93721070  1
  O2-  O264  1  0.41633106  0.04637176  0.05856989  1
  O2-  O265  1  0.41924498  0.04412626  0.39936180  1
  O2-  O266  1  0.41311668  0.04687980  0.72927250  1
  O2-  O267  1  0.41384798  0.54121950  0.06772870  1
  O2-  O268  1  0.42059254  0.54660786  0.40304093  1
  O2-  O269  1  0.41347245  0.53823751  0.73913459  1
  O2-  O270  1  0.92137757  0.04282427  0.06600449  1
  O2-  O271  1  0.91824280  0.04169736  0.40203666  1
  O2-  O272  1  0.92363056  0.04816651  0.73631763  1
  O2-  O273  1  0.92008674  0.54709897  0.05761223  1
  O2-  O274  1  0.91691811  0.55127067  0.39242247  1
  O2-  O275  1  0.91749718  0.53617224  0.73346245  1
  O2-  O276  1  0.29873479  0.16725823  0.05912042  1
  O2-  O277  1  0.29433349  0.17059034  0.39751246  1
  O2-  O278  1  0.29132326  0.16351410  0.73188910  1
  O2-  O279  1  0.28725272  0.66916448  0.06732357  1
  O2-  O280  1  0.29074441  0.66793918  0.40469311  1
  O2-  O281  1  0.28838496  0.66985546  0.73348223  1
  O2-  O282  1  0.78606479  0.16232828  0.06889318  1
  O2-  O283  1  0.79667148  0.17032524  0.40113358  1
  O2-  O284  1  0.78706114  0.16693575  0.73739305  1
  O2-  O285  1  0.80193021  0.66875506  0.05874130  1
  O2-  O286  1  0.79318830  0.66483632  0.39416762  1
  O2-  O287  1  0.79192011  0.66494562  0.73561900  1
