# generated using pymatgen
data_Ca2Al2SiO7
_symmetry_space_group_name_H-M   'P 1'
_cell_length_a   15.46281477
_cell_length_b   15.46371523
_cell_length_c   15.28784354
_cell_angle_alpha   89.99397617
_cell_angle_beta   89.99717482
_cell_angle_gamma   89.99536789
_symmetry_Int_Tables_number   1
_chemical_formula_structural   Ca2Al2SiO7
_chemical_formula_sum   'Ca48 Al48 Si24 O168'
_cell_volume   3655.51543360
_cell_formula_units_Z   24
loop_
 _symmetry_equiv_pos_site_id
 _symmetry_equiv_pos_as_xyz
  1  'x, y, z'
loop_
 _atom_type_symbol
 _atom_type_oxidation_number
  Ca2+  2.0
  Al0+  0.0
  Si0+  0.0
  O2-  -2.0
loop_
 _atom_site_type_symbol
 _atom_site_label
 _atom_site_symmetry_multiplicity
 _atom_site_fract_x
 _atom_site_fract_y
 _atom_site_fract_z
 _atom_site_occupancy
  Ca2+  Ca0  1  0.16702562  0.07501481  0.17199849  1
  Ca2+  Ca1  1  0.16818728  0.08191593  0.49824276  1
  Ca2+  Ca2  1  0.16162723  0.08238824  0.84076866  1
  Ca2+  Ca3  1  0.17792975  0.58594416  0.17612415  1
  Ca2+  Ca4  1  0.16938543  0.58750372  0.49711439  1
  Ca2+  Ca5  1  0.17526315  0.57831442  0.84323878  1
  Ca2+  Ca6  1  0.67461754  0.09157194  0.17394449  1
  Ca2+  Ca7  1  0.67660608  0.08193566  0.50617541  1
  Ca2+  Ca8  1  0.67744822  0.08242138  0.84042960  1
  Ca2+  Ca9  1  0.66411015  0.57923045  0.17747045  1
  Ca2+  Ca10  1  0.66462709  0.58092074  0.49433785  1
  Ca2+  Ca11  1  0.66469860  0.58235591  0.83938072  1
  Ca2+  Ca12  1  0.08078787  0.32581759  0.16232767  1
  Ca2+  Ca13  1  0.08126289  0.32621961  0.49802966  1
  Ca2+  Ca14  1  0.08501791  0.31843326  0.82927318  1
  Ca2+  Ca15  1  0.07641726  0.83947043  0.16613374  1
  Ca2+  Ca16  1  0.07213099  0.83302650  0.48955955  1
  Ca2+  Ca17  1  0.07127399  0.84345212  0.83280645  1
  Ca2+  Ca18  1  0.57916380  0.32508107  0.16672388  1
  Ca2+  Ca19  1  0.57631219  0.32991062  0.48912901  1
  Ca2+  Ca20  1  0.57517450  0.32596021  0.83533808  1
  Ca2+  Ca21  1  0.58693978  0.81904313  0.16381987  1
  Ca2+  Ca22  1  0.58790954  0.82959302  0.49277294  1
  Ca2+  Ca23  1  0.59098886  0.82734701  0.83100722  1
  Ca2+  Ca24  1  0.34383409  0.42187774  0.17038251  1
  Ca2+  Ca25  1  0.34247647  0.41903567  0.49876673  1
  Ca2+  Ca26  1  0.34062542  0.41753161  0.83920329  1
  Ca2+  Ca27  1  0.31939177  0.92010316  0.17641760  1
  Ca2+  Ca28  1  0.32879670  0.92108592  0.49817070  1
  Ca2+  Ca29  1  0.32131943  0.91879214  0.84420712  1
  Ca2+  Ca30  1  0.82314027  0.42410388  0.18082641  1
  Ca2+  Ca31  1  0.82765191  0.42189119  0.49769259  1
  Ca2+  Ca32  1  0.83187463  0.42038265  0.83943945  1
  Ca2+  Ca33  1  0.83868290  0.92416977  0.17032341  1
  Ca2+  Ca34  1  0.83276461  0.92047775  0.50342239  1
  Ca2+  Ca35  1  0.83515514  0.92169813  0.83433352  1
  Ca2+  Ca36  1  0.42356117  0.17214199  0.16291021  1
  Ca2+  Ca37  1  0.42139269  0.17519253  0.48661850  1
  Ca2+  Ca38  1  0.41622337  0.17783915  0.82742105  1
  Ca2+  Ca39  1  0.42384114  0.65727035  0.16380960  1
  Ca2+  Ca40  1  0.42131796  0.66817103  0.48941504  1
  Ca2+  Ca41  1  0.41998469  0.66385832  0.83650031  1
  Ca2+  Ca42  1  0.91844070  0.16008074  0.16003371  1
  Ca2+  Ca43  1  0.91870089  0.15498830  0.49756664  1
  Ca2+  Ca44  1  0.92541645  0.15239014  0.83268458  1
  Ca2+  Ca45  1  0.91419663  0.67961221  0.16552812  1
  Ca2+  Ca46  1  0.91813181  0.67815656  0.48639346  1
  Ca2+  Ca47  1  0.91542473  0.68248349  0.82781292  1
  Al0+  Al48  1  -0.00125404  -0.00016974  0.00058314  1
  Al0+  Al49  1  -0.00066178  -0.00091656  0.33724193  1
  Al0+  Al50  1  0.00053770  -0.00137115  0.65992204  1
  Al0+  Al51  1  0.00111050  0.50166097  0.00094291  1
  Al0+  Al52  1  0.00153303  0.50059687  0.33411831  1
  Al0+  Al53  1  0.00234772  0.49818565  0.66943640  1
  Al0+  Al54  1  0.50157220  -0.00235199  -0.00327774  1
  Al0+  Al55  1  0.49972765  0.00038363  0.33191946  1
  Al0+  Al56  1  0.49943142  -0.00136598  0.67179925  1
  Al0+  Al57  1  0.50142482  0.49985999  -0.00519476  1
  Al0+  Al58  1  0.49892937  0.49986261  0.33587409  1
  Al0+  Al59  1  0.50075079  0.50059593  0.66471299  1
  Al0+  Al60  1  0.24870301  0.25073982  -0.00707243  1
  Al0+  Al61  1  0.24898637  0.25124443  0.33184169  1
  Al0+  Al62  1  0.24902864  0.25175631  0.65763532  1
  Al0+  Al63  1  0.24990617  0.74849166  0.00856707  1
  Al0+  Al64  1  0.24824950  0.74926199  0.34074588  1
  Al0+  Al65  1  0.25221516  0.74913763  0.66927871  1
  Al0+  Al66  1  0.74918051  0.25157515  -0.00038455  1
  Al0+  Al67  1  0.74982404  0.25112284  0.34113161  1
  Al0+  Al68  1  0.75137617  0.25209737  0.67391970  1
  Al0+  Al69  1  0.75025168  0.75094174  -0.00952365  1
  Al0+  Al70  1  0.75089978  0.75130000  0.32709206  1
  Al0+  Al71  1  0.75072376  0.74918833  0.66477717  1
  Al0+  Al72  1  0.93129643  0.82009797  0.98418916  1
  Al0+  Al73  1  0.17857606  0.92960645  0.35112406  1
  Al0+  Al74  1  0.67801626  0.42992873  0.34917720  1
  Al0+  Al75  1  0.43051660  0.31889136  0.98471465  1
  Al0+  Al76  1  0.82210899  0.57372709  0.34653749  1
  Al0+  Al77  1  0.57376370  0.17674003  0.32087871  1
  Al0+  Al78  1  0.43141234  0.32041106  0.65005808  1
  Al0+  Al79  1  0.06822714  0.17930420  0.65043760  1
  Al0+  Al80  1  0.67755561  0.92653308  0.68228170  1
  Al0+  Al81  1  0.56866773  0.68127987  0.32096047  1
  Al0+  Al82  1  0.81763588  0.06929934  0.01453001  1
  Al0+  Al83  1  0.42778344  0.32055235  0.31718692  1
  Al0+  Al84  1  0.17879687  0.93096709  0.01349455  1
  Al0+  Al85  1  0.06804774  0.18047121  0.98887353  1
  Al0+  Al86  1  0.92964167  0.82212654  0.31551357  1
  Al0+  Al87  1  0.07294128  0.67712989  0.31779647  1
  Al0+  Al88  1  0.32029079  0.56909756  0.34823511  1
  Al0+  Al89  1  0.32118039  0.56748340  0.01408776  1
  Al0+  Al90  1  0.82218954  0.07041420  0.68390533  1
  Al0+  Al91  1  0.57454248  0.17544240  0.98387053  1
  Al0+  Al92  1  0.93031494  0.81827434  0.65026793  1
  Al0+  Al93  1  0.56923857  0.68031412  0.98519445  1
  Al0+  Al94  1  0.81955777  0.07114233  0.34669557  1
  Al0+  Al95  1  0.32234973  0.07324111  0.34666835  1
  Si0+  Si96  1  0.17562451  0.42622234  0.35152288  1
  Si0+  Si97  1  0.32185914  0.57013584  0.68331848  1
  Si0+  Si98  1  0.68092061  0.43148321  0.01416695  1
  Si0+  Si99  1  0.07474041  0.67688387  0.98312016  1
  Si0+  Si100  1  0.67760746  0.43122419  0.68459455  1
  Si0+  Si101  1  0.31974906  0.07360015  0.68084947  1
  Si0+  Si102  1  0.17943607  0.42757953  0.68284815  1
  Si0+  Si103  1  0.17642335  0.42587553  0.01663135  1
  Si0+  Si104  1  0.57343978  0.17686037  0.65186213  1
  Si0+  Si105  1  0.92701576  0.32568135  0.98527640  1
  Si0+  Si106  1  0.42586766  0.82183996  0.65285326  1
  Si0+  Si107  1  0.92651933  0.32588076  0.64990612  1
  Si0+  Si108  1  0.56959086  0.68059992  0.65084133  1
  Si0+  Si109  1  0.06870397  0.17951807  0.31823292  1
  Si0+  Si110  1  0.07444884  0.67543324  0.65209830  1
  Si0+  Si111  1  0.32404043  0.07435780  0.01353631  1
  Si0+  Si112  1  0.82212140  0.57373572  0.01280429  1
  Si0+  Si113  1  0.67688256  0.92465773  0.01746444  1
  Si0+  Si114  1  0.18146307  0.92921291  0.68152985  1
  Si0+  Si115  1  0.82231730  0.57005527  0.68193679  1
  Si0+  Si116  1  0.67705656  0.92685727  0.34594868  1
  Si0+  Si117  1  0.42538368  0.82355602  0.31779286  1
  Si0+  Si118  1  0.42458605  0.82138725  0.98484306  1
  Si0+  Si119  1  0.92813405  0.32221683  0.32078519  1
  O2-  O120  1  0.25774294  0.00307002  0.05707918  1
  O2-  O121  1  0.25224461  0.00096192  0.39996435  1
  O2-  O122  1  0.25111900  0.00100888  0.72496913  1
  O2-  O123  1  0.24528189  0.49392185  0.06032013  1
  O2-  O124  1  0.24478241  0.49513583  0.39528188  1
  O2-  O125  1  0.25015342  0.49940259  0.72461355  1
  O2-  O126  1  0.73913414  -0.00119735  0.06165365  1
  O2-  O127  1  0.74115629  -0.00070476  0.39065963  1
  O2-  O128  1  0.74677043  0.00107548  0.73291654  1
  O2-  O129  1  0.75552610  0.49932513  0.05485568  1
  O2-  O130  1  0.75023968  0.50274862  0.39876314  1
  O2-  O131  1  0.75233719  0.49900188  0.72680917  1
  O2-  O132  1  -0.00338594  0.24976256  0.27697934  1
  O2-  O133  1  -0.01059112  0.25167716  0.60626708  1
  O2-  O134  1  -0.00488441  0.25675607  0.94073682  1
  O2-  O135  1  0.00135339  0.74859479  0.26693581  1
  O2-  O136  1  0.00466925  0.74160997  0.60736475  1
  O2-  O137  1  0.00630945  0.74468715  0.93723857  1
  O2-  O138  1  0.49822050  0.24533207  0.27105530  1
  O2-  O139  1  0.50454169  0.24381005  0.60567201  1
  O2-  O140  1  0.49634825  0.24132157  0.93400753  1
  O2-  O141  1  0.49412641  0.75528023  0.27308335  1
  O2-  O142  1  0.50216433  0.75601825  0.61132817  1
  O2-  O143  1  0.49605014  0.75651328  0.93800785  1
  O2-  O144  1  0.06697909  0.18138667  0.10189328  1
  O2-  O145  1  0.06840030  0.18097280  0.42352094  1
  O2-  O146  1  0.06986063  0.18016047  0.76378735  1
  O2-  O147  1  0.07344780  0.67469426  0.08782424  1
  O2-  O148  1  0.07074501  0.67888150  0.43222514  1
  O2-  O149  1  0.07487479  0.67499379  0.75791745  1
  O2-  O150  1  0.57743813  0.18117019  0.09673410  1
  O2-  O151  1  0.57457216  0.17871068  0.43494146  1
  O2-  O152  1  0.57045207  0.17964228  0.75743151  1
  O2-  O153  1  0.56979147  0.67813991  0.09771250  1
  O2-  O154  1  0.56779779  0.68323871  0.43469001  1
  O2-  O155  1  0.56776874  0.67771693  0.75610724  1
  O2-  O156  1  0.17298495  0.42429776  0.24618559  1
  O2-  O157  1  0.17672816  0.42824225  0.57831331  1
  O2-  O158  1  0.17456406  0.42764583  0.91058241  1
  O2-  O159  1  0.17764769  0.93295030  0.23739820  1
  O2-  O160  1  0.18462563  0.92744064  0.57719555  1
  O2-  O161  1  0.17878869  0.93288022  0.89928299  1
  O2-  O162  1  0.67993178  0.43031418  0.23518411  1
  O2-  O163  1  0.67584214  0.43336196  0.58014794  1
  O2-  O164  1  0.68193807  0.43360010  0.90824458  1
  O2-  O165  1  0.67872864  0.92420540  0.24054721  1
  O2-  O166  1  0.67745491  0.92508876  0.56875592  1
  O2-  O167  1  0.68106235  0.92181545  0.91192471  1
  O2-  O168  1  0.43309002  0.32114776  0.09731061  1
  O2-  O169  1  0.43074791  0.32026047  0.43118557  1
  O2-  O170  1  0.43192064  0.32141058  0.76318530  1
  O2-  O171  1  0.42414050  0.81955560  0.08985231  1
  O2-  O172  1  0.42777969  0.82209350  0.42416441  1
  O2-  O173  1  0.41919259  0.81745597  0.75757233  1
  O2-  O174  1  0.92778352  0.32755080  0.09079067  1
  O2-  O175  1  0.93074835  0.32281506  0.42598687  1
  O2-  O176  1  0.93111292  0.33344519  0.75524104  1
  O2-  O177  1  0.93029498  0.82001693  0.09632788  1
  O2-  O178  1  0.92968587  0.82182228  0.42925200  1
  O2-  O179  1  0.93254786  0.81852886  0.76379080  1
  O2-  O180  1  0.31852274  0.07241227  0.23288251  1
  O2-  O181  1  0.31919586  0.07191828  0.57625142  1
  O2-  O182  1  0.32055461  0.07341979  0.90710651  1
  O2-  O183  1  0.32196845  0.56652647  0.23536850  1
  O2-  O184  1  0.32238022  0.57162672  0.57876593  1
  O2-  O185  1  0.31999187  0.56636434  0.89996751  1
  O2-  O186  1  0.82170441  0.07137821  0.23352776  1
  O2-  O187  1  0.82084593  0.06880167  0.57053940  1
  O2-  O188  1  0.82062411  0.06620381  0.90167035  1
  O2-  O189  1  0.81946293  0.57067734  0.23247529  1
  O2-  O190  1  0.82169456  0.56903061  0.57751585  1
  O2-  O191  1  0.82067707  0.57156144  0.90688684  1
  O2-  O192  1  0.04023665  0.08776963  0.27277806  1
  O2-  O193  1  0.04122533  0.08306077  0.59497470  1
  O2-  O194  1  0.03520475  0.08548942  0.93304665  1
  O2-  O195  1  0.04947092  0.57687781  0.26637952  1
  O2-  O196  1  0.05225154  0.58019703  0.60807159  1
  O2-  O197  1  0.05023317  0.58244731  0.93619541  1
  O2-  O198  1  0.55079796  0.07742650  0.26710655  1
  O2-  O199  1  0.55043111  0.08098882  0.60982154  1
  O2-  O200  1  0.55617245  0.07347333  0.93374107  1
  O2-  O201  1  0.53734366  0.58460656  0.26883303  1
  O2-  O202  1  0.53699059  0.59081042  0.60305047  1
  O2-  O203  1  0.53664394  0.58594153  0.92728013  1
  O2-  O204  1  0.15958435  0.20826413  0.27046804  1
  O2-  O205  1  0.16221238  0.21476168  0.59451825  1
  O2-  O206  1  0.16349989  0.20869113  0.93016835  1
  O2-  O207  1  0.17300617  0.70477647  0.26860866  1
  O2-  O208  1  0.16870574  0.70241436  0.60783739  1
  O2-  O209  1  0.16922415  0.70210037  0.93843899  1
  O2-  O210  1  0.67140728  0.21135433  0.26942864  1
  O2-  O211  1  0.66864875  0.20411753  0.61046688  1
  O2-  O212  1  0.66961415  0.21334070  0.92839303  1
  O2-  O213  1  0.66430048  0.71022424  0.26469879  1
  O2-  O214  1  0.66269971  0.70336726  0.60464657  1
  O2-  O215  1  0.66481309  0.70944478  0.92709526  1
  O2-  O216  1  0.08233827  0.45046258  0.06297781  1
  O2-  O217  1  0.08324612  0.45182835  0.40069722  1
  O2-  O218  1  0.08811049  0.45359484  0.73336489  1
  O2-  O219  1  0.08460171  0.96590355  0.06776087  1
  O2-  O220  1  0.08257260  0.96261173  0.40538080  1
  O2-  O221  1  0.08886166  0.95794822  0.72587360  1
  O2-  O222  1  0.59092538  0.46465938  0.05966412  1
  O2-  O223  1  0.58208288  0.46165345  0.40437291  1
  O2-  O224  1  0.58798289  0.46592038  0.73276072  1
  O2-  O225  1  0.57937353  0.93964163  0.05929451  1
  O2-  O226  1  0.58151015  0.94488492  0.39134240  1
  O2-  O227  1  0.57628057  0.94628475  0.73553197  1
  O2-  O228  1  0.20033574  0.33117901  0.06061553  1
  O2-  O229  1  0.20136447  0.33315324  0.39860421  1
  O2-  O230  1  0.20946207  0.33579033  0.72922190  1
  O2-  O231  1  0.20599170  0.83400649  0.06780529  1
  O2-  O232  1  0.20512438  0.83183806  0.40588683  1
  O2-  O233  1  0.21026974  0.83759496  0.73018593  1
  O2-  O234  1  0.70569486  0.33950537  0.06151576  1
  O2-  O235  1  0.70920518  0.33476322  0.40678747  1
  O2-  O236  1  0.70191915  0.33924991  0.73356120  1
  O2-  O237  1  0.70908929  0.83185797  0.06176326  1
  O2-  O238  1  0.70719763  0.83529432  0.39379306  1
  O2-  O239  1  0.70896695  0.82758456  0.73456970  1
  O2-  O240  1  0.46028490  0.41828453  0.26688228  1
  O2-  O241  1  0.46407735  0.41773819  0.59848145  1
  O2-  O242  1  0.46630172  0.41427239  0.92891209  1
  O2-  O243  1  0.44727181  0.91715353  0.27104286  1
  O2-  O244  1  0.44736407  0.91626358  0.60802370  1
  O2-  O245  1  0.44426270  0.91610427  0.93802162  1
  O2-  O246  1  0.95680825  0.41273044  0.27167248  1
  O2-  O247  1  0.95879840  0.41678848  0.60125590  1
  O2-  O248  1  0.95240035  0.41943129  0.93752072  1
  O2-  O249  1  0.96251350  0.92025595  0.26422735  1
  O2-  O250  1  0.96256640  0.91318613  0.59586793  1
  O2-  O251  1  0.96519538  0.91547854  0.93004967  1
  O2-  O252  1  0.32763021  0.29735029  0.26532572  1
  O2-  O253  1  0.33387562  0.29434271  0.59682011  1
  O2-  O254  1  0.33024131  0.29791618  0.93043023  1
  O2-  O255  1  0.33124045  0.79698536  0.27541541  1
  O2-  O256  1  0.33719317  0.78807735  0.60225556  1
  O2-  O257  1  0.33213637  0.79100006  0.93751732  1
  O2-  O258  1  0.83528464  0.29719935  0.27538715  1
  O2-  O259  1  0.82953764  0.30693225  0.60888904  1
  O2-  O260  1  0.83355839  0.30227475  0.93863412  1
  O2-  O261  1  0.83225431  0.79432627  0.26066453  1
  O2-  O262  1  0.83344405  0.78681227  0.59779913  1
  O2-  O263  1  0.83657106  0.78804586  0.92685457  1
  O2-  O264  1  0.41972172  0.05239682  0.05637983  1
  O2-  O265  1  0.42134537  0.04633711  0.40041748  1
  O2-  O266  1  0.41218996  0.04962849  0.72896791  1
  O2-  O267  1  0.41883311  0.53527249  0.06465180  1
  O2-  O268  1  0.41527102  0.53817007  0.40535334  1
  O2-  O269  1  0.41370204  0.54058693  0.73028292  1
  O2-  O270  1  0.91348055  0.03572929  0.06777840  1
  O2-  O271  1  0.91424807  0.03742651  0.40191174  1
  O2-  O272  1  0.92146700  0.03630020  0.73292888  1
  O2-  O273  1  0.91582594  0.55165689  0.05858268  1
  O2-  O274  1  0.91996351  0.54406357  0.40002747  1
  O2-  O275  1  0.91469739  0.54343438  0.73019440  1
  O2-  O276  1  0.29544998  0.16773969  0.05723030  1
  O2-  O277  1  0.29081070  0.17091681  0.39993140  1
  O2-  O278  1  0.28814367  0.16555169  0.72602594  1
  O2-  O279  1  0.29420133  0.66389478  0.06926601  1
  O2-  O280  1  0.29190159  0.66510880  0.40549820  1
  O2-  O281  1  0.29486247  0.66187542  0.73230186  1
  O2-  O282  1  0.79346911  0.16984260  0.06472206  1
  O2-  O283  1  0.79494106  0.16766053  0.40378364  1
  O2-  O284  1  0.80178575  0.17217803  0.73565306  1
  O2-  O285  1  0.79027664  0.66496049  0.05695330  1
  O2-  O286  1  0.79206437  0.67208446  0.39809041  1
  O2-  O287  1  0.79217787  0.66102371  0.72945199  1
