# generated using pymatgen
data_Ca2Al2SiO7
_symmetry_space_group_name_H-M   'P 1'
_cell_length_a   15.46216318
_cell_length_b   15.46185247
_cell_length_c   15.28627223
_cell_angle_alpha   89.98535270
_cell_angle_beta   89.99701457
_cell_angle_gamma   89.99935585
_symmetry_Int_Tables_number   1
_chemical_formula_structural   Ca2Al2SiO7
_chemical_formula_sum   'Ca48 Al48 Si24 O168'
_cell_volume   3654.54532284
_cell_formula_units_Z   24
loop_
 _symmetry_equiv_pos_site_id
 _symmetry_equiv_pos_as_xyz
  1  'x, y, z'
loop_
 _atom_type_symbol
 _atom_type_oxidation_number
  Ca2+  2.0
  Al0+  0.0
  Si0+  0.0
  O2-  -2.0
loop_
 _atom_site_type_symbol
 _atom_site_label
 _atom_site_symmetry_multiplicity
 _atom_site_fract_x
 _atom_site_fract_y
 _atom_site_fract_z
 _atom_site_occupancy
  Ca2+  Ca0  1  0.16550199  0.08467100  0.16781933  1
  Ca2+  Ca1  1  0.17863540  0.07930390  0.50994231  1
  Ca2+  Ca2  1  0.17202561  0.08567895  0.83722674  1
  Ca2+  Ca3  1  0.16996178  0.58141196  0.16785580  1
  Ca2+  Ca4  1  0.16738570  0.57446711  0.51150800  1
  Ca2+  Ca5  1  0.17276676  0.59046665  0.83555491  1
  Ca2+  Ca6  1  0.66956044  0.07901563  0.17035129  1
  Ca2+  Ca7  1  0.67100310  0.08419693  0.50460022  1
  Ca2+  Ca8  1  0.67394742  0.08062479  0.83952498  1
  Ca2+  Ca9  1  0.67451638  0.58552175  0.16560705  1
  Ca2+  Ca10  1  0.66989303  0.57324906  0.51169113  1
  Ca2+  Ca11  1  0.67585526  0.58414351  0.83806404  1
  Ca2+  Ca12  1  0.08488807  0.32728806  0.16153081  1
  Ca2+  Ca13  1  0.08574806  0.33861493  0.49822004  1
  Ca2+  Ca14  1  0.08453114  0.33049413  0.83137937  1
  Ca2+  Ca15  1  0.07326031  0.82790369  0.15375270  1
  Ca2+  Ca16  1  0.07723288  0.82758675  0.50391590  1
  Ca2+  Ca17  1  0.06996802  0.82269340  0.82829597  1
  Ca2+  Ca18  1  0.58086922  0.32097268  0.15665533  1
  Ca2+  Ca19  1  0.59249920  0.32141764  0.49872222  1
  Ca2+  Ca20  1  0.58789855  0.32380662  0.82832930  1
  Ca2+  Ca21  1  0.58201848  0.84275518  0.16562040  1
  Ca2+  Ca22  1  0.57290830  0.83875190  0.49611260  1
  Ca2+  Ca23  1  0.58097914  0.83509618  0.82881602  1
  Ca2+  Ca24  1  0.33206067  0.41776620  0.16732277  1
  Ca2+  Ca25  1  0.32130637  0.42048673  0.51081897  1
  Ca2+  Ca26  1  0.33153039  0.42538145  0.83865851  1
  Ca2+  Ca27  1  0.33208966  0.91626812  0.17155905  1
  Ca2+  Ca28  1  0.33979474  0.91821208  0.50823847  1
  Ca2+  Ca29  1  0.33773588  0.92098106  0.83267705  1
  Ca2+  Ca30  1  0.83883573  0.42343636  0.16519179  1
  Ca2+  Ca31  1  0.82723674  0.42224949  0.51175359  1
  Ca2+  Ca32  1  0.83034831  0.42734230  0.83097209  1
  Ca2+  Ca33  1  0.82453214  0.92393106  0.16900480  1
  Ca2+  Ca34  1  0.82928839  0.92597673  0.50574175  1
  Ca2+  Ca35  1  0.83366582  0.92034584  0.84233241  1
  Ca2+  Ca36  1  0.42995231  0.17185322  0.15771952  1
  Ca2+  Ca37  1  0.43075649  0.16107391  0.49778374  1
  Ca2+  Ca38  1  0.42804229  0.17002220  0.82777619  1
  Ca2+  Ca39  1  0.41580497  0.67119145  0.16206044  1
  Ca2+  Ca40  1  0.40794452  0.67660930  0.50093604  1
  Ca2+  Ca41  1  0.41205261  0.66932970  0.82617589  1
  Ca2+  Ca42  1  0.91849702  0.16223546  0.15885316  1
  Ca2+  Ca43  1  0.91194985  0.16490201  0.49797769  1
  Ca2+  Ca44  1  0.91946895  0.15783403  0.82913227  1
  Ca2+  Ca45  1  0.92254660  0.67182164  0.15122412  1
  Ca2+  Ca46  1  0.91616808  0.66594157  0.50269713  1
  Ca2+  Ca47  1  0.91639161  0.67184607  0.82520636  1
  Al0+  Al48  1  0.00098682  -0.00060071  -0.00420304  1
  Al0+  Al49  1  0.00060520  -0.00025869  0.33682328  1
  Al0+  Al50  1  0.00131232  -0.00126007  0.66350769  1
  Al0+  Al51  1  0.00313730  0.49758989  0.00071892  1
  Al0+  Al52  1  0.00180547  0.49939701  0.33532200  1
  Al0+  Al53  1  -0.00117829  0.49765445  0.67007739  1
  Al0+  Al54  1  0.49948214  0.00177704  0.00009305  1
  Al0+  Al55  1  0.50012297  0.00004462  0.32643945  1
  Al0+  Al56  1  0.50077584  0.00115362  0.66329908  1
  Al0+  Al57  1  0.49791007  0.50211301  0.00325013  1
  Al0+  Al58  1  0.50032110  0.50263438  0.33374227  1
  Al0+  Al59  1  0.49714767  0.49656887  0.67236105  1
  Al0+  Al60  1  0.25024450  0.25095938  -0.00633746  1
  Al0+  Al61  1  0.24983190  0.25058465  0.33724211  1
  Al0+  Al62  1  0.25161277  0.24887196  0.67387168  1
  Al0+  Al63  1  0.24966956  0.74997978  0.00218287  1
  Al0+  Al64  1  0.24918471  0.75030485  0.32857805  1
  Al0+  Al65  1  0.24703382  0.74982406  0.66088534  1
  Al0+  Al66  1  0.75132651  0.25076024  -0.00059569  1
  Al0+  Al67  1  0.75252768  0.25160978  0.32881419  1
  Al0+  Al68  1  0.75211968  0.24812839  0.67041069  1
  Al0+  Al69  1  0.74753594  0.75118046  0.00584654  1
  Al0+  Al70  1  0.74906687  0.75203975  0.33775579  1
  Al0+  Al71  1  0.74796177  0.75122239  0.66243658  1
  Al0+  Al72  1  0.18077118  0.42955388  0.34681497  1
  Al0+  Al73  1  0.67665551  0.93012392  0.35163417  1
  Al0+  Al74  1  0.42931827  0.32350035  0.98411958  1
  Al0+  Al75  1  0.42938210  0.81953617  0.31762231  1
  Al0+  Al76  1  0.67645673  0.92956641  0.01513564  1
  Al0+  Al77  1  0.82342294  0.07189549  0.01457775  1
  Al0+  Al78  1  0.32095827  0.57287865  0.01660835  1
  Al0+  Al79  1  0.06824900  0.67675330  0.65018882  1
  Al0+  Al80  1  0.82196805  0.06841816  0.68071505  1
  Al0+  Al81  1  0.92603670  0.81903499  0.98646978  1
  Al0+  Al82  1  0.43031494  0.81919483  0.65521759  1
  Al0+  Al83  1  0.81840504  0.57315738  0.68046014  1
  Al0+  Al84  1  0.82211242  0.57018535  0.01308367  1
  Al0+  Al85  1  0.57238298  0.18114032  0.31770397  1
  Al0+  Al86  1  0.67759106  0.42595947  0.68117035  1
  Al0+  Al87  1  0.32343899  0.06890748  0.68067171  1
  Al0+  Al88  1  0.17715467  0.42738807  0.68534457  1
  Al0+  Al89  1  0.31885259  0.57280584  0.68134017  1
  Al0+  Al90  1  0.92534762  0.82292252  0.64865151  1
  Al0+  Al91  1  0.57205999  0.18147447  0.65193261  1
  Al0+  Al92  1  0.57249204  0.17858162  0.98243789  1
  Al0+  Al93  1  0.07234739  0.67718047  0.98557113  1
  Al0+  Al94  1  0.06966140  0.17851838  0.98637487  1
  Al0+  Al95  1  0.82178613  0.07231470  0.34929554  1
  Si0+  Si96  1  0.17833365  0.92725479  0.34815086  1
  Si0+  Si97  1  0.92853618  0.82188153  0.31792316  1
  Si0+  Si98  1  0.42637672  0.32311473  0.31914338  1
  Si0+  Si99  1  0.57022607  0.67970504  0.98685987  1
  Si0+  Si100  1  0.93079445  0.31803014  0.65187369  1
  Si0+  Si101  1  0.82204615  0.57097613  0.34707408  1
  Si0+  Si102  1  0.67686285  0.92896035  0.68154260  1
  Si0+  Si103  1  0.57414530  0.67630836  0.31600085  1
  Si0+  Si104  1  0.07413027  0.17822701  0.65021484  1
  Si0+  Si105  1  0.32215130  0.57409779  0.35039771  1
  Si0+  Si106  1  0.32028853  0.07249337  0.01566388  1
  Si0+  Si107  1  0.93088507  0.32245927  0.31864140  1
  Si0+  Si108  1  0.31971743  0.06974699  0.34594341  1
  Si0+  Si109  1  0.17813807  0.92807144  0.68368610  1
  Si0+  Si110  1  0.07252021  0.17866027  0.32122483  1
  Si0+  Si111  1  0.57174504  0.67404286  0.65161363  1
  Si0+  Si112  1  0.18006813  0.42578869  0.01857338  1
  Si0+  Si113  1  0.18087467  0.93004686  0.01424286  1
  Si0+  Si114  1  0.92773565  0.32336153  0.98181513  1
  Si0+  Si115  1  0.42618482  0.32189156  0.64887533  1
  Si0+  Si116  1  0.42795211  0.82147552  0.98580245  1
  Si0+  Si117  1  0.67911942  0.42990072  0.34524492  1
  Si0+  Si118  1  0.67758799  0.42910965  0.01753205  1
  Si0+  Si119  1  0.06843588  0.67819567  0.31717305  1
  O2-  O120  1  0.24965954  0.00197425  0.05961431  1
  O2-  O121  1  0.25105574  -0.00312686  0.38941719  1
  O2-  O122  1  0.24798464  -0.00464624  0.72821876  1
  O2-  O123  1  0.24706832  0.49658085  0.06240055  1
  O2-  O124  1  0.25655284  0.50247381  0.39348658  1
  O2-  O125  1  0.24761408  0.50142346  0.73340153  1
  O2-  O126  1  0.74860246  0.00261692  0.06399128  1
  O2-  O127  1  0.74851833  0.00265246  0.40059590  1
  O2-  O128  1  0.75125137  -0.00970100  0.72615136  1
  O2-  O129  1  0.74875277  0.49521076  0.06301827  1
  O2-  O130  1  0.74758435  0.50313923  0.38782310  1
  O2-  O131  1  0.74174200  0.50570856  0.72969136  1
  O2-  O132  1  -0.00003490  0.24809188  0.27893431  1
  O2-  O133  1  0.00347339  0.24915917  0.60745290  1
  O2-  O134  1  -0.00819568  0.24943654  0.93928470  1
  O2-  O135  1  -0.00283110  0.74867814  0.27475417  1
  O2-  O136  1  -0.00591930  0.74660636  0.59900928  1
  O2-  O137  1  -0.00685970  0.74182036  0.93757431  1
  O2-  O138  1  0.49787022  0.25820293  0.27408117  1
  O2-  O139  1  0.49797065  0.25692595  0.60345144  1
  O2-  O140  1  0.50334413  0.25411930  0.93384671  1
  O2-  O141  1  0.50512472  0.74526635  0.27194685  1
  O2-  O142  1  0.50170309  0.74162428  0.60724040  1
  O2-  O143  1  0.50002202  0.75159738  0.94494034  1
  O2-  O144  1  0.07203092  0.18075527  0.10053584  1
  O2-  O145  1  0.07521833  0.17933596  0.42598622  1
  O2-  O146  1  0.07288397  0.17740539  0.75505587  1
  O2-  O147  1  0.07209792  0.68133732  0.10044075  1
  O2-  O148  1  0.06759555  0.67724077  0.42180402  1
  O2-  O149  1  0.06904557  0.68026403  0.76316172  1
  O2-  O150  1  0.56930018  0.17895236  0.09664357  1
  O2-  O151  1  0.57193796  0.18197742  0.43095650  1
  O2-  O152  1  0.57140373  0.18061277  0.76420523  1
  O2-  O153  1  0.56938004  0.67861669  0.09222993  1
  O2-  O154  1  0.57359096  0.67168175  0.42105654  1
  O2-  O155  1  0.57345408  0.67716961  0.75727723  1
  O2-  O156  1  0.17975935  0.42908147  0.23401329  1
  O2-  O157  1  0.17951491  0.42733462  0.57087141  1
  O2-  O158  1  0.18092258  0.42314005  0.91388743  1
  O2-  O159  1  0.17697877  0.92879502  0.24277108  1
  O2-  O160  1  0.17871676  0.93138912  0.57718998  1
  O2-  O161  1  0.18463652  0.93018729  0.90971968  1
  O2-  O162  1  0.68039095  0.43066219  0.24027091  1
  O2-  O163  1  0.68281482  0.42565964  0.56632320  1
  O2-  O164  1  0.67712811  0.43220334  0.91246889  1
  O2-  O165  1  0.67882486  0.93083314  0.23841908  1
  O2-  O166  1  0.67427725  0.93291677  0.57599691  1
  O2-  O167  1  0.67408222  0.92861431  0.90170656  1
  O2-  O168  1  0.42999725  0.31986748  0.09900450  1
  O2-  O169  1  0.42457075  0.32068864  0.42431585  1
  O2-  O170  1  0.42521794  0.31897866  0.75393186  1
  O2-  O171  1  0.42659533  0.82036340  0.09112220  1
  O2-  O172  1  0.42708813  0.81852123  0.43050429  1
  O2-  O173  1  0.43258681  0.82078508  0.76846502  1
  O2-  O174  1  0.93130176  0.32597165  0.08820104  1
  O2-  O175  1  0.93078348  0.32556491  0.42353478  1
  O2-  O176  1  0.93050010  0.31631538  0.75657252  1
  O2-  O177  1  0.93007258  0.81937066  0.10111830  1
  O2-  O178  1  0.93137208  0.82130249  0.42260822  1
  O2-  O179  1  0.92782612  0.82434147  0.76175720  1
  O2-  O180  1  0.31548922  0.07055118  0.24063878  1
  O2-  O181  1  0.32241281  0.06701426  0.56655476  1
  O2-  O182  1  0.32047716  0.06957336  0.91090137  1
  O2-  O183  1  0.32030764  0.57483100  0.24474776  1
  O2-  O184  1  0.31718331  0.57193499  0.56706914  1
  O2-  O185  1  0.31953834  0.57668085  0.90444615  1
  O2-  O186  1  0.82582577  0.07056506  0.23630232  1
  O2-  O187  1  0.81966477  0.07111183  0.56754622  1
  O2-  O188  1  0.82434694  0.06797742  0.90121925  1
  O2-  O189  1  0.82412873  0.56874142  0.24186622  1
  O2-  O190  1  0.81814067  0.56806700  0.56581949  1
  O2-  O191  1  0.81900080  0.57033300  0.90089636  1
  O2-  O192  1  0.04731211  0.08576036  0.27397279  1
  O2-  O193  1  0.04800288  0.08661406  0.60147771  1
  O2-  O194  1  0.04544954  0.08164564  0.93040862  1
  O2-  O195  1  0.04070513  0.58601923  0.26986744  1
  O2-  O196  1  0.04062306  0.57666961  0.59866218  1
  O2-  O197  1  0.05512737  0.57503260  0.93852440  1
  O2-  O198  1  0.53812532  0.08644795  0.26311606  1
  O2-  O199  1  0.53764300  0.08644715  0.59659506  1
  O2-  O200  1  0.53852694  0.08144697  0.93083110  1
  O2-  O201  1  0.54877078  0.58311392  0.26712346  1
  O2-  O202  1  0.54792166  0.57874470  0.60745276  1
  O2-  O203  1  0.54241310  0.58852966  0.93966861  1
  O2-  O204  1  0.16342810  0.20837287  0.27193243  1
  O2-  O205  1  0.16688288  0.20601616  0.60403980  1
  O2-  O206  1  0.16491033  0.21043685  0.93095923  1
  O2-  O207  1  0.16047776  0.70600013  0.27018064  1
  O2-  O208  1  0.16439076  0.70905597  0.59352035  1
  O2-  O209  1  0.16805315  0.71438026  0.93379525  1
  O2-  O210  1  0.66865206  0.21284674  0.26334516  1
  O2-  O211  1  0.66909613  0.21390366  0.59859283  1
  O2-  O212  1  0.67271533  0.20467846  0.93288473  1
  O2-  O213  1  0.66869969  0.70217904  0.27103189  1
  O2-  O214  1  0.66393056  0.69891524  0.60217976  1
  O2-  O215  1  0.66170065  0.70706440  0.93961377  1
  O2-  O216  1  0.08590140  0.44812929  0.06548074  1
  O2-  O217  1  0.08436858  0.46106048  0.40156926  1
  O2-  O218  1  0.07721011  0.44948300  0.73580346  1
  O2-  O219  1  0.08919077  0.95769131  0.06209179  1
  O2-  O220  1  0.08867621  0.95661198  0.39811096  1
  O2-  O221  1  0.08589596  0.95642961  0.72942313  1
  O2-  O222  1  0.58550464  0.45748669  0.06530481  1
  O2-  O223  1  0.58638724  0.45427136  0.39317481  1
  O2-  O224  1  0.57642048  0.44241528  0.73104309  1
  O2-  O225  1  0.57751595  0.95875827  0.06893311  1
  O2-  O226  1  0.57593155  0.95828168  0.39995943  1
  O2-  O227  1  0.58602600  0.96011742  0.72903060  1
  O2-  O228  1  0.20909975  0.33269096  0.06562296  1
  O2-  O229  1  0.20800650  0.33237847  0.40258008  1
  O2-  O230  1  0.20584348  0.32923089  0.73749699  1
  O2-  O231  1  0.21048147  0.84025755  0.06521492  1
  O2-  O232  1  0.20518048  0.83459149  0.39384629  1
  O2-  O233  1  0.20251187  0.83413603  0.72700649  1
  O2-  O234  1  0.70262907  0.33501278  0.06291740  1
  O2-  O235  1  0.71081828  0.33950349  0.39238370  1
  O2-  O236  1  0.71683851  0.33323296  0.73652635  1
  O2-  O237  1  0.70166565  0.83154219  0.07138757  1
  O2-  O238  1  0.70229530  0.83022422  0.40371673  1
  O2-  O239  1  0.69354146  0.83202785  0.72322177  1
  O2-  O240  1  0.44783221  0.41915629  0.27550877  1
  O2-  O241  1  0.44583744  0.41759170  0.60408128  1
  O2-  O242  1  0.45265648  0.42465011  0.93553073  1
  O2-  O243  1  0.45675474  0.91616559  0.26169015  1
  O2-  O244  1  0.46337926  0.91428435  0.59860558  1
  O2-  O245  1  0.45331099  0.91409093  0.93961672  1
  O2-  O246  1  0.96280347  0.41266624  0.26907678  1
  O2-  O247  1  0.95575870  0.41014413  0.60316434  1
  O2-  O248  1  0.95927445  0.41414356  0.93412496  1
  O2-  O249  1  0.96076927  0.91303695  0.27162178  1
  O2-  O250  1  0.96220279  0.91865607  0.59327914  1
  O2-  O251  1  0.96102354  0.91454233  0.93326309  1
  O2-  O252  1  0.33374813  0.29369944  0.27196122  1
  O2-  O253  1  0.33308424  0.29149239  0.60334554  1
  O2-  O254  1  0.33252465  0.29347789  0.93079213  1
  O2-  O255  1  0.33203481  0.78982356  0.26208668  1
  O2-  O256  1  0.33305926  0.79346630  0.59884840  1
  O2-  O257  1  0.33687942  0.79271864  0.93893514  1
  O2-  O258  1  0.83984578  0.29900411  0.26801561  1
  O2-  O259  1  0.84042858  0.28761568  0.60273530  1
  O2-  O260  1  0.83219804  0.30554110  0.93818279  1
  O2-  O261  1  0.83465113  0.79695230  0.27387379  1
  O2-  O262  1  0.82587166  0.79868892  0.59494551  1
  O2-  O263  1  0.82560198  0.79535441  0.93697664  1
  O2-  O264  1  0.41096318  0.04356510  0.06423750  1
  O2-  O265  1  0.41208185  0.04236327  0.39082379  1
  O2-  O266  1  0.41849686  0.03564566  0.73501517  1
  O2-  O267  1  0.41759004  0.54437986  0.07310237  1
  O2-  O268  1  0.41794812  0.55432925  0.39432602  1
  O2-  O269  1  0.41793196  0.54780259  0.73413494  1
  O2-  O270  1  0.92289978  0.04225879  0.06645294  1
  O2-  O271  1  0.92097757  0.04365749  0.40234536  1
  O2-  O272  1  0.92152297  0.04213582  0.73033713  1
  O2-  O273  1  0.91905684  0.53829247  0.06774397  1
  O2-  O274  1  0.91200396  0.53890340  0.39515778  1
  O2-  O275  1  0.91415342  0.53885762  0.73305072  1
  O2-  O276  1  0.29073280  0.16421109  0.06192848  1
  O2-  O277  1  0.29046390  0.15994822  0.39540688  1
  O2-  O278  1  0.29250715  0.16360170  0.73614230  1
  O2-  O279  1  0.28788491  0.66870897  0.07266633  1
  O2-  O280  1  0.29201084  0.66722186  0.39478605  1
  O2-  O281  1  0.29016358  0.67241016  0.73184729  1
  O2-  O282  1  0.80103059  0.17335367  0.06516422  1
  O2-  O283  1  0.79687977  0.17405796  0.39792340  1
  O2-  O284  1  0.79128515  0.16372551  0.73515510  1
  O2-  O285  1  0.78881207  0.66471177  0.07012215  1
  O2-  O286  1  0.79878226  0.66382276  0.39342375  1
  O2-  O287  1  0.79390087  0.67348949  0.73057189  1
