# generated using pymatgen
data_Ca2Al2SiO7
_symmetry_space_group_name_H-M   'P 1'
_cell_length_a   15.47087033
_cell_length_b   15.46959547
_cell_length_c   15.29194502
_cell_angle_alpha   89.98832761
_cell_angle_beta   89.97590423
_cell_angle_gamma   89.98997399
_symmetry_Int_Tables_number   1
_chemical_formula_structural   Ca2Al2SiO7
_chemical_formula_sum   'Ca48 Al48 Si24 O168'
_cell_volume   3659.79177591
_cell_formula_units_Z   24
loop_
 _symmetry_equiv_pos_site_id
 _symmetry_equiv_pos_as_xyz
  1  'x, y, z'
loop_
 _atom_type_symbol
 _atom_type_oxidation_number
  Ca2+  2.0
  Al0+  0.0
  Si0+  0.0
  O2-  -2.0
loop_
 _atom_site_type_symbol
 _atom_site_label
 _atom_site_symmetry_multiplicity
 _atom_site_fract_x
 _atom_site_fract_y
 _atom_site_fract_z
 _atom_site_occupancy
  Ca2+  Ca0  1  0.15743534  0.07897593  0.17287580  1
  Ca2+  Ca1  1  0.15569582  0.07923066  0.50120951  1
  Ca2+  Ca2  1  0.16248083  0.08846888  0.83762857  1
  Ca2+  Ca3  1  0.16800080  0.57586285  0.17593346  1
  Ca2+  Ca4  1  0.17276700  0.57810659  0.50427924  1
  Ca2+  Ca5  1  0.17040404  0.59069424  0.83545768  1
  Ca2+  Ca6  1  0.68100509  0.08563481  0.17049432  1
  Ca2+  Ca7  1  0.67956234  0.08559956  0.50565287  1
  Ca2+  Ca8  1  0.68023013  0.08298049  0.83773518  1
  Ca2+  Ca9  1  0.67090389  0.58728040  0.16351764  1
  Ca2+  Ca10  1  0.67651820  0.57543709  0.51068439  1
  Ca2+  Ca11  1  0.67665619  0.58039337  0.83672837  1
  Ca2+  Ca12  1  0.07714443  0.32674188  0.16256843  1
  Ca2+  Ca13  1  0.07274625  0.32507646  0.49319571  1
  Ca2+  Ca14  1  0.07008165  0.32387212  0.82834636  1
  Ca2+  Ca15  1  0.08219550  0.82813193  0.16195515  1
  Ca2+  Ca16  1  0.08797211  0.82735688  0.49928184  1
  Ca2+  Ca17  1  0.07654169  0.82267737  0.83500040  1
  Ca2+  Ca18  1  0.57381259  0.33611945  0.16220297  1
  Ca2+  Ca19  1  0.57881857  0.34412850  0.50286327  1
  Ca2+  Ca20  1  0.57411978  0.34405804  0.82924360  1
  Ca2+  Ca21  1  0.57584505  0.82866836  0.16175074  1
  Ca2+  Ca22  1  0.56938260  0.83535433  0.49503300  1
  Ca2+  Ca23  1  0.58114676  0.82651709  0.82867671  1
  Ca2+  Ca24  1  0.32425139  0.42052380  0.17531919  1
  Ca2+  Ca25  1  0.32838277  0.42455639  0.50767076  1
  Ca2+  Ca26  1  0.33487492  0.41719527  0.83631052  1
  Ca2+  Ca27  1  0.32461216  0.91635910  0.17749180  1
  Ca2+  Ca28  1  0.32896226  0.91062078  0.50368818  1
  Ca2+  Ca29  1  0.33303659  0.91609106  0.83384771  1
  Ca2+  Ca30  1  0.84438524  0.41973141  0.16647688  1
  Ca2+  Ca31  1  0.83008002  0.41256183  0.51076698  1
  Ca2+  Ca32  1  0.84053260  0.42173809  0.83507915  1
  Ca2+  Ca33  1  0.84585505  0.92927492  0.16773284  1
  Ca2+  Ca34  1  0.83926746  0.93122833  0.50453737  1
  Ca2+  Ca35  1  0.84540859  0.92768409  0.83950943  1
  Ca2+  Ca36  1  0.41767023  0.17384279  0.15917734  1
  Ca2+  Ca37  1  0.41877747  0.17321189  0.49995085  1
  Ca2+  Ca38  1  0.41740377  0.18186652  0.82751662  1
  Ca2+  Ca39  1  0.41847572  0.66728582  0.16413489  1
  Ca2+  Ca40  1  0.40612263  0.67253698  0.49743573  1
  Ca2+  Ca41  1  0.42442853  0.66653491  0.82476857  1
  Ca2+  Ca42  1  0.92254702  0.17273869  0.16095762  1
  Ca2+  Ca43  1  0.91688461  0.17333491  0.49390015  1
  Ca2+  Ca44  1  0.92109869  0.16809516  0.82611057  1
  Ca2+  Ca45  1  0.92326547  0.67331708  0.14963223  1
  Ca2+  Ca46  1  0.92331898  0.65767526  0.50032722  1
  Ca2+  Ca47  1  0.92402121  0.65959706  0.82867945  1
  Al0+  Al48  1  0.00272831  -0.00194535  -0.00103396  1
  Al0+  Al49  1  0.00072645  -0.00080611  0.34065622  1
  Al0+  Al50  1  0.00168832  -0.00385769  0.66970172  1
  Al0+  Al51  1  0.00300990  0.49833158  -0.00216704  1
  Al0+  Al52  1  0.00152705  0.49913007  0.33403600  1
  Al0+  Al53  1  0.00196679  0.49705679  0.66110677  1
  Al0+  Al54  1  0.49975645  0.00211659  0.00150828  1
  Al0+  Al55  1  0.49975130  -0.00044335  0.32704019  1
  Al0+  Al56  1  0.49805572  -0.00020644  0.66407598  1
  Al0+  Al57  1  0.50050497  0.50325548  -0.00555589  1
  Al0+  Al58  1  0.50236025  0.50278317  0.33548893  1
  Al0+  Al59  1  0.49985358  0.50185535  0.66805957  1
  Al0+  Al60  1  0.25065489  0.25148615  -0.00554417  1
  Al0+  Al61  1  0.24944918  0.24857625  0.33411896  1
  Al0+  Al62  1  0.25129134  0.24854949  0.65836328  1
  Al0+  Al63  1  0.25045627  0.75214880  -0.00090993  1
  Al0+  Al64  1  0.24977566  0.75229054  0.33505502  1
  Al0+  Al65  1  0.24890500  0.74951865  0.66564387  1
  Al0+  Al66  1  0.74777419  0.25109537  0.00389650  1
  Al0+  Al67  1  0.74945264  0.25203097  0.33288516  1
  Al0+  Al68  1  0.74775941  0.24776648  0.67458575  1
  Al0+  Al69  1  0.74775537  0.75208798  -0.00339273  1
  Al0+  Al70  1  0.74804937  0.75105855  0.33441258  1
  Al0+  Al71  1  0.74994326  0.75030300  0.66784683  1
  Al0+  Al72  1  0.92654542  0.31804722  0.65183320  1
  Al0+  Al73  1  0.06997333  0.17833600  0.98560873  1
  Al0+  Al74  1  0.07243716  0.67738721  0.98705071  1
  Al0+  Al75  1  0.32127445  0.57027349  0.34741950  1
  Al0+  Al76  1  0.07111331  0.17543505  0.64991931  1
  Al0+  Al77  1  0.18017274  0.93093156  0.34838379  1
  Al0+  Al78  1  0.43000325  0.82011284  0.65330076  1
  Al0+  Al79  1  0.07008586  0.67822695  0.65149920  1
  Al0+  Al80  1  0.92848093  0.82141030  0.98699896  1
  Al0+  Al81  1  0.67841505  0.42818325  0.68308358  1
  Al0+  Al82  1  0.82454132  0.57051697  0.68121948  1
  Al0+  Al83  1  0.81918893  0.07054178  0.34735418  1
  Al0+  Al84  1  0.07043360  0.17668942  0.31785180  1
  Al0+  Al85  1  0.42782119  0.81999574  0.31790449  1
  Al0+  Al86  1  0.31768642  0.57123207  0.68235237  1
  Al0+  Al87  1  0.82130346  0.06809531  0.68189096  1
  Al0+  Al88  1  0.57071174  0.68089711  0.98490993  1
  Al0+  Al89  1  0.92681012  0.32209533  0.31661289  1
  Al0+  Al90  1  0.92650723  0.32146679  0.98442345  1
  Al0+  Al91  1  0.82222481  0.57033604  0.01323942  1
  Al0+  Al92  1  0.43070594  0.32327652  0.65095481  1
  Al0+  Al93  1  0.43012909  0.32139904  0.98801876  1
  Al0+  Al94  1  0.82178106  0.07026280  0.01524337  1
  Al0+  Al95  1  0.17726006  0.42572181  0.34986725  1
  Si0+  Si96  1  0.32186923  0.57247472  0.01394320  1
  Si0+  Si97  1  0.07001169  0.68009688  0.31952402  1
  Si0+  Si98  1  0.57098181  0.17941659  0.31836153  1
  Si0+  Si99  1  0.67426392  0.92835947  0.01802007  1
  Si0+  Si100  1  0.92714609  0.82104828  0.64926732  1
  Si0+  Si101  1  0.92724663  0.81999415  0.32120641  1
  Si0+  Si102  1  0.42767415  0.82428198  0.98357951  1
  Si0+  Si103  1  0.32601537  0.07269112  0.35000636  1
  Si0+  Si104  1  0.18220702  0.92939966  0.01563388  1
  Si0+  Si105  1  0.67464222  0.92860665  0.68256654  1
  Si0+  Si106  1  0.57382359  0.67796288  0.31569224  1
  Si0+  Si107  1  0.32133063  0.07362111  0.01388096  1
  Si0+  Si108  1  0.67919527  0.43036691  0.34686138  1
  Si0+  Si109  1  0.43002427  0.32288058  0.31982180  1
  Si0+  Si110  1  0.17999271  0.42476802  0.68442701  1
  Si0+  Si111  1  0.57336422  0.67848926  0.64760617  1
  Si0+  Si112  1  0.67550610  0.92758783  0.34973125  1
  Si0+  Si113  1  0.18142399  0.42808065  0.01373667  1
  Si0+  Si114  1  0.57035837  0.17666601  0.65072248  1
  Si0+  Si115  1  0.32200969  0.07118981  0.68183988  1
  Si0+  Si116  1  0.18049326  0.92818208  0.68494763  1
  Si0+  Si117  1  0.82167774  0.57333835  0.34498761  1
  Si0+  Si118  1  0.67500880  0.43068774  0.01880396  1
  Si0+  Si119  1  0.57198815  0.17725907  0.98368356  1
  O2-  O120  1  0.25216908  0.00191259  0.05735527  1
  O2-  O121  1  0.25512088  0.00635909  0.39413696  1
  O2-  O122  1  0.24816208  0.00362245  0.72529472  1
  O2-  O123  1  0.24980517  0.50285383  0.05575435  1
  O2-  O124  1  0.25206381  0.49623610  0.39795715  1
  O2-  O125  1  0.24594970  0.49514286  0.73152052  1
  O2-  O126  1  0.74637897  -0.00571175  0.06146080  1
  O2-  O127  1  0.74449004  -0.00482928  0.39424567  1
  O2-  O128  1  0.74748876  -0.00848616  0.72802990  1
  O2-  O129  1  0.74900387  0.49423154  0.06282335  1
  O2-  O130  1  0.75376308  0.49893247  0.38600393  1
  O2-  O131  1  0.75401621  0.49716364  0.73158760  1
  O2-  O132  1  0.00031662  0.25045956  0.26847421  1
  O2-  O133  1  -0.00282041  0.24535378  0.60095748  1
  O2-  O134  1  -0.00735351  0.24368744  0.93580052  1
  O2-  O135  1  -0.00635948  0.74532027  0.27801085  1
  O2-  O136  1  -0.00967863  0.74782330  0.60431432  1
  O2-  O137  1  -0.00724926  0.74184171  0.93822460  1
  O2-  O138  1  0.49767726  0.24892994  0.27658487  1
  O2-  O139  1  0.50744624  0.25012878  0.60484019  1
  O2-  O140  1  0.50585333  0.24836405  0.94032107  1
  O2-  O141  1  0.50272005  0.74511994  0.27255931  1
  O2-  O142  1  0.50484150  0.74734572  0.60372121  1
  O2-  O143  1  0.49685073  0.75712908  0.93947789  1
  O2-  O144  1  0.07243246  0.17880526  0.09893030  1
  O2-  O145  1  0.06572534  0.17549299  0.43082802  1
  O2-  O146  1  0.07098736  0.17677854  0.76351204  1
  O2-  O147  1  0.07538763  0.68067735  0.10128365  1
  O2-  O148  1  0.07002135  0.68143162  0.42451143  1
  O2-  O149  1  0.07264251  0.68313807  0.76430009  1
  O2-  O150  1  0.56845229  0.17619084  0.08981178  1
  O2-  O151  1  0.57083809  0.17921842  0.42320906  1
  O2-  O152  1  0.56419343  0.17187885  0.75586967  1
  O2-  O153  1  0.56679308  0.68026055  0.09849449  1
  O2-  O154  1  0.57810556  0.67878208  0.42059662  1
  O2-  O155  1  0.57196988  0.68048627  0.75324861  1
  O2-  O156  1  0.17927488  0.42880816  0.23525103  1
  O2-  O157  1  0.18376973  0.42666613  0.57892117  1
  O2-  O158  1  0.18504976  0.42551081  0.90910168  1
  O2-  O159  1  0.18113389  0.92897569  0.23492314  1
  O2-  O160  1  0.18187113  0.92678579  0.57982137  1
  O2-  O161  1  0.18522900  0.92655132  0.91076045  1
  O2-  O162  1  0.67272371  0.43135868  0.24213750  1
  O2-  O163  1  0.67801619  0.43182786  0.56850567  1
  O2-  O164  1  0.66943059  0.43442504  0.91418621  1
  O2-  O165  1  0.67448373  0.92758950  0.24437716  1
  O2-  O166  1  0.67215872  0.93260450  0.57686695  1
  O2-  O167  1  0.66715305  0.93247584  0.91290977  1
  O2-  O168  1  0.43000263  0.31958557  0.10186603  1
  O2-  O169  1  0.43383509  0.32353770  0.42450356  1
  O2-  O170  1  0.42980542  0.32068155  0.76410353  1
  O2-  O171  1  0.42650033  0.82331505  0.08921491  1
  O2-  O172  1  0.42938314  0.82036171  0.43075484  1
  O2-  O173  1  0.43236816  0.82067412  0.76657455  1
  O2-  O174  1  0.93186527  0.32201489  0.09799482  1
  O2-  O175  1  0.92230535  0.32035427  0.42968581  1
  O2-  O176  1  0.92845283  0.31709530  0.76517201  1
  O2-  O177  1  0.93443977  0.82233433  0.10141471  1
  O2-  O178  1  0.92701209  0.81837601  0.42619533  1
  O2-  O179  1  0.93068157  0.82380036  0.75452992  1
  O2-  O180  1  0.32894629  0.07093279  0.24405114  1
  O2-  O181  1  0.32612231  0.06903991  0.57707235  1
  O2-  O182  1  0.32236532  0.07238159  0.90884325  1
  O2-  O183  1  0.32121089  0.56859708  0.23291018  1
  O2-  O184  1  0.31583035  0.57166516  0.56943380  1
  O2-  O185  1  0.32168170  0.57299707  0.90906024  1
  O2-  O186  1  0.81853737  0.06861310  0.23422766  1
  O2-  O187  1  0.81905506  0.06728820  0.56848914  1
  O2-  O188  1  0.82025664  0.06743758  0.90243922  1
  O2-  O189  1  0.81967230  0.57663873  0.23998850  1
  O2-  O190  1  0.82087975  0.57138317  0.56669161  1
  O2-  O191  1  0.82156118  0.56911951  0.90101515  1
  O2-  O192  1  0.03992829  0.07688523  0.26775067  1
  O2-  O193  1  0.04564279  0.07406973  0.60204675  1
  O2-  O194  1  0.04931323  0.07788989  0.93467304  1
  O2-  O195  1  0.04835029  0.58653406  0.27341296  1
  O2-  O196  1  0.04545544  0.58104412  0.59588667  1
  O2-  O197  1  0.05306335  0.57803730  0.93456519  1
  O2-  O198  1  0.54582200  0.08809463  0.26851315  1
  O2-  O199  1  0.53891955  0.08655852  0.60044236  1
  O2-  O200  1  0.54394408  0.08486907  0.93687211  1
  O2-  O201  1  0.54884371  0.58436091  0.26874360  1
  O2-  O202  1  0.54673049  0.58547963  0.60244258  1
  O2-  O203  1  0.53748964  0.58717011  0.92836292  1
  O2-  O204  1  0.17253555  0.19872969  0.26796810  1
  O2-  O205  1  0.17004700  0.20091128  0.59711090  1
  O2-  O206  1  0.16729041  0.20985266  0.93201913  1
  O2-  O207  1  0.15954290  0.71378805  0.27205151  1
  O2-  O208  1  0.16382808  0.71653574  0.59702565  1
  O2-  O209  1  0.16806183  0.71449590  0.93321526  1
  O2-  O210  1  0.66048108  0.21090118  0.26916491  1
  O2-  O211  1  0.66580387  0.19747129  0.60805507  1
  O2-  O212  1  0.66632183  0.19980697  0.93976800  1
  O2-  O213  1  0.66603889  0.70692400  0.26717552  1
  O2-  O214  1  0.66759179  0.70294350  0.60191328  1
  O2-  O215  1  0.66605032  0.71001007  0.92883949  1
  O2-  O216  1  0.08989276  0.45350741  0.06223049  1
  O2-  O217  1  0.08011552  0.45756985  0.40336118  1
  O2-  O218  1  0.08487162  0.44817102  0.72650717  1
  O2-  O219  1  0.09063247  0.95533581  0.06379666  1
  O2-  O220  1  0.08472617  0.95800397  0.40634110  1
  O2-  O221  1  0.08835635  0.95140954  0.73324713  1
  O2-  O222  1  0.58335012  0.46415514  0.06669887  1
  O2-  O223  1  0.58985710  0.46143532  0.39784530  1
  O2-  O224  1  0.58133551  0.46178988  0.73564828  1
  O2-  O225  1  0.58192887  0.95758679  0.06755348  1
  O2-  O226  1  0.58173960  0.95524240  0.39457088  1
  O2-  O227  1  0.58262643  0.95826008  0.73024750  1
  O2-  O228  1  0.21474117  0.33826717  0.06271744  1
  O2-  O229  1  0.20354572  0.32650631  0.40111943  1
  O2-  O230  1  0.20980980  0.33121499  0.72809889  1
  O2-  O231  1  0.21222090  0.83881169  0.06571317  1
  O2-  O232  1  0.21312626  0.83574779  0.40377635  1
  O2-  O233  1  0.21447100  0.83919356  0.73306558  1
  O2-  O234  1  0.69120230  0.33424007  0.06315570  1
  O2-  O235  1  0.70282672  0.33817132  0.39494646  1
  O2-  O236  1  0.69523828  0.32755054  0.73543627  1
  O2-  O237  1  0.69442721  0.83301968  0.06211683  1
  O2-  O238  1  0.69876258  0.83366110  0.39654970  1
  O2-  O239  1  0.69447048  0.83267605  0.72562952  1
  O2-  O240  1  0.46223729  0.41360076  0.27226125  1
  O2-  O241  1  0.46155170  0.41991392  0.59711829  1
  O2-  O242  1  0.45918200  0.41749459  0.93349417  1
  O2-  O243  1  0.45812103  0.91639407  0.26216032  1
  O2-  O244  1  0.45865091  0.91690838  0.59789491  1
  O2-  O245  1  0.45127184  0.91935817  0.93951543  1
  O2-  O246  1  0.95642266  0.42176236  0.26569141  1
  O2-  O247  1  0.95428832  0.41609092  0.59789951  1
  O2-  O248  1  0.96198941  0.41690010  0.93114947  1
  O2-  O249  1  0.96075961  0.91037330  0.27554257  1
  O2-  O250  1  0.96091989  0.91153610  0.60176271  1
  O2-  O251  1  0.96777616  0.91414612  0.93093733  1
  O2-  O252  1  0.33731293  0.29782154  0.27354416  1
  O2-  O253  1  0.33703760  0.28869220  0.59474308  1
  O2-  O254  1  0.33664804  0.28864515  0.93047126  1
  O2-  O255  1  0.33136292  0.78945289  0.26353258  1
  O2-  O256  1  0.33393331  0.78809643  0.59996633  1
  O2-  O257  1  0.33488376  0.79856885  0.93720517  1
  O2-  O258  1  0.82748489  0.29537098  0.26382558  1
  O2-  O259  1  0.82530922  0.29098446  0.60357169  1
  O2-  O260  1  0.82306443  0.30347749  0.93928109  1
  O2-  O261  1  0.83355796  0.79851098  0.27431133  1
  O2-  O262  1  0.83057922  0.80462165  0.60560483  1
  O2-  O263  1  0.82643483  0.80823431  0.93814835  1
  O2-  O264  1  0.41371562  0.04843228  0.06259244  1
  O2-  O265  1  0.41932565  0.04487268  0.39563386  1
  O2-  O266  1  0.41178935  0.03944914  0.73140926  1
  O2-  O267  1  0.41335693  0.54339608  0.06094167  1
  O2-  O268  1  0.42151116  0.54670489  0.39918362  1
  O2-  O269  1  0.41613240  0.54361365  0.73339097  1
  O2-  O270  1  0.91865895  0.03568150  0.06748323  1
  O2-  O271  1  0.91331045  0.03682886  0.40313493  1
  O2-  O272  1  0.91763562  0.03465715  0.73522414  1
  O2-  O273  1  0.92075814  0.54170769  0.06647008  1
  O2-  O274  1  0.91465165  0.54975189  0.39095760  1
  O2-  O275  1  0.92472844  0.54351949  0.73084677  1
  O2-  O276  1  0.29413285  0.16568442  0.06111593  1
  O2-  O277  1  0.30514252  0.16750559  0.39476113  1
  O2-  O278  1  0.29650928  0.16453949  0.72742624  1
  O2-  O279  1  0.29629931  0.66568172  0.06036602  1
  O2-  O280  1  0.28982128  0.66800356  0.39858571  1
  O2-  O281  1  0.28578797  0.66765662  0.73647869  1
  O2-  O282  1  0.78941225  0.16684813  0.06958842  1
  O2-  O283  1  0.78454114  0.16681781  0.39962698  1
  O2-  O284  1  0.78886297  0.16230696  0.73822215  1
  O2-  O285  1  0.78974371  0.66880944  0.06478019  1
  O2-  O286  1  0.79163623  0.66359021  0.39468933  1
  O2-  O287  1  0.79692746  0.67074596  0.73201113  1
