# generated using pymatgen
data_Ca2Al2SiO7
_symmetry_space_group_name_H-M   'P 1'
_cell_length_a   15.46312834
_cell_length_b   15.46438571
_cell_length_c   15.28725311
_cell_angle_alpha   90.00961097
_cell_angle_beta   90.00954537
_cell_angle_gamma   90.02711940
_symmetry_Int_Tables_number   1
_chemical_formula_structural   Ca2Al2SiO7
_chemical_formula_sum   'Ca48 Al48 Si24 O168'
_cell_volume   3655.60640236
_cell_formula_units_Z   24
loop_
 _symmetry_equiv_pos_site_id
 _symmetry_equiv_pos_as_xyz
  1  'x, y, z'
loop_
 _atom_type_symbol
 _atom_type_oxidation_number
  Ca2+  2.0
  Al0+  0.0
  Si0+  0.0
  O2-  -2.0
loop_
 _atom_site_type_symbol
 _atom_site_label
 _atom_site_symmetry_multiplicity
 _atom_site_fract_x
 _atom_site_fract_y
 _atom_site_fract_z
 _atom_site_occupancy
  Ca2+  Ca0  1  0.17103969  0.07522557  0.17655058  1
  Ca2+  Ca1  1  0.17671517  0.08294899  0.50464166  1
  Ca2+  Ca2  1  0.16884484  0.08106070  0.83316148  1
  Ca2+  Ca3  1  0.16503103  0.56881846  0.16955893  1
  Ca2+  Ca4  1  0.17438386  0.57122464  0.50755274  1
  Ca2+  Ca5  1  0.17325699  0.57361449  0.83583909  1
  Ca2+  Ca6  1  0.67386568  0.09281766  0.17007556  1
  Ca2+  Ca7  1  0.67615414  0.08439084  0.51147932  1
  Ca2+  Ca8  1  0.66581026  0.08575392  0.83390898  1
  Ca2+  Ca9  1  0.66528341  0.58559694  0.16087257  1
  Ca2+  Ca10  1  0.66646713  0.57536757  0.50675783  1
  Ca2+  Ca11  1  0.66553196  0.57195220  0.84282201  1
  Ca2+  Ca12  1  0.09181541  0.32713903  0.16436512  1
  Ca2+  Ca13  1  0.09426731  0.32152555  0.49659578  1
  Ca2+  Ca14  1  0.08396705  0.33279837  0.82491983  1
  Ca2+  Ca15  1  0.07932589  0.83940753  0.15818243  1
  Ca2+  Ca16  1  0.09029405  0.83764330  0.49617171  1
  Ca2+  Ca17  1  0.08095514  0.84187979  0.82993448  1
  Ca2+  Ca18  1  0.56994446  0.32971848  0.15501436  1
  Ca2+  Ca19  1  0.57747037  0.32930463  0.49785633  1
  Ca2+  Ca20  1  0.58591191  0.32736662  0.82834587  1
  Ca2+  Ca21  1  0.57404203  0.83150927  0.16012598  1
  Ca2+  Ca22  1  0.57673947  0.83625040  0.49714345  1
  Ca2+  Ca23  1  0.58893215  0.82590890  0.82772234  1
  Ca2+  Ca24  1  0.32829509  0.40720631  0.17018561  1
  Ca2+  Ca25  1  0.32680615  0.41474528  0.50413687  1
  Ca2+  Ca26  1  0.32438727  0.41044570  0.83630908  1
  Ca2+  Ca27  1  0.32492080  0.92033535  0.17730040  1
  Ca2+  Ca28  1  0.32952583  0.92609619  0.50612658  1
  Ca2+  Ca29  1  0.32334107  0.92387220  0.83520060  1
  Ca2+  Ca30  1  0.82589033  0.41932291  0.16460367  1
  Ca2+  Ca31  1  0.82566431  0.41573859  0.50659310  1
  Ca2+  Ca32  1  0.82031921  0.41817277  0.84025536  1
  Ca2+  Ca33  1  0.83192297  0.92030382  0.17012233  1
  Ca2+  Ca34  1  0.82790941  0.92901428  0.50547419  1
  Ca2+  Ca35  1  0.83224770  0.92153083  0.83305224  1
  Ca2+  Ca36  1  0.41438480  0.17458576  0.16286820  1
  Ca2+  Ca37  1  0.41829821  0.16331924  0.49482199  1
  Ca2+  Ca38  1  0.42476935  0.16977855  0.82938502  1
  Ca2+  Ca39  1  0.41901023  0.67424885  0.16278590  1
  Ca2+  Ca40  1  0.41151783  0.67263731  0.49621026  1
  Ca2+  Ca41  1  0.41750044  0.66388819  0.83021816  1
  Ca2+  Ca42  1  0.92316722  0.16198095  0.16812195  1
  Ca2+  Ca43  1  0.92709385  0.15701679  0.49823242  1
  Ca2+  Ca44  1  0.92388793  0.16561740  0.82344289  1
  Ca2+  Ca45  1  0.91706696  0.67343412  0.15444754  1
  Ca2+  Ca46  1  0.92084143  0.66989352  0.49573726  1
  Ca2+  Ca47  1  0.91192423  0.67113419  0.83362886  1
  Al0+  Al48  1  -0.00101511  -0.00025964  -0.00098134  1
  Al0+  Al49  1  -0.00201203  -0.00061746  0.33517692  1
  Al0+  Al50  1  -0.00186496  0.00071748  0.66674881  1
  Al0+  Al51  1  0.00026224  0.50073148  0.00666563  1
  Al0+  Al52  1  -0.00169774  0.49913404  0.33679138  1
  Al0+  Al53  1  -0.00006635  0.50268599  0.66671172  1
  Al0+  Al54  1  0.49933195  0.00110936  -0.00316091  1
  Al0+  Al55  1  0.50097520  -0.00221585  0.32889589  1
  Al0+  Al56  1  0.50079989  -0.00112315  0.67036157  1
  Al0+  Al57  1  0.49700330  0.50118930  -0.00313709  1
  Al0+  Al58  1  0.50079393  0.49929881  0.32858581  1
  Al0+  Al59  1  0.50138276  0.50076885  0.67100796  1
  Al0+  Al60  1  0.25072086  0.24813254  -0.00099439  1
  Al0+  Al61  1  0.25012127  0.24723584  0.33213104  1
  Al0+  Al62  1  0.25042988  0.24986841  0.67015757  1
  Al0+  Al63  1  0.24716966  0.74882508  0.00318956  1
  Al0+  Al64  1  0.24967730  0.74654990  0.32879522  1
  Al0+  Al65  1  0.24939198  0.74953812  0.67332507  1
  Al0+  Al66  1  0.75143529  0.25078290  0.00266005  1
  Al0+  Al67  1  0.75267025  0.25167988  0.33798006  1
  Al0+  Al68  1  0.75085395  0.25089163  0.66937650  1
  Al0+  Al69  1  0.75020893  0.75253303  -0.00492836  1
  Al0+  Al70  1  0.75214108  0.74847233  0.33383601  1
  Al0+  Al71  1  0.75030783  0.75126510  0.66368835  1
  Al0+  Al72  1  0.57371569  0.17960539  0.98477992  1
  Al0+  Al73  1  0.07130820  0.17969734  0.65279312  1
  Al0+  Al74  1  0.81906843  0.57298655  0.01443141  1
  Al0+  Al75  1  0.67643962  0.42784155  0.01712709  1
  Al0+  Al76  1  0.42661141  0.32109437  0.98273902  1
  Al0+  Al77  1  0.82044697  0.07130070  0.68343956  1
  Al0+  Al78  1  0.81917614  0.07150554  0.34702939  1
  Al0+  Al79  1  0.18018038  0.42766681  0.01481349  1
  Al0+  Al80  1  0.17812798  0.93056909  0.01439168  1
  Al0+  Al81  1  0.06910598  0.17915166  0.31951556  1
  Al0+  Al82  1  0.57131633  0.17825217  0.65193478  1
  Al0+  Al83  1  0.17833863  0.92613940  0.34704299  1
  Al0+  Al84  1  0.67835047  0.92818814  0.68152805  1
  Al0+  Al85  1  0.68041573  0.42957937  0.67914531  1
  Al0+  Al86  1  0.32280861  0.06987576  0.34726663  1
  Al0+  Al87  1  0.93017225  0.82183306  0.98444491  1
  Al0+  Al88  1  0.32382583  0.07299125  0.68321897  1
  Al0+  Al89  1  0.17913158  0.42774529  0.34725281  1
  Al0+  Al90  1  0.32182887  0.57181614  0.68116344  1
  Al0+  Al91  1  0.42857900  0.82093728  0.32049897  1
  Al0+  Al92  1  0.17879581  0.42832139  0.68116616  1
  Al0+  Al93  1  0.56906597  0.68219574  0.98531406  1
  Al0+  Al94  1  0.42987005  0.31945168  0.32092904  1
  Al0+  Al95  1  0.17864712  0.92960623  0.68148248  1
  Si0+  Si96  1  0.93005496  0.32298143  0.98683381  1
  Si0+  Si97  1  0.57557643  0.17802016  0.31912983  1
  Si0+  Si98  1  0.32281513  0.07040635  0.01789503  1
  Si0+  Si99  1  0.92889402  0.82074016  0.64833231  1
  Si0+  Si100  1  0.57396076  0.67777546  0.31689399  1
  Si0+  Si101  1  0.82258347  0.57413100  0.68153617  1
  Si0+  Si102  1  0.42944286  0.32288585  0.64993855  1
  Si0+  Si103  1  0.32370746  0.57046707  0.34774128  1
  Si0+  Si104  1  0.82119887  0.07124313  0.01571536  1
  Si0+  Si105  1  0.06894639  0.17943133  0.98571784  1
  Si0+  Si106  1  0.92606251  0.32444042  0.31530242  1
  Si0+  Si107  1  0.92857192  0.32478585  0.65065968  1
  Si0+  Si108  1  0.07122592  0.67602421  0.98213344  1
  Si0+  Si109  1  0.67821185  0.92946866  0.01437301  1
  Si0+  Si110  1  0.42768427  0.81934318  0.65360862  1
  Si0+  Si111  1  0.42424102  0.82255440  0.98156159  1
  Si0+  Si112  1  0.92984344  0.81896249  0.31824525  1
  Si0+  Si113  1  0.57178998  0.67817240  0.65068871  1
  Si0+  Si114  1  0.67862010  0.92500296  0.34759885  1
  Si0+  Si115  1  0.82095886  0.57241444  0.34935536  1
  Si0+  Si116  1  0.67834606  0.43065920  0.34799596  1
  Si0+  Si117  1  0.07026505  0.67571057  0.31782195  1
  Si0+  Si118  1  0.07207560  0.67948660  0.65079330  1
  Si0+  Si119  1  0.32173449  0.57335081  0.01945633  1
  O2-  O120  1  0.25664565  -0.00065577  0.06199565  1
  O2-  O121  1  0.25218189  -0.00411361  0.39656942  1
  O2-  O122  1  0.24818367  0.00346296  0.73155744  1
  O2-  O123  1  0.25609970  0.50100403  0.06245022  1
  O2-  O124  1  0.25592559  0.50128593  0.39203381  1
  O2-  O125  1  0.25305805  0.49736839  0.73151613  1
  O2-  O126  1  0.74493743  0.00465188  0.05692812  1
  O2-  O127  1  0.74038884  -0.00013616  0.39109949  1
  O2-  O128  1  0.74642277  0.00213375  0.73407119  1
  O2-  O129  1  0.74690876  0.50235258  0.06687092  1
  O2-  O130  1  0.74982297  0.50157083  0.39070821  1
  O2-  O131  1  0.75584466  0.50412019  0.72446857  1
  O2-  O132  1  -0.00384260  0.25649761  0.27223437  1
  O2-  O133  1  -0.00091473  0.25819924  0.60639954  1
  O2-  O134  1  0.00196815  0.25403173  0.94376380  1
  O2-  O135  1  0.00344824  0.75095240  0.27570956  1
  O2-  O136  1  0.00201754  0.75121179  0.60676056  1
  O2-  O137  1  0.00484590  0.74694350  0.93757541  1
  O2-  O138  1  0.50391407  0.24310126  0.27520091  1
  O2-  O139  1  0.49480850  0.25111785  0.60470015  1
  O2-  O140  1  0.50412507  0.25384398  0.93469766  1
  O2-  O141  1  0.50598631  0.74791347  0.27455175  1
  O2-  O142  1  0.49973936  0.74863731  0.61006947  1
  O2-  O143  1  0.49350226  0.75499542  0.93649130  1
  O2-  O144  1  0.06666623  0.17809438  0.09099246  1
  O2-  O145  1  0.06819593  0.17936618  0.43228890  1
  O2-  O146  1  0.06775396  0.18028416  0.76645118  1
  O2-  O147  1  0.06887650  0.67583579  0.08816730  1
  O2-  O148  1  0.06728722  0.67414357  0.42307790  1
  O2-  O149  1  0.06946216  0.67773270  0.75539795  1
  O2-  O150  1  0.57404775  0.17963518  0.09901803  1
  O2-  O151  1  0.57760775  0.18061907  0.42464191  1
  O2-  O152  1  0.57216854  0.18155829  0.76447037  1
  O2-  O153  1  0.56895850  0.68708065  0.09902664  1
  O2-  O154  1  0.57553508  0.67643524  0.42263222  1
  O2-  O155  1  0.57464211  0.67910302  0.75523205  1
  O2-  O156  1  0.17888107  0.43028060  0.23412288  1
  O2-  O157  1  0.17955142  0.43038059  0.56738730  1
  O2-  O158  1  0.17797467  0.42971153  0.90221347  1
  O2-  O159  1  0.17778480  0.92871541  0.23325599  1
  O2-  O160  1  0.18259489  0.92676943  0.56811241  1
  O2-  O161  1  0.17695419  0.93512808  0.90178005  1
  O2-  O162  1  0.67900317  0.43140252  0.24356784  1
  O2-  O163  1  0.68046693  0.43279968  0.56505995  1
  O2-  O164  1  0.68145338  0.42738081  0.90374566  1
  O2-  O165  1  0.68254542  0.92007942  0.24191176  1
  O2-  O166  1  0.68132271  0.92557085  0.56743401  1
  O2-  O167  1  0.68091141  0.92774245  0.90991124  1
  O2-  O168  1  0.42519601  0.31610975  0.09684423  1
  O2-  O169  1  0.43376244  0.32373795  0.43380709  1
  O2-  O170  1  0.43211507  0.32418799  0.75511117  1
  O2-  O171  1  0.42625728  0.82124588  0.08757655  1
  O2-  O172  1  0.42966883  0.81831048  0.43385030  1
  O2-  O173  1  0.42770857  0.81628903  0.75839916  1
  O2-  O174  1  0.92919413  0.32095974  0.09199288  1
  O2-  O175  1  0.92237551  0.32683899  0.42057615  1
  O2-  O176  1  0.92947377  0.32583751  0.75652113  1
  O2-  O177  1  0.93092259  0.82251828  0.09826014  1
  O2-  O178  1  0.92624801  0.81503613  0.42320319  1
  O2-  O179  1  0.92691701  0.81875830  0.75317144  1
  O2-  O180  1  0.32075684  0.06934069  0.23353133  1
  O2-  O181  1  0.32485123  0.07013356  0.56950364  1
  O2-  O182  1  0.32162209  0.07029861  0.91255909  1
  O2-  O183  1  0.32332655  0.57134053  0.24240309  1
  O2-  O184  1  0.31951260  0.57333455  0.56699388  1
  O2-  O185  1  0.31841607  0.57719083  0.91428627  1
  O2-  O186  1  0.81920863  0.06935501  0.23320966  1
  O2-  O187  1  0.82078366  0.06755693  0.56964854  1
  O2-  O188  1  0.82473019  0.07018344  0.91141126  1
  O2-  O189  1  0.82104731  0.57604235  0.24511167  1
  O2-  O190  1  0.82118068  0.57473120  0.57510061  1
  O2-  O191  1  0.81872556  0.57048297  0.90083492  1
  O2-  O192  1  0.03364182  0.08316490  0.26527795  1
  O2-  O193  1  0.03648139  0.08394803  0.59887140  1
  O2-  O194  1  0.03545481  0.09025254  0.93749518  1
  O2-  O195  1  0.03639755  0.58581561  0.26985149  1
  O2-  O196  1  0.04238882  0.58880200  0.60038265  1
  O2-  O197  1  0.04248007  0.58312334  0.93640316  1
  O2-  O198  1  0.55778747  0.08214123  0.27445178  1
  O2-  O199  1  0.54498630  0.07887828  0.60029617  1
  O2-  O200  1  0.54572471  0.08037940  0.93245592  1
  O2-  O201  1  0.54747718  0.58572095  0.26853748  1
  O2-  O202  1  0.54465433  0.58638308  0.60224941  1
  O2-  O203  1  0.54144875  0.58460660  0.93226768  1
  O2-  O204  1  0.16523958  0.20831797  0.26412457  1
  O2-  O205  1  0.16947208  0.20858098  0.60001119  1
  O2-  O206  1  0.16192039  0.20296216  0.93997050  1
  O2-  O207  1  0.16321427  0.69572122  0.26974892  1
  O2-  O208  1  0.16438309  0.70705964  0.60417267  1
  O2-  O209  1  0.16602485  0.69939989  0.93818575  1
  O2-  O210  1  0.66841655  0.20822782  0.27328167  1
  O2-  O211  1  0.66865763  0.21191005  0.59940095  1
  O2-  O212  1  0.67442847  0.20504823  0.93439112  1
  O2-  O213  1  0.66832549  0.70287370  0.27146569  1
  O2-  O214  1  0.66305724  0.70656619  0.60080570  1
  O2-  O215  1  0.66449964  0.71437784  0.93041588  1
  O2-  O216  1  0.08452519  0.45912933  0.07070118  1
  O2-  O217  1  0.08207791  0.45889067  0.40024172  1
  O2-  O218  1  0.08011238  0.45970223  0.73217968  1
  O2-  O219  1  0.08195645  0.96474702  0.06791286  1
  O2-  O220  1  0.07912751  0.95258405  0.39798355  1
  O2-  O221  1  0.07886653  0.95540215  0.73125231  1
  O2-  O222  1  0.57654786  0.45655696  0.06619428  1
  O2-  O223  1  0.58734483  0.46051895  0.39582352  1
  O2-  O224  1  0.58598060  0.46128971  0.73446583  1
  O2-  O225  1  0.58391528  0.95186546  0.06013182  1
  O2-  O226  1  0.58247744  0.94320650  0.38981984  1
  O2-  O227  1  0.57968542  0.94882158  0.73500173  1
  O2-  O228  1  0.21007997  0.32978577  0.06732962  1
  O2-  O229  1  0.21053880  0.33146254  0.39928584  1
  O2-  O230  1  0.20355567  0.33038328  0.73491664  1
  O2-  O231  1  0.20109794  0.83061515  0.06573665  1
  O2-  O232  1  0.20237580  0.82435728  0.39499580  1
  O2-  O233  1  0.20645756  0.83229397  0.73647486  1
  O2-  O234  1  0.71036234  0.33136589  0.07161228  1
  O2-  O235  1  0.70720854  0.34005419  0.39692794  1
  O2-  O236  1  0.71198499  0.33525955  0.73483821  1
  O2-  O237  1  0.71125539  0.84035361  0.06322163  1
  O2-  O238  1  0.71005256  0.83386146  0.39626095  1
  O2-  O239  1  0.71173475  0.83019512  0.73321967  1
  O2-  O240  1  0.46083864  0.41559353  0.26470174  1
  O2-  O241  1  0.45902079  0.41620408  0.60400383  1
  O2-  O242  1  0.44469800  0.42294658  0.93427161  1
  O2-  O243  1  0.45812509  0.91602654  0.26152899  1
  O2-  O244  1  0.45625240  0.91063889  0.60600958  1
  O2-  O245  1  0.44829357  0.91687887  0.93758425  1
  O2-  O246  1  0.94951898  0.41912324  0.27000901  1
  O2-  O247  1  0.94930602  0.42025639  0.60444054  1
  O2-  O248  1  0.95615987  0.41560926  0.94067887  1
  O2-  O249  1  0.95344659  0.91156103  0.27107852  1
  O2-  O250  1  0.95479990  0.91281066  0.60130732  1
  O2-  O251  1  0.96199574  0.91774510  0.92957109  1
  O2-  O252  1  0.33405938  0.28842617  0.26596856  1
  O2-  O253  1  0.33379845  0.30092243  0.60701448  1
  O2-  O254  1  0.33003649  0.28682603  0.92884177  1
  O2-  O255  1  0.33377638  0.78716172  0.26343549  1
  O2-  O256  1  0.33639604  0.78910896  0.60601693  1
  O2-  O257  1  0.33012836  0.79512759  0.93785515  1
  O2-  O258  1  0.83321275  0.29597398  0.26821500  1
  O2-  O259  1  0.83549890  0.29770748  0.60432538  1
  O2-  O260  1  0.83891887  0.29372591  0.93938956  1
  O2-  O261  1  0.83892386  0.78778013  0.26959154  1
  O2-  O262  1  0.83865929  0.78967522  0.59821170  1
  O2-  O263  1  0.83474833  0.79152086  0.92876616  1
  O2-  O264  1  0.41790562  0.04824053  0.06285431  1
  O2-  O265  1  0.42366565  0.04362486  0.39697729  1
  O2-  O266  1  0.41982099  0.04107601  0.73749041  1
  O2-  O267  1  0.41688513  0.55323444  0.06373720  1
  O2-  O268  1  0.41870522  0.54794757  0.39277238  1
  O2-  O269  1  0.42165788  0.54992350  0.73260394  1
  O2-  O270  1  0.91026350  0.03706144  0.06487212  1
  O2-  O271  1  0.91277504  0.03494497  0.40183726  1
  O2-  O272  1  0.91671597  0.03820672  0.73679415  1
  O2-  O273  1  0.91679396  0.54512374  0.06939152  1
  O2-  O274  1  0.91159221  0.54462429  0.39910487  1
  O2-  O275  1  0.91687817  0.55328642  0.72688937  1
  O2-  O276  1  0.29266435  0.16256546  0.06355897  1
  O2-  O277  1  0.29267492  0.16691707  0.40067576  1
  O2-  O278  1  0.29748115  0.17108312  0.73617279  1
  O2-  O279  1  0.29253631  0.66533668  0.06805244  1
  O2-  O280  1  0.29549992  0.66310792  0.39406839  1
  O2-  O281  1  0.29030128  0.66690810  0.73810839  1
  O2-  O282  1  0.79822980  0.16352980  0.06475036  1
  O2-  O283  1  0.79514379  0.16926322  0.40196995  1
  O2-  O284  1  0.79789666  0.17098677  0.73454406  1
  O2-  O285  1  0.78995424  0.67242180  0.06623725  1
  O2-  O286  1  0.79341025  0.66340547  0.39978778  1
  O2-  O287  1  0.79548463  0.66715752  0.72613868  1
