# generated using pymatgen
data_Ca2Al2SiO7
_symmetry_space_group_name_H-M   'P 1'
_cell_length_a   15.45701154
_cell_length_b   15.45672969
_cell_length_c   15.28316671
_cell_angle_alpha   89.99682018
_cell_angle_beta   90.00275950
_cell_angle_gamma   89.99308936
_symmetry_Int_Tables_number   1
_chemical_formula_structural   Ca2Al2SiO7
_chemical_formula_sum   'Ca48 Al48 Si24 O168'
_cell_volume   3651.37543353
_cell_formula_units_Z   24
loop_
 _symmetry_equiv_pos_site_id
 _symmetry_equiv_pos_as_xyz
  1  'x, y, z'
loop_
 _atom_type_symbol
 _atom_type_oxidation_number
  Ca2+  2.0
  Al0+  0.0
  Si0+  0.0
  O2-  -2.0
loop_
 _atom_site_type_symbol
 _atom_site_label
 _atom_site_symmetry_multiplicity
 _atom_site_fract_x
 _atom_site_fract_y
 _atom_site_fract_z
 _atom_site_occupancy
  Ca2+  Ca0  1  0.17448229  0.09069121  0.17137518  1
  Ca2+  Ca1  1  0.17520132  0.08650348  0.50494926  1
  Ca2+  Ca2  1  0.16399844  0.08850631  0.83760933  1
  Ca2+  Ca3  1  0.16774705  0.57292934  0.16828900  1
  Ca2+  Ca4  1  0.17186208  0.58399341  0.51017942  1
  Ca2+  Ca5  1  0.17212142  0.58269455  0.83607466  1
  Ca2+  Ca6  1  0.66134629  0.07827884  0.17468419  1
  Ca2+  Ca7  1  0.67056593  0.08597505  0.50239989  1
  Ca2+  Ca8  1  0.66630574  0.08156409  0.83667250  1
  Ca2+  Ca9  1  0.66379158  0.57089535  0.17077663  1
  Ca2+  Ca10  1  0.67175400  0.57703046  0.50289319  1
  Ca2+  Ca11  1  0.67031285  0.58068466  0.84162180  1
  Ca2+  Ca12  1  0.07499103  0.32915357  0.15423566  1
  Ca2+  Ca13  1  0.08156665  0.32890401  0.49949046  1
  Ca2+  Ca14  1  0.08244123  0.32737106  0.83529381  1
  Ca2+  Ca15  1  0.07938048  0.83057441  0.16355938  1
  Ca2+  Ca16  1  0.07503334  0.82904930  0.50305881  1
  Ca2+  Ca17  1  0.07485102  0.82702201  0.82022751  1
  Ca2+  Ca18  1  0.58298419  0.32653527  0.15828134  1
  Ca2+  Ca19  1  0.58320149  0.32461052  0.49137167  1
  Ca2+  Ca20  1  0.58968316  0.32471297  0.83311340  1
  Ca2+  Ca21  1  0.58730530  0.83354717  0.16345877  1
  Ca2+  Ca22  1  0.57481529  0.83715520  0.49392734  1
  Ca2+  Ca23  1  0.58286071  0.82978395  0.83229972  1
  Ca2+  Ca24  1  0.33090182  0.40257394  0.16799930  1
  Ca2+  Ca25  1  0.33579873  0.42053271  0.50510037  1
  Ca2+  Ca26  1  0.33009069  0.41799819  0.84036572  1
  Ca2+  Ca27  1  0.33526824  0.92599006  0.17571697  1
  Ca2+  Ca28  1  0.34176402  0.92049749  0.50224513  1
  Ca2+  Ca29  1  0.33435936  0.91576652  0.83360049  1
  Ca2+  Ca30  1  0.82049204  0.41432625  0.17158886  1
  Ca2+  Ca31  1  0.82681553  0.42313086  0.50166715  1
  Ca2+  Ca32  1  0.83236766  0.42172571  0.83880095  1
  Ca2+  Ca33  1  0.81959373  0.92535490  0.17428026  1
  Ca2+  Ca34  1  0.82712586  0.92439153  0.50473048  1
  Ca2+  Ca35  1  0.83251572  0.92173705  0.83690522  1
  Ca2+  Ca36  1  0.42722257  0.17293427  0.16605450  1
  Ca2+  Ca37  1  0.42941418  0.16840063  0.48923755  1
  Ca2+  Ca38  1  0.42994384  0.17189158  0.83207719  1
  Ca2+  Ca39  1  0.42595462  0.67494113  0.16209758  1
  Ca2+  Ca40  1  0.40934907  0.67842014  0.49737733  1
  Ca2+  Ca41  1  0.42276542  0.66770403  0.82716586  1
  Ca2+  Ca42  1  0.91766143  0.17148413  0.15890572  1
  Ca2+  Ca43  1  0.91953476  0.15517925  0.49913530  1
  Ca2+  Ca44  1  0.92216859  0.17066635  0.82719801  1
  Ca2+  Ca45  1  0.90953783  0.66497696  0.16590538  1
  Ca2+  Ca46  1  0.91320026  0.66267807  0.49980529  1
  Ca2+  Ca47  1  0.91918571  0.67213154  0.82063211  1
  Al0+  Al48  1  0.00074373  -0.00149984  -0.00113230  1
  Al0+  Al49  1  0.00089321  -0.00415944  0.33357255  1
  Al0+  Al50  1  0.00012727  -0.00044415  0.66232616  1
  Al0+  Al51  1  0.00371796  0.50132145  0.00080165  1
  Al0+  Al52  1  0.00202500  0.49829017  0.33596092  1
  Al0+  Al53  1  -0.00064587  0.49814782  0.66753728  1
  Al0+  Al54  1  0.49863502  0.00027109  0.00027848  1
  Al0+  Al55  1  0.49740292  0.00091354  0.33324895  1
  Al0+  Al56  1  0.50023638  0.00079707  0.66138566  1
  Al0+  Al57  1  0.50129769  0.50380604  -0.00343800  1
  Al0+  Al58  1  0.49670530  0.50149199  0.33505246  1
  Al0+  Al59  1  0.49877333  0.49947344  0.67267198  1
  Al0+  Al60  1  0.25036898  0.25085264  -0.00284120  1
  Al0+  Al61  1  0.24996308  0.24862027  0.33748807  1
  Al0+  Al62  1  0.24983730  0.25007814  0.66448215  1
  Al0+  Al63  1  0.24975220  0.75130214  0.00297952  1
  Al0+  Al64  1  0.24796875  0.74868486  0.32551686  1
  Al0+  Al65  1  0.24969967  0.74983336  0.66462283  1
  Al0+  Al66  1  0.75218776  0.25198716  -0.00533503  1
  Al0+  Al67  1  0.75260437  0.24977930  0.33745201  1
  Al0+  Al68  1  0.75097918  0.24826942  0.66706272  1
  Al0+  Al69  1  0.74953376  0.75293723  -0.00014592  1
  Al0+  Al70  1  0.75061620  0.75096343  0.34013486  1
  Al0+  Al71  1  0.74807626  0.74980107  0.66627421  1
  Al0+  Al72  1  0.82355769  0.07163162  0.34723297  1
  Al0+  Al73  1  0.92821026  0.32388791  0.98486063  1
  Al0+  Al74  1  0.57415172  0.18130581  0.31809831  1
  Al0+  Al75  1  0.57182985  0.68110503  0.98733520  1
  Al0+  Al76  1  0.07039487  0.17778850  0.98646136  1
  Al0+  Al77  1  0.07117992  0.17935538  0.65091437  1
  Al0+  Al78  1  0.92572563  0.82104518  0.65015211  1
  Al0+  Al79  1  0.06961835  0.67713790  0.65219159  1
  Al0+  Al80  1  0.42901916  0.32262978  0.98422258  1
  Al0+  Al81  1  0.67664726  0.93005582  0.34996705  1
  Al0+  Al82  1  0.42776271  0.32360632  0.31983123  1
  Al0+  Al83  1  0.31972899  0.57233706  0.68093408  1
  Al0+  Al84  1  0.57227559  0.17706555  0.98472975  1
  Al0+  Al85  1  0.82203251  0.56962225  0.34790893  1
  Al0+  Al86  1  0.82207912  0.06943214  0.68280259  1
  Al0+  Al87  1  0.67487415  0.42785919  0.34806603  1
  Al0+  Al88  1  0.67888993  0.93080722  0.01285234  1
  Al0+  Al89  1  0.18187205  0.42985481  0.01396494  1
  Al0+  Al90  1  0.67963980  0.42908010  0.01194633  1
  Al0+  Al91  1  0.43019385  0.81866194  0.65393206  1
  Al0+  Al92  1  0.82002178  0.57109966  0.68172126  1
  Al0+  Al93  1  0.57140949  0.18032693  0.65136831  1
  Al0+  Al94  1  0.31783394  0.06995688  0.34795570  1
  Al0+  Al95  1  0.42840164  0.82106741  0.31793460  1
  Si0+  Si96  1  0.82321801  0.57342887  0.01477917  1
  Si0+  Si97  1  0.18056791  0.93065783  0.68054478  1
  Si0+  Si98  1  0.07007789  0.67673168  0.31552127  1
  Si0+  Si99  1  0.18015352  0.42862938  0.34958595  1
  Si0+  Si100  1  0.92751775  0.32155265  0.64784996  1
  Si0+  Si101  1  0.92968646  0.81952025  0.98636000  1
  Si0+  Si102  1  0.32300491  0.57495562  0.01896236  1
  Si0+  Si103  1  0.67798083  0.42745279  0.68499838  1
  Si0+  Si104  1  0.17719159  0.92729354  0.01495484  1
  Si0+  Si105  1  0.31890169  0.57363059  0.34658617  1
  Si0+  Si106  1  0.42800769  0.32281950  0.65086921  1
  Si0+  Si107  1  0.82387610  0.07175703  0.01445250  1
  Si0+  Si108  1  0.57390952  0.67910857  0.31829946  1
  Si0+  Si109  1  0.93203416  0.32218788  0.31985664  1
  Si0+  Si110  1  0.17756330  0.92403328  0.35080638  1
  Si0+  Si111  1  0.17808068  0.42573231  0.68454456  1
  Si0+  Si112  1  0.32234558  0.07187903  0.68256756  1
  Si0+  Si113  1  0.31931932  0.07018776  0.01358908  1
  Si0+  Si114  1  0.07310610  0.67982931  0.98571646  1
  Si0+  Si115  1  0.67524326  0.92914749  0.68400451  1
  Si0+  Si116  1  0.42622735  0.82238913  0.98365380  1
  Si0+  Si117  1  0.07086255  0.17744992  0.32027908  1
  Si0+  Si118  1  0.57203793  0.67485317  0.64965781  1
  Si0+  Si119  1  0.92832190  0.81997375  0.31666414  1
  O2-  O120  1  0.24672315  -0.00028021  0.05593660  1
  O2-  O121  1  0.24547731  -0.00726072  0.39545521  1
  O2-  O122  1  0.24970625  0.00243386  0.72518487  1
  O2-  O123  1  0.25885636  0.50160884  0.06321584  1
  O2-  O124  1  0.25342191  0.49787215  0.38961930  1
  O2-  O125  1  0.24578293  0.49652329  0.72692947  1
  O2-  O126  1  0.74922083  0.01005082  0.05891130  1
  O2-  O127  1  0.74753045  0.00420764  0.39791028  1
  O2-  O128  1  0.74738158  -0.00581124  0.72865696  1
  O2-  O129  1  0.75693678  0.50236520  0.05809757  1
  O2-  O130  1  0.74684177  0.50093566  0.39726625  1
  O2-  O131  1  0.74442248  0.49862196  0.72926948  1
  O2-  O132  1  -0.00326418  0.24451382  0.27855499  1
  O2-  O133  1  -0.00431108  0.25215096  0.60289028  1
  O2-  O134  1  -0.00258715  0.24811882  0.93609288  1
  O2-  O135  1  -0.00348760  0.74560724  0.27376128  1
  O2-  O136  1  -0.00668631  0.74369797  0.60065119  1
  O2-  O137  1  0.00032416  0.74842530  0.94394248  1
  O2-  O138  1  0.50574062  0.25823595  0.26988796  1
  O2-  O139  1  0.49762395  0.25643068  0.60621661  1
  O2-  O140  1  0.50444125  0.25383406  0.93486805  1
  O2-  O141  1  0.50690871  0.74969392  0.27324121  1
  O2-  O142  1  0.50358490  0.74367537  0.60551744  1
  O2-  O143  1  0.49461936  0.75362782  0.94055536  1
  O2-  O144  1  0.06975722  0.17792330  0.10070274  1
  O2-  O145  1  0.07228238  0.17993894  0.42534120  1
  O2-  O146  1  0.07221450  0.18096500  0.76367270  1
  O2-  O147  1  0.07428112  0.68140148  0.09117453  1
  O2-  O148  1  0.07343328  0.67676861  0.42006568  1
  O2-  O149  1  0.07116252  0.68175833  0.76624872  1
  O2-  O150  1  0.56924833  0.17366991  0.09781704  1
  O2-  O151  1  0.57102951  0.18113153  0.43180572  1
  O2-  O152  1  0.56941022  0.17911804  0.76450931  1
  O2-  O153  1  0.57144355  0.68270565  0.10054760  1
  O2-  O154  1  0.57126295  0.67835944  0.42387234  1
  O2-  O155  1  0.57115770  0.67643267  0.75549305  1
  O2-  O156  1  0.17711511  0.42906760  0.24456881  1
  O2-  O157  1  0.18011670  0.42423582  0.57840057  1
  O2-  O158  1  0.18122316  0.43325480  0.90113780  1
  O2-  O159  1  0.17649702  0.92503643  0.24461046  1
  O2-  O160  1  0.18216598  0.93073223  0.57556519  1
  O2-  O161  1  0.17722529  0.92335996  0.91003408  1
  O2-  O162  1  0.67681629  0.42849670  0.23419466  1
  O2-  O163  1  0.67766778  0.42853159  0.57937848  1
  O2-  O164  1  0.68129143  0.43262141  0.89897974  1
  O2-  O165  1  0.68043800  0.92872733  0.23587414  1
  O2-  O166  1  0.67283633  0.93154047  0.57874651  1
  O2-  O167  1  0.68203733  0.92763800  0.89983376  1
  O2-  O168  1  0.42760503  0.31667677  0.09756162  1
  O2-  O169  1  0.42484809  0.32054872  0.43355432  1
  O2-  O170  1  0.42659317  0.32098770  0.75624353  1
  O2-  O171  1  0.42377816  0.82176589  0.08909159  1
  O2-  O172  1  0.42499700  0.81698171  0.43095097  1
  O2-  O173  1  0.43033872  0.81889193  0.76731696  1
  O2-  O174  1  0.92994222  0.32319669  0.09921754  1
  O2-  O175  1  0.93734197  0.32741453  0.42458955  1
  O2-  O176  1  0.92907141  0.32183448  0.75327433  1
  O2-  O177  1  0.93184326  0.81905153  0.09169856  1
  O2-  O178  1  0.93166393  0.82144392  0.42111394  1
  O2-  O179  1  0.93063113  0.82143436  0.76462703  1
  O2-  O180  1  0.31399269  0.07046696  0.23441040  1
  O2-  O181  1  0.32120853  0.07072384  0.57760970  1
  O2-  O182  1  0.31939245  0.06696110  0.90816092  1
  O2-  O183  1  0.31437994  0.57762154  0.24191454  1
  O2-  O184  1  0.31739017  0.57172294  0.56726037  1
  O2-  O185  1  0.31732442  0.58014262  0.91359841  1
  O2-  O186  1  0.82940118  0.06809299  0.23346760  1
  O2-  O187  1  0.82139116  0.06745034  0.57007873  1
  O2-  O188  1  0.82831321  0.06533334  0.90912549  1
  O2-  O189  1  0.82408005  0.56647196  0.23400246  1
  O2-  O190  1  0.81879571  0.56713509  0.56892126  1
  O2-  O191  1  0.82252023  0.57532762  0.90921189  1
  O2-  O192  1  0.05017657  0.08284834  0.27479514  1
  O2-  O193  1  0.04373230  0.08246912  0.59655562  1
  O2-  O194  1  0.04645727  0.07756636  0.93390621  1
  O2-  O195  1  0.04357010  0.58390594  0.26863027  1
  O2-  O196  1  0.04789855  0.57644222  0.60108494  1
  O2-  O197  1  0.05009984  0.58757481  0.93868978  1
  O2-  O198  1  0.53823842  0.08420737  0.26714845  1
  O2-  O199  1  0.53776144  0.08540826  0.59687523  1
  O2-  O200  1  0.53726081  0.08048014  0.93049959  1
  O2-  O201  1  0.54428671  0.58648005  0.27206788  1
  O2-  O202  1  0.54591775  0.58043511  0.60597333  1
  O2-  O203  1  0.54304831  0.58647761  0.92944073  1
  O2-  O204  1  0.16095281  0.21009721  0.27296769  1
  O2-  O205  1  0.16789106  0.21133673  0.59634311  1
  O2-  O206  1  0.16754478  0.20756254  0.93268531  1
  O2-  O207  1  0.15876782  0.70756321  0.26335459  1
  O2-  O208  1  0.16545201  0.71190327  0.59796465  1
  O2-  O209  1  0.16411991  0.71090687  0.93855021  1
  O2-  O210  1  0.67559325  0.20272222  0.26794966  1
  O2-  O211  1  0.66897276  0.20926326  0.59922817  1
  O2-  O212  1  0.67182660  0.20130604  0.93252060  1
  O2-  O213  1  0.66848804  0.70319542  0.27356293  1
  O2-  O214  1  0.66555544  0.69884757  0.60384316  1
  O2-  O215  1  0.66706627  0.71483111  0.93164916  1
  O2-  O216  1  0.08665362  0.46430178  0.07069806  1
  O2-  O217  1  0.09082940  0.45997685  0.39943599  1
  O2-  O218  1  0.08377125  0.44878167  0.72915556  1
  O2-  O219  1  0.08505028  0.95248305  0.06391331  1
  O2-  O220  1  0.08414799  0.94822575  0.39682117  1
  O2-  O221  1  0.08845699  0.95717217  0.72773948  1
  O2-  O222  1  0.58329628  0.46294537  0.06502545  1
  O2-  O223  1  0.57618646  0.45574963  0.40167599  1
  O2-  O224  1  0.58356204  0.44956374  0.73105496  1
  O2-  O225  1  0.57979151  0.95538712  0.06544286  1
  O2-  O226  1  0.57692875  0.95491464  0.40034040  1
  O2-  O227  1  0.58298048  0.95943464  0.73105186  1
  O2-  O228  1  0.20920950  0.33175100  0.06790099  1
  O2-  O229  1  0.20562237  0.33715095  0.39856790  1
  O2-  O230  1  0.20670194  0.33304306  0.73132225  1
  O2-  O231  1  0.20548003  0.83682512  0.06605756  1
  O2-  O232  1  0.20319145  0.82945505  0.39377939  1
  O2-  O233  1  0.21012798  0.83972771  0.72909265  1
  O2-  O234  1  0.70921173  0.33133571  0.06516373  1
  O2-  O235  1  0.70721049  0.33157216  0.40220895  1
  O2-  O236  1  0.70747301  0.33474407  0.73002839  1
  O2-  O237  1  0.71478413  0.83627794  0.06878991  1
  O2-  O238  1  0.70615144  0.83262487  0.40396669  1
  O2-  O239  1  0.69597375  0.83307701  0.72708047  1
  O2-  O240  1  0.44271188  0.42632149  0.27011474  1
  O2-  O241  1  0.45083320  0.41835811  0.60723500  1
  O2-  O242  1  0.44948672  0.42412590  0.93507720  1
  O2-  O243  1  0.45448273  0.91868565  0.26487528  1
  O2-  O244  1  0.45998222  0.91497437  0.59915071  1
  O2-  O245  1  0.45116711  0.91543371  0.93719783  1
  O2-  O246  1  0.96731294  0.41042168  0.26981768  1
  O2-  O247  1  0.95527822  0.41427994  0.60122386  1
  O2-  O248  1  0.96188106  0.42158605  0.93286112  1
  O2-  O249  1  0.96143840  0.90914038  0.26615622  1
  O2-  O250  1  0.96256882  0.91550867  0.59542842  1
  O2-  O251  1  0.95895941  0.91029053  0.93810583  1
  O2-  O252  1  0.33008557  0.28708130  0.26829272  1
  O2-  O253  1  0.33446452  0.29770320  0.60460227  1
  O2-  O254  1  0.33218020  0.29102359  0.92991241  1
  O2-  O255  1  0.33270239  0.78789771  0.26178767  1
  O2-  O256  1  0.33406706  0.78872809  0.59875697  1
  O2-  O257  1  0.33174289  0.79695861  0.93822281  1
  O2-  O258  1  0.83848597  0.29941326  0.27459534  1
  O2-  O259  1  0.83396406  0.29664533  0.60263758  1
  O2-  O260  1  0.83100506  0.30039123  0.92870594  1
  O2-  O261  1  0.83556951  0.79395442  0.27020559  1
  O2-  O262  1  0.82548160  0.79815145  0.59947942  1
  O2-  O263  1  0.83880492  0.79319773  0.93772517  1
  O2-  O264  1  0.40927826  0.04017757  0.06291266  1
  O2-  O265  1  0.41367864  0.03961953  0.40220991  1
  O2-  O266  1  0.41297033  0.04025221  0.72969274  1
  O2-  O267  1  0.41897579  0.55645497  0.06119808  1
  O2-  O268  1  0.41158416  0.55390476  0.39515009  1
  O2-  O269  1  0.41629396  0.54378386  0.73674074  1
  O2-  O270  1  0.91533244  0.03990871  0.06288556  1
  O2-  O271  1  0.92110104  0.03698303  0.40030359  1
  O2-  O272  1  0.92011381  0.03816526  0.73460167  1
  O2-  O273  1  0.91878074  0.55306135  0.05929383  1
  O2-  O274  1  0.92027076  0.53847745  0.40108203  1
  O2-  O275  1  0.91788098  0.54094329  0.73482481  1
  O2-  O276  1  0.29057072  0.16133103  0.06068546  1
  O2-  O277  1  0.28364597  0.16404634  0.40546673  1
  O2-  O278  1  0.29440056  0.16420759  0.72869011  1
  O2-  O279  1  0.29129820  0.66663975  0.06744062  1
  O2-  O280  1  0.28330209  0.66304915  0.39448122  1
  O2-  O281  1  0.28697970  0.66819738  0.73581599  1
  O2-  O282  1  0.80677388  0.16893552  0.05472783  1
  O2-  O283  1  0.80490190  0.17149511  0.40060598  1
  O2-  O284  1  0.79283547  0.16713397  0.73545632  1
  O2-  O285  1  0.79506210  0.66633693  0.06119678  1
  O2-  O286  1  0.79938568  0.66912318  0.40020186  1
  O2-  O287  1  0.79256850  0.66973557  0.73447695  1
