# generated using pymatgen
data_Ca2Al2SiO7
_symmetry_space_group_name_H-M   'P 1'
_cell_length_a   15.45549010
_cell_length_b   15.45595074
_cell_length_c   15.28216097
_cell_angle_alpha   90.00466973
_cell_angle_beta   90.00431900
_cell_angle_gamma   89.98437944
_symmetry_Int_Tables_number   1
_chemical_formula_structural   Ca2Al2SiO7
_chemical_formula_sum   'Ca48 Al48 Si24 O168'
_cell_volume   3650.59166247
_cell_formula_units_Z   24
loop_
 _symmetry_equiv_pos_site_id
 _symmetry_equiv_pos_as_xyz
  1  'x, y, z'
loop_
 _atom_type_symbol
 _atom_type_oxidation_number
  Ca2+  2.0
  Al0+  0.0
  Si0+  0.0
  O2-  -2.0
loop_
 _atom_site_type_symbol
 _atom_site_label
 _atom_site_symmetry_multiplicity
 _atom_site_fract_x
 _atom_site_fract_y
 _atom_site_fract_z
 _atom_site_occupancy
  Ca2+  Ca0  1  0.17386186  0.07393712  0.18016646  1
  Ca2+  Ca1  1  0.16927377  0.07604891  0.49982440  1
  Ca2+  Ca2  1  0.16489936  0.06860516  0.83885504  1
  Ca2+  Ca3  1  0.16384035  0.57835044  0.16477699  1
  Ca2+  Ca4  1  0.17576581  0.58793305  0.50957149  1
  Ca2+  Ca5  1  0.16898411  0.58546546  0.83876577  1
  Ca2+  Ca6  1  0.66392685  0.08836812  0.16997447  1
  Ca2+  Ca7  1  0.65989168  0.07747253  0.50685903  1
  Ca2+  Ca8  1  0.66260851  0.08415957  0.83330425  1
  Ca2+  Ca9  1  0.65779096  0.57773541  0.17037329  1
  Ca2+  Ca10  1  0.66933230  0.58867020  0.51055922  1
  Ca2+  Ca11  1  0.67396772  0.58428778  0.83598932  1
  Ca2+  Ca12  1  0.09144680  0.32476748  0.16304931  1
  Ca2+  Ca13  1  0.07755674  0.32967983  0.49663728  1
  Ca2+  Ca14  1  0.07911227  0.33779762  0.82763529  1
  Ca2+  Ca15  1  0.08431233  0.83451924  0.16161278  1
  Ca2+  Ca16  1  0.07904563  0.83786770  0.49908831  1
  Ca2+  Ca17  1  0.08437186  0.82539906  0.82566290  1
  Ca2+  Ca18  1  0.57176314  0.32609360  0.15929526  1
  Ca2+  Ca19  1  0.57705571  0.32212462  0.49280855  1
  Ca2+  Ca20  1  0.58823894  0.32561805  0.83164063  1
  Ca2+  Ca21  1  0.56824065  0.83289991  0.16522692  1
  Ca2+  Ca22  1  0.58360773  0.82334715  0.49435920  1
  Ca2+  Ca23  1  0.57549131  0.83272877  0.82494485  1
  Ca2+  Ca24  1  0.33424305  0.40965707  0.16942875  1
  Ca2+  Ca25  1  0.33604838  0.42123043  0.50382654  1
  Ca2+  Ca26  1  0.33290081  0.42445448  0.83960593  1
  Ca2+  Ca27  1  0.32691869  0.91470240  0.17484633  1
  Ca2+  Ca28  1  0.32715249  0.91611667  0.50193442  1
  Ca2+  Ca29  1  0.32259633  0.91029958  0.83899398  1
  Ca2+  Ca30  1  0.82382851  0.41775250  0.16851820  1
  Ca2+  Ca31  1  0.83208011  0.42389438  0.50995227  1
  Ca2+  Ca32  1  0.83118984  0.42107632  0.83738107  1
  Ca2+  Ca33  1  0.83283286  0.91686310  0.17377044  1
  Ca2+  Ca34  1  0.83050397  0.91202985  0.50821093  1
  Ca2+  Ca35  1  0.82566844  0.90867099  0.83006950  1
  Ca2+  Ca36  1  0.42026535  0.16957144  0.16287561  1
  Ca2+  Ca37  1  0.42331346  0.16616362  0.49072165  1
  Ca2+  Ca38  1  0.42480612  0.17304589  0.83120759  1
  Ca2+  Ca39  1  0.41431375  0.67789961  0.16661256  1
  Ca2+  Ca40  1  0.42491418  0.66903797  0.49618771  1
  Ca2+  Ca41  1  0.41801221  0.66957240  0.82827371  1
  Ca2+  Ca42  1  0.92611784  0.16318563  0.16651700  1
  Ca2+  Ca43  1  0.92152554  0.17087319  0.49792503  1
  Ca2+  Ca44  1  0.91671854  0.17650246  0.82695539  1
  Ca2+  Ca45  1  0.92323816  0.67469453  0.16394174  1
  Ca2+  Ca46  1  0.91754152  0.67698001  0.50121774  1
  Ca2+  Ca47  1  0.92904745  0.66615685  0.82296575  1
  Al0+  Al48  1  -0.00185380  -0.00029247  0.00253595  1
  Al0+  Al49  1  -0.00168181  0.00060773  0.33041789  1
  Al0+  Al50  1  -0.00019724  0.00136046  0.66999217  1
  Al0+  Al51  1  0.00142194  0.50133338  0.00357281  1
  Al0+  Al52  1  -0.00236151  0.50108200  0.33467142  1
  Al0+  Al53  1  -0.00016946  0.50045971  0.66057314  1
  Al0+  Al54  1  0.50007225  -0.00031037  -0.00861216  1
  Al0+  Al55  1  0.50026285  -0.00150421  0.33067491  1
  Al0+  Al56  1  0.49896489  0.00129399  0.66825414  1
  Al0+  Al57  1  0.50073298  0.50104139  0.00177195  1
  Al0+  Al58  1  0.49955045  0.49738796  0.32870183  1
  Al0+  Al59  1  0.49938893  0.49966938  0.66918211  1
  Al0+  Al60  1  0.25152520  0.24955274  -0.00362094  1
  Al0+  Al61  1  0.24858008  0.24861970  0.33311149  1
  Al0+  Al62  1  0.25053663  0.24989232  0.66771039  1
  Al0+  Al63  1  0.24917500  0.74925551  -0.00193877  1
  Al0+  Al64  1  0.24842043  0.74678443  0.33536429  1
  Al0+  Al65  1  0.25069276  0.74948689  0.67171034  1
  Al0+  Al66  1  0.75122829  0.25081347  0.00290842  1
  Al0+  Al67  1  0.75000320  0.25142016  0.33289429  1
  Al0+  Al68  1  0.74995280  0.24927442  0.65737165  1
  Al0+  Al69  1  0.75070417  0.75203435  0.00409129  1
  Al0+  Al70  1  0.75261733  0.74875873  0.32367393  1
  Al0+  Al71  1  0.75031699  0.74954476  0.67143805  1
  Al0+  Al72  1  0.17718622  0.92673060  0.34967723  1
  Al0+  Al73  1  0.17922012  0.92826691  0.01495878  1
  Al0+  Al74  1  0.42685047  0.81989479  0.32105395  1
  Al0+  Al75  1  0.06858718  0.18071459  0.32073181  1
  Al0+  Al76  1  0.07394300  0.67924204  0.65038281  1
  Al0+  Al77  1  0.42762036  0.31998333  0.31886257  1
  Al0+  Al78  1  0.92944482  0.82148540  0.65393743  1
  Al0+  Al79  1  0.06834800  0.67985798  0.98671948  1
  Al0+  Al80  1  0.92938197  0.32184969  0.65350008  1
  Al0+  Al81  1  0.67872135  0.92898764  0.67905396  1
  Al0+  Al82  1  0.32281217  0.07087349  0.34823291  1
  Al0+  Al83  1  0.57211488  0.17687594  0.31783984  1
  Al0+  Al84  1  0.67976051  0.42973353  0.01430782  1
  Al0+  Al85  1  0.17900874  0.93101703  0.68187426  1
  Al0+  Al86  1  0.17936631  0.42841041  0.01307289  1
  Al0+  Al87  1  0.82142177  0.57113358  0.68008263  1
  Al0+  Al88  1  0.32212888  0.57010864  0.68051523  1
  Al0+  Al89  1  0.42907021  0.81960647  0.98469152  1
  Al0+  Al90  1  0.56943998  0.17889629  0.65104325  1
  Al0+  Al91  1  0.42732061  0.32308811  0.98193133  1
  Al0+  Al92  1  0.93102532  0.82096973  0.31910026  1
  Al0+  Al93  1  0.57326064  0.18027637  0.98250565  1
  Al0+  Al94  1  0.57289247  0.67795354  0.31801640  1
  Al0+  Al95  1  0.57040785  0.67942388  0.65678660  1
  Si0+  Si96  1  0.32225559  0.07072230  0.01487387  1
  Si0+  Si97  1  0.32227462  0.57193035  0.01861767  1
  Si0+  Si98  1  0.42713552  0.82227844  0.65065032  1
  Si0+  Si99  1  0.57388813  0.67848726  0.98315273  1
  Si0+  Si100  1  0.82018906  0.57170811  0.34941387  1
  Si0+  Si101  1  0.82292332  0.57304062  0.01905676  1
  Si0+  Si102  1  0.92776461  0.32497099  0.31477737  1
  Si0+  Si103  1  0.17787572  0.42717965  0.68102072  1
  Si0+  Si104  1  0.67904686  0.42639426  0.68160455  1
  Si0+  Si105  1  0.07269004  0.67562093  0.31638362  1
  Si0+  Si106  1  0.07171319  0.17707870  0.98517265  1
  Si0+  Si107  1  0.32100636  0.56913939  0.34802208  1
  Si0+  Si108  1  0.32298736  0.07430914  0.68595969  1
  Si0+  Si109  1  0.82012699  0.07193750  0.01601575  1
  Si0+  Si110  1  0.82105283  0.07217857  0.34879295  1
  Si0+  Si111  1  0.67741069  0.92930264  0.01596845  1
  Si0+  Si112  1  0.17691014  0.42794220  0.34887284  1
  Si0+  Si113  1  0.67836149  0.42967512  0.34998154  1
  Si0+  Si114  1  0.07334941  0.17752263  0.65162531  1
  Si0+  Si115  1  0.82147045  0.07409539  0.68262439  1
  Si0+  Si116  1  0.92637149  0.82454644  0.98186593  1
  Si0+  Si117  1  0.68082087  0.92805856  0.34558610  1
  Si0+  Si118  1  0.42693354  0.32250618  0.65025767  1
  Si0+  Si119  1  0.93109321  0.32002738  0.98793623  1
  O2-  O120  1  0.25351026  0.00320529  0.06088641  1
  O2-  O121  1  0.25222276  -0.00316297  0.39820152  1
  O2-  O122  1  0.25375231  0.00575672  0.72941807  1
  O2-  O123  1  0.25733171  0.49867336  0.06213826  1
  O2-  O124  1  0.24836827  0.49874351  0.39003724  1
  O2-  O125  1  0.24564047  0.49598214  0.72560564  1
  O2-  O126  1  0.74897664  0.00048739  0.05762313  1
  O2-  O127  1  0.74751654  0.00305869  0.38900406  1
  O2-  O128  1  0.75359676  0.00447339  0.72664730  1
  O2-  O129  1  0.74996877  0.50866796  0.06322646  1
  O2-  O130  1  0.74780032  0.50221906  0.39235026  1
  O2-  O131  1  0.74728704  0.49534017  0.72651357  1
  O2-  O132  1  -0.00338147  0.25699339  0.27041776  1
  O2-  O133  1  0.00572842  0.24802720  0.60840321  1
  O2-  O134  1  0.00410965  0.25198307  0.94372942  1
  O2-  O135  1  0.00907300  0.74949027  0.27315582  1
  O2-  O136  1  0.00315576  0.75291735  0.60140043  1
  O2-  O137  1  -0.00555212  0.75512752  0.93983620  1
  O2-  O138  1  0.49783269  0.24639093  0.26893635  1
  O2-  O139  1  0.49328263  0.25215339  0.60579603  1
  O2-  O140  1  0.50233130  0.25366647  0.93288222  1
  O2-  O141  1  0.49979765  0.74925274  0.26951475  1
  O2-  O142  1  0.49789687  0.75488563  0.60795388  1
  O2-  O143  1  0.50583685  0.74661937  0.93826875  1
  O2-  O144  1  0.06898254  0.17645665  0.09026221  1
  O2-  O145  1  0.06530845  0.18299833  0.43386844  1
  O2-  O146  1  0.07168557  0.17840294  0.75768479  1
  O2-  O147  1  0.06585528  0.67918867  0.10009879  1
  O2-  O148  1  0.07100493  0.67104186  0.42136091  1
  O2-  O149  1  0.07247125  0.67834110  0.76414222  1
  O2-  O150  1  0.57399383  0.18068828  0.09567821  1
  O2-  O151  1  0.57346945  0.17959374  0.43148648  1
  O2-  O152  1  0.57144040  0.18191935  0.76384582  1
  O2-  O153  1  0.57320854  0.68072449  0.08872884  1
  O2-  O154  1  0.57443847  0.67904697  0.43189378  1
  O2-  O155  1  0.56935624  0.68075219  0.76986253  1
  O2-  O156  1  0.17521422  0.42935818  0.24373116  1
  O2-  O157  1  0.18018489  0.42490195  0.57513295  1
  O2-  O158  1  0.17524224  0.43208600  0.90022358  1
  O2-  O159  1  0.17771941  0.92862801  0.23578622  1
  O2-  O160  1  0.17866322  0.93322365  0.56909195  1
  O2-  O161  1  0.17794956  0.92970440  0.90174899  1
  O2-  O162  1  0.68138835  0.42947949  0.24482600  1
  O2-  O163  1  0.68023719  0.42723674  0.57577777  1
  O2-  O164  1  0.68618452  0.42810179  0.90122091  1
  O2-  O165  1  0.68391071  0.92870273  0.24014580  1
  O2-  O166  1  0.67985401  0.92902701  0.56559023  1
  O2-  O167  1  0.67958820  0.92700626  0.91100256  1
  O2-  O168  1  0.42677033  0.31890297  0.09519681  1
  O2-  O169  1  0.43142858  0.32356990  0.43266136  1
  O2-  O170  1  0.42671826  0.32241724  0.75552029  1
  O2-  O171  1  0.42916635  0.81939815  0.09774048  1
  O2-  O172  1  0.42851208  0.81714796  0.43463088  1
  O2-  O173  1  0.42797750  0.82068431  0.75658017  1
  O2-  O174  1  0.93072983  0.31700323  0.09298819  1
  O2-  O175  1  0.92839063  0.32548813  0.42032661  1
  O2-  O176  1  0.92950052  0.32049865  0.76739792  1
  O2-  O177  1  0.92592416  0.82509570  0.08768987  1
  O2-  O178  1  0.92640941  0.81930275  0.43156648  1
  O2-  O179  1  0.92978894  0.81892805  0.76755647  1
  O2-  O180  1  0.31968711  0.07198643  0.23447446  1
  O2-  O181  1  0.32278370  0.07562462  0.58060310  1
  O2-  O182  1  0.31871407  0.06953438  0.90906510  1
  O2-  O183  1  0.31966452  0.56996800  0.24305688  1
  O2-  O184  1  0.32346594  0.56765904  0.56691034  1
  O2-  O185  1  0.32038922  0.57235919  0.91294446  1
  O2-  O186  1  0.82243035  0.07163622  0.24328130  1
  O2-  O187  1  0.82166268  0.07505684  0.57700494  1
  O2-  O188  1  0.82236569  0.07440178  0.91121550  1
  O2-  O189  1  0.82260436  0.56843551  0.24427748  1
  O2-  O190  1  0.81880060  0.57071426  0.56661279  1
  O2-  O191  1  0.82412595  0.57095530  0.91356070  1
  O2-  O192  1  0.03460871  0.08659871  0.26407325  1
  O2-  O193  1  0.04473987  0.08573239  0.60490019  1
  O2-  O194  1  0.03735919  0.08729741  0.93746317  1
  O2-  O195  1  0.03980396  0.58415385  0.26859664  1
  O2-  O196  1  0.04666392  0.58127927  0.59681880  1
  O2-  O197  1  0.03661620  0.58291166  0.93334024  1
  O2-  O198  1  0.54966505  0.07736977  0.26575050  1
  O2-  O199  1  0.53923961  0.08141638  0.59864437  1
  O2-  O200  1  0.54594579  0.08205073  0.92898230  1
  O2-  O201  1  0.54323041  0.58005666  0.26590162  1
  O2-  O202  1  0.54120630  0.58202370  0.60296835  1
  O2-  O203  1  0.55123266  0.58392476  0.93895695  1
  O2-  O204  1  0.16425633  0.21040162  0.26542121  1
  O2-  O205  1  0.16717624  0.20203804  0.60560910  1
  O2-  O206  1  0.16371942  0.19998263  0.93740809  1
  O2-  O207  1  0.16763814  0.69426554  0.27126819  1
  O2-  O208  1  0.17324746  0.70754594  0.59984997  1
  O2-  O209  1  0.16513963  0.70814431  0.93335716  1
  O2-  O210  1  0.67107651  0.20790418  0.26659046  1
  O2-  O211  1  0.66537823  0.20770151  0.59520930  1
  O2-  O212  1  0.67327485  0.20980113  0.93187014  1
  O2-  O213  1  0.66976151  0.70453580  0.26154969  1
  O2-  O214  1  0.66701158  0.70982938  0.60348665  1
  O2-  O215  1  0.66943503  0.70398460  0.94050372  1
  O2-  O216  1  0.08433278  0.46111464  0.07075555  1
  O2-  O217  1  0.08408687  0.45558212  0.39551008  1
  O2-  O218  1  0.08305116  0.45121940  0.72448830  1
  O2-  O219  1  0.08087069  0.95856056  0.06673072  1
  O2-  O220  1  0.07885438  0.96108780  0.39984579  1
  O2-  O221  1  0.08254050  0.96229489  0.73758204  1
  O2-  O222  1  0.58234754  0.45766595  0.06884600  1
  O2-  O223  1  0.58523734  0.45443782  0.39571311  1
  O2-  O224  1  0.58540502  0.44958649  0.72777905  1
  O2-  O225  1  0.58497197  0.95793810  0.06111873  1
  O2-  O226  1  0.58780616  0.95002048  0.39247437  1
  O2-  O227  1  0.58233192  0.96003180  0.73404742  1
  O2-  O228  1  0.20626072  0.32905972  0.06478432  1
  O2-  O229  1  0.20256775  0.33642980  0.39705209  1
  O2-  O230  1  0.20100831  0.33313572  0.72857013  1
  O2-  O231  1  0.20961713  0.83106903  0.06731194  1
  O2-  O232  1  0.20098342  0.82608836  0.40055742  1
  O2-  O233  1  0.21073434  0.83483122  0.73608788  1
  O2-  O234  1  0.71674226  0.33572236  0.07045409  1
  O2-  O235  1  0.70894713  0.33838200  0.39764001  1
  O2-  O236  1  0.70854260  0.33285279  0.72575693  1
  O2-  O237  1  0.70513806  0.83815497  0.06578048  1
  O2-  O238  1  0.71377278  0.83625985  0.39020587  1
  O2-  O239  1  0.71058567  0.83505154  0.73771158  1
  O2-  O240  1  0.45738884  0.41648379  0.26304179  1
  O2-  O241  1  0.45477586  0.41523632  0.60413910  1
  O2-  O242  1  0.45316752  0.42426389  0.93389461  1
  O2-  O243  1  0.45513515  0.91689396  0.26598995  1
  O2-  O244  1  0.44985478  0.91716734  0.60738754  1
  O2-  O245  1  0.45879749  0.91496606  0.92821335  1
  O2-  O246  1  0.95178854  0.41893395  0.26897230  1
  O2-  O247  1  0.95884578  0.41615550  0.59504278  1
  O2-  O248  1  0.95658484  0.41301806  0.94240498  1
  O2-  O249  1  0.95593327  0.91830184  0.26380954  1
  O2-  O250  1  0.95272096  0.92274657  0.60395861  1
  O2-  O251  1  0.94979897  0.91903660  0.93707714  1
  O2-  O252  1  0.32767047  0.29622217  0.26793247  1
  O2-  O253  1  0.33189214  0.29983270  0.60507227  1
  O2-  O254  1  0.32943191  0.29384733  0.92714018  1
  O2-  O255  1  0.32913831  0.78807118  0.26763891  1
  O2-  O256  1  0.33483010  0.79375317  0.60557288  1
  O2-  O257  1  0.33367665  0.78616416  0.93069508  1
  O2-  O258  1  0.83433259  0.29797972  0.26972695  1
  O2-  O259  1  0.83568050  0.28976987  0.59485921  1
  O2-  O260  1  0.84123648  0.28896796  0.93929910  1
  O2-  O261  1  0.83828612  0.78645761  0.25914787  1
  O2-  O262  1  0.83152776  0.79017503  0.60201007  1
  O2-  O263  1  0.83123350  0.79933383  0.93867696  1
  O2-  O264  1  0.41743675  0.04542822  0.05736376  1
  O2-  O265  1  0.42253483  0.04394729  0.40036148  1
  O2-  O266  1  0.41615147  0.04908183  0.73263639  1
  O2-  O267  1  0.41763189  0.55299757  0.06359595  1
  O2-  O268  1  0.41299582  0.53943623  0.39469048  1
  O2-  O269  1  0.41714129  0.53814897  0.73800446  1
  O2-  O270  1  0.91108157  0.04284558  0.06575743  1
  O2-  O271  1  0.91130194  0.04248371  0.39720759  1
  O2-  O272  1  0.91519420  0.05292298  0.73064995  1
  O2-  O273  1  0.91367908  0.54209874  0.06772527  1
  O2-  O274  1  0.91139739  0.54277923  0.39816215  1
  O2-  O275  1  0.91874055  0.53851179  0.73213102  1
  O2-  O276  1  0.29763864  0.16515043  0.05915956  1
  O2-  O277  1  0.29097058  0.16876131  0.40211954  1
  O2-  O278  1  0.29763966  0.16843641  0.73237495  1
  O2-  O279  1  0.28945770  0.66292425  0.06551367  1
  O2-  O280  1  0.29378960  0.65968290  0.39807491  1
  O2-  O281  1  0.29331157  0.66586304  0.73678382  1
  O2-  O282  1  0.79404169  0.16275657  0.06646670  1
  O2-  O283  1  0.79762487  0.16607035  0.39510759  1
  O2-  O284  1  0.79271685  0.16757753  0.72845360  1
  O2-  O285  1  0.80173431  0.66870216  0.06395745  1
  O2-  O286  1  0.79325343  0.66498423  0.39368032  1
  O2-  O287  1  0.79016475  0.66486384  0.73851073  1
