# generated using pymatgen
data_Ca2Al2SiO7
_symmetry_space_group_name_H-M   'P 1'
_cell_length_a   15.46821435
_cell_length_b   15.46445858
_cell_length_c   15.28924976
_cell_angle_alpha   89.99722405
_cell_angle_beta   89.99282902
_cell_angle_gamma   90.01238825
_symmetry_Int_Tables_number   1
_chemical_formula_structural   Ca2Al2SiO7
_chemical_formula_sum   'Ca48 Al48 Si24 O168'
_cell_volume   3657.30401495
_cell_formula_units_Z   24
loop_
 _symmetry_equiv_pos_site_id
 _symmetry_equiv_pos_as_xyz
  1  'x, y, z'
loop_
 _atom_type_symbol
 _atom_type_oxidation_number
  Ca2+  2.0
  Al0+  0.0
  Si0+  0.0
  O2-  -2.0
loop_
 _atom_site_type_symbol
 _atom_site_label
 _atom_site_symmetry_multiplicity
 _atom_site_fract_x
 _atom_site_fract_y
 _atom_site_fract_z
 _atom_site_occupancy
  Ca2+  Ca0  1  0.17251182  0.07634430  0.16660501  1
  Ca2+  Ca1  1  0.16928300  0.07327351  0.50262489  1
  Ca2+  Ca2  1  0.16748745  0.07324857  0.84273030  1
  Ca2+  Ca3  1  0.17483865  0.58122657  0.17582381  1
  Ca2+  Ca4  1  0.16984560  0.58258771  0.50573109  1
  Ca2+  Ca5  1  0.15868157  0.57432497  0.83368015  1
  Ca2+  Ca6  1  0.67581543  0.08584837  0.16795597  1
  Ca2+  Ca7  1  0.67696687  0.08071845  0.50834322  1
  Ca2+  Ca8  1  0.67431960  0.07581419  0.83885795  1
  Ca2+  Ca9  1  0.67088302  0.58807244  0.16308785  1
  Ca2+  Ca10  1  0.66636594  0.58243321  0.50677789  1
  Ca2+  Ca11  1  0.66862620  0.58583501  0.84166933  1
  Ca2+  Ca12  1  0.07869272  0.31992524  0.15472182  1
  Ca2+  Ca13  1  0.07955407  0.33598920  0.50160579  1
  Ca2+  Ca14  1  0.07573788  0.32401428  0.82976063  1
  Ca2+  Ca15  1  0.09401608  0.83067960  0.16424826  1
  Ca2+  Ca16  1  0.09546597  0.82712556  0.49620150  1
  Ca2+  Ca17  1  0.08743581  0.83117223  0.82680378  1
  Ca2+  Ca18  1  0.57067587  0.33002061  0.16124812  1
  Ca2+  Ca19  1  0.57034529  0.33191887  0.49624186  1
  Ca2+  Ca20  1  0.57107284  0.33233597  0.83008860  1
  Ca2+  Ca21  1  0.57658817  0.83063238  0.15214946  1
  Ca2+  Ca22  1  0.58950601  0.83002134  0.50073541  1
  Ca2+  Ca23  1  0.59085352  0.82998814  0.83041552  1
  Ca2+  Ca24  1  0.33934397  0.42093781  0.17337387  1
  Ca2+  Ca25  1  0.33323975  0.42013295  0.50608808  1
  Ca2+  Ca26  1  0.33134631  0.41251872  0.83541731  1
  Ca2+  Ca27  1  0.32813293  0.92282571  0.16965330  1
  Ca2+  Ca28  1  0.32446720  0.91890103  0.50260935  1
  Ca2+  Ca29  1  0.32444975  0.91801453  0.84362515  1
  Ca2+  Ca30  1  0.83674775  0.41961784  0.16412392  1
  Ca2+  Ca31  1  0.83318843  0.41686355  0.50812836  1
  Ca2+  Ca32  1  0.84161674  0.42201987  0.84076785  1
  Ca2+  Ca33  1  0.82912436  0.92739196  0.16647034  1
  Ca2+  Ca34  1  0.83159377  0.92974140  0.50814616  1
  Ca2+  Ca35  1  0.82582033  0.92538450  0.83927707  1
  Ca2+  Ca36  1  0.40211737  0.17463046  0.16032041  1
  Ca2+  Ca37  1  0.40800359  0.17655372  0.49437580  1
  Ca2+  Ca38  1  0.40763309  0.17461793  0.83160822  1
  Ca2+  Ca39  1  0.41962730  0.67305328  0.15751331  1
  Ca2+  Ca40  1  0.42025155  0.66521066  0.49667174  1
  Ca2+  Ca41  1  0.42885151  0.67590865  0.83267878  1
  Ca2+  Ca42  1  0.92012672  0.16444610  0.15575320  1
  Ca2+  Ca43  1  0.91082178  0.16750112  0.49734945  1
  Ca2+  Ca44  1  0.91296117  0.16945127  0.82969329  1
  Ca2+  Ca45  1  0.92317588  0.66739123  0.16127592  1
  Ca2+  Ca46  1  0.93278618  0.67011263  0.49675633  1
  Ca2+  Ca47  1  0.91944793  0.66901391  0.82755598  1
  Al0+  Al48  1  0.00075165  -0.00401899  0.00385035  1
  Al0+  Al49  1  -0.00277028  -0.00095776  0.34117928  1
  Al0+  Al50  1  0.00134320  0.00157636  0.67348801  1
  Al0+  Al51  1  -0.00016416  0.49886656  0.00407472  1
  Al0+  Al52  1  -0.00039734  0.50197113  0.32879337  1
  Al0+  Al53  1  0.00162325  0.49987112  0.66167784  1
  Al0+  Al54  1  0.49721932  0.00228136  0.00323483  1
  Al0+  Al55  1  0.50120932  0.00042546  0.33742469  1
  Al0+  Al56  1  0.50096701  0.00029308  0.66898089  1
  Al0+  Al57  1  0.50055258  0.49974217  -0.00735076  1
  Al0+  Al58  1  0.50070878  0.49940939  0.33310750  1
  Al0+  Al59  1  0.50029018  0.50134224  0.65987344  1
  Al0+  Al60  1  0.24502177  0.24905466  -0.00666651  1
  Al0+  Al61  1  0.24562243  0.25061385  0.33161456  1
  Al0+  Al62  1  0.24673581  0.25257299  0.66441212  1
  Al0+  Al63  1  0.25246738  0.74613696  -0.00285431  1
  Al0+  Al64  1  0.25322974  0.74651775  0.33618810  1
  Al0+  Al65  1  0.25417877  0.74921978  0.66747979  1
  Al0+  Al66  1  0.74702711  0.25375467  0.00045138  1
  Al0+  Al67  1  0.74709678  0.25160497  0.33635118  1
  Al0+  Al68  1  0.74800912  0.25272510  0.66631765  1
  Al0+  Al69  1  0.75320198  0.74808929  0.00609571  1
  Al0+  Al70  1  0.75301421  0.74877475  0.33312919  1
  Al0+  Al71  1  0.75203672  0.75022481  0.66215674  1
  Al0+  Al72  1  0.42781642  0.82399909  0.98579673  1
  Al0+  Al73  1  0.17965127  0.92400526  0.01517419  1
  Al0+  Al74  1  0.06817269  0.17476221  0.98416279  1
  Al0+  Al75  1  0.67940260  0.92731359  0.68136576  1
  Al0+  Al76  1  0.42749717  0.31989671  0.98574830  1
  Al0+  Al77  1  0.32260690  0.56818890  0.34694662  1
  Al0+  Al78  1  0.57256825  0.68126120  0.65146093  1
  Al0+  Al79  1  0.57322932  0.68161981  0.98601581  1
  Al0+  Al80  1  0.67754095  0.92803995  0.01549402  1
  Al0+  Al81  1  0.92744520  0.32115175  0.98665290  1
  Al0+  Al82  1  0.92843176  0.32000512  0.65217689  1
  Al0+  Al83  1  0.07263947  0.68086085  0.31804655  1
  Al0+  Al84  1  0.31953375  0.07379042  0.01292789  1
  Al0+  Al85  1  0.18054683  0.92801717  0.34851850  1
  Al0+  Al86  1  0.81891993  0.07194913  0.34775890  1
  Al0+  Al87  1  0.82252765  0.56984864  0.01385562  1
  Al0+  Al88  1  0.17867375  0.43094073  0.68101319  1
  Al0+  Al89  1  0.07241435  0.68027495  0.65408900  1
  Al0+  Al90  1  0.42742800  0.31929925  0.65134852  1
  Al0+  Al91  1  0.32150055  0.07426985  0.34894335  1
  Al0+  Al92  1  0.18180943  0.92736768  0.68140377  1
  Al0+  Al93  1  0.82000183  0.07303892  0.01450783  1
  Al0+  Al94  1  0.82095982  0.07466650  0.68337013  1
  Al0+  Al95  1  0.42764017  0.31916370  0.31931237  1
  Si0+  Si96  1  0.17515751  0.42873395  0.34884336  1
  Si0+  Si97  1  0.07050936  0.17668972  0.64733165  1
  Si0+  Si98  1  0.07256841  0.67744038  0.98567437  1
  Si0+  Si99  1  0.57136457  0.17763772  0.64989339  1
  Si0+  Si100  1  0.32226638  0.56685466  0.01269458  1
  Si0+  Si101  1  0.42900993  0.82386425  0.64822906  1
  Si0+  Si102  1  0.57313211  0.17776337  0.98330831  1
  Si0+  Si103  1  0.67985505  0.43136687  0.34921525  1
  Si0+  Si104  1  0.93008788  0.81882847  0.98627240  1
  Si0+  Si105  1  0.92604114  0.32155072  0.31835498  1
  Si0+  Si106  1  0.32528477  0.57099861  0.68603265  1
  Si0+  Si107  1  0.67807943  0.92536591  0.34974979  1
  Si0+  Si108  1  0.92996241  0.82373064  0.65046530  1
  Si0+  Si109  1  0.06729939  0.17724941  0.31952106  1
  Si0+  Si110  1  0.67660502  0.43121837  0.68137972  1
  Si0+  Si111  1  0.17805974  0.42937049  0.01503247  1
  Si0+  Si112  1  0.32140208  0.07381529  0.68187164  1
  Si0+  Si113  1  0.92776338  0.82235897  0.31544036  1
  Si0+  Si114  1  0.57346990  0.67869562  0.31780610  1
  Si0+  Si115  1  0.82279169  0.57130021  0.35077350  1
  Si0+  Si116  1  0.43122793  0.82088025  0.31998422  1
  Si0+  Si117  1  0.82119872  0.56891261  0.67877711  1
  Si0+  Si118  1  0.57223459  0.17813631  0.31729566  1
  Si0+  Si119  1  0.67426805  0.42985410  0.01722714  1
  O2-  O120  1  0.25213471  -0.00302832  0.06249393  1
  O2-  O121  1  0.25143272  0.00085594  0.39934223  1
  O2-  O122  1  0.25630515  0.00240614  0.72641548  1
  O2-  O123  1  0.25255795  0.49608344  0.05756778  1
  O2-  O124  1  0.24699320  0.49409871  0.39295251  1
  O2-  O125  1  0.25405130  0.50446555  0.72955714  1
  O2-  O126  1  0.74578081  0.00366782  0.06577201  1
  O2-  O127  1  0.74457364  -0.00367637  0.39320191  1
  O2-  O128  1  0.75008524  0.00046636  0.73044658  1
  O2-  O129  1  0.74647856  0.49595959  0.06061113  1
  O2-  O130  1  0.75187369  0.50076575  0.39317935  1
  O2-  O131  1  0.74912504  0.50053869  0.72308887  1
  O2-  O132  1  -0.00457290  0.24877394  0.27795418  1
  O2-  O133  1  -0.00145814  0.24249372  0.60280897  1
  O2-  O134  1  -0.00866924  0.24307702  0.93559199  1
  O2-  O135  1  0.00028014  0.75744562  0.27084609  1
  O2-  O136  1  0.00377761  0.76018716  0.60613353  1
  O2-  O137  1  0.00428900  0.75070410  0.94408563  1
  O2-  O138  1  0.49686242  0.23931991  0.27252730  1
  O2-  O139  1  0.49863792  0.24157459  0.60425457  1
  O2-  O140  1  0.49945819  0.24224734  0.94004616  1
  O2-  O141  1  0.50653159  0.75369866  0.27787798  1
  O2-  O142  1  0.49994886  0.75711437  0.60345126  1
  O2-  O143  1  0.50736488  0.75926611  0.93634133  1
  O2-  O144  1  0.06937103  0.17861370  0.09863349  1
  O2-  O145  1  0.06730251  0.17878594  0.42466122  1
  O2-  O146  1  0.07184702  0.17827676  0.75242889  1
  O2-  O147  1  0.07244430  0.67629796  0.09096120  1
  O2-  O148  1  0.07012116  0.67875341  0.43113251  1
  O2-  O149  1  0.06649558  0.67778728  0.76729826  1
  O2-  O150  1  0.57748841  0.18278017  0.08896780  1
  O2-  O151  1  0.57631703  0.18402415  0.42263076  1
  O2-  O152  1  0.57214971  0.18108234  0.75513459  1
  O2-  O153  1  0.56882910  0.67889511  0.10025864  1
  O2-  O154  1  0.57403332  0.67800646  0.42312624  1
  O2-  O155  1  0.57303102  0.67912006  0.76382635  1
  O2-  O156  1  0.17419427  0.43057246  0.24314442  1
  O2-  O157  1  0.17868408  0.43319821  0.56761263  1
  O2-  O158  1  0.17581087  0.43320058  0.91005126  1
  O2-  O159  1  0.18318173  0.92775338  0.23554615  1
  O2-  O160  1  0.18352212  0.92747156  0.56830493  1
  O2-  O161  1  0.18089647  0.92245232  0.90152394  1
  O2-  O162  1  0.67988619  0.43205917  0.24442723  1
  O2-  O163  1  0.67737015  0.43311554  0.57563227  1
  O2-  O164  1  0.67064556  0.43242866  0.91180091  1
  O2-  O165  1  0.67924040  0.92377572  0.24466539  1
  O2-  O166  1  0.68290119  0.92783840  0.56715118  1
  O2-  O167  1  0.68393025  0.92629621  0.90226551  1
  O2-  O168  1  0.42957624  0.32285423  0.09909354  1
  O2-  O169  1  0.43122312  0.32165120  0.43223186  1
  O2-  O170  1  0.42940498  0.31989629  0.76428767  1
  O2-  O171  1  0.42541408  0.81675052  0.10000947  1
  O2-  O172  1  0.43199669  0.81851326  0.42524019  1
  O2-  O173  1  0.42752573  0.82173207  0.75328966  1
  O2-  O174  1  0.93305095  0.32337656  0.10085113  1
  O2-  O175  1  0.92644812  0.32316369  0.42364406  1
  O2-  O176  1  0.93071751  0.32330256  0.76440592  1
  O2-  O177  1  0.92898136  0.81635597  0.09143816  1
  O2-  O178  1  0.92388793  0.81814089  0.42089187  1
  O2-  O179  1  0.92714941  0.81894081  0.75601326  1
  O2-  O180  1  0.31828133  0.07462703  0.23606196  1
  O2-  O181  1  0.31901290  0.07347908  0.57605963  1
  O2-  O182  1  0.31500964  0.07595241  0.89929537  1
  O2-  O183  1  0.32317846  0.56735014  0.23339133  1
  O2-  O184  1  0.32587717  0.56903987  0.57994239  1
  O2-  O185  1  0.32123865  0.56602153  0.90795174  1
  O2-  O186  1  0.81831658  0.07379405  0.23512799  1
  O2-  O187  1  0.81816925  0.07397298  0.56923374  1
  O2-  O188  1  0.81845181  0.07165250  0.90149478  1
  O2-  O189  1  0.82293098  0.57090866  0.24585274  1
  O2-  O190  1  0.81999524  0.56632128  0.57320697  1
  O2-  O191  1  0.82508563  0.56910201  0.90054851  1
  O2-  O192  1  0.03860837  0.08495146  0.27439875  1
  O2-  O193  1  0.04777613  0.08155886  0.60283921  1
  O2-  O194  1  0.04649289  0.07362650  0.93486470  1
  O2-  O195  1  0.03850233  0.58517155  0.26280281  1
  O2-  O196  1  0.03625270  0.58714378  0.59665252  1
  O2-  O197  1  0.03981378  0.58662969  0.93987514  1
  O2-  O198  1  0.55717487  0.08069760  0.27599144  1
  O2-  O199  1  0.55234323  0.08193334  0.60499590  1
  O2-  O200  1  0.55300001  0.08245961  0.93989031  1
  O2-  O201  1  0.54280513  0.58790755  0.27105347  1
  O2-  O202  1  0.53991165  0.58594434  0.59468394  1
  O2-  O203  1  0.54047255  0.58547127  0.93123483  1
  O2-  O204  1  0.15772560  0.20626924  0.27022002  1
  O2-  O205  1  0.16187289  0.20768046  0.59955925  1
  O2-  O206  1  0.16185281  0.21041064  0.92694233  1
  O2-  O207  1  0.17148243  0.70683684  0.26589851  1
  O2-  O208  1  0.17204102  0.70466542  0.60248444  1
  O2-  O209  1  0.16456787  0.69955475  0.93688732  1
  O2-  O210  1  0.66235591  0.21334948  0.26860376  1
  O2-  O211  1  0.66232000  0.20970917  0.60150179  1
  O2-  O212  1  0.66340742  0.20963049  0.93405308  1
  O2-  O213  1  0.66770553  0.70137437  0.27241349  1
  O2-  O214  1  0.66971713  0.70859899  0.59453098  1
  O2-  O215  1  0.67504621  0.70258061  0.93712990  1
  O2-  O216  1  0.08950293  0.46057664  0.06633947  1
  O2-  O217  1  0.08239442  0.45860292  0.39499416  1
  O2-  O218  1  0.08278249  0.46549398  0.73433648  1
  O2-  O219  1  0.08103922  0.94863465  0.06891147  1
  O2-  O220  1  0.08099778  0.95276092  0.40117725  1
  O2-  O221  1  0.08442153  0.95504579  0.73449310  1
  O2-  O222  1  0.58260666  0.46053794  0.06531561  1
  O2-  O223  1  0.58957362  0.46190161  0.39799173  1
  O2-  O224  1  0.58566778  0.46177873  0.72802764  1
  O2-  O225  1  0.57689186  0.95059350  0.06593812  1
  O2-  O226  1  0.58411840  0.94683662  0.39667970  1
  O2-  O227  1  0.57965920  0.95183857  0.73307478  1
  O2-  O228  1  0.20202416  0.33586517  0.05926852  1
  O2-  O229  1  0.19536433  0.33395525  0.39360694  1
  O2-  O230  1  0.20711376  0.33349432  0.73409053  1
  O2-  O231  1  0.20966912  0.82447811  0.06623284  1
  O2-  O232  1  0.21279033  0.83019361  0.40084724  1
  O2-  O233  1  0.21157794  0.82992245  0.73432925  1
  O2-  O234  1  0.69668008  0.33660857  0.06500215  1
  O2-  O235  1  0.70566668  0.34005703  0.39847922  1
  O2-  O236  1  0.70051115  0.33889208  0.72774808  1
  O2-  O237  1  0.70999840  0.83119141  0.06989752  1
  O2-  O238  1  0.70650990  0.83172573  0.39566678  1
  O2-  O239  1  0.71054099  0.82827654  0.73161105  1
  O2-  O240  1  0.46575900  0.41451541  0.26612833  1
  O2-  O241  1  0.46281819  0.41450472  0.59700901  1
  O2-  O242  1  0.46161356  0.41414365  0.92932165  1
  O2-  O243  1  0.45422023  0.91490375  0.27449390  1
  O2-  O244  1  0.45132908  0.91890198  0.60307860  1
  O2-  O245  1  0.44391785  0.92629676  0.93723509  1
  O2-  O246  1  0.95378314  0.41356769  0.27133970  1
  O2-  O247  1  0.96308914  0.41474377  0.59534632  1
  O2-  O248  1  0.96342032  0.41813213  0.93450855  1
  O2-  O249  1  0.94860856  0.91839395  0.27326254  1
  O2-  O250  1  0.95128120  0.91975229  0.60802404  1
  O2-  O251  1  0.95431169  0.91064040  0.93846073  1
  O2-  O252  1  0.32789872  0.29656983  0.26722441  1
  O2-  O253  1  0.32952838  0.29325843  0.59718676  1
  O2-  O254  1  0.33035965  0.29288691  0.93152742  1
  O2-  O255  1  0.34186033  0.78720899  0.27262131  1
  O2-  O256  1  0.33750477  0.79334516  0.60018102  1
  O2-  O257  1  0.33442377  0.78393945  0.92917053  1
  O2-  O258  1  0.83252116  0.29703566  0.27326115  1
  O2-  O259  1  0.82922592  0.29585260  0.59844123  1
  O2-  O260  1  0.82463853  0.30715394  0.93801884  1
  O2-  O261  1  0.83624498  0.79093981  0.26731496  1
  O2-  O262  1  0.83991256  0.79265445  0.60013991  1
  O2-  O263  1  0.84069758  0.78560850  0.93813773  1
  O2-  O264  1  0.42000560  0.05682658  0.06610503  1
  O2-  O265  1  0.42211279  0.05045732  0.40053164  1
  O2-  O266  1  0.41713189  0.05439509  0.72530858  1
  O2-  O267  1  0.41421005  0.53929985  0.06001127  1
  O2-  O268  1  0.41893852  0.53733362  0.40204008  1
  O2-  O269  1  0.41816739  0.54117955  0.73042850  1
  O2-  O270  1  0.91699718  0.03985898  0.06755030  1
  O2-  O271  1  0.91369446  0.04191484  0.40533240  1
  O2-  O272  1  0.92003703  0.04938229  0.73461793  1
  O2-  O273  1  0.91698626  0.53672689  0.07241479  1
  O2-  O274  1  0.91463428  0.54222159  0.39726638  1
  O2-  O275  1  0.91214729  0.53929569  0.72551353  1
  O2-  O276  1  0.28356325  0.17089360  0.06586250  1
  O2-  O277  1  0.28891765  0.17241974  0.40099943  1
  O2-  O278  1  0.29272858  0.16716983  0.72577442  1
  O2-  O279  1  0.29338475  0.65779437  0.06079734  1
  O2-  O280  1  0.29341286  0.66332967  0.40347488  1
  O2-  O281  1  0.30358979  0.66573079  0.72981953  1
  O2-  O282  1  0.79400306  0.17367022  0.06565570  1
  O2-  O283  1  0.78698074  0.16884529  0.40175035  1
  O2-  O284  1  0.79033223  0.17345186  0.73378037  1
  O2-  O285  1  0.79338408  0.66395317  0.07329308  1
  O2-  O286  1  0.79556364  0.66314667  0.39816760  1
  O2-  O287  1  0.79628002  0.66211158  0.72358984  1
