# generated using pymatgen
data_Ca2Al2SiO7
_symmetry_space_group_name_H-M   'P 1'
_cell_length_a   15.45623613
_cell_length_b   15.45619004
_cell_length_c   15.28264960
_cell_angle_alpha   90.00335148
_cell_angle_beta   89.99606590
_cell_angle_gamma   90.01507465
_symmetry_Int_Tables_number   1
_chemical_formula_structural   Ca2Al2SiO7
_chemical_formula_sum   'Ca48 Al48 Si24 O168'
_cell_volume   3650.94114323
_cell_formula_units_Z   24
loop_
 _symmetry_equiv_pos_site_id
 _symmetry_equiv_pos_as_xyz
  1  'x, y, z'
loop_
 _atom_type_symbol
 _atom_type_oxidation_number
  Ca2+  2.0
  Al0+  0.0
  Si0+  0.0
  O2-  -2.0
loop_
 _atom_site_type_symbol
 _atom_site_label
 _atom_site_symmetry_multiplicity
 _atom_site_fract_x
 _atom_site_fract_y
 _atom_site_fract_z
 _atom_site_occupancy
  Ca2+  Ca0  1  0.17537065  0.07426700  0.17074803  1
  Ca2+  Ca1  1  0.18050225  0.07705674  0.50665084  1
  Ca2+  Ca2  1  0.16993393  0.07179315  0.83392713  1
  Ca2+  Ca3  1  0.16608203  0.57681982  0.17569756  1
  Ca2+  Ca4  1  0.17491714  0.58850509  0.49878114  1
  Ca2+  Ca5  1  0.17402614  0.57914527  0.83708877  1
  Ca2+  Ca6  1  0.66563964  0.07561821  0.17765859  1
  Ca2+  Ca7  1  0.66592990  0.08000205  0.50183512  1
  Ca2+  Ca8  1  0.67015289  0.08739002  0.83059117  1
  Ca2+  Ca9  1  0.66420301  0.58024356  0.16773585  1
  Ca2+  Ca10  1  0.67040517  0.57845625  0.50539466  1
  Ca2+  Ca11  1  0.67505074  0.58493805  0.84268852  1
  Ca2+  Ca12  1  0.08997062  0.33605055  0.16305996  1
  Ca2+  Ca13  1  0.08387358  0.33484475  0.49384092  1
  Ca2+  Ca14  1  0.08543426  0.33426000  0.83123278  1
  Ca2+  Ca15  1  0.07627431  0.82849981  0.16134032  1
  Ca2+  Ca16  1  0.07393443  0.83366282  0.49333831  1
  Ca2+  Ca17  1  0.07610776  0.84155750  0.82804798  1
  Ca2+  Ca18  1  0.59015207  0.33163237  0.16490285  1
  Ca2+  Ca19  1  0.58068657  0.32301958  0.49613999  1
  Ca2+  Ca20  1  0.58039642  0.33073355  0.82398676  1
  Ca2+  Ca21  1  0.57152493  0.83284844  0.16174410  1
  Ca2+  Ca22  1  0.57868753  0.83336368  0.49024056  1
  Ca2+  Ca23  1  0.57854177  0.82652473  0.83554202  1
  Ca2+  Ca24  1  0.32435503  0.42602361  0.17590384  1
  Ca2+  Ca25  1  0.33451904  0.42771600  0.50370422  1
  Ca2+  Ca26  1  0.33540728  0.41921743  0.83526668  1
  Ca2+  Ca27  1  0.33426543  0.91370705  0.17340660  1
  Ca2+  Ca28  1  0.33484623  0.92545730  0.50543472  1
  Ca2+  Ca29  1  0.32339845  0.91605882  0.83756631  1
  Ca2+  Ca30  1  0.82278979  0.42515968  0.16981725  1
  Ca2+  Ca31  1  0.82698815  0.42267142  0.50428750  1
  Ca2+  Ca32  1  0.82774448  0.43180050  0.84260542  1
  Ca2+  Ca33  1  0.82792269  0.90849687  0.17062587  1
  Ca2+  Ca34  1  0.82970939  0.91340756  0.50536418  1
  Ca2+  Ca35  1  0.83921105  0.91877868  0.83429064  1
  Ca2+  Ca36  1  0.42158449  0.16251998  0.16782116  1
  Ca2+  Ca37  1  0.42270181  0.16254300  0.49462739  1
  Ca2+  Ca38  1  0.42165262  0.17512888  0.81992113  1
  Ca2+  Ca39  1  0.41672822  0.67500371  0.16243316  1
  Ca2+  Ca40  1  0.40926445  0.67212190  0.49277265  1
  Ca2+  Ca41  1  0.41949450  0.66474700  0.83140573  1
  Ca2+  Ca42  1  0.91908017  0.17034639  0.16341508  1
  Ca2+  Ca43  1  0.91625564  0.16447724  0.49824920  1
  Ca2+  Ca44  1  0.91705929  0.16736237  0.82511951  1
  Ca2+  Ca45  1  0.91702626  0.67426475  0.16283704  1
  Ca2+  Ca46  1  0.92198955  0.67394477  0.49362612  1
  Ca2+  Ca47  1  0.91099126  0.67524254  0.82763565  1
  Al0+  Al48  1  0.00308269  0.00113907  0.00155741  1
  Al0+  Al49  1  -0.00015133  0.00311036  0.32659400  1
  Al0+  Al50  1  -0.00255897  0.00059236  0.66771575  1
  Al0+  Al51  1  -0.00071350  0.50038043  0.00689293  1
  Al0+  Al52  1  -0.00123523  0.49931673  0.33284909  1
  Al0+  Al53  1  -0.00068048  0.50147685  0.66980313  1
  Al0+  Al54  1  0.50121382  0.00166627  -0.00810890  1
  Al0+  Al55  1  0.50258013  -0.00038528  0.33263260  1
  Al0+  Al56  1  0.50082413  -0.00088758  0.66925826  1
  Al0+  Al57  1  0.50068163  0.49827132  0.00034532  1
  Al0+  Al58  1  0.49969055  0.49789054  0.34219885  1
  Al0+  Al59  1  0.49906589  0.49867566  0.66599279  1
  Al0+  Al60  1  0.25182130  0.24840334  0.00234388  1
  Al0+  Al61  1  0.25079749  0.24947607  0.33930641  1
  Al0+  Al62  1  0.24952652  0.25029722  0.66475368  1
  Al0+  Al63  1  0.24748773  0.75109596  -0.00018196  1
  Al0+  Al64  1  0.24678493  0.74968035  0.32760132  1
  Al0+  Al65  1  0.24890252  0.74710149  0.67596172  1
  Al0+  Al66  1  0.75243980  0.25134444  0.00172990  1
  Al0+  Al67  1  0.75023702  0.24986989  0.33239290  1
  Al0+  Al68  1  0.74973134  0.24832289  0.66589142  1
  Al0+  Al69  1  0.75039509  0.75308121  -0.00438588  1
  Al0+  Al70  1  0.74899304  0.74987333  0.33475104  1
  Al0+  Al71  1  0.74937670  0.75012774  0.66593236  1
  Al0+  Al72  1  0.93101421  0.82129013  0.98382531  1
  Al0+  Al73  1  0.57186733  0.17747320  0.64972909  1
  Al0+  Al74  1  0.82064886  0.57184757  0.67954644  1
  Al0+  Al75  1  0.81990176  0.57579171  0.01713186  1
  Al0+  Al76  1  0.06992939  0.67825557  0.31736748  1
  Al0+  Al77  1  0.92703219  0.82313391  0.31726401  1
  Al0+  Al78  1  0.68085648  0.92819681  0.34494137  1
  Al0+  Al79  1  0.17711074  0.42854247  0.34985292  1
  Al0+  Al80  1  0.17907012  0.92880451  0.01635792  1
  Al0+  Al81  1  0.17886438  0.92932476  0.67959691  1
  Al0+  Al82  1  0.42997823  0.82056020  0.32293451  1
  Al0+  Al83  1  0.42581058  0.82249997  0.98237657  1
  Al0+  Al84  1  0.42682126  0.32218302  0.64894536  1
  Al0+  Al85  1  0.32372370  0.07258410  0.68273020  1
  Al0+  Al86  1  0.92970336  0.82119600  0.65195565  1
  Al0+  Al87  1  0.81908539  0.07002743  0.67904183  1
  Al0+  Al88  1  0.32227959  0.06780446  0.34564194  1
  Al0+  Al89  1  0.67893893  0.42701992  0.34983951  1
  Al0+  Al90  1  0.32185837  0.57007449  0.68239062  1
  Al0+  Al91  1  0.56940864  0.67775659  0.98594434  1
  Al0+  Al92  1  0.18087312  0.42815131  0.01266130  1
  Al0+  Al93  1  0.32003851  0.57353428  0.34710763  1
  Al0+  Al94  1  0.67802288  0.42833823  0.01474684  1
  Al0+  Al95  1  0.57051177  0.18056512  0.31784340  1
  Si0+  Si96  1  0.57204296  0.67439689  0.32004923  1
  Si0+  Si97  1  0.92933795  0.32105635  0.98499954  1
  Si0+  Si98  1  0.42858078  0.31880441  0.98731842  1
  Si0+  Si99  1  0.57433126  0.17965024  0.98422181  1
  Si0+  Si100  1  0.67691503  0.92569160  0.68562322  1
  Si0+  Si101  1  0.07394172  0.18026269  0.31729161  1
  Si0+  Si102  1  0.42751365  0.32243431  0.31560345  1
  Si0+  Si103  1  0.17661443  0.42745109  0.68295672  1
  Si0+  Si104  1  0.82248331  0.07236710  0.01502240  1
  Si0+  Si105  1  0.82085091  0.57201782  0.35108213  1
  Si0+  Si106  1  0.57111760  0.67904917  0.65128634  1
  Si0+  Si107  1  0.32357551  0.07060499  0.01624459  1
  Si0+  Si108  1  0.32284772  0.57203940  0.01653115  1
  Si0+  Si109  1  0.17537987  0.92849292  0.34799546  1
  Si0+  Si110  1  0.42724437  0.81812462  0.65348758  1
  Si0+  Si111  1  0.82325980  0.07233592  0.34782270  1
  Si0+  Si112  1  0.67887331  0.93264254  0.01299615  1
  Si0+  Si113  1  0.07215425  0.18067591  0.98457098  1
  Si0+  Si114  1  0.92969227  0.32278189  0.65302246  1
  Si0+  Si115  1  0.07274193  0.67616705  0.65118431  1
  Si0+  Si116  1  0.67970641  0.42804651  0.68250127  1
  Si0+  Si117  1  0.92893249  0.32020495  0.31781323  1
  Si0+  Si118  1  0.07076243  0.67465187  0.98152608  1
  Si0+  Si119  1  0.06946307  0.17909645  0.65156313  1
  O2-  O120  1  0.26098789  -0.00320618  0.06117774  1
  O2-  O121  1  0.24792461  -0.00730482  0.39228745  1
  O2-  O122  1  0.25320313  -0.00126575  0.73145070  1
  O2-  O123  1  0.25144330  0.50573703  0.05978165  1
  O2-  O124  1  0.24869340  0.50093479  0.39847901  1
  O2-  O125  1  0.24829054  0.49284850  0.72698968  1
  O2-  O126  1  0.75035675  0.00295543  0.05652398  1
  O2-  O127  1  0.75992390  -0.00122648  0.39086590  1
  O2-  O128  1  0.74492045  -0.00351016  0.72815699  1
  O2-  O129  1  0.74577532  0.50437636  0.06497417  1
  O2-  O130  1  0.75033583  0.50512131  0.39561437  1
  O2-  O131  1  0.74604927  0.49797028  0.72739752  1
  O2-  O132  1  0.00362956  0.25259306  0.27541018  1
  O2-  O133  1  0.00147604  0.25333648  0.60914043  1
  O2-  O134  1  0.00242271  0.25277465  0.94144036  1
  O2-  O135  1  -0.00123073  0.75124664  0.26723682  1
  O2-  O136  1  0.00536678  0.74671687  0.60765154  1
  O2-  O137  1  0.00364194  0.74456848  0.93641271  1
  O2-  O138  1  0.49730378  0.25577615  0.26899026  1
  O2-  O139  1  0.49584588  0.24596615  0.60059690  1
  O2-  O140  1  0.50355757  0.25179181  0.94488979  1
  O2-  O141  1  0.50137582  0.74175482  0.27717920  1
  O2-  O142  1  0.49856981  0.74841704  0.60919319  1
  O2-  O143  1  0.49445166  0.74611203  0.93383869  1
  O2-  O144  1  0.07087005  0.18150244  0.08981088  1
  O2-  O145  1  0.07132338  0.17779212  0.42237655  1
  O2-  O146  1  0.06746746  0.18030134  0.75712038  1
  O2-  O147  1  0.06887028  0.67480145  0.08688495  1
  O2-  O148  1  0.06877757  0.67969026  0.43143967  1
  O2-  O149  1  0.07118859  0.67273858  0.75668238  1
  O2-  O150  1  0.57476001  0.17665748  0.08920262  1
  O2-  O151  1  0.57091181  0.17974712  0.43020771  1
  O2-  O152  1  0.57485887  0.18353015  0.76408205  1
  O2-  O153  1  0.56776761  0.67990978  0.09970321  1
  O2-  O154  1  0.57369138  0.67726208  0.42604358  1
  O2-  O155  1  0.57180141  0.68003144  0.75629718  1
  O2-  O156  1  0.18014914  0.42805324  0.23601781  1
  O2-  O157  1  0.17268307  0.42959357  0.57800400  1
  O2-  O158  1  0.18350055  0.42552376  0.89949614  1
  O2-  O159  1  0.17479361  0.93286208  0.24230590  1
  O2-  O160  1  0.17921761  0.93131020  0.56581749  1
  O2-  O161  1  0.17544037  0.93503175  0.90356859  1
  O2-  O162  1  0.68257171  0.42655490  0.23690521  1
  O2-  O163  1  0.68307022  0.42826658  0.57683676  1
  O2-  O164  1  0.68228099  0.42405732  0.90123722  1
  O2-  O165  1  0.67901604  0.93126882  0.23135023  1
  O2-  O166  1  0.67741410  0.92353544  0.58000974  1
  O2-  O167  1  0.67877574  0.93546729  0.90792701  1
  O2-  O168  1  0.42555849  0.31591618  0.09206672  1
  O2-  O169  1  0.42829322  0.32053694  0.42074213  1
  O2-  O170  1  0.43029140  0.32267812  0.76381174  1
  O2-  O171  1  0.42993734  0.82523900  0.09609276  1
  O2-  O172  1  0.43175622  0.82174776  0.43655832  1
  O2-  O173  1  0.42889913  0.81594979  0.75839460  1
  O2-  O174  1  0.92765235  0.31684954  0.09006862  1
  O2-  O175  1  0.92801497  0.31790656  0.42326807  1
  O2-  O176  1  0.93108350  0.32153568  0.75834233  1
  O2-  O177  1  0.93136415  0.82252831  0.09654834  1
  O2-  O178  1  0.92848002  0.82298958  0.43108308  1
  O2-  O179  1  0.93083342  0.82150898  0.76513615  1
  O2-  O180  1  0.32048070  0.06769068  0.23212708  1
  O2-  O181  1  0.32248460  0.06963494  0.56900852  1
  O2-  O182  1  0.31989355  0.07434058  0.91109876  1
  O2-  O183  1  0.32084952  0.57135850  0.23336140  1
  O2-  O184  1  0.31993706  0.57389501  0.56989745  1
  O2-  O185  1  0.32323453  0.56780162  0.91065148  1
  O2-  O186  1  0.82151975  0.07565702  0.24182203  1
  O2-  O187  1  0.82080150  0.06964951  0.56626120  1
  O2-  O188  1  0.82185576  0.07452598  0.90993547  1
  O2-  O189  1  0.82046920  0.57105305  0.24564862  1
  O2-  O190  1  0.81953612  0.56888898  0.56645181  1
  O2-  O191  1  0.81968656  0.57243120  0.90317330  1
  O2-  O192  1  0.04467585  0.09084299  0.26521756  1
  O2-  O193  1  0.03607292  0.09022817  0.60289476  1
  O2-  O194  1  0.04093613  0.09057730  0.93647140  1
  O2-  O195  1  0.04094879  0.57897497  0.26526674  1
  O2-  O196  1  0.04467342  0.58351847  0.60381702  1
  O2-  O197  1  0.04573560  0.57993815  0.93664801  1
  O2-  O198  1  0.53783298  0.08488189  0.26283194  1
  O2-  O199  1  0.54842551  0.07573889  0.60078843  1
  O2-  O200  1  0.54747222  0.08968284  0.93312420  1
  O2-  O201  1  0.54896356  0.57922649  0.27632241  1
  O2-  O202  1  0.54670866  0.58578000  0.60577910  1
  O2-  O203  1  0.54590143  0.57740428  0.93264714  1
  O2-  O204  1  0.16577061  0.20764705  0.26955578  1
  O2-  O205  1  0.16175268  0.20331446  0.60381586  1
  O2-  O206  1  0.16421463  0.20798977  0.93717739  1
  O2-  O207  1  0.16721443  0.70396497  0.26084248  1
  O2-  O208  1  0.16760208  0.70118077  0.60774835  1
  O2-  O209  1  0.16580059  0.69823211  0.93761385  1
  O2-  O210  1  0.66820477  0.20999126  0.26396016  1
  O2-  O211  1  0.67024436  0.20790162  0.59668695  1
  O2-  O212  1  0.66703948  0.20762596  0.93790098  1
  O2-  O213  1  0.66498862  0.70061790  0.27362325  1
  O2-  O214  1  0.66156711  0.70857246  0.60219659  1
  O2-  O215  1  0.66565670  0.71213660  0.93126899  1
  O2-  O216  1  0.08287654  0.45278201  0.06667074  1
  O2-  O217  1  0.07655921  0.45278632  0.40052183  1
  O2-  O218  1  0.08430958  0.45498157  0.73182215  1
  O2-  O219  1  0.08596824  0.96849773  0.07184027  1
  O2-  O220  1  0.08301926  0.96058332  0.39315706  1
  O2-  O221  1  0.08251667  0.96445277  0.73319611  1
  O2-  O222  1  0.57803631  0.45023203  0.06751263  1
  O2-  O223  1  0.58231260  0.45206479  0.40546820  1
  O2-  O224  1  0.58512987  0.45156378  0.72625688  1
  O2-  O225  1  0.58684356  0.96212930  0.05940428  1
  O2-  O226  1  0.58743740  0.96373863  0.40118123  1
  O2-  O227  1  0.58393488  0.95019983  0.73303848  1
  O2-  O228  1  0.21258219  0.33176328  0.06743273  1
  O2-  O229  1  0.20313359  0.32967330  0.40259864  1
  O2-  O230  1  0.19756368  0.33218777  0.72746984  1
  O2-  O231  1  0.20182469  0.82952290  0.06832446  1
  O2-  O232  1  0.19451687  0.83275166  0.38973584  1
  O2-  O233  1  0.20290685  0.83131291  0.73524299  1
  O2-  O234  1  0.71298591  0.33163813  0.06915460  1
  O2-  O235  1  0.71614665  0.33207311  0.40301036  1
  O2-  O236  1  0.70698648  0.33501394  0.72799683  1
  O2-  O237  1  0.70642696  0.84100435  0.05921185  1
  O2-  O238  1  0.70585321  0.83124113  0.40161403  1
  O2-  O239  1  0.70528758  0.83357575  0.73267346  1
  O2-  O240  1  0.45234475  0.41748280  0.27219151  1
  O2-  O241  1  0.45836869  0.41988219  0.59605027  1
  O2-  O242  1  0.45221933  0.41154061  0.93984355  1
  O2-  O243  1  0.46611748  0.91381065  0.26600520  1
  O2-  O244  1  0.45419131  0.91136389  0.60877409  1
  O2-  O245  1  0.45917605  0.91936209  0.92760703  1
  O2-  O246  1  0.95244239  0.41247387  0.26999132  1
  O2-  O247  1  0.95649282  0.41461995  0.60498864  1
  O2-  O248  1  0.95543854  0.41422151  0.93979943  1
  O2-  O249  1  0.95212697  0.92288998  0.26426194  1
  O2-  O250  1  0.95875648  0.91869306  0.59870778  1
  O2-  O251  1  0.96416439  0.91964303  0.93270370  1
  O2-  O252  1  0.33356611  0.29415380  0.27108968  1
  O2-  O253  1  0.32572622  0.30049544  0.59871775  1
  O2-  O254  1  0.33898622  0.28671547  0.93702241  1
  O2-  O255  1  0.33261793  0.79507229  0.26797496  1
  O2-  O256  1  0.33473788  0.78924266  0.60851389  1
  O2-  O257  1  0.32520623  0.79828202  0.93217653  1
  O2-  O258  1  0.84014664  0.28707981  0.26781125  1
  O2-  O259  1  0.83885027  0.29298573  0.60521429  1
  O2-  O260  1  0.83939824  0.28985355  0.93536516  1
  O2-  O261  1  0.82775313  0.79327165  0.26608219  1
  O2-  O262  1  0.83216388  0.79025472  0.59971201  1
  O2-  O263  1  0.83325003  0.79594085  0.92940943  1
  O2-  O264  1  0.42057245  0.05064939  0.05778022  1
  O2-  O265  1  0.41787199  0.03650133  0.39980228  1
  O2-  O266  1  0.42309937  0.04795695  0.73519951  1
  O2-  O267  1  0.41525156  0.54420644  0.06264574  1
  O2-  O268  1  0.41787349  0.54701188  0.40245704  1
  O2-  O269  1  0.41893669  0.53920721  0.73621729  1
  O2-  O270  1  0.91440147  0.04584829  0.06225107  1
  O2-  O271  1  0.91951513  0.05354854  0.39124293  1
  O2-  O272  1  0.91464832  0.04085563  0.73605538  1
  O2-  O273  1  0.91660732  0.54332503  0.07052635  1
  O2-  O274  1  0.91304245  0.54236112  0.39694991  1
  O2-  O275  1  0.91639385  0.54111802  0.73524489  1
  O2-  O276  1  0.29201835  0.16121422  0.06529247  1
  O2-  O277  1  0.29104744  0.16338413  0.40042271  1
  O2-  O278  1  0.29253785  0.17132323  0.73370576  1
  O2-  O279  1  0.30032150  0.66744799  0.05882853  1
  O2-  O280  1  0.28894962  0.67203169  0.39974614  1
  O2-  O281  1  0.28997701  0.66344208  0.74157307  1
  O2-  O282  1  0.79642061  0.16420770  0.06330526  1
  O2-  O283  1  0.79382343  0.16373925  0.39556004  1
  O2-  O284  1  0.79031787  0.16718930  0.73521549  1
  O2-  O285  1  0.79236117  0.67528806  0.06737105  1
  O2-  O286  1  0.79698609  0.66574319  0.39725840  1
  O2-  O287  1  0.78800236  0.66768740  0.73337713  1
