# generated using pymatgen
data_Ca2Al2SiO7
_symmetry_space_group_name_H-M   'P 1'
_cell_length_a   15.46058022
_cell_length_b   15.46004076
_cell_length_c   15.28636182
_cell_angle_alpha   90.00520664
_cell_angle_beta   89.99530542
_cell_angle_gamma   90.00898060
_symmetry_Int_Tables_number   1
_chemical_formula_structural   Ca2Al2SiO7
_chemical_formula_sum   'Ca48 Al48 Si24 O168'
_cell_volume   3653.76447895
_cell_formula_units_Z   24
loop_
 _symmetry_equiv_pos_site_id
 _symmetry_equiv_pos_as_xyz
  1  'x, y, z'
loop_
 _atom_type_symbol
 _atom_type_oxidation_number
  Ca2+  2.0
  Al0+  0.0
  Si0+  0.0
  O2-  -2.0
loop_
 _atom_site_type_symbol
 _atom_site_label
 _atom_site_symmetry_multiplicity
 _atom_site_fract_x
 _atom_site_fract_y
 _atom_site_fract_z
 _atom_site_occupancy
  Ca2+  Ca0  1  0.16596526  0.08066003  0.17604146  1
  Ca2+  Ca1  1  0.16997095  0.07999246  0.50303591  1
  Ca2+  Ca2  1  0.16342795  0.08627210  0.83167953  1
  Ca2+  Ca3  1  0.16911783  0.57634695  0.16608045  1
  Ca2+  Ca4  1  0.17632793  0.57490244  0.51255809  1
  Ca2+  Ca5  1  0.17311045  0.56961655  0.83984616  1
  Ca2+  Ca6  1  0.67204766  0.08286734  0.16896959  1
  Ca2+  Ca7  1  0.67028313  0.07689533  0.50511290  1
  Ca2+  Ca8  1  0.68045898  0.08940146  0.84016878  1
  Ca2+  Ca9  1  0.66845707  0.58383706  0.16645614  1
  Ca2+  Ca10  1  0.66359103  0.58502306  0.50149418  1
  Ca2+  Ca11  1  0.67382821  0.57313680  0.84256508  1
  Ca2+  Ca12  1  0.08682343  0.32012900  0.15961668  1
  Ca2+  Ca13  1  0.09107058  0.32027651  0.50032052  1
  Ca2+  Ca14  1  0.08517667  0.32685432  0.82567318  1
  Ca2+  Ca15  1  0.07868039  0.83670010  0.15891647  1
  Ca2+  Ca16  1  0.08156039  0.84572761  0.49975282  1
  Ca2+  Ca17  1  0.07377745  0.83446232  0.82665245  1
  Ca2+  Ca18  1  0.57819292  0.32967010  0.16012145  1
  Ca2+  Ca19  1  0.56962223  0.32928173  0.49580386  1
  Ca2+  Ca20  1  0.58241318  0.33108569  0.83010152  1
  Ca2+  Ca21  1  0.58125568  0.83497693  0.16869975  1
  Ca2+  Ca22  1  0.57654423  0.82893636  0.48758315  1
  Ca2+  Ca23  1  0.58123872  0.82885089  0.82984357  1
  Ca2+  Ca24  1  0.33165026  0.41534494  0.16689021  1
  Ca2+  Ca25  1  0.33323969  0.41742076  0.51025035  1
  Ca2+  Ca26  1  0.32669236  0.41888348  0.83399978  1
  Ca2+  Ca27  1  0.32802391  0.92552366  0.18125457  1
  Ca2+  Ca28  1  0.32695432  0.92571271  0.50698913  1
  Ca2+  Ca29  1  0.32522675  0.92165360  0.83226159  1
  Ca2+  Ca30  1  0.82774433  0.41832753  0.16537353  1
  Ca2+  Ca31  1  0.83223482  0.41479443  0.50727899  1
  Ca2+  Ca32  1  0.83124443  0.41672896  0.84437199  1
  Ca2+  Ca33  1  0.83086413  0.92040343  0.16841271  1
  Ca2+  Ca34  1  0.82909935  0.92073936  0.50625855  1
  Ca2+  Ca35  1  0.84360354  0.92629652  0.83539000  1
  Ca2+  Ca36  1  0.41673926  0.17023384  0.16325503  1
  Ca2+  Ca37  1  0.39925398  0.17623282  0.49733670  1
  Ca2+  Ca38  1  0.42263650  0.17037321  0.82631516  1
  Ca2+  Ca39  1  0.41627385  0.67188114  0.16507483  1
  Ca2+  Ca40  1  0.41904115  0.67159735  0.49130723  1
  Ca2+  Ca41  1  0.41277259  0.65967087  0.82999673  1
  Ca2+  Ca42  1  0.92792821  0.15980464  0.15941472  1
  Ca2+  Ca43  1  0.92649039  0.16597111  0.50354065  1
  Ca2+  Ca44  1  0.92449463  0.16710868  0.82482384  1
  Ca2+  Ca45  1  0.91529950  0.67440115  0.15779582  1
  Ca2+  Ca46  1  0.92012961  0.67370357  0.49795406  1
  Ca2+  Ca47  1  0.90950941  0.67687535  0.82946662  1
  Al0+  Al48  1  -0.00045288  -0.00028180  -0.00409666  1
  Al0+  Al49  1  -0.00048480  0.00116968  0.33268969  1
  Al0+  Al50  1  -0.00217427  -0.00054022  0.66417603  1
  Al0+  Al51  1  0.00150261  0.50015393  0.00973174  1
  Al0+  Al52  1  -0.00134498  0.50090456  0.33403929  1
  Al0+  Al53  1  -0.00085436  0.50234158  0.66728760  1
  Al0+  Al54  1  0.49986663  0.00035372  -0.00610323  1
  Al0+  Al55  1  0.50147720  0.00207138  0.33873652  1
  Al0+  Al56  1  0.50061141  -0.00302282  0.67048048  1
  Al0+  Al57  1  0.49910737  0.50154598  0.00638060  1
  Al0+  Al58  1  0.50130403  0.49918375  0.32504365  1
  Al0+  Al59  1  0.50247051  0.49872075  0.66628963  1
  Al0+  Al60  1  0.25147329  0.24952320  -0.00219479  1
  Al0+  Al61  1  0.24802835  0.25015806  0.32622178  1
  Al0+  Al62  1  0.25156281  0.24961252  0.66708222  1
  Al0+  Al63  1  0.24876136  0.75045809  0.00167897  1
  Al0+  Al64  1  0.24830051  0.74831247  0.33287945  1
  Al0+  Al65  1  0.25093340  0.75081517  0.67366015  1
  Al0+  Al66  1  0.75076142  0.24842983  0.00767738  1
  Al0+  Al67  1  0.74997740  0.25380790  0.33546945  1
  Al0+  Al68  1  0.74981279  0.24831233  0.66484757  1
  Al0+  Al69  1  0.74736618  0.75106202  -0.00232231  1
  Al0+  Al70  1  0.75091836  0.75036228  0.33363912  1
  Al0+  Al71  1  0.74923526  0.74900009  0.66177854  1
  Al0+  Al72  1  0.32422467  0.57055037  0.67968721  1
  Al0+  Al73  1  0.81825353  0.06991363  0.67969863  1
  Al0+  Al74  1  0.17950225  0.42567511  0.01733347  1
  Al0+  Al75  1  0.42723829  0.82332465  0.31984674  1
  Al0+  Al76  1  0.17757730  0.92647864  0.34691914  1
  Al0+  Al77  1  0.67914811  0.42738647  0.01616935  1
  Al0+  Al78  1  0.17700820  0.42819744  0.68025771  1
  Al0+  Al79  1  0.92930753  0.81993144  0.65030576  1
  Al0+  Al80  1  0.32056452  0.57273553  0.01829864  1
  Al0+  Al81  1  0.57194853  0.68007081  0.31575127  1
  Al0+  Al82  1  0.82241739  0.06934133  0.01377557  1
  Al0+  Al83  1  0.32244125  0.07230628  0.68397673  1
  Al0+  Al84  1  0.68002740  0.92917780  0.34662039  1
  Al0+  Al85  1  0.07173343  0.17981725  0.65054628  1
  Al0+  Al86  1  0.32126536  0.07318611  0.34660973  1
  Al0+  Al87  1  0.42878968  0.31889221  0.31826501  1
  Al0+  Al88  1  0.43182170  0.31921533  0.65481311  1
  Al0+  Al89  1  0.07181396  0.17900780  0.98478888  1
  Al0+  Al90  1  0.06715194  0.18034321  0.31852783  1
  Al0+  Al91  1  0.92788312  0.81886002  0.98604790  1
  Al0+  Al92  1  0.82102793  0.57391545  0.01491477  1
  Al0+  Al93  1  0.57238575  0.17864424  0.98699512  1
  Al0+  Al94  1  0.92655776  0.32437414  0.65388517  1
  Al0+  Al95  1  0.17739158  0.92991719  0.68349974  1
  Si0+  Si96  1  0.42999082  0.32321263  0.98181495  1
  Si0+  Si97  1  0.07392677  0.67902430  0.65083042  1
  Si0+  Si98  1  0.42761240  0.82116727  0.65236138  1
  Si0+  Si99  1  0.68099332  0.42926008  0.67901438  1
  Si0+  Si100  1  0.82214139  0.07355067  0.35052530  1
  Si0+  Si101  1  0.82060929  0.57253565  0.67936016  1
  Si0+  Si102  1  0.56920636  0.67924373  0.98329783  1
  Si0+  Si103  1  0.82051239  0.57145546  0.35037817  1
  Si0+  Si104  1  0.67843432  0.92456921  0.68453440  1
  Si0+  Si105  1  0.07115971  0.67540349  0.31842060  1
  Si0+  Si106  1  0.56960268  0.67914330  0.65241614  1
  Si0+  Si107  1  0.93119037  0.81965864  0.31838689  1
  Si0+  Si108  1  0.57631617  0.17822252  0.31789853  1
  Si0+  Si109  1  0.67782688  0.43031252  0.35082379  1
  Si0+  Si110  1  0.92626900  0.32512710  0.31533568  1
  Si0+  Si111  1  0.67520260  0.92860617  0.01536412  1
  Si0+  Si112  1  0.32341724  0.06953663  0.01380031  1
  Si0+  Si113  1  0.17884199  0.42980578  0.34808073  1
  Si0+  Si114  1  0.32212593  0.56957438  0.34757469  1
  Si0+  Si115  1  0.92910262  0.32259485  0.98759678  1
  Si0+  Si116  1  0.42667843  0.82140621  0.98338884  1
  Si0+  Si117  1  0.07276378  0.67694195  0.98357942  1
  Si0+  Si118  1  0.17915208  0.93128492  0.01381411  1
  Si0+  Si119  1  0.57271530  0.17515207  0.64979466  1
  O2-  O120  1  0.25061090  0.00096788  0.05656171  1
  O2-  O121  1  0.25458192  -0.00537490  0.39440330  1
  O2-  O122  1  0.24761123  0.00332091  0.73465056  1
  O2-  O123  1  0.25078979  0.49866058  0.06825456  1
  O2-  O124  1  0.25101989  0.49949621  0.39047544  1
  O2-  O125  1  0.24951363  0.50110256  0.72843053  1
  O2-  O126  1  0.74500097  -0.00369674  0.05894220  1
  O2-  O127  1  0.75106920  0.00688342  0.39392529  1
  O2-  O128  1  0.74373648  -0.00429425  0.72861557  1
  O2-  O129  1  0.75102714  0.50047559  0.06609643  1
  O2-  O130  1  0.74953023  0.50075151  0.39343295  1
  O2-  O131  1  0.75825967  0.49375611  0.72067174  1
  O2-  O132  1  -0.00880835  0.25364730  0.27121042  1
  O2-  O133  1  0.00182153  0.25633855  0.60276620  1
  O2-  O134  1  -0.00066203  0.25744983  0.94156034  1
  O2-  O135  1  0.00596544  0.75242941  0.27674068  1
  O2-  O136  1  0.00724693  0.74840145  0.60340844  1
  O2-  O137  1  -0.00115862  0.74003773  0.93959632  1
  O2-  O138  1  0.50260649  0.24176642  0.27419191  1
  O2-  O139  1  0.49985259  0.23903105  0.60545680  1
  O2-  O140  1  0.50113266  0.25607488  0.93926254  1
  O2-  O141  1  0.49960595  0.75262898  0.26675405  1
  O2-  O142  1  0.49754589  0.74869961  0.61103256  1
  O2-  O143  1  0.49613864  0.74814704  0.94096905  1
  O2-  O144  1  0.06968352  0.17640206  0.09821591  1
  O2-  O145  1  0.06740551  0.18110245  0.43107365  1
  O2-  O146  1  0.06830877  0.18037720  0.76415085  1
  O2-  O147  1  0.07445090  0.68230381  0.08963759  1
  O2-  O148  1  0.06693206  0.66912678  0.42300921  1
  O2-  O149  1  0.07060435  0.67893161  0.75620169  1
  O2-  O150  1  0.56790071  0.17643910  0.10019790  1
  O2-  O151  1  0.58348965  0.18333463  0.42307614  1
  O2-  O152  1  0.57514766  0.17940517  0.75541796  1
  O2-  O153  1  0.57171970  0.68218390  0.08783534  1
  O2-  O154  1  0.57055381  0.67890590  0.43002487  1
  O2-  O155  1  0.57194680  0.67956206  0.75767126  1
  O2-  O156  1  0.17872990  0.43196200  0.24319315  1
  O2-  O157  1  0.17960486  0.43056861  0.56581907  1
  O2-  O158  1  0.18039855  0.42602278  0.90404202  1
  O2-  O159  1  0.17503790  0.92923247  0.23261518  1
  O2-  O160  1  0.18103700  0.92899364  0.57005812  1
  O2-  O161  1  0.17992918  0.93045995  0.90912582  1
  O2-  O162  1  0.67960184  0.42912612  0.24623359  1
  O2-  O163  1  0.67852936  0.43315771  0.57376020  1
  O2-  O164  1  0.68034866  0.42914318  0.90170851  1
  O2-  O165  1  0.68442073  0.92792402  0.23339236  1
  O2-  O166  1  0.67949699  0.92293009  0.57890639  1
  O2-  O167  1  0.67307737  0.92757114  0.90990525  1
  O2-  O168  1  0.42929297  0.32040672  0.08771481  1
  O2-  O169  1  0.43018140  0.32126338  0.43152138  1
  O2-  O170  1  0.43822824  0.32288469  0.76749500  1
  O2-  O171  1  0.42770275  0.82335248  0.08816481  1
  O2-  O172  1  0.42839002  0.81810468  0.43361497  1
  O2-  O173  1  0.43046057  0.82142489  0.75787443  1
  O2-  O174  1  0.92938803  0.32012233  0.09345442  1
  O2-  O175  1  0.92669960  0.32798690  0.42067595  1
  O2-  O176  1  0.92189837  0.32287889  0.76727722  1
  O2-  O177  1  0.93053998  0.81975826  0.09982296  1
  O2-  O178  1  0.92973456  0.81739645  0.42340341  1
  O2-  O179  1  0.92629301  0.81607189  0.76318941  1
  O2-  O180  1  0.31852979  0.07335872  0.23213723  1
  O2-  O181  1  0.32365718  0.06905820  0.57067301  1
  O2-  O182  1  0.32530133  0.06653848  0.90913807  1
  O2-  O183  1  0.31994674  0.57018730  0.24276701  1
  O2-  O184  1  0.32557452  0.56947794  0.56544623  1
  O2-  O185  1  0.31963112  0.57190517  0.90489575  1
  O2-  O186  1  0.82278794  0.07077098  0.24470793  1
  O2-  O187  1  0.81501480  0.06831340  0.56632873  1
  O2-  O188  1  0.82226694  0.06804245  0.90087304  1
  O2-  O189  1  0.82087885  0.57155901  0.24567693  1
  O2-  O190  1  0.81622130  0.57576642  0.57408629  1
  O2-  O191  1  0.81715220  0.57414670  0.90087425  1
  O2-  O192  1  0.03626679  0.08339291  0.26371979  1
  O2-  O193  1  0.03803605  0.08299831  0.59791138  1
  O2-  O194  1  0.03790699  0.08403501  0.93054094  1
  O2-  O195  1  0.03657725  0.58700701  0.26755424  1
  O2-  O196  1  0.04664955  0.58648326  0.60283473  1
  O2-  O197  1  0.05269873  0.58010237  0.94285650  1
  O2-  O198  1  0.55787952  0.08200466  0.27562064  1
  O2-  O199  1  0.55331215  0.07809621  0.60848594  1
  O2-  O200  1  0.54096733  0.08369236  0.92948763  1
  O2-  O201  1  0.54501690  0.58215079  0.26223083  1
  O2-  O202  1  0.54405674  0.58749942  0.60369419  1
  O2-  O203  1  0.54324971  0.58602720  0.93744501  1
  O2-  O204  1  0.16184605  0.21266834  0.26207015  1
  O2-  O205  1  0.17121636  0.20546500  0.59839078  1
  O2-  O206  1  0.17002739  0.20614080  0.93230122  1
  O2-  O207  1  0.16452026  0.69583296  0.27144944  1
  O2-  O208  1  0.16926203  0.70237980  0.60699097  1
  O2-  O209  1  0.16416355  0.70796018  0.93613516  1
  O2-  O210  1  0.66768143  0.21006211  0.26921040  1
  O2-  O211  1  0.66346941  0.20509177  0.60084349  1
  O2-  O212  1  0.67094850  0.20826082  0.93586695  1
  O2-  O213  1  0.67128442  0.70928641  0.26462192  1
  O2-  O214  1  0.65969604  0.70802655  0.60189243  1
  O2-  O215  1  0.65923911  0.70912428  0.93295559  1
  O2-  O216  1  0.08188580  0.45237776  0.07345721  1
  O2-  O217  1  0.08684805  0.45892421  0.39432303  1
  O2-  O218  1  0.07835735  0.45682733  0.73339743  1
  O2-  O219  1  0.08772604  0.95984331  0.06097823  1
  O2-  O220  1  0.08013351  0.95971285  0.39940156  1
  O2-  O221  1  0.07705056  0.95449305  0.73313703  1
  O2-  O222  1  0.58159979  0.45679292  0.06911987  1
  O2-  O223  1  0.58592935  0.46034895  0.39704520  1
  O2-  O224  1  0.59349172  0.46432400  0.72949753  1
  O2-  O225  1  0.58198881  0.95598499  0.06159034  1
  O2-  O226  1  0.58354787  0.95507092  0.40334552  1
  O2-  O227  1  0.58385679  0.94486211  0.73029197  1
  O2-  O228  1  0.21176145  0.32760983  0.07006267  1
  O2-  O229  1  0.20703637  0.33748720  0.39244728  1
  O2-  O230  1  0.20651165  0.33096470  0.73251011  1
  O2-  O231  1  0.20443224  0.83876529  0.06085587  1
  O2-  O232  1  0.19635616  0.82462873  0.39763091  1
  O2-  O233  1  0.20756984  0.83263734  0.73846748  1
  O2-  O234  1  0.70723876  0.33094234  0.07297874  1
  O2-  O235  1  0.70504566  0.33899825  0.40007091  1
  O2-  O236  1  0.70115969  0.33530020  0.72443405  1
  O2-  O237  1  0.70031553  0.83502122  0.06084035  1
  O2-  O238  1  0.71411114  0.83347915  0.40152865  1
  O2-  O239  1  0.70671060  0.83107282  0.72994310  1
  O2-  O240  1  0.46242752  0.41332137  0.26227916  1
  O2-  O241  1  0.46867584  0.41392054  0.59882400  1
  O2-  O242  1  0.45420099  0.41861525  0.93939715  1
  O2-  O243  1  0.45570493  0.92327229  0.26927223  1
  O2-  O244  1  0.45756010  0.91219618  0.60475877  1
  O2-  O245  1  0.45738744  0.91091557  0.93321054  1
  O2-  O246  1  0.95367422  0.41838958  0.26908280  1
  O2-  O247  1  0.94610165  0.42626541  0.60262857  1
  O2-  O248  1  0.94963830  0.41939485  0.94546721  1
  O2-  O249  1  0.95459139  0.91266374  0.27164026  1
  O2-  O250  1  0.95589670  0.91648686  0.59535379  1
  O2-  O251  1  0.96425182  0.91266177  0.93119779  1
  O2-  O252  1  0.33319152  0.29027232  0.26162340  1
  O2-  O253  1  0.33415086  0.29441173  0.60042464  1
  O2-  O254  1  0.33778563  0.29451183  0.93566498  1
  O2-  O255  1  0.32856895  0.79372079  0.26665429  1
  O2-  O256  1  0.33521065  0.79509930  0.60632723  1
  O2-  O257  1  0.33436136  0.79420911  0.93649030  1
  O2-  O258  1  0.83058303  0.30354076  0.27153598  1
  O2-  O259  1  0.82946019  0.29223050  0.59756800  1
  O2-  O260  1  0.83484266  0.29629141  0.94402183  1
  O2-  O261  1  0.84130177  0.78711885  0.27059540  1
  O2-  O262  1  0.83373595  0.78444315  0.59530006  1
  O2-  O263  1  0.82994705  0.79248579  0.93178502  1
  O2-  O264  1  0.41438025  0.03897944  0.06136565  1
  O2-  O265  1  0.42239331  0.05669270  0.39826240  1
  O2-  O266  1  0.42094310  0.04046889  0.73688370  1
  O2-  O267  1  0.41969797  0.54891217  0.07099536  1
  O2-  O268  1  0.41534177  0.54126449  0.39152727  1
  O2-  O269  1  0.42210379  0.53989450  0.73356828  1
  O2-  O270  1  0.91723804  0.03308994  0.06833344  1
  O2-  O271  1  0.91369550  0.04350279  0.39690651  1
  O2-  O272  1  0.91398491  0.03744576  0.73263748  1
  O2-  O273  1  0.91994290  0.55177887  0.06931963  1
  O2-  O274  1  0.91226375  0.54347162  0.39844486  1
  O2-  O275  1  0.91471219  0.55699486  0.72562882  1
  O2-  O276  1  0.29948019  0.16307368  0.05836702  1
  O2-  O277  1  0.28433773  0.17006312  0.39785563  1
  O2-  O278  1  0.29952297  0.17181017  0.73577679  1
  O2-  O279  1  0.28989356  0.67150335  0.07082108  1
  O2-  O280  1  0.29507709  0.66151614  0.39499061  1
  O2-  O281  1  0.30085980  0.66934595  0.73311278  1
  O2-  O282  1  0.79425430  0.16424886  0.07147021  1
  O2-  O283  1  0.79948000  0.16901738  0.39401239  1
  O2-  O284  1  0.78731171  0.16655629  0.73406703  1
  O2-  O285  1  0.78762233  0.67145856  0.06773045  1
  O2-  O286  1  0.79268379  0.66275861  0.39870067  1
  O2-  O287  1  0.78320339  0.66071849  0.72805247  1
