# generated using pymatgen
data_Ca2Al2SiO7
_symmetry_space_group_name_H-M   'P 1'
_cell_length_a   15.46805396
_cell_length_b   15.46915022
_cell_length_c   15.29069819
_cell_angle_alpha   90.02310632
_cell_angle_beta   90.00074405
_cell_angle_gamma   90.01344009
_symmetry_Int_Tables_number   1
_chemical_formula_structural   Ca2Al2SiO7
_chemical_formula_sum   'Ca48 Al48 Si24 O168'
_cell_volume   3658.72193361
_cell_formula_units_Z   24
loop_
 _symmetry_equiv_pos_site_id
 _symmetry_equiv_pos_as_xyz
  1  'x, y, z'
loop_
 _atom_type_symbol
 _atom_type_oxidation_number
  Ca2+  2.0
  Al0+  0.0
  Si0+  0.0
  O2-  -2.0
loop_
 _atom_site_type_symbol
 _atom_site_label
 _atom_site_symmetry_multiplicity
 _atom_site_fract_x
 _atom_site_fract_y
 _atom_site_fract_z
 _atom_site_occupancy
  Ca2+  Ca0  1  0.17011215  0.08548130  0.16093938  1
  Ca2+  Ca1  1  0.17663841  0.07591731  0.50915048  1
  Ca2+  Ca2  1  0.17539204  0.07953434  0.83922484  1
  Ca2+  Ca3  1  0.15934030  0.57321525  0.16812519  1
  Ca2+  Ca4  1  0.16881317  0.57152031  0.50473039  1
  Ca2+  Ca5  1  0.16505354  0.57326116  0.84017984  1
  Ca2+  Ca6  1  0.67999656  0.07960017  0.16903555  1
  Ca2+  Ca7  1  0.67608687  0.08107104  0.51016757  1
  Ca2+  Ca8  1  0.67403033  0.08304734  0.83914654  1
  Ca2+  Ca9  1  0.65906077  0.57393840  0.17097630  1
  Ca2+  Ca10  1  0.65644916  0.57925903  0.49667788  1
  Ca2+  Ca11  1  0.66750589  0.57584787  0.84135611  1
  Ca2+  Ca12  1  0.08591991  0.32937561  0.15648772  1
  Ca2+  Ca13  1  0.08612899  0.33340151  0.49627337  1
  Ca2+  Ca14  1  0.09052264  0.32792890  0.83245391  1
  Ca2+  Ca15  1  0.07420725  0.83235944  0.15310202  1
  Ca2+  Ca16  1  0.07886889  0.83773688  0.49228169  1
  Ca2+  Ca17  1  0.08139187  0.84331581  0.83371116  1
  Ca2+  Ca18  1  0.57425871  0.33868277  0.16008148  1
  Ca2+  Ca19  1  0.57343052  0.32764896  0.49368296  1
  Ca2+  Ca20  1  0.57329119  0.32611385  0.82684826  1
  Ca2+  Ca21  1  0.58428120  0.83135868  0.16361239  1
  Ca2+  Ca22  1  0.58135594  0.83037713  0.49205507  1
  Ca2+  Ca23  1  0.58975125  0.83872217  0.83007152  1
  Ca2+  Ca24  1  0.32490801  0.40914083  0.17021659  1
  Ca2+  Ca25  1  0.32708623  0.40611303  0.50184434  1
  Ca2+  Ca26  1  0.32788952  0.40883864  0.83876932  1
  Ca2+  Ca27  1  0.33010062  0.91853526  0.16787982  1
  Ca2+  Ca28  1  0.33042669  0.91886846  0.51130387  1
  Ca2+  Ca29  1  0.32832210  0.93098521  0.84164718  1
  Ca2+  Ca30  1  0.81741144  0.41346902  0.17144540  1
  Ca2+  Ca31  1  0.82355728  0.41713167  0.50143662  1
  Ca2+  Ca32  1  0.82462710  0.41687968  0.84157270  1
  Ca2+  Ca33  1  0.84231453  0.92339683  0.16761550  1
  Ca2+  Ca34  1  0.83132470  0.92464789  0.50559973  1
  Ca2+  Ca35  1  0.82414565  0.92508554  0.84025958  1
  Ca2+  Ca36  1  0.41289147  0.17762529  0.15864225  1
  Ca2+  Ca37  1  0.41904647  0.16994623  0.50086833  1
  Ca2+  Ca38  1  0.41350063  0.17200921  0.82688282  1
  Ca2+  Ca39  1  0.41976597  0.67065153  0.16890943  1
  Ca2+  Ca40  1  0.42150948  0.67648307  0.49016455  1
  Ca2+  Ca41  1  0.41691016  0.67023212  0.83230604  1
  Ca2+  Ca42  1  0.92155701  0.16158019  0.15899487  1
  Ca2+  Ca43  1  0.91669125  0.16015341  0.49659380  1
  Ca2+  Ca44  1  0.92133326  0.15548732  0.83408181  1
  Ca2+  Ca45  1  0.91967175  0.67961721  0.15688959  1
  Ca2+  Ca46  1  0.91962937  0.67646065  0.49119958  1
  Ca2+  Ca47  1  0.92309054  0.67205327  0.83554844  1
  Al0+  Al48  1  0.00082693  0.00058630  -0.00406890  1
  Al0+  Al49  1  0.00206984  0.00110914  0.33355147  1
  Al0+  Al50  1  -0.00128625  0.00006781  0.66924374  1
  Al0+  Al51  1  -0.00121736  0.50166970  0.00004146  1
  Al0+  Al52  1  -0.00208508  0.49806218  0.33834253  1
  Al0+  Al53  1  -0.00004917  0.50041249  0.66828662  1
  Al0+  Al54  1  0.50198148  0.00197383  0.00889462  1
  Al0+  Al55  1  0.50138595  0.00178675  0.32927425  1
  Al0+  Al56  1  0.50081974  -0.00031163  0.66776945  1
  Al0+  Al57  1  0.49784628  0.50109363  -0.00191690  1
  Al0+  Al58  1  0.49730234  0.50042999  0.33167036  1
  Al0+  Al59  1  0.49813764  0.50064005  0.66244547  1
  Al0+  Al60  1  0.24840375  0.25142842  -0.00088687  1
  Al0+  Al61  1  0.24980070  0.24764822  0.33490923  1
  Al0+  Al62  1  0.24755449  0.24910172  0.66776922  1
  Al0+  Al63  1  0.25204992  0.74892902  -0.00092461  1
  Al0+  Al64  1  0.24932832  0.74764999  0.32972735  1
  Al0+  Al65  1  0.24872392  0.74511649  0.66861003  1
  Al0+  Al66  1  0.74846846  0.25044527  0.00876960  1
  Al0+  Al67  1  0.75047972  0.25021117  0.34303253  1
  Al0+  Al68  1  0.75081026  0.25142819  0.66681151  1
  Al0+  Al69  1  0.75007616  0.74985754  -0.00311362  1
  Al0+  Al70  1  0.75128708  0.74985211  0.32395430  1
  Al0+  Al71  1  0.75258944  0.74925060  0.66724017  1
  Al0+  Al72  1  0.32123338  0.07342893  0.01667580  1
  Al0+  Al73  1  0.42719874  0.32025854  0.64993662  1
  Al0+  Al74  1  0.42939868  0.32092363  0.98591066  1
  Al0+  Al75  1  0.06955546  0.18112723  0.98531545  1
  Al0+  Al76  1  0.17843171  0.92521298  0.67983933  1
  Al0+  Al77  1  0.67858377  0.92661519  0.01777972  1
  Al0+  Al78  1  0.57068160  0.67986348  0.31715768  1
  Al0+  Al79  1  0.32207371  0.07018025  0.68039453  1
  Al0+  Al80  1  0.17938029  0.43134814  0.01346872  1
  Al0+  Al81  1  0.67949438  0.92686018  0.67873980  1
  Al0+  Al82  1  0.93201713  0.82238889  0.31972919  1
  Al0+  Al83  1  0.67594908  0.43065303  0.34917641  1
  Al0+  Al84  1  0.07349885  0.67765847  0.98360815  1
  Al0+  Al85  1  0.42875861  0.31734062  0.31861956  1
  Al0+  Al86  1  0.82044040  0.07385758  0.68286285  1
  Al0+  Al87  1  0.18042893  0.92811400  0.01528698  1
  Al0+  Al88  1  0.17938723  0.42987018  0.68105089  1
  Al0+  Al89  1  0.67743031  0.43017887  0.01231747  1
  Al0+  Al90  1  0.82179456  0.07033323  0.01621703  1
  Al0+  Al91  1  0.92914753  0.82215693  0.98029679  1
  Al0+  Al92  1  0.42662801  0.82468588  0.31808443  1
  Al0+  Al93  1  0.57365030  0.17719840  0.65188091  1
  Al0+  Al94  1  0.82275254  0.06911555  0.34894202  1
  Al0+  Al95  1  0.17869943  0.42752691  0.34732291  1
  Si0+  Si96  1  0.92489842  0.32252667  0.98550069  1
  Si0+  Si97  1  0.92707279  0.32199102  0.32023564  1
  Si0+  Si98  1  0.92878875  0.32472764  0.65114775  1
  Si0+  Si99  1  0.32019715  0.57278353  0.35088447  1
  Si0+  Si100  1  0.32373592  0.57332075  0.01825179  1
  Si0+  Si101  1  0.82126834  0.57079025  0.68131307  1
  Si0+  Si102  1  0.67834484  0.92688855  0.34879282  1
  Si0+  Si103  1  0.57595666  0.17887139  0.31545180  1
  Si0+  Si104  1  0.43041269  0.82389554  0.98443555  1
  Si0+  Si105  1  0.82123091  0.57184607  0.01662518  1
  Si0+  Si106  1  0.67739618  0.43086611  0.68075627  1
  Si0+  Si107  1  0.32361729  0.57168213  0.68399763  1
  Si0+  Si108  1  0.56975489  0.67952443  0.98355172  1
  Si0+  Si109  1  0.93136937  0.81948569  0.65015059  1
  Si0+  Si110  1  0.32214672  0.07086663  0.34799867  1
  Si0+  Si111  1  0.06978328  0.18105612  0.31951808  1
  Si0+  Si112  1  0.06822075  0.17907598  0.65032665  1
  Si0+  Si113  1  0.57319251  0.67904551  0.65257704  1
  Si0+  Si114  1  0.18133260  0.92837530  0.34558622  1
  Si0+  Si115  1  0.57320259  0.17849017  0.98576680  1
  Si0+  Si116  1  0.42827090  0.81944515  0.65566072  1
  Si0+  Si117  1  0.82103805  0.57294465  0.34967634  1
  Si0+  Si118  1  0.07097677  0.67480966  0.31773742  1
  Si0+  Si119  1  0.07107550  0.67554397  0.64932657  1
  O2-  O120  1  0.25218696  -0.00124873  0.06757425  1
  O2-  O121  1  0.25911336  -0.00854686  0.38844886  1
  O2-  O122  1  0.25288219  -0.00532900  0.72840335  1
  O2-  O123  1  0.25165265  0.50758104  0.06121222  1
  O2-  O124  1  0.25260180  0.50265694  0.39472992  1
  O2-  O125  1  0.25815110  0.49996045  0.72708482  1
  O2-  O126  1  0.75351385  -0.00452886  0.06723437  1
  O2-  O127  1  0.74644845  -0.00470764  0.39411779  1
  O2-  O128  1  0.74460872  0.00442704  0.72930187  1
  O2-  O129  1  0.75333756  0.50282636  0.06070223  1
  O2-  O130  1  0.75009218  0.50714639  0.39565359  1
  O2-  O131  1  0.74887531  0.50119446  0.72339808  1
  O2-  O132  1  -0.00107259  0.25265387  0.27802465  1
  O2-  O133  1  -0.00292327  0.25074527  0.60851757  1
  O2-  O134  1  -0.00706178  0.25497619  0.93899916  1
  O2-  O135  1  0.00502784  0.74563403  0.27427360  1
  O2-  O136  1  0.00600362  0.75205220  0.60689153  1
  O2-  O137  1  0.00566256  0.75289858  0.93154894  1
  O2-  O138  1  0.50603980  0.24611134  0.27085519  1
  O2-  O139  1  0.50065971  0.24867604  0.60125668  1
  O2-  O140  1  0.50255337  0.24447638  0.94049834  1
  O2-  O141  1  0.50135562  0.75502626  0.26812108  1
  O2-  O142  1  0.50288539  0.75185923  0.61282938  1
  O2-  O143  1  0.50330130  0.75456125  0.94111421  1
  O2-  O144  1  0.06985599  0.18424043  0.09909877  1
  O2-  O145  1  0.06977341  0.18059511  0.42499223  1
  O2-  O146  1  0.06854463  0.17993396  0.75493912  1
  O2-  O147  1  0.06765112  0.67557058  0.09749231  1
  O2-  O148  1  0.06996552  0.67540847  0.42395386  1
  O2-  O149  1  0.06767626  0.67065177  0.75344876  1
  O2-  O150  1  0.57439273  0.18240557  0.09138980  1
  O2-  O151  1  0.57504666  0.17948018  0.42114192  1
  O2-  O152  1  0.57648407  0.18238240  0.76528077  1
  O2-  O153  1  0.56720773  0.67653301  0.08804727  1
  O2-  O154  1  0.56846202  0.68141315  0.43172022  1
  O2-  O155  1  0.57364822  0.67590486  0.75758729  1
  O2-  O156  1  0.17798518  0.42763042  0.23465068  1
  O2-  O157  1  0.17776938  0.43239619  0.56758505  1
  O2-  O158  1  0.18134214  0.43110922  0.90044407  1
  O2-  O159  1  0.17906759  0.93108878  0.24128923  1
  O2-  O160  1  0.17951443  0.92675511  0.56493681  1
  O2-  O161  1  0.18421353  0.93028114  0.90188575  1
  O2-  O162  1  0.67781574  0.43078507  0.23627151  1
  O2-  O163  1  0.67824834  0.43324148  0.57565080  1
  O2-  O164  1  0.67888918  0.43297274  0.89860846  1
  O2-  O165  1  0.67922648  0.92859311  0.24378614  1
  O2-  O166  1  0.68452115  0.92124276  0.56503407  1
  O2-  O167  1  0.67879119  0.92845285  0.90411611  1
  O2-  O168  1  0.43034955  0.32161020  0.09925414  1
  O2-  O169  1  0.42726054  0.31333142  0.43154827  1
  O2-  O170  1  0.42958029  0.32235186  0.76329923  1
  O2-  O171  1  0.42961684  0.82060956  0.08925358  1
  O2-  O172  1  0.42572939  0.82215741  0.43259473  1
  O2-  O173  1  0.42735501  0.81540309  0.76050904  1
  O2-  O174  1  0.92575791  0.32242441  0.09140836  1
  O2-  O175  1  0.92807463  0.32253193  0.42567344  1
  O2-  O176  1  0.92903040  0.32991615  0.75571374  1
  O2-  O177  1  0.93007702  0.81950111  0.09426360  1
  O2-  O178  1  0.93432649  0.82153446  0.43370135  1
  O2-  O179  1  0.92979860  0.81648422  0.75440489  1
  O2-  O180  1  0.31732485  0.07555936  0.24361960  1
  O2-  O181  1  0.31936523  0.06774090  0.56578939  1
  O2-  O182  1  0.32096505  0.07241445  0.90325802  1
  O2-  O183  1  0.31891643  0.57476488  0.24570941  1
  O2-  O184  1  0.32214229  0.57706070  0.57871252  1
  O2-  O185  1  0.32723817  0.57175927  0.91247602  1
  O2-  O186  1  0.82582880  0.06918363  0.23666507  1
  O2-  O187  1  0.82342605  0.06880296  0.56885801  1
  O2-  O188  1  0.81790782  0.07273435  0.90304560  1
  O2-  O189  1  0.82391601  0.56870902  0.24474294  1
  O2-  O190  1  0.82175969  0.57097444  0.57620382  1
  O2-  O191  1  0.81907277  0.57012862  0.91024946  1
  O2-  O192  1  0.04148291  0.09014194  0.27161496  1
  O2-  O193  1  0.04002641  0.08722429  0.60189393  1
  O2-  O194  1  0.04167021  0.08519171  0.92954954  1
  O2-  O195  1  0.04208762  0.58123414  0.27348452  1
  O2-  O196  1  0.03629384  0.58675849  0.59919583  1
  O2-  O197  1  0.03852236  0.58079220  0.92906096  1
  O2-  O198  1  0.55395114  0.08449945  0.27027129  1
  O2-  O199  1  0.54754434  0.07755188  0.59856462  1
  O2-  O200  1  0.55121016  0.08294407  0.94279034  1
  O2-  O201  1  0.53784650  0.58274700  0.26433969  1
  O2-  O202  1  0.54343858  0.58885621  0.60271200  1
  O2-  O203  1  0.53703232  0.59037481  0.93302747  1
  O2-  O204  1  0.16089825  0.20903179  0.27195220  1
  O2-  O205  1  0.15940350  0.20727304  0.60162711  1
  O2-  O206  1  0.16406902  0.21546840  0.93006922  1
  O2-  O207  1  0.16542236  0.69503713  0.27272340  1
  O2-  O208  1  0.16545740  0.69625961  0.60336152  1
  O2-  O209  1  0.17525036  0.69730128  0.93362478  1
  O2-  O210  1  0.67016722  0.20715794  0.27265978  1
  O2-  O211  1  0.67207795  0.20807770  0.59829884  1
  O2-  O212  1  0.66595033  0.20844998  0.94015413  1
  O2-  O213  1  0.66987159  0.70073847  0.26302518  1
  O2-  O214  1  0.66545711  0.70462456  0.60454596  1
  O2-  O215  1  0.66286795  0.70097776  0.93561069  1
  O2-  O216  1  0.08083794  0.45914798  0.06624018  1
  O2-  O217  1  0.08126229  0.45596323  0.40237517  1
  O2-  O218  1  0.08346257  0.46375611  0.73398661  1
  O2-  O219  1  0.08131367  0.95708845  0.06471374  1
  O2-  O220  1  0.09319944  0.96388204  0.39581902  1
  O2-  O221  1  0.08150852  0.95708080  0.73107747  1
  O2-  O222  1  0.58220075  0.46573325  0.06540932  1
  O2-  O223  1  0.57962023  0.46275112  0.40306012  1
  O2-  O224  1  0.58569207  0.46048239  0.72668131  1
  O2-  O225  1  0.58182411  0.95482156  0.07327257  1
  O2-  O226  1  0.58320236  0.95106112  0.39337996  1
  O2-  O227  1  0.57824703  0.94463575  0.72852058  1
  O2-  O228  1  0.21130434  0.33596885  0.06780103  1
  O2-  O229  1  0.21100312  0.33120484  0.40192807  1
  O2-  O230  1  0.20483609  0.33183993  0.73279014  1
  O2-  O231  1  0.20719886  0.82823935  0.06637980  1
  O2-  O232  1  0.19979126  0.83296818  0.39074219  1
  O2-  O233  1  0.19950857  0.82437227  0.72976864  1
  O2-  O234  1  0.70620655  0.33591459  0.07070940  1
  O2-  O235  1  0.71031192  0.33659414  0.40589590  1
  O2-  O236  1  0.70633126  0.34001654  0.72759190  1
  O2-  O237  1  0.70210510  0.82488316  0.06565418  1
  O2-  O238  1  0.70334005  0.83135039  0.39118569  1
  O2-  O239  1  0.71281550  0.82998135  0.73360174  1
  O2-  O240  1  0.45381842  0.41656730  0.26856138  1
  O2-  O241  1  0.45439605  0.42010564  0.59740875  1
  O2-  O242  1  0.45989232  0.41765763  0.93171840  1
  O2-  O243  1  0.45035790  0.92413337  0.26570818  1
  O2-  O244  1  0.44998396  0.91206869  0.60780418  1
  O2-  O245  1  0.45785090  0.91708958  0.94016311  1
  O2-  O246  1  0.95202517  0.41461704  0.27350375  1
  O2-  O247  1  0.95953921  0.41492423  0.60100892  1
  O2-  O248  1  0.94797963  0.41690133  0.94001218  1
  O2-  O249  1  0.96721062  0.91741381  0.26619035  1
  O2-  O250  1  0.95678340  0.91251469  0.60355909  1
  O2-  O251  1  0.95528725  0.92062473  0.92773481  1
  O2-  O252  1  0.33219737  0.28330585  0.26579669  1
  O2-  O253  1  0.32794316  0.29022077  0.59857206  1
  O2-  O254  1  0.33296601  0.29028644  0.93300280  1
  O2-  O255  1  0.32937032  0.79201088  0.26433285  1
  O2-  O256  1  0.33759873  0.78743675  0.60685326  1
  O2-  O257  1  0.34018768  0.79345066  0.93557962  1
  O2-  O258  1  0.83466002  0.29380631  0.27501712  1
  O2-  O259  1  0.83606797  0.30044907  0.60358275  1
  O2-  O260  1  0.83019454  0.29773293  0.94094013  1
  O2-  O261  1  0.83609777  0.79465310  0.26434169  1
  O2-  O262  1  0.84135114  0.78600532  0.60170436  1
  O2-  O263  1  0.83153930  0.78820525  0.92775277  1
  O2-  O264  1  0.41991865  0.04972878  0.07020670  1
  O2-  O265  1  0.41753736  0.05205236  0.39203121  1
  O2-  O266  1  0.42112664  0.04712685  0.73274392  1
  O2-  O267  1  0.41540051  0.54424552  0.06569425  1
  O2-  O268  1  0.41394536  0.54899861  0.39674590  1
  O2-  O269  1  0.41885247  0.55015217  0.72909201  1
  O2-  O270  1  0.92176748  0.04410060  0.06598480  1
  O2-  O271  1  0.91968109  0.03696671  0.40325646  1
  O2-  O272  1  0.91742271  0.04143026  0.73440461  1
  O2-  O273  1  0.91452242  0.54864087  0.06293698  1
  O2-  O274  1  0.91257427  0.54483054  0.40008012  1
  O2-  O275  1  0.91148163  0.54110504  0.72988263  1
  O2-  O276  1  0.28558241  0.16946872  0.06965641  1
  O2-  O277  1  0.28487114  0.15758214  0.39906579  1
  O2-  O278  1  0.28838651  0.16655385  0.73255822  1
  O2-  O279  1  0.30322768  0.66793136  0.06354898  1
  O2-  O280  1  0.29284933  0.66587741  0.39919482  1
  O2-  O281  1  0.29493458  0.66263975  0.73384209  1
  O2-  O282  1  0.79302669  0.16796390  0.07147919  1
  O2-  O283  1  0.79503210  0.16600090  0.40425923  1
  O2-  O284  1  0.79949084  0.17489465  0.73357701  1
  O2-  O285  1  0.79441502  0.66496258  0.06113662  1
  O2-  O286  1  0.79800614  0.66840867  0.39359259  1
  O2-  O287  1  0.79391500  0.66155037  0.72998075  1
