# generated using pymatgen
data_Ca2Al2SiO7
_symmetry_space_group_name_H-M   'P 1'
_cell_length_a   15.46721474
_cell_length_b   15.46846568
_cell_length_c   15.29127166
_cell_angle_alpha   89.99590636
_cell_angle_beta   90.00782501
_cell_angle_gamma   90.00973862
_symmetry_Int_Tables_number   1
_chemical_formula_structural   Ca2Al2SiO7
_chemical_formula_sum   'Ca48 Al48 Si24 O168'
_cell_volume   3658.49904009
_cell_formula_units_Z   24
loop_
 _symmetry_equiv_pos_site_id
 _symmetry_equiv_pos_as_xyz
  1  'x, y, z'
loop_
 _atom_type_symbol
 _atom_type_oxidation_number
  Ca2+  2.0
  Al0+  0.0
  Si0+  0.0
  O2-  -2.0
loop_
 _atom_site_type_symbol
 _atom_site_label
 _atom_site_symmetry_multiplicity
 _atom_site_fract_x
 _atom_site_fract_y
 _atom_site_fract_z
 _atom_site_occupancy
  Ca2+  Ca0  1  0.14894831  0.07136018  0.16620147  1
  Ca2+  Ca1  1  0.15659524  0.07632187  0.50351031  1
  Ca2+  Ca2  1  0.15482146  0.08153347  0.84100318  1
  Ca2+  Ca3  1  0.16968902  0.57348279  0.17450688  1
  Ca2+  Ca4  1  0.16708669  0.57365140  0.50385995  1
  Ca2+  Ca5  1  0.17539133  0.57038533  0.83961467  1
  Ca2+  Ca6  1  0.67403709  0.08479734  0.17462203  1
  Ca2+  Ca7  1  0.67357161  0.08729752  0.50288089  1
  Ca2+  Ca8  1  0.66366395  0.08523701  0.83846325  1
  Ca2+  Ca9  1  0.67854117  0.58168778  0.17063680  1
  Ca2+  Ca10  1  0.67635196  0.57910314  0.50469051  1
  Ca2+  Ca11  1  0.67356635  0.58937097  0.83850483  1
  Ca2+  Ca12  1  0.07570435  0.33695435  0.16000295  1
  Ca2+  Ca13  1  0.07606647  0.34214079  0.49546451  1
  Ca2+  Ca14  1  0.07942167  0.33823505  0.82779065  1
  Ca2+  Ca15  1  0.08339718  0.82873131  0.16300916  1
  Ca2+  Ca16  1  0.08625351  0.82313278  0.49025937  1
  Ca2+  Ca17  1  0.07844265  0.83482838  0.83575396  1
  Ca2+  Ca18  1  0.58582443  0.33310771  0.16194505  1
  Ca2+  Ca19  1  0.58691166  0.33443352  0.49578744  1
  Ca2+  Ca20  1  0.58446826  0.32338667  0.82932245  1
  Ca2+  Ca21  1  0.57839051  0.82472624  0.15777534  1
  Ca2+  Ca22  1  0.58005921  0.82451525  0.49915070  1
  Ca2+  Ca23  1  0.58093880  0.81828198  0.82942772  1
  Ca2+  Ca24  1  0.32269642  0.42310554  0.17016229  1
  Ca2+  Ca25  1  0.32143145  0.42492449  0.50479130  1
  Ca2+  Ca26  1  0.32431583  0.41968693  0.83845667  1
  Ca2+  Ca27  1  0.32022908  0.91754466  0.16867574  1
  Ca2+  Ca28  1  0.32679089  0.91592880  0.49971548  1
  Ca2+  Ca29  1  0.32518516  0.92104603  0.83994341  1
  Ca2+  Ca30  1  0.83452680  0.42217481  0.17296568  1
  Ca2+  Ca31  1  0.83828868  0.42322099  0.50081637  1
  Ca2+  Ca32  1  0.84099866  0.42561958  0.83593394  1
  Ca2+  Ca33  1  0.83951119  0.92396825  0.16911035  1
  Ca2+  Ca34  1  0.83821289  0.92805989  0.50199804  1
  Ca2+  Ca35  1  0.83327171  0.91821947  0.84198004  1
  Ca2+  Ca36  1  0.42631935  0.16791228  0.15974953  1
  Ca2+  Ca37  1  0.42330509  0.16765467  0.49864523  1
  Ca2+  Ca38  1  0.42584898  0.16605820  0.82897186  1
  Ca2+  Ca39  1  0.42071925  0.65496412  0.16078416  1
  Ca2+  Ca40  1  0.41794375  0.65349842  0.49700124  1
  Ca2+  Ca41  1  0.42382684  0.65386190  0.83034052  1
  Ca2+  Ca42  1  0.91576772  0.18164745  0.16105944  1
  Ca2+  Ca43  1  0.91911900  0.18063481  0.49675514  1
  Ca2+  Ca44  1  0.92804701  0.18419849  0.83028012  1
  Ca2+  Ca45  1  0.92087944  0.66487149  0.16199892  1
  Ca2+  Ca46  1  0.92118974  0.66024955  0.49284884  1
  Ca2+  Ca47  1  0.90852981  0.67080180  0.83065317  1
  Al0+  Al48  1  -0.00296512  -0.00042733  -0.00309892  1
  Al0+  Al49  1  -0.00080072  -0.00040038  0.34408955  1
  Al0+  Al50  1  -0.00266760  0.00223970  0.66610123  1
  Al0+  Al51  1  0.00076405  0.50304566  0.00270854  1
  Al0+  Al52  1  0.00022407  0.50110138  0.32946738  1
  Al0+  Al53  1  -0.00100418  0.50361947  0.67202980  1
  Al0+  Al54  1  0.49901496  -0.00314927  -0.00315002  1
  Al0+  Al55  1  0.49969401  -0.00186090  0.33250484  1
  Al0+  Al56  1  0.49902729  -0.00201457  0.66174281  1
  Al0+  Al57  1  0.50171718  0.49713615  -0.00310912  1
  Al0+  Al58  1  0.50099163  0.49725985  0.33689959  1
  Al0+  Al59  1  0.50233746  0.49801746  0.66396739  1
  Al0+  Al60  1  0.25223367  0.24762759  0.00188888  1
  Al0+  Al61  1  0.25196226  0.24789094  0.33449693  1
  Al0+  Al62  1  0.25107149  0.24601650  0.66596872  1
  Al0+  Al63  1  0.25087068  0.75264795  0.00627018  1
  Al0+  Al64  1  0.25111472  0.75232181  0.33531257  1
  Al0+  Al65  1  0.24966428  0.75239579  0.67233262  1
  Al0+  Al66  1  0.75222769  0.25020224  -0.00953936  1
  Al0+  Al67  1  0.75198666  0.24857390  0.33696517  1
  Al0+  Al68  1  0.75245732  0.24975891  0.66044403  1
  Al0+  Al69  1  0.74860485  0.75082035  -0.00183122  1
  Al0+  Al70  1  0.74807487  0.75203681  0.33528420  1
  Al0+  Al71  1  0.74647102  0.75220381  0.66343486  1
  Al0+  Al72  1  0.82134957  0.57337161  0.34729833  1
  Al0+  Al73  1  0.93020250  0.32062806  0.31856357  1
  Al0+  Al74  1  0.07283281  0.17783863  0.65029194  1
  Al0+  Al75  1  0.07082777  0.17916983  0.98862360  1
  Al0+  Al76  1  0.82035242  0.07003825  0.34763716  1
  Al0+  Al77  1  0.17853167  0.42736134  0.68179499  1
  Al0+  Al78  1  0.81952683  0.57358973  0.01351290  1
  Al0+  Al79  1  0.81844224  0.57295917  0.68122950  1
  Al0+  Al80  1  0.56988163  0.67748037  0.65034861  1
  Al0+  Al81  1  0.17771250  0.42714349  0.34782063  1
  Al0+  Al82  1  0.93265284  0.32513498  0.64929735  1
  Al0+  Al83  1  0.92966576  0.81925204  0.98810536  1
  Al0+  Al84  1  0.68020752  0.42811311  0.34708551  1
  Al0+  Al85  1  0.56895479  0.67796077  0.98777327  1
  Al0+  Al86  1  0.32266818  0.57178000  0.68245637  1
  Al0+  Al87  1  0.32151128  0.57124075  0.34757575  1
  Al0+  Al88  1  0.17828495  0.42640198  0.01612270  1
  Al0+  Al89  1  0.57189064  0.17728930  0.98812286  1
  Al0+  Al90  1  0.93054443  0.32612988  0.98407711  1
  Al0+  Al91  1  0.32352004  0.56995509  0.01474820  1
  Al0+  Al92  1  0.07123529  0.68001042  0.32010953  1
  Al0+  Al93  1  0.17984003  0.93113836  0.34805686  1
  Al0+  Al94  1  0.57082761  0.17795450  0.65069315  1
  Al0+  Al95  1  0.17688516  0.93217139  0.01361377  1
  Si0+  Si96  1  0.68051701  0.42517861  0.01305529  1
  Si0+  Si97  1  0.57080248  0.17844784  0.31898137  1
  Si0+  Si98  1  0.42603253  0.82177638  0.98242540  1
  Si0+  Si99  1  0.32618960  0.07112165  0.35068800  1
  Si0+  Si100  1  0.57008352  0.67799527  0.31778120  1
  Si0+  Si101  1  0.81748000  0.07044469  0.01270718  1
  Si0+  Si102  1  0.07493154  0.67937998  0.98324014  1
  Si0+  Si103  1  0.67729421  0.92841258  0.01414169  1
  Si0+  Si104  1  0.67777693  0.93097253  0.68250362  1
  Si0+  Si105  1  0.07056990  0.68375753  0.65483461  1
  Si0+  Si106  1  0.42881574  0.32035916  0.98292104  1
  Si0+  Si107  1  0.67456818  0.92847419  0.35108741  1
  Si0+  Si108  1  0.42893490  0.32069950  0.31760194  1
  Si0+  Si109  1  0.67914087  0.42570027  0.68403551  1
  Si0+  Si110  1  0.42657550  0.82074136  0.64888456  1
  Si0+  Si111  1  0.17686013  0.93091548  0.68347373  1
  Si0+  Si112  1  0.32568148  0.07096393  0.01667547  1
  Si0+  Si113  1  0.32334414  0.06887891  0.68113978  1
  Si0+  Si114  1  0.92650800  0.82255406  0.65126908  1
  Si0+  Si115  1  0.82001855  0.07131953  0.68534715  1
  Si0+  Si116  1  0.42815317  0.32094462  0.64820333  1
  Si0+  Si117  1  0.07296234  0.17576063  0.31807899  1
  Si0+  Si118  1  0.92723131  0.82408615  0.31906715  1
  Si0+  Si119  1  0.42946902  0.82233953  0.31642648  1
  O2-  O120  1  0.25025334  0.00913946  0.05983337  1
  O2-  O121  1  0.25230322  0.00810719  0.39482639  1
  O2-  O122  1  0.24595533  0.00483821  0.72367269  1
  O2-  O123  1  0.24857127  0.50153403  0.06447959  1
  O2-  O124  1  0.24748669  0.50180126  0.39719812  1
  O2-  O125  1  0.25328960  0.49723908  0.73108190  1
  O2-  O126  1  0.74311121  0.00349843  0.05672901  1
  O2-  O127  1  0.74582946  -0.00561820  0.39484929  1
  O2-  O128  1  0.74742041  0.00158673  0.72756968  1
  O2-  O129  1  0.74855893  0.49401694  0.05744982  1
  O2-  O130  1  0.75082880  0.50054501  0.39800382  1
  O2-  O131  1  0.74483966  0.49692852  0.72829828  1
  O2-  O132  1  0.00923474  0.24849668  0.27403425  1
  O2-  O133  1  0.00816179  0.25566979  0.60007821  1
  O2-  O134  1  0.00978762  0.25952034  0.93734295  1
  O2-  O135  1  -0.00760427  0.75267817  0.27515931  1
  O2-  O136  1  -0.00224157  0.75231100  0.61004315  1
  O2-  O137  1  0.00233974  0.74442662  0.93852679  1
  O2-  O138  1  0.50105287  0.24942942  0.27570176  1
  O2-  O139  1  0.49888328  0.25402525  0.60295148  1
  O2-  O140  1  0.49657057  0.24969671  0.93964413  1
  O2-  O141  1  0.49709907  0.74746941  0.27547273  1
  O2-  O142  1  0.48887378  0.74644812  0.60418113  1
  O2-  O143  1  0.48945570  0.74765376  0.94000623  1
  O2-  O144  1  0.06158050  0.17433096  0.10183770  1
  O2-  O145  1  0.07007615  0.17400183  0.42349255  1
  O2-  O146  1  0.06675042  0.17173552  0.76322848  1
  O2-  O147  1  0.07486105  0.68269469  0.08885459  1
  O2-  O148  1  0.07148222  0.68257984  0.43399236  1
  O2-  O149  1  0.07090194  0.68819620  0.75964605  1
  O2-  O150  1  0.57183707  0.17696897  0.10155906  1
  O2-  O151  1  0.56788903  0.17644423  0.42386458  1
  O2-  O152  1  0.56751100  0.17624457  0.76386286  1
  O2-  O153  1  0.57008058  0.68215579  0.10111425  1
  O2-  O154  1  0.57015236  0.68095662  0.42278058  1
  O2-  O155  1  0.57238908  0.68282125  0.76335317  1
  O2-  O156  1  0.18021269  0.42621893  0.23462681  1
  O2-  O157  1  0.17785924  0.43084620  0.56838890  1
  O2-  O158  1  0.18133290  0.42653351  0.90250565  1
  O2-  O159  1  0.17891348  0.93258436  0.23508037  1
  O2-  O160  1  0.17815360  0.92875413  0.57841520  1
  O2-  O161  1  0.17802992  0.93340742  0.90012282  1
  O2-  O162  1  0.67872393  0.42883962  0.23310670  1
  O2-  O163  1  0.67976981  0.42670248  0.57852135  1
  O2-  O164  1  0.67968164  0.42411284  0.90758393  1
  O2-  O165  1  0.67088621  0.93041115  0.24539993  1
  O2-  O166  1  0.67937101  0.93163115  0.57737348  1
  O2-  O167  1  0.67852420  0.92811899  0.90892365  1
  O2-  O168  1  0.43159664  0.32016912  0.08869484  1
  O2-  O169  1  0.42951794  0.31836288  0.42245510  1
  O2-  O170  1  0.42928260  0.31781772  0.75386708  1
  O2-  O171  1  0.43012078  0.82794258  0.08784075  1
  O2-  O172  1  0.43247980  0.82757024  0.42130916  1
  O2-  O173  1  0.42969168  0.82636840  0.75403439  1
  O2-  O174  1  0.92356015  0.32107719  0.09747331  1
  O2-  O175  1  0.92879077  0.31945182  0.43127232  1
  O2-  O176  1  0.93120742  0.32362198  0.76272452  1
  O2-  O177  1  0.93028807  0.82194293  0.10097553  1
  O2-  O178  1  0.92953336  0.82566259  0.42498963  1
  O2-  O179  1  0.92636356  0.82372167  0.75643147  1
  O2-  O180  1  0.33484269  0.06699564  0.24576311  1
  O2-  O181  1  0.32825303  0.06359223  0.57636183  1
  O2-  O182  1  0.33233817  0.06589149  0.91125133  1
  O2-  O183  1  0.32304804  0.56761611  0.23430857  1
  O2-  O184  1  0.31810261  0.57218020  0.56915335  1
  O2-  O185  1  0.32382583  0.56658446  0.90133156  1
  O2-  O186  1  0.81767333  0.06902884  0.23396852  1
  O2-  O187  1  0.81950311  0.06791155  0.58015691  1
  O2-  O188  1  0.81536292  0.06705455  0.90767625  1
  O2-  O189  1  0.81786274  0.57585524  0.23377568  1
  O2-  O190  1  0.81840770  0.57510279  0.56856818  1
  O2-  O191  1  0.81467993  0.57722361  0.90049009  1
  O2-  O192  1  0.04027148  0.08232674  0.27524253  1
  O2-  O193  1  0.03574501  0.08116861  0.59659401  1
  O2-  O194  1  0.03280332  0.08498875  0.93238232  1
  O2-  O195  1  0.04260286  0.58491720  0.26332374  1
  O2-  O196  1  0.04339245  0.59174201  0.60897472  1
  O2-  O197  1  0.05318717  0.58495457  0.93904456  1
  O2-  O198  1  0.54209023  0.08632862  0.27169353  1
  O2-  O199  1  0.53731256  0.08206812  0.59615901  1
  O2-  O200  1  0.54188392  0.08002901  0.93387393  1
  O2-  O201  1  0.54382490  0.58517868  0.27223185  1
  O2-  O202  1  0.54740245  0.57879419  0.59702566  1
  O2-  O203  1  0.54521891  0.58024492  0.93248052  1
  O2-  O204  1  0.17038098  0.19091431  0.27556073  1
  O2-  O205  1  0.17649100  0.18965927  0.60228174  1
  O2-  O206  1  0.17560345  0.19000292  0.94249867  1
  O2-  O207  1  0.16695690  0.71606434  0.26736825  1
  O2-  O208  1  0.16155789  0.71508500  0.60740899  1
  O2-  O209  1  0.16713943  0.71105092  0.93792320  1
  O2-  O210  1  0.66327521  0.20423253  0.27308038  1
  O2-  O211  1  0.66821187  0.20534474  0.59758571  1
  O2-  O212  1  0.66619043  0.20695912  0.92982542  1
  O2-  O213  1  0.66138348  0.70919594  0.27065932  1
  O2-  O214  1  0.66260872  0.71823492  0.59443058  1
  O2-  O215  1  0.66168985  0.71747953  0.93211246  1
  O2-  O216  1  0.07978416  0.45499355  0.06772424  1
  O2-  O217  1  0.07972290  0.45779678  0.39851189  1
  O2-  O218  1  0.08273439  0.46179158  0.73584193  1
  O2-  O219  1  0.07955352  0.96239026  0.06708855  1
  O2-  O220  1  0.08446322  0.95775678  0.40642515  1
  O2-  O221  1  0.08359420  0.95733903  0.72896291  1
  O2-  O222  1  0.58631533  0.44881230  0.05845211  1
  O2-  O223  1  0.58237834  0.45460215  0.40186701  1
  O2-  O224  1  0.58377513  0.44671416  0.72801752  1
  O2-  O225  1  0.58387971  0.95146259  0.06082198  1
  O2-  O226  1  0.58297742  0.95740196  0.39957525  1
  O2-  O227  1  0.58512111  0.95826887  0.72832662  1
  O2-  O228  1  0.20727273  0.32723580  0.06806759  1
  O2-  O229  1  0.20706042  0.32794369  0.39932720  1
  O2-  O230  1  0.20452389  0.32602887  0.73066656  1
  O2-  O231  1  0.20924813  0.83752363  0.07007328  1
  O2-  O232  1  0.21507269  0.83718049  0.40427591  1
  O2-  O233  1  0.20679150  0.84143242  0.73359181  1
  O2-  O234  1  0.70568306  0.33089301  0.05868332  1
  O2-  O235  1  0.70537117  0.32941640  0.40024162  1
  O2-  O236  1  0.70589274  0.33122277  0.72804957  1
  O2-  O237  1  0.70914329  0.83964412  0.06402454  1
  O2-  O238  1  0.69695525  0.83447392  0.39707580  1
  O2-  O239  1  0.70638560  0.83958710  0.72973255  1
  O2-  O240  1  0.45890410  0.41138647  0.26950682  1
  O2-  O241  1  0.45311082  0.41412132  0.60164898  1
  O2-  O242  1  0.45704203  0.41136708  0.93369478  1
  O2-  O243  1  0.46212681  0.91189650  0.26635150  1
  O2-  O244  1  0.45945972  0.91044862  0.59839492  1
  O2-  O245  1  0.45739142  0.91193904  0.93189925  1
  O2-  O246  1  0.95630343  0.41780137  0.26442787  1
  O2-  O247  1  0.95751433  0.42611481  0.59949922  1
  O2-  O248  1  0.95351394  0.42664522  0.93340641  1
  O2-  O249  1  0.95719477  0.91722257  0.27417542  1
  O2-  O250  1  0.95506568  0.91434872  0.60458912  1
  O2-  O251  1  0.96081558  0.91408660  0.92999324  1
  O2-  O252  1  0.33823081  0.29130976  0.26850381  1
  O2-  O253  1  0.33604897  0.29184446  0.60138749  1
  O2-  O254  1  0.33580851  0.29452895  0.93632946  1
  O2-  O255  1  0.33627092  0.80032102  0.27025362  1
  O2-  O256  1  0.33003556  0.80212523  0.60574180  1
  O2-  O257  1  0.33020799  0.80367991  0.93853370  1
  O2-  O258  1  0.83408490  0.28355077  0.26608580  1
  O2-  O259  1  0.83545756  0.29117010  0.59684173  1
  O2-  O260  1  0.83598074  0.29049521  0.92721607  1
  O2-  O261  1  0.83046820  0.80616579  0.27563232  1
  O2-  O262  1  0.83439236  0.79831141  0.60349095  1
  O2-  O263  1  0.83263088  0.79178547  0.93241129  1
  O2-  O264  1  0.41620444  0.03712339  0.06583710  1
  O2-  O265  1  0.41666581  0.03841767  0.40036609  1
  O2-  O266  1  0.41255470  0.03368900  0.73030371  1
  O2-  O267  1  0.42232036  0.53797369  0.06614661  1
  O2-  O268  1  0.41846362  0.53891515  0.40081959  1
  O2-  O269  1  0.42386839  0.54451813  0.73018423  1
  O2-  O270  1  0.90633322  0.03637602  0.06059161  1
  O2-  O271  1  0.91334294  0.03806788  0.40731630  1
  O2-  O272  1  0.91029803  0.03920057  0.73273365  1
  O2-  O273  1  0.91829395  0.55030654  0.06515178  1
  O2-  O274  1  0.92016383  0.54561984  0.39781858  1
  O2-  O275  1  0.91534741  0.54727665  0.73652504  1
  O2-  O276  1  0.31103860  0.16670556  0.06097674  1
  O2-  O277  1  0.30724731  0.16625464  0.39502632  1
  O2-  O278  1  0.30548819  0.16265179  0.72771272  1
  O2-  O279  1  0.30362134  0.67191375  0.06399077  1
  O2-  O280  1  0.30146355  0.67261117  0.39715768  1
  O2-  O281  1  0.29541131  0.67129104  0.73484273  1
  O2-  O282  1  0.79154686  0.16344444  0.05824838  1
  O2-  O283  1  0.78657999  0.16331106  0.40475692  1
  O2-  O284  1  0.79251495  0.16400960  0.72967498  1
  O2-  O285  1  0.78373310  0.66856513  0.06816985  1
  O2-  O286  1  0.79378400  0.67278680  0.39983816  1
  O2-  O287  1  0.78490597  0.67099126  0.73243418  1
