# generated using pymatgen
data_Ca2Al2SiO7
_symmetry_space_group_name_H-M   'P 1'
_cell_length_a   15.46627329
_cell_length_b   15.46767230
_cell_length_c   15.28994492
_cell_angle_alpha   89.98958771
_cell_angle_beta   89.98930048
_cell_angle_gamma   90.02088719
_symmetry_Int_Tables_number   1
_chemical_formula_structural   Ca2Al2SiO7
_chemical_formula_sum   'Ca48 Al48 Si24 O168'
_cell_volume   3657.77106093
_cell_formula_units_Z   24
loop_
 _symmetry_equiv_pos_site_id
 _symmetry_equiv_pos_as_xyz
  1  'x, y, z'
loop_
 _atom_type_symbol
 _atom_type_oxidation_number
  Ca2+  2.0
  Al0+  0.0
  Si0+  0.0
  O2-  -2.0
loop_
 _atom_site_type_symbol
 _atom_site_label
 _atom_site_symmetry_multiplicity
 _atom_site_fract_x
 _atom_site_fract_y
 _atom_site_fract_z
 _atom_site_occupancy
  Ca2+  Ca0  1  0.17418296  0.08172248  0.17190068  1
  Ca2+  Ca1  1  0.17604320  0.07978273  0.50330240  1
  Ca2+  Ca2  1  0.17615179  0.06922715  0.83639702  1
  Ca2+  Ca3  1  0.17285150  0.58313021  0.16714077  1
  Ca2+  Ca4  1  0.17306454  0.58499341  0.49845653  1
  Ca2+  Ca5  1  0.17110288  0.58281176  0.84605224  1
  Ca2+  Ca6  1  0.66913383  0.07181688  0.17668258  1
  Ca2+  Ca7  1  0.67290925  0.08288385  0.49913899  1
  Ca2+  Ca8  1  0.67292164  0.07511477  0.83811474  1
  Ca2+  Ca9  1  0.67062877  0.58680561  0.17970909  1
  Ca2+  Ca10  1  0.67417178  0.58733973  0.50168603  1
  Ca2+  Ca11  1  0.67141538  0.58326456  0.83130640  1
  Ca2+  Ca12  1  0.08793307  0.32878634  0.16487407  1
  Ca2+  Ca13  1  0.08029034  0.32256863  0.49023896  1
  Ca2+  Ca14  1  0.08575955  0.33369815  0.83150706  1
  Ca2+  Ca15  1  0.07650791  0.83384407  0.16128883  1
  Ca2+  Ca16  1  0.07128291  0.84436700  0.49861294  1
  Ca2+  Ca17  1  0.08748050  0.83221095  0.82740252  1
  Ca2+  Ca18  1  0.57823071  0.32681855  0.16988316  1
  Ca2+  Ca19  1  0.58133276  0.32725058  0.49089737  1
  Ca2+  Ca20  1  0.58260580  0.33174291  0.82594199  1
  Ca2+  Ca21  1  0.58218679  0.83557419  0.16968308  1
  Ca2+  Ca22  1  0.57438855  0.83341714  0.48954920  1
  Ca2+  Ca23  1  0.57686759  0.83597022  0.82973694  1
  Ca2+  Ca24  1  0.33383646  0.42613719  0.17250381  1
  Ca2+  Ca25  1  0.34210469  0.42135760  0.49660560  1
  Ca2+  Ca26  1  0.32555066  0.42610679  0.84393449  1
  Ca2+  Ca27  1  0.32857358  0.92255952  0.17319597  1
  Ca2+  Ca28  1  0.33692217  0.92401614  0.50551500  1
  Ca2+  Ca29  1  0.32762905  0.91988800  0.83840432  1
  Ca2+  Ca30  1  0.83224697  0.42611740  0.17502814  1
  Ca2+  Ca31  1  0.82632455  0.42954139  0.50650708  1
  Ca2+  Ca32  1  0.82843518  0.42061279  0.83203341  1
  Ca2+  Ca33  1  0.82269442  0.91381289  0.17811295  1
  Ca2+  Ca34  1  0.83131217  0.91917572  0.50045687  1
  Ca2+  Ca35  1  0.83215315  0.91640476  0.83302825  1
  Ca2+  Ca36  1  0.41490274  0.16285271  0.16746140  1
  Ca2+  Ca37  1  0.41823985  0.16964686  0.48558528  1
  Ca2+  Ca38  1  0.41217433  0.16232138  0.82971159  1
  Ca2+  Ca39  1  0.41526305  0.66777742  0.16770079  1
  Ca2+  Ca40  1  0.42080607  0.67880680  0.48896039  1
  Ca2+  Ca41  1  0.41307159  0.67431093  0.82660016  1
  Ca2+  Ca42  1  0.92302762  0.15950314  0.16881587  1
  Ca2+  Ca43  1  0.92076062  0.15806561  0.49058683  1
  Ca2+  Ca44  1  0.91776066  0.16491267  0.82536026  1
  Ca2+  Ca45  1  0.91951588  0.67101393  0.16467468  1
  Ca2+  Ca46  1  0.91063583  0.67560642  0.49390757  1
  Ca2+  Ca47  1  0.92477226  0.67234767  0.82565444  1
  Al0+  Al48  1  -0.00015882  0.00234448  -0.00120830  1
  Al0+  Al49  1  -0.00050071  -0.00078189  0.32490716  1
  Al0+  Al50  1  0.00148438  -0.00077934  0.67116670  1
  Al0+  Al51  1  -0.00078533  0.50050711  -0.00158037  1
  Al0+  Al52  1  -0.00027474  0.49918697  0.33852614  1
  Al0+  Al53  1  0.00001094  0.49966723  0.66806379  1
  Al0+  Al54  1  0.50314176  0.00003209  0.00448672  1
  Al0+  Al55  1  0.49915985  -0.00025672  0.33270353  1
  Al0+  Al56  1  0.50245931  0.00204503  0.66581628  1
  Al0+  Al57  1  0.50158875  0.49865201  0.00039845  1
  Al0+  Al58  1  0.49891896  0.49976974  0.33045887  1
  Al0+  Al59  1  0.50008470  0.49843920  0.67040058  1
  Al0+  Al60  1  0.24946924  0.25112734  0.00233065  1
  Al0+  Al61  1  0.24777925  0.24959508  0.32874845  1
  Al0+  Al62  1  0.25068194  0.25051841  0.66835040  1
  Al0+  Al63  1  0.24966497  0.75095153  0.00318997  1
  Al0+  Al64  1  0.24782443  0.74820027  0.33548497  1
  Al0+  Al65  1  0.25023795  0.74948375  0.66319844  1
  Al0+  Al66  1  0.74950471  0.25076844  -0.00155755  1
  Al0+  Al67  1  0.75045073  0.25058574  0.33071815  1
  Al0+  Al68  1  0.75040062  0.25126566  0.67336639  1
  Al0+  Al69  1  0.74931756  0.74987528  0.00051065  1
  Al0+  Al70  1  0.74917080  0.75056125  0.33472707  1
  Al0+  Al71  1  0.75173253  0.74922002  0.66893699  1
  Al0+  Al72  1  0.82220158  0.07088592  0.34615295  1
  Al0+  Al73  1  0.82251076  0.57341565  0.68428143  1
  Al0+  Al74  1  0.32395490  0.07268758  0.68008430  1
  Al0+  Al75  1  0.32144230  0.57104804  0.34898732  1
  Al0+  Al76  1  0.17680668  0.92807702  0.01650968  1
  Al0+  Al77  1  0.42773865  0.32098465  0.31687399  1
  Al0+  Al78  1  0.57005056  0.68053505  0.31989045  1
  Al0+  Al79  1  0.92982572  0.81944299  0.31963649  1
  Al0+  Al80  1  0.57304939  0.17786533  0.31760501  1
  Al0+  Al81  1  0.82150242  0.57143576  0.34635207  1
  Al0+  Al82  1  0.42929267  0.82223484  0.65402511  1
  Al0+  Al83  1  0.32154817  0.07031152  0.01595371  1
  Al0+  Al84  1  0.18033396  0.92816498  0.68008513  1
  Al0+  Al85  1  0.93009027  0.82100748  0.65312454  1
  Al0+  Al86  1  0.68176350  0.92806781  0.01370461  1
  Al0+  Al87  1  0.07052710  0.68085289  0.98731405  1
  Al0+  Al88  1  0.67842772  0.42963538  0.68171510  1
  Al0+  Al89  1  0.31903042  0.07042248  0.34650977  1
  Al0+  Al90  1  0.32325518  0.57216289  0.01483354  1
  Al0+  Al91  1  0.67787411  0.92863977  0.35048657  1
  Al0+  Al92  1  0.06961788  0.17848699  0.31917572  1
  Al0+  Al93  1  0.42544871  0.82241630  0.31704165  1
  Al0+  Al94  1  0.82173714  0.07015303  0.67971632  1
  Al0+  Al95  1  0.17629124  0.42987316  0.01540097  1
  Si0+  Si96  1  0.42929349  0.32119569  0.98284851  1
  Si0+  Si97  1  0.67890756  0.42699297  0.01681117  1
  Si0+  Si98  1  0.92656911  0.82257303  0.98242347  1
  Si0+  Si99  1  0.07111533  0.67395638  0.31718771  1
  Si0+  Si100  1  0.43125620  0.82072277  0.98601887  1
  Si0+  Si101  1  0.81894307  0.56930030  0.01473555  1
  Si0+  Si102  1  0.57071709  0.67662310  0.65199346  1
  Si0+  Si103  1  0.92836865  0.32394646  0.31745094  1
  Si0+  Si104  1  0.17867317  0.42806180  0.68003374  1
  Si0+  Si105  1  0.17637995  0.92673718  0.34922452  1
  Si0+  Si106  1  0.57335593  0.18056431  0.65321103  1
  Si0+  Si107  1  0.32003051  0.56979161  0.68021628  1
  Si0+  Si108  1  0.92811665  0.32095952  0.98340480  1
  Si0+  Si109  1  0.07202808  0.17948538  0.98135285  1
  Si0+  Si110  1  0.42844626  0.32080208  0.65303388  1
  Si0+  Si111  1  0.92779147  0.32176837  0.65137776  1
  Si0+  Si112  1  0.82150864  0.07451316  0.01605517  1
  Si0+  Si113  1  0.07012193  0.18079563  0.65296227  1
  Si0+  Si114  1  0.67746509  0.42779962  0.34812882  1
  Si0+  Si115  1  0.67786513  0.92760634  0.68323271  1
  Si0+  Si116  1  0.57311251  0.67655841  0.98366115  1
  Si0+  Si117  1  0.57096140  0.17937972  0.98271807  1
  Si0+  Si118  1  0.17815039  0.42747814  0.35161200  1
  Si0+  Si119  1  0.07304463  0.67522306  0.64837564  1
  O2-  O120  1  0.24835534  0.00012122  0.06613090  1
  O2-  O121  1  0.24905590  -0.00859309  0.39322666  1
  O2-  O122  1  0.25678954  -0.00391356  0.72918332  1
  O2-  O123  1  0.25012095  0.50036574  0.06359218  1
  O2-  O124  1  0.24763049  0.49504959  0.39642586  1
  O2-  O125  1  0.24655126  0.50161800  0.72261642  1
  O2-  O126  1  0.75917988  0.00040198  0.05859506  1
  O2-  O127  1  0.74914452  0.00239573  0.39882896  1
  O2-  O128  1  0.74831460  -0.00509309  0.72735201  1
  O2-  O129  1  0.74647435  0.50076712  0.05859133  1
  O2-  O130  1  0.74537490  0.49736577  0.39158642  1
  O2-  O131  1  0.74944001  0.50175676  0.73368843  1
  O2-  O132  1  -0.00630656  0.25284011  0.27245021  1
  O2-  O133  1  -0.00237349  0.25000325  0.60942444  1
  O2-  O134  1  -0.00111089  0.24981248  0.94002644  1
  O2-  O135  1  0.00440126  0.74446453  0.27343633  1
  O2-  O136  1  0.00368504  0.74429464  0.60647739  1
  O2-  O137  1  -0.00022695  0.75853596  0.93849624  1
  O2-  O138  1  0.49766738  0.24673388  0.26684651  1
  O2-  O139  1  0.49761776  0.24758396  0.61237642  1
  O2-  O140  1  0.49804931  0.24831806  0.93919988  1
  O2-  O141  1  0.49747098  0.75004864  0.26695683  1
  O2-  O142  1  0.50498350  0.74781452  0.60883255  1
  O2-  O143  1  0.49936860  0.74586052  0.94291763  1
  O2-  O144  1  0.07038210  0.17975341  0.08611785  1
  O2-  O145  1  0.06949779  0.18058148  0.43296962  1
  O2-  O146  1  0.06958030  0.18484332  0.75823625  1
  O2-  O147  1  0.06486157  0.67780682  0.09990580  1
  O2-  O148  1  0.06936786  0.67125352  0.42280199  1
  O2-  O149  1  0.07388354  0.67355678  0.75420690  1
  O2-  O150  1  0.57399289  0.18206291  0.08691034  1
  O2-  O151  1  0.57465124  0.18260530  0.43180726  1
  O2-  O152  1  0.57390562  0.18216838  0.75880211  1
  O2-  O153  1  0.57668216  0.67536049  0.08786348  1
  O2-  O154  1  0.56918068  0.68036492  0.43384753  1
  O2-  O155  1  0.56754534  0.67548714  0.75836219  1
  O2-  O156  1  0.17542757  0.42977571  0.24641847  1
  O2-  O157  1  0.17924072  0.42555875  0.57538484  1
  O2-  O158  1  0.17853510  0.43077667  0.90075029  1
  O2-  O159  1  0.17549721  0.92874534  0.24365432  1
  O2-  O160  1  0.17681461  0.93319930  0.56695371  1
  O2-  O161  1  0.17881065  0.92851975  0.90269309  1
  O2-  O162  1  0.68050224  0.42817148  0.24196717  1
  O2-  O163  1  0.67918006  0.42863279  0.56867859  1
  O2-  O164  1  0.68026899  0.42573717  0.91179797  1
  O2-  O165  1  0.68184220  0.92805965  0.23669824  1
  O2-  O166  1  0.67619981  0.92877401  0.57855063  1
  O2-  O167  1  0.68093022  0.93025858  0.89993151  1
  O2-  O168  1  0.43206040  0.32341036  0.08709113  1
  O2-  O169  1  0.43018757  0.32049893  0.43148555  1
  O2-  O170  1  0.42816755  0.32235943  0.75836391  1
  O2-  O171  1  0.43336534  0.82120991  0.09031977  1
  O2-  O172  1  0.42664262  0.82055985  0.43109945  1
  O2-  O173  1  0.43000589  0.81931092  0.76809783  1
  O2-  O174  1  0.92565676  0.32102386  0.08809523  1
  O2-  O175  1  0.93126576  0.32608799  0.42312646  1
  O2-  O176  1  0.92967831  0.32180426  0.75694479  1
  O2-  O177  1  0.92402311  0.81886272  0.08768948  1
  O2-  O178  1  0.93149350  0.82048036  0.43290411  1
  O2-  O179  1  0.93159719  0.81971923  0.76652007  1
  O2-  O180  1  0.31503245  0.07100801  0.23379418  1
  O2-  O181  1  0.32054832  0.07767103  0.56707550  1
  O2-  O182  1  0.32124058  0.06803818  0.90193390  1
  O2-  O183  1  0.31936295  0.56962094  0.23636611  1
  O2-  O184  1  0.32140897  0.56727203  0.57553890  1
  O2-  O185  1  0.32287000  0.57007243  0.90000035  1
  O2-  O186  1  0.82226845  0.06844040  0.23237143  1
  O2-  O187  1  0.82093043  0.07258691  0.56755856  1
  O2-  O188  1  0.81859467  0.07728971  0.91001079  1
  O2-  O189  1  0.82216816  0.56809313  0.23252272  1
  O2-  O190  1  0.82174395  0.57156763  0.57108721  1
  O2-  O191  1  0.81775806  0.56761414  0.90982220  1
  O2-  O192  1  0.03900448  0.08478073  0.26015831  1
  O2-  O193  1  0.04331636  0.08856727  0.60785760  1
  O2-  O194  1  0.04443885  0.08777830  0.93261705  1
  O2-  O195  1  0.04315364  0.58100222  0.27094894  1
  O2-  O196  1  0.04843238  0.58071752  0.60304700  1
  O2-  O197  1  0.03710474  0.58464980  0.93155755  1
  O2-  O198  1  0.54667554  0.07937893  0.26573984  1
  O2-  O199  1  0.55267475  0.08744643  0.60648562  1
  O2-  O200  1  0.54541820  0.08645508  0.93592900  1
  O2-  O201  1  0.54521139  0.58128367  0.26669782  1
  O2-  O202  1  0.54320566  0.58315881  0.60696853  1
  O2-  O203  1  0.54878019  0.58327496  0.93617790  1
  O2-  O204  1  0.16287308  0.21268801  0.26195216  1
  O2-  O205  1  0.16127244  0.21196871  0.60578659  1
  O2-  O206  1  0.16310952  0.20995757  0.93372594  1
  O2-  O207  1  0.16546884  0.69703240  0.27293407  1
  O2-  O208  1  0.16650169  0.69955435  0.60175226  1
  O2-  O209  1  0.16920262  0.70723817  0.93343227  1
  O2-  O210  1  0.67001271  0.20980893  0.26200149  1
  O2-  O211  1  0.66377441  0.21368563  0.60650828  1
  O2-  O212  1  0.66207115  0.21084502  0.93404416  1
  O2-  O213  1  0.66810944  0.70873997  0.26602912  1
  O2-  O214  1  0.66664868  0.69827469  0.61040658  1
  O2-  O215  1  0.66356365  0.70764179  0.93403971  1
  O2-  O216  1  0.07749457  0.45719620  0.06730047  1
  O2-  O217  1  0.08556652  0.45357642  0.40026485  1
  O2-  O218  1  0.08589465  0.45127108  0.72771130  1
  O2-  O219  1  0.07679039  0.95669420  0.06604596  1
  O2-  O220  1  0.08437283  0.95960357  0.39347865  1
  O2-  O221  1  0.08521546  0.96079948  0.73718286  1
  O2-  O222  1  0.58612365  0.45090003  0.06229584  1
  O2-  O223  1  0.58351732  0.45087890  0.39300924  1
  O2-  O224  1  0.58017960  0.45656757  0.73796351  1
  O2-  O225  1  0.58757647  0.96133570  0.06848492  1
  O2-  O226  1  0.57890068  0.95542786  0.40149011  1
  O2-  O227  1  0.58619745  0.95689768  0.73185423  1
  O2-  O228  1  0.20243697  0.33097265  0.06614470  1
  O2-  O229  1  0.20285084  0.33358610  0.39666662  1
  O2-  O230  1  0.20883374  0.33841088  0.73051199  1
  O2-  O231  1  0.20251500  0.82991041  0.06909663  1
  O2-  O232  1  0.19363226  0.83131641  0.39428265  1
  O2-  O233  1  0.20511210  0.82737799  0.73096539  1
  O2-  O234  1  0.71032705  0.33641994  0.06401797  1
  O2-  O235  1  0.70457016  0.33513532  0.39457361  1
  O2-  O236  1  0.70957327  0.33384602  0.73945506  1
  O2-  O237  1  0.70917336  0.83058574  0.06731107  1
  O2-  O238  1  0.70838504  0.83157780  0.40374721  1
  O2-  O239  1  0.70138637  0.83367855  0.72969132  1
  O2-  O240  1  0.45872537  0.41772922  0.26255125  1
  O2-  O241  1  0.45817273  0.41238858  0.60571208  1
  O2-  O242  1  0.46009824  0.41222535  0.93376323  1
  O2-  O243  1  0.45312678  0.92036175  0.26452201  1
  O2-  O244  1  0.45934038  0.91968300  0.60151844  1
  O2-  O245  1  0.46439843  0.91125210  0.93822952  1
  O2-  O246  1  0.95831002  0.41602597  0.26977956  1
  O2-  O247  1  0.95671080  0.41335226  0.60410403  1
  O2-  O248  1  0.95614493  0.41211452  0.93439270  1
  O2-  O249  1  0.96005962  0.91349934  0.26106728  1
  O2-  O250  1  0.96275059  0.91807661  0.60063707  1
  O2-  O251  1  0.94592602  0.91937308  0.93967219  1
  O2-  O252  1  0.32856840  0.29677592  0.26501376  1
  O2-  O253  1  0.33586053  0.29654996  0.60547838  1
  O2-  O254  1  0.33580280  0.29636813  0.93638867  1
  O2-  O255  1  0.32600696  0.79261060  0.26688395  1
  O2-  O256  1  0.33357037  0.79096791  0.59921959  1
  O2-  O257  1  0.33830209  0.79537059  0.93938513  1
  O2-  O258  1  0.83416205  0.30390664  0.27095659  1
  O2-  O259  1  0.83477918  0.29588755  0.60682796  1
  O2-  O260  1  0.83629469  0.29272224  0.93442978  1
  O2-  O261  1  0.83412915  0.78679985  0.26603522  1
  O2-  O262  1  0.83197066  0.79189418  0.60111567  1
  O2-  O263  1  0.83461079  0.79146042  0.93511085  1
  O2-  O264  1  0.42057108  0.04355300  0.06654740  1
  O2-  O265  1  0.41738077  0.04584531  0.39871860  1
  O2-  O266  1  0.42450688  0.05031691  0.73159258  1
  O2-  O267  1  0.42189563  0.54180955  0.06578720  1
  O2-  O268  1  0.41787219  0.53847467  0.40256403  1
  O2-  O269  1  0.41031252  0.54042318  0.72959894  1
  O2-  O270  1  0.91808694  0.05648011  0.05708599  1
  O2-  O271  1  0.92105018  0.04001345  0.39671209  1
  O2-  O272  1  0.91722332  0.04072753  0.73665488  1
  O2-  O273  1  0.90950214  0.53850028  0.06137288  1
  O2-  O274  1  0.91625989  0.53936214  0.40289243  1
  O2-  O275  1  0.92077599  0.54165332  0.73652786  1
  O2-  O276  1  0.29516956  0.17027706  0.06492290  1
  O2-  O277  1  0.28503097  0.16732930  0.39870988  1
  O2-  O278  1  0.29101845  0.16976406  0.73495975  1
  O2-  O279  1  0.29672637  0.67005962  0.06680228  1
  O2-  O280  1  0.28822313  0.66621242  0.40505240  1
  O2-  O281  1  0.29411611  0.66220587  0.72677070  1
  O2-  O282  1  0.79164822  0.16673670  0.06198603  1
  O2-  O283  1  0.79933245  0.17237426  0.39606830  1
  O2-  O284  1  0.79174304  0.16616282  0.73599838  1
  O2-  O285  1  0.79299922  0.66182409  0.06045191  1
  O2-  O286  1  0.78941888  0.66606913  0.40134557  1
  O2-  O287  1  0.79409064  0.67066644  0.73982618  1
