# generated using pymatgen
data_Ca2Al2SiO7
_symmetry_space_group_name_H-M   'P 1'
_cell_length_a   15.47241914
_cell_length_b   15.47360446
_cell_length_c   15.29524568
_cell_angle_alpha   90.00483930
_cell_angle_beta   90.00309332
_cell_angle_gamma   90.01891823
_symmetry_Int_Tables_number   1
_chemical_formula_structural   Ca2Al2SiO7
_chemical_formula_sum   'Ca48 Al48 Si24 O168'
_cell_volume   3661.89716770
_cell_formula_units_Z   24
loop_
 _symmetry_equiv_pos_site_id
 _symmetry_equiv_pos_as_xyz
  1  'x, y, z'
loop_
 _atom_type_symbol
 _atom_type_oxidation_number
  Ca2+  2.0
  Al0+  0.0
  Si0+  0.0
  O2-  -2.0
loop_
 _atom_site_type_symbol
 _atom_site_label
 _atom_site_symmetry_multiplicity
 _atom_site_fract_x
 _atom_site_fract_y
 _atom_site_fract_z
 _atom_site_occupancy
  Ca2+  Ca0  1  0.17234546  0.07381299  0.17647211  1
  Ca2+  Ca1  1  0.16418639  0.07737394  0.50145248  1
  Ca2+  Ca2  1  0.16720564  0.08510545  0.83466239  1
  Ca2+  Ca3  1  0.17778923  0.58838965  0.17194493  1
  Ca2+  Ca4  1  0.17942643  0.59045478  0.49982749  1
  Ca2+  Ca5  1  0.18017253  0.57855315  0.84180694  1
  Ca2+  Ca6  1  0.66535599  0.07290122  0.17836757  1
  Ca2+  Ca7  1  0.66148641  0.07941758  0.49244411  1
  Ca2+  Ca8  1  0.66310761  0.07459766  0.84056278  1
  Ca2+  Ca9  1  0.67185765  0.57798982  0.17785159  1
  Ca2+  Ca10  1  0.66340564  0.58033551  0.50491841  1
  Ca2+  Ca11  1  0.67009968  0.57722107  0.83413078  1
  Ca2+  Ca12  1  0.08356945  0.33618726  0.16068320  1
  Ca2+  Ca13  1  0.08318997  0.32662753  0.49550158  1
  Ca2+  Ca14  1  0.08671956  0.33161288  0.82802633  1
  Ca2+  Ca15  1  0.07887612  0.82956003  0.17430025  1
  Ca2+  Ca16  1  0.07662724  0.82703597  0.48573340  1
  Ca2+  Ca17  1  0.07806841  0.82845481  0.82933985  1
  Ca2+  Ca18  1  0.58976659  0.33380306  0.16962444  1
  Ca2+  Ca19  1  0.57905559  0.33903870  0.49064119  1
  Ca2+  Ca20  1  0.58131008  0.34324186  0.82743071  1
  Ca2+  Ca21  1  0.58365446  0.82995599  0.16295364  1
  Ca2+  Ca22  1  0.57988925  0.81996879  0.48871833  1
  Ca2+  Ca23  1  0.58012021  0.82596271  0.83084839  1
  Ca2+  Ca24  1  0.33204683  0.42709766  0.17234124  1
  Ca2+  Ca25  1  0.34583594  0.42735494  0.50125835  1
  Ca2+  Ca26  1  0.33548500  0.42771915  0.83626488  1
  Ca2+  Ca27  1  0.33166825  0.90616402  0.17676160  1
  Ca2+  Ca28  1  0.32753777  0.90644977  0.49713716  1
  Ca2+  Ca29  1  0.33503682  0.91755752  0.84153103  1
  Ca2+  Ca30  1  0.82358152  0.42570505  0.17186013  1
  Ca2+  Ca31  1  0.82050361  0.42964894  0.50250686  1
  Ca2+  Ca32  1  0.82394131  0.42686108  0.83926927  1
  Ca2+  Ca33  1  0.82297304  0.92032211  0.17720007  1
  Ca2+  Ca34  1  0.82930196  0.91368248  0.49271768  1
  Ca2+  Ca35  1  0.82364022  0.91797009  0.83876594  1
  Ca2+  Ca36  1  0.42185651  0.17318812  0.17012180  1
  Ca2+  Ca37  1  0.42376504  0.18360121  0.49137679  1
  Ca2+  Ca38  1  0.41989565  0.17855019  0.82501221  1
  Ca2+  Ca39  1  0.41829930  0.67113834  0.16935138  1
  Ca2+  Ca40  1  0.42565640  0.66253695  0.49175107  1
  Ca2+  Ca41  1  0.41932277  0.66399709  0.82969050  1
  Ca2+  Ca42  1  0.91184838  0.16597625  0.16663783  1
  Ca2+  Ca43  1  0.91798203  0.16454653  0.49276671  1
  Ca2+  Ca44  1  0.92408855  0.17185690  0.82499976  1
  Ca2+  Ca45  1  0.91826297  0.65829646  0.16614820  1
  Ca2+  Ca46  1  0.92059510  0.66510608  0.48723023  1
  Ca2+  Ca47  1  0.91092091  0.66156206  0.83010805  1
  Al0+  Al48  1  0.00138618  -0.00071206  -0.00346725  1
  Al0+  Al49  1  0.00188122  -0.00167473  0.33601145  1
  Al0+  Al50  1  0.00006667  -0.00103554  0.66547684  1
  Al0+  Al51  1  0.00069705  0.49807225  0.00119352  1
  Al0+  Al52  1  0.00175359  0.49646013  0.33189021  1
  Al0+  Al53  1  0.00012550  0.49891144  0.66776639  1
  Al0+  Al54  1  0.49910360  0.00057091  -0.00123577  1
  Al0+  Al55  1  0.49798791  0.00368570  0.33400872  1
  Al0+  Al56  1  0.49684284  0.00127373  0.66742379  1
  Al0+  Al57  1  0.50002296  0.49985468  0.00620322  1
  Al0+  Al58  1  0.49757696  0.50140775  0.32976183  1
  Al0+  Al59  1  0.49904316  0.50202476  0.66875433  1
  Al0+  Al60  1  0.25155287  0.24844493  0.00148500  1
  Al0+  Al61  1  0.25010819  0.24924859  0.32884323  1
  Al0+  Al62  1  0.25075471  0.24761268  0.65735924  1
  Al0+  Al63  1  0.24857602  0.75176018  -0.00253365  1
  Al0+  Al64  1  0.24797306  0.74849747  0.33564849  1
  Al0+  Al65  1  0.24660967  0.75104674  0.67380505  1
  Al0+  Al66  1  0.75268922  0.24994472  -0.00186029  1
  Al0+  Al67  1  0.75114288  0.25003791  0.33729723  1
  Al0+  Al68  1  0.75070146  0.24756222  0.66946329  1
  Al0+  Al69  1  0.75057429  0.75144674  0.00365050  1
  Al0+  Al70  1  0.75118225  0.75234092  0.33274651  1
  Al0+  Al71  1  0.74857906  0.75196484  0.66701793  1
  Al0+  Al72  1  0.56901871  0.68189880  0.65507895  1
  Al0+  Al73  1  0.31948271  0.57154675  0.68086306  1
  Al0+  Al74  1  0.43227167  0.32114133  0.65439852  1
  Al0+  Al75  1  0.42841803  0.82082730  0.32241927  1
  Al0+  Al76  1  0.82114322  0.07078660  0.34804805  1
  Al0+  Al77  1  0.82107799  0.57192412  0.01552812  1
  Al0+  Al78  1  0.67860194  0.42673126  0.01612326  1
  Al0+  Al79  1  0.57307663  0.18113132  0.31821325  1
  Al0+  Al80  1  0.67777935  0.93123648  0.01253501  1
  Al0+  Al81  1  0.57291136  0.67950874  0.31769398  1
  Al0+  Al82  1  0.92870011  0.82173684  0.31780918  1
  Al0+  Al83  1  0.06986316  0.67600350  0.31816662  1
  Al0+  Al84  1  0.67799657  0.42844934  0.68101963  1
  Al0+  Al85  1  0.18085348  0.42699149  0.01319941  1
  Al0+  Al86  1  0.42817429  0.32346031  0.31508402  1
  Al0+  Al87  1  0.82349328  0.57240844  0.34753674  1
  Al0+  Al88  1  0.67853880  0.43146885  0.34867489  1
  Al0+  Al89  1  0.42880329  0.82072291  0.98567655  1
  Al0+  Al90  1  0.31860455  0.56994672  0.34772013  1
  Al0+  Al91  1  0.06987007  0.17888237  0.65128391  1
  Al0+  Al92  1  0.67491513  0.92778998  0.34932243  1
  Al0+  Al93  1  0.18192970  0.92979190  0.34732911  1
  Al0+  Al94  1  0.82249375  0.57330406  0.68092232  1
  Al0+  Al95  1  0.32095720  0.57419493  0.01718134  1
  Si0+  Si96  1  0.82413678  0.07075316  0.01324332  1
  Si0+  Si97  1  0.67702746  0.93090168  0.68165816  1
  Si0+  Si98  1  0.31914784  0.07137787  0.68227960  1
  Si0+  Si99  1  0.42856937  0.32027554  0.98423775  1
  Si0+  Si100  1  0.32165401  0.07573853  0.35235817  1
  Si0+  Si101  1  0.57377883  0.17439505  0.65086780  1
  Si0+  Si102  1  0.06986555  0.67860508  0.98317035  1
  Si0+  Si103  1  0.17815552  0.42411897  0.35068813  1
  Si0+  Si104  1  0.92900794  0.82227289  0.98326999  1
  Si0+  Si105  1  0.32090007  0.07071708  0.01461400  1
  Si0+  Si106  1  0.57355423  0.67768357  0.98306894  1
  Si0+  Si107  1  0.42468035  0.82410803  0.65179612  1
  Si0+  Si108  1  0.07103736  0.17738834  0.31614043  1
  Si0+  Si109  1  0.92998014  0.32068707  0.98301831  1
  Si0+  Si110  1  0.92906872  0.82010776  0.65309916  1
  Si0+  Si111  1  0.07113799  0.67820250  0.65433848  1
  Si0+  Si112  1  0.93033349  0.31902165  0.31744771  1
  Si0+  Si113  1  0.82366236  0.06897119  0.68263595  1
  Si0+  Si114  1  0.92676212  0.32186933  0.64849429  1
  Si0+  Si115  1  0.17778469  0.93008384  0.01461491  1
  Si0+  Si116  1  0.17858704  0.42486489  0.67995722  1
  Si0+  Si117  1  0.07227262  0.17816334  0.98483817  1
  Si0+  Si118  1  0.17756241  0.93030195  0.68491396  1
  Si0+  Si119  1  0.57188326  0.17977418  0.98472761  1
  O2-  O120  1  0.25286441  -0.00332848  0.05577764  1
  O2-  O121  1  0.25786329  0.00210826  0.39622584  1
  O2-  O122  1  0.25062529  -0.00103551  0.72747864  1
  O2-  O123  1  0.24896834  0.50063265  0.06470499  1
  O2-  O124  1  0.24610053  0.49258951  0.39492403  1
  O2-  O125  1  0.24429393  0.49554524  0.72507005  1
  O2-  O126  1  0.75330128  0.00568369  0.05683632  1
  O2-  O127  1  0.74861869  -0.00032938  0.39857913  1
  O2-  O128  1  0.74673066  0.00408657  0.72442163  1
  O2-  O129  1  0.74560134  0.50375914  0.06429749  1
  O2-  O130  1  0.74491875  0.50878302  0.39847022  1
  O2-  O131  1  0.75238389  0.49895906  0.72991267  1
  O2-  O132  1  0.00105184  0.24788135  0.27303880  1
  O2-  O133  1  -0.00404846  0.25332173  0.60381654  1
  O2-  O134  1  0.00324435  0.25032953  0.94181358  1
  O2-  O135  1  -0.00652123  0.74322591  0.26711609  1
  O2-  O136  1  -0.00600311  0.74274829  0.61356106  1
  O2-  O137  1  -0.00422300  0.74710635  0.94038888  1
  O2-  O138  1  0.50305123  0.25365920  0.26590457  1
  O2-  O139  1  0.51252636  0.25066625  0.61018931  1
  O2-  O140  1  0.50501308  0.25434427  0.94149897  1
  O2-  O141  1  0.50534275  0.75714522  0.26913536  1
  O2-  O142  1  0.49276623  0.75569169  0.60943402  1
  O2-  O143  1  0.50176649  0.74457425  0.93882732  1
  O2-  O144  1  0.07126038  0.17475496  0.08932187  1
  O2-  O145  1  0.07103875  0.17828901  0.42134286  1
  O2-  O146  1  0.06904732  0.17846307  0.76515835  1
  O2-  O147  1  0.07150549  0.68126944  0.08743213  1
  O2-  O148  1  0.07145286  0.67958825  0.43248724  1
  O2-  O149  1  0.07389502  0.68270193  0.75976638  1
  O2-  O150  1  0.57039849  0.17768350  0.08883545  1
  O2-  O151  1  0.57074589  0.18237001  0.43218134  1
  O2-  O152  1  0.56888944  0.16794143  0.75686420  1
  O2-  O153  1  0.57588101  0.68071365  0.08781620  1
  O2-  O154  1  0.56930553  0.67779989  0.43167940  1
  O2-  O155  1  0.56913818  0.68443666  0.76862952  1
  O2-  O156  1  0.17898396  0.42233561  0.24517363  1
  O2-  O157  1  0.17738136  0.42437864  0.57492595  1
  O2-  O158  1  0.18302042  0.42573109  0.89893581  1
  O2-  O159  1  0.18165948  0.93258909  0.23375751  1
  O2-  O160  1  0.17659596  0.92937686  0.58055795  1
  O2-  O161  1  0.17496568  0.93323049  0.90897409  1
  O2-  O162  1  0.68375548  0.42893585  0.23533720  1
  O2-  O163  1  0.67810707  0.42941606  0.56834647  1
  O2-  O164  1  0.68154184  0.42486713  0.90231393  1
  O2-  O165  1  0.67536373  0.93156403  0.23563842  1
  O2-  O166  1  0.67674156  0.93094141  0.57764157  1
  O2-  O167  1  0.67964412  0.93305415  0.89827736  1
  O2-  O168  1  0.42313931  0.31467136  0.08806980  1
  O2-  O169  1  0.42689001  0.32084141  0.42890706  1
  O2-  O170  1  0.43004484  0.31776001  0.76832555  1
  O2-  O171  1  0.42848165  0.82387270  0.09751548  1
  O2-  O172  1  0.42689147  0.81574557  0.43637131  1
  O2-  O173  1  0.42642119  0.82685204  0.75771292  1
  O2-  O174  1  0.92937261  0.31746625  0.08776060  1
  O2-  O175  1  0.93405957  0.31738710  0.42248489  1
  O2-  O176  1  0.92896049  0.31887797  0.75448976  1
  O2-  O177  1  0.93327282  0.83010089  0.08671715  1
  O2-  O178  1  0.93480116  0.82470003  0.43198256  1
  O2-  O179  1  0.93172400  0.82360331  0.75892543  1
  O2-  O180  1  0.31628828  0.07909446  0.24647716  1
  O2-  O181  1  0.31782974  0.07047350  0.57820429  1
  O2-  O182  1  0.31810528  0.07235959  0.90893746  1
  O2-  O183  1  0.31573109  0.57164046  0.23504963  1
  O2-  O184  1  0.31795617  0.57369982  0.56853607  1
  O2-  O185  1  0.31932651  0.57237271  0.90275910  1
  O2-  O186  1  0.82245184  0.06939385  0.23395317  1
  O2-  O187  1  0.82905015  0.06624974  0.57875350  1
  O2-  O188  1  0.82577943  0.06862529  0.90703009  1
  O2-  O189  1  0.82546948  0.56486201  0.23436930  1
  O2-  O190  1  0.82496607  0.57391440  0.56847350  1
  O2-  O191  1  0.82109953  0.56969159  0.90156825  1
  O2-  O192  1  0.04364625  0.08581963  0.26903261  1
  O2-  O193  1  0.03819401  0.08168334  0.59920319  1
  O2-  O194  1  0.04302487  0.08747675  0.93413166  1
  O2-  O195  1  0.04918251  0.57550934  0.26575172  1
  O2-  O196  1  0.05274936  0.58364099  0.60938316  1
  O2-  O197  1  0.04553916  0.58531847  0.93645800  1
  O2-  O198  1  0.54125577  0.08357325  0.26492298  1
  O2-  O199  1  0.53945686  0.08443664  0.60253780  1
  O2-  O200  1  0.53920747  0.09014250  0.93463617  1
  O2-  O201  1  0.53927978  0.58409040  0.26338737  1
  O2-  O202  1  0.53787277  0.58587369  0.60246134  1
  O2-  O203  1  0.54839269  0.58250166  0.93933027  1
  O2-  O204  1  0.16231712  0.20418223  0.26757809  1
  O2-  O205  1  0.16557294  0.20585086  0.59482062  1
  O2-  O206  1  0.16476359  0.20439584  0.93683228  1
  O2-  O207  1  0.16469773  0.71402903  0.26487224  1
  O2-  O208  1  0.16052288  0.71387294  0.60694149  1
  O2-  O209  1  0.15918960  0.71169810  0.93312842  1
  O2-  O210  1  0.67305863  0.20600516  0.26651660  1
  O2-  O211  1  0.67142537  0.18899601  0.61064545  1
  O2-  O212  1  0.66610448  0.20096848  0.93751312  1
  O2-  O213  1  0.67278253  0.70293850  0.26674463  1
  O2-  O214  1  0.66508700  0.71433339  0.60135519  1
  O2-  O215  1  0.66629795  0.70772692  0.93613345  1
  O2-  O216  1  0.08059577  0.44937061  0.06323795  1
  O2-  O217  1  0.08417035  0.44699734  0.39623295  1
  O2-  O218  1  0.08407908  0.44656392  0.72651390  1
  O2-  O219  1  0.08794993  0.96320901  0.06191380  1
  O2-  O220  1  0.08786540  0.96402888  0.40357409  1
  O2-  O221  1  0.08701136  0.96196246  0.73370030  1
  O2-  O222  1  0.57777682  0.44530326  0.06567335  1
  O2-  O223  1  0.57743210  0.45499916  0.39647778  1
  O2-  O224  1  0.58169251  0.46097594  0.73597056  1
  O2-  O225  1  0.58190070  0.96345610  0.06508846  1
  O2-  O226  1  0.57739601  0.95952182  0.40328367  1
  O2-  O227  1  0.58444384  0.95821153  0.72947538  1
  O2-  O228  1  0.20730912  0.32795137  0.06611173  1
  O2-  O229  1  0.20264865  0.32956450  0.39554204  1
  O2-  O230  1  0.20614721  0.33066140  0.72449692  1
  O2-  O231  1  0.20111243  0.83724354  0.05944107  1
  O2-  O232  1  0.21043938  0.83419061  0.40379612  1
  O2-  O233  1  0.20228152  0.83911990  0.73549233  1
  O2-  O234  1  0.71294331  0.32869183  0.06656188  1
  O2-  O235  1  0.71147755  0.33459839  0.40144496  1
  O2-  O236  1  0.70210168  0.32702233  0.73247472  1
  O2-  O237  1  0.70820638  0.83568852  0.06530298  1
  O2-  O238  1  0.70462351  0.83057755  0.40326482  1
  O2-  O239  1  0.70801149  0.84131745  0.73144606  1
  O2-  O240  1  0.45183567  0.42153328  0.26205491  1
  O2-  O241  1  0.45853227  0.41863807  0.60214392  1
  O2-  O242  1  0.45164709  0.41467786  0.93957960  1
  O2-  O243  1  0.44194146  0.92467785  0.27576973  1
  O2-  O244  1  0.44771504  0.91863914  0.60681675  1
  O2-  O245  1  0.45929525  0.91846580  0.93031933  1
  O2-  O246  1  0.95960440  0.40875957  0.26759499  1
  O2-  O247  1  0.95262909  0.41561881  0.60356981  1
  O2-  O248  1  0.95753441  0.41183092  0.93410244  1
  O2-  O249  1  0.96805976  0.91714774  0.26427596  1
  O2-  O250  1  0.96451281  0.90869681  0.60550826  1
  O2-  O251  1  0.96244824  0.91177243  0.93153441  1
  O2-  O252  1  0.33101155  0.28872702  0.26174693  1
  O2-  O253  1  0.33886736  0.28506145  0.59850385  1
  O2-  O254  1  0.33914570  0.28511570  0.93486480  1
  O2-  O255  1  0.33176025  0.78701664  0.26905616  1
  O2-  O256  1  0.32857074  0.79971714  0.61100216  1
  O2-  O257  1  0.32992566  0.79535460  0.93070677  1
  O2-  O258  1  0.83961835  0.28943958  0.27013160  1
  O2-  O259  1  0.83351108  0.29372291  0.60406105  1
  O2-  O260  1  0.84035260  0.28965999  0.93212726  1
  O2-  O261  1  0.82767593  0.80649293  0.26777488  1
  O2-  O262  1  0.83498075  0.80132181  0.60804949  1
  O2-  O263  1  0.83586182  0.79850747  0.93575929  1
  O2-  O264  1  0.41334296  0.04690045  0.06036637  1
  O2-  O265  1  0.41646483  0.05841369  0.39712561  1
  O2-  O266  1  0.41127485  0.04615352  0.73189833  1
  O2-  O267  1  0.41953708  0.54844009  0.06784916  1
  O2-  O268  1  0.41513286  0.53963677  0.40084558  1
  O2-  O269  1  0.41422889  0.53982920  0.73703182  1
  O2-  O270  1  0.91765719  0.04387420  0.05855814  1
  O2-  O271  1  0.91978529  0.04196227  0.40086760  1
  O2-  O272  1  0.91295090  0.03536296  0.73313283  1
  O2-  O273  1  0.91934387  0.54020982  0.06543795  1
  O2-  O274  1  0.92073402  0.53643787  0.39967362  1
  O2-  O275  1  0.92236610  0.54602422  0.73416962  1
  O2-  O276  1  0.28915971  0.15957133  0.06399341  1
  O2-  O277  1  0.28765991  0.16635430  0.39955512  1
  O2-  O278  1  0.28760246  0.16224778  0.73021905  1
  O2-  O279  1  0.28792570  0.67261683  0.06652952  1
  O2-  O280  1  0.28383904  0.66396007  0.40372428  1
  O2-  O281  1  0.28687019  0.66723335  0.73742455  1
  O2-  O282  1  0.80301292  0.16557718  0.05662443  1
  O2-  O283  1  0.79573682  0.16844807  0.40343923  1
  O2-  O284  1  0.80290226  0.16254828  0.73010057  1
  O2-  O285  1  0.80255271  0.67332626  0.06448106  1
  O2-  O286  1  0.80786989  0.67526932  0.39383103  1
  O2-  O287  1  0.79331826  0.67237269  0.73397142  1
