# generated using pymatgen
data_Ca2Al2SiO7
_symmetry_space_group_name_H-M   'P 1'
_cell_length_a   15.47032849
_cell_length_b   15.46676436
_cell_length_c   15.29186171
_cell_angle_alpha   90.00098870
_cell_angle_beta   89.99634822
_cell_angle_gamma   90.02084402
_symmetry_Int_Tables_number   1
_chemical_formula_structural   Ca2Al2SiO7
_chemical_formula_sum   'Ca48 Al48 Si24 O168'
_cell_volume   3658.97411036
_cell_formula_units_Z   24
loop_
 _symmetry_equiv_pos_site_id
 _symmetry_equiv_pos_as_xyz
  1  'x, y, z'
loop_
 _atom_type_symbol
 _atom_type_oxidation_number
  Ca2+  2.0
  Al0+  0.0
  Si0+  0.0
  O2-  -2.0
loop_
 _atom_site_type_symbol
 _atom_site_label
 _atom_site_symmetry_multiplicity
 _atom_site_fract_x
 _atom_site_fract_y
 _atom_site_fract_z
 _atom_site_occupancy
  Ca2+  Ca0  1  0.17454519  0.08470527  0.16413801  1
  Ca2+  Ca1  1  0.17538719  0.07788375  0.50721500  1
  Ca2+  Ca2  1  0.16916209  0.07227423  0.83893771  1
  Ca2+  Ca3  1  0.17325033  0.57914845  0.16770627  1
  Ca2+  Ca4  1  0.17278336  0.57990270  0.50949450  1
  Ca2+  Ca5  1  0.16548752  0.57914461  0.84108992  1
  Ca2+  Ca6  1  0.67381707  0.07527823  0.17600296  1
  Ca2+  Ca7  1  0.67767212  0.07396742  0.50189347  1
  Ca2+  Ca8  1  0.67607728  0.08675751  0.83358325  1
  Ca2+  Ca9  1  0.66305191  0.57602877  0.16628753  1
  Ca2+  Ca10  1  0.66783533  0.58576500  0.50681996  1
  Ca2+  Ca11  1  0.66809082  0.58247700  0.83743381  1
  Ca2+  Ca12  1  0.09204754  0.32874166  0.15870786  1
  Ca2+  Ca13  1  0.08365308  0.33845372  0.49933676  1
  Ca2+  Ca14  1  0.08983570  0.32980464  0.82836682  1
  Ca2+  Ca15  1  0.08140455  0.83245035  0.15844545  1
  Ca2+  Ca16  1  0.08070931  0.83701532  0.50220580  1
  Ca2+  Ca17  1  0.09078213  0.82534267  0.82741138  1
  Ca2+  Ca18  1  0.57426577  0.33091406  0.15528363  1
  Ca2+  Ca19  1  0.57859527  0.32764557  0.49635286  1
  Ca2+  Ca20  1  0.57471853  0.33846512  0.83331749  1
  Ca2+  Ca21  1  0.57620736  0.83537881  0.16161182  1
  Ca2+  Ca22  1  0.58495873  0.82969378  0.49755668  1
  Ca2+  Ca23  1  0.57229294  0.82808815  0.82898853  1
  Ca2+  Ca24  1  0.32469857  0.42277588  0.16823762  1
  Ca2+  Ca25  1  0.31864203  0.42420525  0.50394336  1
  Ca2+  Ca26  1  0.32355059  0.42756703  0.83871152  1
  Ca2+  Ca27  1  0.33019726  0.92185864  0.16644129  1
  Ca2+  Ca28  1  0.33033176  0.92870696  0.50863386  1
  Ca2+  Ca29  1  0.32386163  0.91978624  0.84086266  1
  Ca2+  Ca30  1  0.82582317  0.41482442  0.16600964  1
  Ca2+  Ca31  1  0.83297441  0.41582038  0.50795729  1
  Ca2+  Ca32  1  0.82818722  0.41251683  0.83630345  1
  Ca2+  Ca33  1  0.82937309  0.92022653  0.17899249  1
  Ca2+  Ca34  1  0.84085538  0.92076821  0.50453279  1
  Ca2+  Ca35  1  0.83932259  0.91754951  0.83170445  1
  Ca2+  Ca36  1  0.40989974  0.17026394  0.15592270  1
  Ca2+  Ca37  1  0.40943510  0.16442750  0.49425905  1
  Ca2+  Ca38  1  0.40458262  0.17185669  0.83247869  1
  Ca2+  Ca39  1  0.40909216  0.67000563  0.15855872  1
  Ca2+  Ca40  1  0.41879859  0.65710200  0.49986014  1
  Ca2+  Ca41  1  0.41367905  0.66619577  0.82914254  1
  Ca2+  Ca42  1  0.92448748  0.16461364  0.16100800  1
  Ca2+  Ca43  1  0.91282357  0.16764879  0.49869483  1
  Ca2+  Ca44  1  0.92476953  0.17079913  0.82658386  1
  Ca2+  Ca45  1  0.92493331  0.67383810  0.16202000  1
  Ca2+  Ca46  1  0.92702091  0.67776807  0.49835983  1
  Ca2+  Ca47  1  0.93339066  0.67075866  0.82500315  1
  Al0+  Al48  1  -0.00013264  0.00256495  -0.00067064  1
  Al0+  Al49  1  0.00054282  0.00232627  0.33112010  1
  Al0+  Al50  1  0.00104126  0.00244989  0.67133384  1
  Al0+  Al51  1  -0.00308277  0.50137986  0.00173639  1
  Al0+  Al52  1  -0.00340835  0.49873624  0.33247227  1
  Al0+  Al53  1  -0.00214817  0.50007359  0.66165147  1
  Al0+  Al54  1  0.50275953  -0.00019429  -0.00351909  1
  Al0+  Al55  1  0.50276226  -0.00159873  0.34036204  1
  Al0+  Al56  1  0.50412810  0.00099531  0.66966258  1
  Al0+  Al57  1  0.50183875  0.49857904  0.00374312  1
  Al0+  Al58  1  0.49921439  0.49764054  0.33492773  1
  Al0+  Al59  1  0.49906851  0.49749136  0.66317057  1
  Al0+  Al60  1  0.24999547  0.25042429  -0.00545000  1
  Al0+  Al61  1  0.24879290  0.25145162  0.33975596  1
  Al0+  Al62  1  0.25005423  0.25261537  0.66878863  1
  Al0+  Al63  1  0.24861960  0.75163647  -0.00036103  1
  Al0+  Al64  1  0.25191812  0.74893927  0.33669245  1
  Al0+  Al65  1  0.25348039  0.75181295  0.66514431  1
  Al0+  Al66  1  0.74910426  0.25009430  0.00532006  1
  Al0+  Al67  1  0.74901771  0.24821274  0.33425059  1
  Al0+  Al68  1  0.74932770  0.24847700  0.66596900  1
  Al0+  Al69  1  0.74981596  0.75097477  0.00103803  1
  Al0+  Al70  1  0.74888834  0.74743590  0.32971352  1
  Al0+  Al71  1  0.74869563  0.74984589  0.66105455  1
  Al0+  Al72  1  0.17621167  0.42882084  0.01399256  1
  Al0+  Al73  1  0.42918928  0.82162452  0.98722558  1
  Al0+  Al74  1  0.82302205  0.07019911  0.34854950  1
  Al0+  Al75  1  0.07523235  0.67897554  0.65064688  1
  Al0+  Al76  1  0.06957811  0.67971149  0.98843425  1
  Al0+  Al77  1  0.17717557  0.92874558  0.01644124  1
  Al0+  Al78  1  0.32164076  0.57208636  0.34958298  1
  Al0+  Al79  1  0.32226528  0.07036271  0.01333548  1
  Al0+  Al80  1  0.17483852  0.43250132  0.68290465  1
  Al0+  Al81  1  0.67967990  0.92540960  0.34910995  1
  Al0+  Al82  1  0.32060930  0.07002631  0.34488651  1
  Al0+  Al83  1  0.92771814  0.31973089  0.65341798  1
  Al0+  Al84  1  0.07113805  0.18046878  0.98514897  1
  Al0+  Al85  1  0.56829226  0.67807811  0.65366056  1
  Al0+  Al86  1  0.32303068  0.57046874  0.68165652  1
  Al0+  Al87  1  0.32457757  0.07267878  0.68290034  1
  Al0+  Al88  1  0.82052565  0.07101153  0.68206854  1
  Al0+  Al89  1  0.17638388  0.42922404  0.34839484  1
  Al0+  Al90  1  0.93032096  0.82289908  0.65285350  1
  Al0+  Al91  1  0.17969530  0.92953400  0.68143630  1
  Al0+  Al92  1  0.32114625  0.57241116  0.01394973  1
  Al0+  Al93  1  0.42924964  0.32115760  0.98571493  1
  Al0+  Al94  1  0.93085542  0.82146027  0.31894548  1
  Al0+  Al95  1  0.67971508  0.42944773  0.01316694  1
  Si0+  Si96  1  0.92594425  0.82362601  0.98450333  1
  Si0+  Si97  1  0.57022068  0.67575950  0.31624664  1
  Si0+  Si98  1  0.57416710  0.17805245  0.98279052  1
  Si0+  Si99  1  0.67913840  0.42801689  0.67990576  1
  Si0+  Si100  1  0.57318858  0.17845078  0.65007610  1
  Si0+  Si101  1  0.42945744  0.31869697  0.64892930  1
  Si0+  Si102  1  0.07156283  0.18198652  0.31872670  1
  Si0+  Si103  1  0.81899378  0.57211502  0.67978242  1
  Si0+  Si104  1  0.82120261  0.57468633  0.01779427  1
  Si0+  Si105  1  0.92500757  0.32146219  0.31626041  1
  Si0+  Si106  1  0.07283571  0.67672690  0.31636814  1
  Si0+  Si107  1  0.43040993  0.82193458  0.31976477  1
  Si0+  Si108  1  0.57306906  0.67786863  0.98520593  1
  Si0+  Si109  1  0.67869391  0.42797453  0.34949902  1
  Si0+  Si110  1  0.67984174  0.92781107  0.01419788  1
  Si0+  Si111  1  0.07279247  0.18022848  0.64837554  1
  Si0+  Si112  1  0.57107853  0.17783380  0.31829355  1
  Si0+  Si113  1  0.67972446  0.92535096  0.68626837  1
  Si0+  Si114  1  0.42983255  0.82494395  0.64848274  1
  Si0+  Si115  1  0.81905511  0.56977550  0.34860680  1
  Si0+  Si116  1  0.17750608  0.92717118  0.34853735  1
  Si0+  Si117  1  0.42926825  0.31820719  0.31816885  1
  Si0+  Si118  1  0.92522298  0.32137264  0.98537151  1
  Si0+  Si119  1  0.82014324  0.07101630  0.01551412  1
  O2-  O120  1  0.25103917  -0.00057930  0.06593770  1
  O2-  O121  1  0.24893347  -0.00660229  0.39178002  1
  O2-  O122  1  0.25395926  -0.00054172  0.73110223  1
  O2-  O123  1  0.24863153  0.50055814  0.06361398  1
  O2-  O124  1  0.24354358  0.50591550  0.39731356  1
  O2-  O125  1  0.24314386  0.50819860  0.73176252  1
  O2-  O126  1  0.75203319  -0.00284287  0.05683983  1
  O2-  O127  1  0.75638318  -0.00708110  0.39803137  1
  O2-  O128  1  0.74971955  -0.00697151  0.73017057  1
  O2-  O129  1  0.75272735  0.50491733  0.06151786  1
  O2-  O130  1  0.74917079  0.49809695  0.39269872  1
  O2-  O131  1  0.74928223  0.49949886  0.72211449  1
  O2-  O132  1  -0.00087977  0.25292432  0.27655260  1
  O2-  O133  1  0.00395182  0.24876109  0.60341742  1
  O2-  O134  1  -0.00138930  0.25911060  0.94078454  1
  O2-  O135  1  0.00793407  0.74946671  0.27190946  1
  O2-  O136  1  0.00498940  0.75416573  0.60217017  1
  O2-  O137  1  -0.00409471  0.75622932  0.94237991  1
  O2-  O138  1  0.49764740  0.24494940  0.27464100  1
  O2-  O139  1  0.49557864  0.24196156  0.60695031  1
  O2-  O140  1  0.50235507  0.24336906  0.93895672  1
  O2-  O141  1  0.49817074  0.74686588  0.27674206  1
  O2-  O142  1  0.49440414  0.75186089  0.60409909  1
  O2-  O143  1  0.50100793  0.74256899  0.94186885  1
  O2-  O144  1  0.06796668  0.17933418  0.09904983  1
  O2-  O145  1  0.07192094  0.18214644  0.42358785  1
  O2-  O146  1  0.07090026  0.18119805  0.75381387  1
  O2-  O147  1  0.06595384  0.68003046  0.10198323  1
  O2-  O148  1  0.06943942  0.67531447  0.42155879  1
  O2-  O149  1  0.07061648  0.67663620  0.76415559  1
  O2-  O150  1  0.57715529  0.17987698  0.08865343  1
  O2-  O151  1  0.57292015  0.18195123  0.42342627  1
  O2-  O152  1  0.57877817  0.18332829  0.75472750  1
  O2-  O153  1  0.57684780  0.68095311  0.09093526  1
  O2-  O154  1  0.57149327  0.67336153  0.42120948  1
  O2-  O155  1  0.56992703  0.67817863  0.76668293  1
  O2-  O156  1  0.18022515  0.42599176  0.23520413  1
  O2-  O157  1  0.17747285  0.43105528  0.56911719  1
  O2-  O158  1  0.17564670  0.43067812  0.90106574  1
  O2-  O159  1  0.17764617  0.92767342  0.24317995  1
  O2-  O160  1  0.18000030  0.93387236  0.56694421  1
  O2-  O161  1  0.17665728  0.92913042  0.90356441  1
  O2-  O162  1  0.67879277  0.42814884  0.24457712  1
  O2-  O163  1  0.67992590  0.42774679  0.57432285  1
  O2-  O164  1  0.68203261  0.42937852  0.89992219  1
  O2-  O165  1  0.67817159  0.92971973  0.23491336  1
  O2-  O166  1  0.67826380  0.92639540  0.58091153  1
  O2-  O167  1  0.68135002  0.92639971  0.90939054  1
  O2-  O168  1  0.43210604  0.31978710  0.09951502  1
  O2-  O169  1  0.43326660  0.31708944  0.42344360  1
  O2-  O170  1  0.43356305  0.32129621  0.75366852  1
  O2-  O171  1  0.43375268  0.82366105  0.10098877  1
  O2-  O172  1  0.43352085  0.82419200  0.42448313  1
  O2-  O173  1  0.43406837  0.82700623  0.75386874  1
  O2-  O174  1  0.92065683  0.31645284  0.09115416  1
  O2-  O175  1  0.92056531  0.32106633  0.42103419  1
  O2-  O176  1  0.92170599  0.31609148  0.76606434  1
  O2-  O177  1  0.92284176  0.82195652  0.09036162  1
  O2-  O178  1  0.93162883  0.82001226  0.43147698  1
  O2-  O179  1  0.92702940  0.81735813  0.76638409  1
  O2-  O180  1  0.32035300  0.07187939  0.23234964  1
  O2-  O181  1  0.32266655  0.07098280  0.56845386  1
  O2-  O182  1  0.32115934  0.06789632  0.90059622  1
  O2-  O183  1  0.32454348  0.57063111  0.23635293  1
  O2-  O184  1  0.32607922  0.56280349  0.56823437  1
  O2-  O185  1  0.32241688  0.57051430  0.90096610  1
  O2-  O186  1  0.81952594  0.07187157  0.23446843  1
  O2-  O187  1  0.81643222  0.07285194  0.56938209  1
  O2-  O188  1  0.81768776  0.07343362  0.91051576  1
  O2-  O189  1  0.81712676  0.56787484  0.24345708  1
  O2-  O190  1  0.81593618  0.57068786  0.57434401  1
  O2-  O191  1  0.81920360  0.57678354  0.91232989  1
  O2-  O192  1  0.04488472  0.09072536  0.26952996  1
  O2-  O193  1  0.04579133  0.08680384  0.60359499  1
  O2-  O194  1  0.03511261  0.08565650  0.93042276  1
  O2-  O195  1  0.04069708  0.58468756  0.26997815  1
  O2-  O196  1  0.03960964  0.58310496  0.59626987  1
  O2-  O197  1  0.03458167  0.58407137  0.93402312  1
  O2-  O198  1  0.54805915  0.08356143  0.27406087  1
  O2-  O199  1  0.55424274  0.08355004  0.60494063  1
  O2-  O200  1  0.55610362  0.08336788  0.93665829  1
  O2-  O201  1  0.54366845  0.58255807  0.26971285  1
  O2-  O202  1  0.54081976  0.58069830  0.59713082  1
  O2-  O203  1  0.55435646  0.58198577  0.94221598  1
  O2-  O204  1  0.16288305  0.21259887  0.27136195  1
  O2-  O205  1  0.16654443  0.20663722  0.60236752  1
  O2-  O206  1  0.16662838  0.20744841  0.92887739  1
  O2-  O207  1  0.16906033  0.69818486  0.27410086  1
  O2-  O208  1  0.17446829  0.70464343  0.59780062  1
  O2-  O209  1  0.16562052  0.70826304  0.93413215  1
  O2-  O210  1  0.66162008  0.20902720  0.26940343  1
  O2-  O211  1  0.66033459  0.21439558  0.59858170  1
  O2-  O212  1  0.66628257  0.21005657  0.93645966  1
  O2-  O213  1  0.66137970  0.70195132  0.26664661  1
  O2-  O214  1  0.66396262  0.70874641  0.59658573  1
  O2-  O215  1  0.66556236  0.70706049  0.93758411  1
  O2-  O216  1  0.07607417  0.45359734  0.06655569  1
  O2-  O217  1  0.07376364  0.44915113  0.39619848  1
  O2-  O218  1  0.07306167  0.45294472  0.73198365  1
  O2-  O219  1  0.07836634  0.95963249  0.06847931  1
  O2-  O220  1  0.08561326  0.95768249  0.39409727  1
  O2-  O221  1  0.08248880  0.95827190  0.73571316  1
  O2-  O222  1  0.58564835  0.45928518  0.07224181  1
  O2-  O223  1  0.58730210  0.45509816  0.39740631  1
  O2-  O224  1  0.58768657  0.45602883  0.72626091  1
  O2-  O225  1  0.58940440  0.95764658  0.06239563  1
  O2-  O226  1  0.58532033  0.95881090  0.40658808  1
  O2-  O227  1  0.58783361  0.95437992  0.73354187  1
  O2-  O228  1  0.20711271  0.33014918  0.06421606  1
  O2-  O229  1  0.21001097  0.33428705  0.40530552  1
  O2-  O230  1  0.20804441  0.33467860  0.73286465  1
  O2-  O231  1  0.20478280  0.83107857  0.07005584  1
  O2-  O232  1  0.19929899  0.83285517  0.39398878  1
  O2-  O233  1  0.20658740  0.83016392  0.73196890  1
  O2-  O234  1  0.71133349  0.33427892  0.07114398  1
  O2-  O235  1  0.70600424  0.33593276  0.39637758  1
  O2-  O236  1  0.70804838  0.33754923  0.72800222  1
  O2-  O237  1  0.70490706  0.83597077  0.06370348  1
  O2-  O238  1  0.70107027  0.82384580  0.39739619  1
  O2-  O239  1  0.70411724  0.83109121  0.73116218  1
  O2-  O240  1  0.46162831  0.40893418  0.27148195  1
  O2-  O241  1  0.46515243  0.40638015  0.59850407  1
  O2-  O242  1  0.46792580  0.41579395  0.93248426  1
  O2-  O243  1  0.46339809  0.91248491  0.27208171  1
  O2-  O244  1  0.46231860  0.91732937  0.60212947  1
  O2-  O245  1  0.46623091  0.91504431  0.93042943  1
  O2-  O246  1  0.94668241  0.41482204  0.26874123  1
  O2-  O247  1  0.95175642  0.41709572  0.59733636  1
  O2-  O248  1  0.94045469  0.41855759  0.94399092  1
  O2-  O249  1  0.95686036  0.91996520  0.26524022  1
  O2-  O250  1  0.95603375  0.92355505  0.60258068  1
  O2-  O251  1  0.94804248  0.91840989  0.94059715  1
  O2-  O252  1  0.33610205  0.29199758  0.27379626  1
  O2-  O253  1  0.33654631  0.29482578  0.60159397  1
  O2-  O254  1  0.33426486  0.29293895  0.92887058  1
  O2-  O255  1  0.33675021  0.79818612  0.27365910  1
  O2-  O256  1  0.33539440  0.80664836  0.60246495  1
  O2-  O257  1  0.33228126  0.79486455  0.93382093  1
  O2-  O258  1  0.83376842  0.29063939  0.26787354  1
  O2-  O259  1  0.83154636  0.28665872  0.59734022  1
  O2-  O260  1  0.83332339  0.28978533  0.93849888  1
  O2-  O261  1  0.83392980  0.78741838  0.26531009  1
  O2-  O262  1  0.83255797  0.79226004  0.59893179  1
  O2-  O263  1  0.83242721  0.79721299  0.93814970  1
  O2-  O264  1  0.42363860  0.04531462  0.06328271  1
  O2-  O265  1  0.41760760  0.04274556  0.39972460  1
  O2-  O266  1  0.42622248  0.05143428  0.73187244  1
  O2-  O267  1  0.42062048  0.54567713  0.06619833  1
  O2-  O268  1  0.41904996  0.53714585  0.40172968  1
  O2-  O269  1  0.41937312  0.53324102  0.73384509  1
  O2-  O270  1  0.91208442  0.04587418  0.06268828  1
  O2-  O271  1  0.92310005  0.04831661  0.39976966  1
  O2-  O272  1  0.91744076  0.04612879  0.73672683  1
  O2-  O273  1  0.91260931  0.54840421  0.06696518  1
  O2-  O274  1  0.91051183  0.54280607  0.39601132  1
  O2-  O275  1  0.91024107  0.54444536  0.72653698  1
  O2-  O276  1  0.29253962  0.16946198  0.06369823  1
  O2-  O277  1  0.28860604  0.16492707  0.40091304  1
  O2-  O278  1  0.29602359  0.17192061  0.73158569  1
  O2-  O279  1  0.29253694  0.67041009  0.06701392  1
  O2-  O280  1  0.30211838  0.67270466  0.40208494  1
  O2-  O281  1  0.30995294  0.67466137  0.72516968  1
  O2-  O282  1  0.78963404  0.16073903  0.06535431  1
  O2-  O283  1  0.78818430  0.16726784  0.40100848  1
  O2-  O284  1  0.78235919  0.16542969  0.73620986  1
  O2-  O285  1  0.79337765  0.66722419  0.06600155  1
  O2-  O286  1  0.78862765  0.66033390  0.39550852  1
  O2-  O287  1  0.78771994  0.66222384  0.72754980  1
