# generated using pymatgen
data_Ca2Al2SiO7
_symmetry_space_group_name_H-M   'P 1'
_cell_length_a   15.45758957
_cell_length_b   15.45753721
_cell_length_c   15.28341986
_cell_angle_alpha   90.00592560
_cell_angle_beta   89.99808205
_cell_angle_gamma   89.99352633
_symmetry_Int_Tables_number   1
_chemical_formula_structural   Ca2Al2SiO7
_chemical_formula_sum   'Ca48 Al48 Si24 O168'
_cell_volume   3651.76322626
_cell_formula_units_Z   24
loop_
 _symmetry_equiv_pos_site_id
 _symmetry_equiv_pos_as_xyz
  1  'x, y, z'
loop_
 _atom_type_symbol
 _atom_type_oxidation_number
  Ca2+  2.0
  Al0+  0.0
  Si0+  0.0
  O2-  -2.0
loop_
 _atom_site_type_symbol
 _atom_site_label
 _atom_site_symmetry_multiplicity
 _atom_site_fract_x
 _atom_site_fract_y
 _atom_site_fract_z
 _atom_site_occupancy
  Ca2+  Ca0  1  0.18069200  0.07796282  0.16866341  1
  Ca2+  Ca1  1  0.17611159  0.07849942  0.50519365  1
  Ca2+  Ca2  1  0.16975305  0.07102121  0.84152517  1
  Ca2+  Ca3  1  0.16534435  0.57923294  0.16808858  1
  Ca2+  Ca4  1  0.16563221  0.57578079  0.50141805  1
  Ca2+  Ca5  1  0.17032979  0.57518444  0.84188409  1
  Ca2+  Ca6  1  0.66985463  0.08702373  0.16976772  1
  Ca2+  Ca7  1  0.66794542  0.09054993  0.50559008  1
  Ca2+  Ca8  1  0.67718747  0.09267544  0.83495132  1
  Ca2+  Ca9  1  0.66428710  0.58980735  0.16954050  1
  Ca2+  Ca10  1  0.66336175  0.57806933  0.50620664  1
  Ca2+  Ca11  1  0.66537863  0.57815413  0.83741808  1
  Ca2+  Ca12  1  0.08029223  0.33910676  0.15876658  1
  Ca2+  Ca13  1  0.08055406  0.34205169  0.49796488  1
  Ca2+  Ca14  1  0.07521418  0.33962037  0.82881315  1
  Ca2+  Ca15  1  0.09232080  0.82188118  0.16017608  1
  Ca2+  Ca16  1  0.08077416  0.83315421  0.49896906  1
  Ca2+  Ca17  1  0.08979261  0.83126871  0.82868414  1
  Ca2+  Ca18  1  0.57313020  0.33036943  0.16727450  1
  Ca2+  Ca19  1  0.57427632  0.32677807  0.49885141  1
  Ca2+  Ca20  1  0.57509209  0.32919644  0.82088121  1
  Ca2+  Ca21  1  0.57210383  0.82500589  0.16225718  1
  Ca2+  Ca22  1  0.57784114  0.82778795  0.48903105  1
  Ca2+  Ca23  1  0.57867903  0.82930786  0.83481783  1
  Ca2+  Ca24  1  0.32329992  0.41924418  0.17279895  1
  Ca2+  Ca25  1  0.32687460  0.41004234  0.50443650  1
  Ca2+  Ca26  1  0.32282945  0.41663481  0.84078746  1
  Ca2+  Ca27  1  0.34139743  0.92111052  0.16762776  1
  Ca2+  Ca28  1  0.33445506  0.91957227  0.50232587  1
  Ca2+  Ca29  1  0.32588920  0.91961722  0.84375422  1
  Ca2+  Ca30  1  0.83311250  0.41682777  0.16800011  1
  Ca2+  Ca31  1  0.82573998  0.41686098  0.51002227  1
  Ca2+  Ca32  1  0.82719879  0.40590695  0.83570855  1
  Ca2+  Ca33  1  0.83363109  0.92298919  0.16809418  1
  Ca2+  Ca34  1  0.83191156  0.92249111  0.51159991  1
  Ca2+  Ca35  1  0.83885798  0.92863155  0.83663153  1
  Ca2+  Ca36  1  0.41362430  0.16442880  0.16628419  1
  Ca2+  Ca37  1  0.42165934  0.17428807  0.49153307  1
  Ca2+  Ca38  1  0.41847772  0.17040891  0.82550097  1
  Ca2+  Ca39  1  0.41767249  0.67438997  0.15659569  1
  Ca2+  Ca40  1  0.42146615  0.67358061  0.49059433  1
  Ca2+  Ca41  1  0.41163827  0.66718720  0.83813943  1
  Ca2+  Ca42  1  0.91930531  0.17310680  0.15731302  1
  Ca2+  Ca43  1  0.91596404  0.17071877  0.50324206  1
  Ca2+  Ca44  1  0.91332509  0.17260036  0.82775138  1
  Ca2+  Ca45  1  0.93069061  0.66496123  0.16075239  1
  Ca2+  Ca46  1  0.92212640  0.67320238  0.49593341  1
  Ca2+  Ca47  1  0.92587867  0.67468744  0.82932019  1
  Al0+  Al48  1  0.00022166  0.00103153  0.01132351  1
  Al0+  Al49  1  -0.00005617  0.00260222  0.33456501  1
  Al0+  Al50  1  -0.00010031  -0.00036589  0.66952966  1
  Al0+  Al51  1  -0.00392710  0.50095372  -0.00728412  1
  Al0+  Al52  1  -0.00177773  0.50183357  0.33519654  1
  Al0+  Al53  1  0.00054364  0.50148968  0.66554691  1
  Al0+  Al54  1  0.50269538  -0.00130896  -0.00220831  1
  Al0+  Al55  1  0.50276420  0.00039911  0.33145016  1
  Al0+  Al56  1  0.50214336  -0.00182525  0.66354610  1
  Al0+  Al57  1  0.49972165  0.49801216  0.00019020  1
  Al0+  Al58  1  0.50012516  0.49781647  0.32819294  1
  Al0+  Al59  1  0.49999818  0.50029479  0.66722899  1
  Al0+  Al60  1  0.24784698  0.24772478  0.00590354  1
  Al0+  Al61  1  0.24785166  0.24859494  0.33944316  1
  Al0+  Al62  1  0.24857633  0.24990416  0.66883165  1
  Al0+  Al63  1  0.25079450  0.74775141  -0.00343167  1
  Al0+  Al64  1  0.24818333  0.74905731  0.32787059  1
  Al0+  Al65  1  0.25105553  0.74889788  0.66783761  1
  Al0+  Al66  1  0.74986437  0.25059993  0.00313097  1
  Al0+  Al67  1  0.74987956  0.25195912  0.33105681  1
  Al0+  Al68  1  0.75064101  0.25090431  0.66626912  1
  Al0+  Al69  1  0.74993434  0.74928976  -0.00346324  1
  Al0+  Al70  1  0.75175758  0.75270778  0.33143518  1
  Al0+  Al71  1  0.75131665  0.75088642  0.66373989  1
  Al0+  Al72  1  0.32412612  0.07045742  0.01402159  1
  Al0+  Al73  1  0.17825448  0.42848756  0.68105219  1
  Al0+  Al74  1  0.17509088  0.42977589  0.01473190  1
  Al0+  Al75  1  0.57303323  0.67725880  0.31968397  1
  Al0+  Al76  1  0.67998369  0.43070197  0.67980232  1
  Al0+  Al77  1  0.42447093  0.31960013  0.31678583  1
  Al0+  Al78  1  0.18087371  0.92918853  0.67874116  1
  Al0+  Al79  1  0.32259921  0.06876662  0.34948527  1
  Al0+  Al80  1  0.93061977  0.32153207  0.65206532  1
  Al0+  Al81  1  0.93025254  0.82239985  0.65411406  1
  Al0+  Al82  1  0.57105486  0.17855594  0.65272233  1
  Al0+  Al83  1  0.42830500  0.82076661  0.31849341  1
  Al0+  Al84  1  0.42959862  0.82141552  0.98180817  1
  Al0+  Al85  1  0.07122152  0.67981909  0.98405214  1
  Al0+  Al86  1  0.57220672  0.18020133  0.31637746  1
  Al0+  Al87  1  0.57227668  0.67605068  0.98204188  1
  Al0+  Al88  1  0.17784416  0.43029106  0.34841196  1
  Al0+  Al89  1  0.81985079  0.07220038  0.01577801  1
  Al0+  Al90  1  0.42556354  0.32214704  0.65303545  1
  Al0+  Al91  1  0.17907045  0.92648266  0.01644278  1
  Al0+  Al92  1  0.06798576  0.67928471  0.32016594  1
  Al0+  Al93  1  0.92906748  0.31964698  0.98572195  1
  Al0+  Al94  1  0.32188261  0.56850694  0.01590945  1
  Al0+  Al95  1  0.81878301  0.07024680  0.67967827  1
  Si0+  Si96  1  0.92863659  0.82558269  0.31609395  1
  Si0+  Si97  1  0.17712967  0.92618567  0.35073514  1
  Si0+  Si98  1  0.32443059  0.07090940  0.68182094  1
  Si0+  Si99  1  0.92839098  0.82426888  0.98504535  1
  Si0+  Si100  1  0.67870200  0.42873338  0.34816202  1
  Si0+  Si101  1  0.68202158  0.93010176  0.34837327  1
  Si0+  Si102  1  0.67664449  0.92465880  0.68359662  1
  Si0+  Si103  1  0.93013460  0.32079202  0.31935393  1
  Si0+  Si104  1  0.82215913  0.57444988  0.68358095  1
  Si0+  Si105  1  0.57211245  0.67926248  0.65186671  1
  Si0+  Si106  1  0.42678683  0.31888117  0.98613595  1
  Si0+  Si107  1  0.32279738  0.57228633  0.68248324  1
  Si0+  Si108  1  0.07230463  0.17678974  0.98475344  1
  Si0+  Si109  1  0.67973039  0.92620254  0.01727325  1
  Si0+  Si110  1  0.82034996  0.57171888  0.34781288  1
  Si0+  Si111  1  0.42846830  0.81985056  0.65136807  1
  Si0+  Si112  1  0.67872880  0.42842514  0.01654879  1
  Si0+  Si113  1  0.07052183  0.17750664  0.31893792  1
  Si0+  Si114  1  0.81898730  0.57210644  0.01392885  1
  Si0+  Si115  1  0.07156103  0.17658716  0.65075995  1
  Si0+  Si116  1  0.07344670  0.67900468  0.64849893  1
  Si0+  Si117  1  0.32280725  0.57238885  0.34896780  1
  Si0+  Si118  1  0.57178355  0.17985812  0.98529006  1
  Si0+  Si119  1  0.82171665  0.07366493  0.35026541  1
  O2-  O120  1  0.25440835  -0.00391151  0.06463753  1
  O2-  O121  1  0.24890320  -0.00842218  0.39503948  1
  O2-  O122  1  0.25601995  0.00265929  0.72603132  1
  O2-  O123  1  0.24804929  0.49906570  0.06682426  1
  O2-  O124  1  0.25635941  0.50201113  0.39456846  1
  O2-  O125  1  0.25656820  0.50033908  0.72497050  1
  O2-  O126  1  0.74759568  -0.00452072  0.06281060  1
  O2-  O127  1  0.75194839  0.00171344  0.39189908  1
  O2-  O128  1  0.74324395  -0.00405133  0.72654512  1
  O2-  O129  1  0.74624858  0.50351755  0.05785375  1
  O2-  O130  1  0.74391224  0.50630769  0.38916335  1
  O2-  O131  1  0.75551083  0.50418264  0.72832198  1
  O2-  O132  1  0.00135558  0.25088709  0.27696306  1
  O2-  O133  1  0.00813656  0.25014438  0.60460146  1
  O2-  O134  1  0.00491053  0.24612523  0.93946176  1
  O2-  O135  1  -0.00197586  0.75833269  0.27242868  1
  O2-  O136  1  0.00421946  0.74816282  0.60549601  1
  O2-  O137  1  0.00120784  0.76078023  0.93999292  1
  O2-  O138  1  0.49600743  0.24707229  0.26576661  1
  O2-  O139  1  0.49518757  0.24700542  0.60390499  1
  O2-  O140  1  0.49552629  0.24524585  0.94411662  1
  O2-  O141  1  0.49649420  0.74389300  0.27020061  1
  O2-  O142  1  0.50181312  0.75079173  0.60981461  1
  O2-  O143  1  0.49979286  0.74690936  0.93156385  1
  O2-  O144  1  0.06972843  0.17827544  0.09073844  1
  O2-  O145  1  0.06662030  0.17390658  0.42399531  1
  O2-  O146  1  0.06863017  0.17486200  0.75610584  1
  O2-  O147  1  0.06601766  0.67715682  0.09729125  1
  O2-  O148  1  0.06392457  0.67865623  0.43338327  1
  O2-  O149  1  0.07307557  0.67973275  0.75384804  1
  O2-  O150  1  0.57460635  0.18337622  0.09021073  1
  O2-  O151  1  0.57629029  0.18448598  0.42949589  1
  O2-  O152  1  0.57062126  0.18092344  0.76688240  1
  O2-  O153  1  0.57430851  0.67973431  0.09529285  1
  O2-  O154  1  0.57417496  0.68066675  0.43402793  1
  O2-  O155  1  0.57359680  0.67963041  0.75639821  1
  O2-  O156  1  0.17293746  0.43291117  0.23593187  1
  O2-  O157  1  0.17669774  0.43308027  0.56774156  1
  O2-  O158  1  0.17619118  0.43043067  0.90110041  1
  O2-  O159  1  0.17329204  0.92892724  0.24589637  1
  O2-  O160  1  0.18278508  0.92937642  0.56530142  1
  O2-  O161  1  0.17812824  0.93060058  0.90237552  1
  O2-  O162  1  0.68321962  0.42525152  0.24300991  1
  O2-  O163  1  0.68097791  0.43385761  0.56629746  1
  O2-  O164  1  0.68036718  0.42597991  0.91145608  1
  O2-  O165  1  0.68611364  0.92875492  0.24354631  1
  O2-  O166  1  0.67841760  0.92148966  0.57779268  1
  O2-  O167  1  0.68144970  0.92616345  0.91165047  1
  O2-  O168  1  0.42888694  0.31970762  0.09104072  1
  O2-  O169  1  0.42691732  0.31943089  0.43035086  1
  O2-  O170  1  0.42716608  0.32125177  0.76728236  1
  O2-  O171  1  0.43339454  0.82237714  0.09506765  1
  O2-  O172  1  0.43104228  0.81971280  0.43326463  1
  O2-  O173  1  0.42779527  0.81971456  0.75581821  1
  O2-  O174  1  0.92737085  0.31928282  0.09967125  1
  O2-  O175  1  0.92853498  0.32017462  0.42440933  1
  O2-  O176  1  0.92912645  0.31884497  0.76476020  1
  O2-  O177  1  0.92542659  0.81994818  0.09082597  1
  O2-  O178  1  0.92733685  0.82541898  0.42186850  1
  O2-  O179  1  0.93081614  0.82124169  0.76690077  1
  O2-  O180  1  0.32017240  0.06802041  0.23682972  1
  O2-  O181  1  0.32400749  0.06841788  0.57610060  1
  O2-  O182  1  0.32226671  0.07180363  0.90004071  1
  O2-  O183  1  0.32082187  0.57227854  0.24395619  1
  O2-  O184  1  0.32219462  0.57711644  0.57684518  1
  O2-  O185  1  0.32183638  0.56359218  0.90179826  1
  O2-  O186  1  0.82190071  0.07357691  0.24521842  1
  O2-  O187  1  0.81849031  0.06886091  0.56606232  1
  O2-  O188  1  0.81798525  0.07380508  0.90281709  1
  O2-  O189  1  0.82313398  0.56853326  0.24262681  1
  O2-  O190  1  0.81936397  0.57525928  0.57743765  1
  O2-  O191  1  0.81834413  0.57220633  0.90907092  1
  O2-  O192  1  0.03970862  0.08754034  0.26904692  1
  O2-  O193  1  0.04016248  0.08583639  0.60212216  1
  O2-  O194  1  0.04418544  0.08242168  0.94157028  1
  O2-  O195  1  0.02936615  0.58541298  0.26549774  1
  O2-  O196  1  0.04539098  0.58660362  0.60167017  1
  O2-  O197  1  0.03211102  0.58735888  0.92745007  1
  O2-  O198  1  0.55109120  0.07974257  0.26579800  1
  O2-  O199  1  0.55045839  0.07740238  0.60047092  1
  O2-  O200  1  0.55359565  0.08562097  0.93938039  1
  O2-  O201  1  0.55515404  0.57633781  0.26930799  1
  O2-  O202  1  0.54385017  0.58795113  0.60401979  1
  O2-  O203  1  0.54573249  0.57581420  0.93127624  1
  O2-  O204  1  0.16274597  0.20289237  0.27359633  1
  O2-  O205  1  0.16697840  0.19700038  0.60641835  1
  O2-  O206  1  0.16668506  0.19887321  0.93895913  1
  O2-  O207  1  0.16509378  0.70377587  0.26552034  1
  O2-  O208  1  0.16692588  0.70508542  0.60219143  1
  O2-  O209  1  0.16831187  0.70383970  0.92904569  1
  O2-  O210  1  0.66962535  0.21376732  0.26235144  1
  O2-  O211  1  0.66779781  0.21115584  0.59939473  1
  O2-  O212  1  0.66124451  0.21501935  0.93792323  1
  O2-  O213  1  0.67098661  0.70971932  0.26700270  1
  O2-  O214  1  0.66400000  0.70545601  0.60328899  1
  O2-  O215  1  0.67100335  0.70547006  0.92872157  1
  O2-  O216  1  0.07493089  0.46001203  0.06374273  1
  O2-  O217  1  0.08172967  0.46588261  0.40288937  1
  O2-  O218  1  0.08149920  0.46171772  0.73374821  1
  O2-  O219  1  0.08206765  0.95441339  0.07286544  1
  O2-  O220  1  0.08397218  0.95673537  0.39735649  1
  O2-  O221  1  0.08489470  0.95938834  0.73326175  1
  O2-  O222  1  0.58646518  0.45250998  0.06394445  1
  O2-  O223  1  0.58487651  0.45012488  0.39431694  1
  O2-  O224  1  0.58367547  0.46162560  0.73459909  1
  O2-  O225  1  0.58682310  0.95270945  0.06301140  1
  O2-  O226  1  0.59034527  0.95578454  0.39637512  1
  O2-  O227  1  0.58194840  0.94708287  0.72873759  1
  O2-  O228  1  0.19971634  0.33001481  0.06631522  1
  O2-  O229  1  0.20204197  0.33215869  0.40264386  1
  O2-  O230  1  0.20241901  0.32987280  0.73478326  1
  O2-  O231  1  0.20436147  0.82621515  0.06473821  1
  O2-  O232  1  0.19783885  0.83040729  0.39472238  1
  O2-  O233  1  0.21069722  0.83206258  0.73193124  1
  O2-  O234  1  0.71237596  0.34003826  0.06681357  1
  O2-  O235  1  0.71481145  0.34013319  0.39693289  1
  O2-  O236  1  0.71181576  0.33503091  0.73431952  1
  O2-  O237  1  0.70706270  0.83285957  0.06350103  1
  O2-  O238  1  0.71095757  0.83862178  0.39774394  1
  O2-  O239  1  0.70474925  0.83203066  0.73032689  1
  O2-  O240  1  0.45491853  0.41714270  0.26342398  1
  O2-  O241  1  0.45645674  0.42039333  0.60033292  1
  O2-  O242  1  0.45795103  0.40900895  0.93832189  1
  O2-  O243  1  0.46324479  0.91669040  0.26614834  1
  O2-  O244  1  0.45465743  0.91173037  0.60314515  1
  O2-  O245  1  0.46199897  0.91897659  0.92762536  1
  O2-  O246  1  0.95631190  0.41326287  0.27295061  1
  O2-  O247  1  0.95667933  0.42019178  0.59840606  1
  O2-  O248  1  0.95326419  0.41631836  0.92958209  1
  O2-  O249  1  0.95156165  0.92057428  0.27152684  1
  O2-  O250  1  0.96085412  0.91822284  0.59830554  1
  O2-  O251  1  0.94926741  0.92126203  0.94458350  1
  O2-  O252  1  0.32456782  0.29189626  0.26742804  1
  O2-  O253  1  0.32604113  0.29622462  0.60107989  1
  O2-  O254  1  0.33355036  0.29266813  0.94070583  1
  O2-  O255  1  0.32843421  0.79904465  0.26706689  1
  O2-  O256  1  0.33797762  0.78938773  0.60260588  1
  O2-  O257  1  0.33144437  0.79311886  0.92882225  1
  O2-  O258  1  0.83934311  0.29246596  0.27037981  1
  O2-  O259  1  0.83541536  0.28794420  0.59709004  1
  O2-  O260  1  0.83227856  0.28527575  0.93351765  1
  O2-  O261  1  0.83582788  0.79948477  0.26922228  1
  O2-  O262  1  0.83380862  0.79186453  0.59764783  1
  O2-  O263  1  0.83685355  0.79508167  0.93698827  1
  O2-  O264  1  0.42450531  0.04507683  0.06504971  1
  O2-  O265  1  0.42125865  0.04071700  0.40145459  1
  O2-  O266  1  0.41883103  0.04546315  0.72635033  1
  O2-  O267  1  0.42073808  0.54045953  0.06838148  1
  O2-  O268  1  0.41855718  0.54972533  0.39305662  1
  O2-  O269  1  0.41731294  0.55129349  0.72817859  1
  O2-  O270  1  0.91537446  0.04499789  0.07368093  1
  O2-  O271  1  0.91394167  0.04691775  0.39777217  1
  O2-  O272  1  0.91444003  0.03853493  0.73450339  1
  O2-  O273  1  0.90901798  0.54002576  0.06193278  1
  O2-  O274  1  0.90810940  0.53865893  0.39949275  1
  O2-  O275  1  0.91718304  0.55222360  0.72687181  1
  O2-  O276  1  0.29275113  0.16658390  0.07036217  1
  O2-  O277  1  0.28738541  0.16329676  0.40515428  1
  O2-  O278  1  0.29988595  0.16479721  0.72699842  1
  O2-  O279  1  0.29617020  0.66849688  0.06460951  1
  O2-  O280  1  0.29452312  0.66591414  0.39535053  1
  O2-  O281  1  0.29328793  0.66375705  0.73126130  1
  O2-  O282  1  0.78523192  0.16708370  0.07176893  1
  O2-  O283  1  0.79288635  0.16610971  0.39608798  1
  O2-  O284  1  0.78834672  0.16647210  0.73415207  1
  O2-  O285  1  0.79426378  0.66437996  0.06282192  1
  O2-  O286  1  0.79906852  0.66658101  0.39319370  1
  O2-  O287  1  0.79459476  0.66743222  0.72999142  1
