# generated using pymatgen
data_Ca2Al2SiO7
_symmetry_space_group_name_H-M   'P 1'
_cell_length_a   15.45925587
_cell_length_b   15.46148795
_cell_length_c   15.28491508
_cell_angle_alpha   89.98680928
_cell_angle_beta   90.00852051
_cell_angle_gamma   90.00832808
_symmetry_Int_Tables_number   1
_chemical_formula_structural   Ca2Al2SiO7
_chemical_formula_sum   'Ca48 Al48 Si24 O168'
_cell_volume   3653.44758416
_cell_formula_units_Z   24
loop_
 _symmetry_equiv_pos_site_id
 _symmetry_equiv_pos_as_xyz
  1  'x, y, z'
loop_
 _atom_type_symbol
 _atom_type_oxidation_number
  Ca2+  2.0
  Al0+  0.0
  Si0+  0.0
  O2-  -2.0
loop_
 _atom_site_type_symbol
 _atom_site_label
 _atom_site_symmetry_multiplicity
 _atom_site_fract_x
 _atom_site_fract_y
 _atom_site_fract_z
 _atom_site_occupancy
  Ca2+  Ca0  1  0.16753032  0.07804088  0.17726368  1
  Ca2+  Ca1  1  0.16584826  0.06973542  0.50309471  1
  Ca2+  Ca2  1  0.16247389  0.07710112  0.83910717  1
  Ca2+  Ca3  1  0.17392307  0.59575625  0.17174145  1
  Ca2+  Ca4  1  0.17584706  0.59262767  0.50393524  1
  Ca2+  Ca5  1  0.17593246  0.59366814  0.83594761  1
  Ca2+  Ca6  1  0.67333239  0.08846217  0.17300909  1
  Ca2+  Ca7  1  0.66914186  0.08857357  0.49609830  1
  Ca2+  Ca8  1  0.67249786  0.08409013  0.84365866  1
  Ca2+  Ca9  1  0.67164020  0.57145464  0.17794707  1
  Ca2+  Ca10  1  0.67084539  0.57810757  0.50756394  1
  Ca2+  Ca11  1  0.66246498  0.57313342  0.83518100  1
  Ca2+  Ca12  1  0.07324916  0.32892203  0.16292164  1
  Ca2+  Ca13  1  0.07189580  0.33659366  0.49151524  1
  Ca2+  Ca14  1  0.08718423  0.32429911  0.83017327  1
  Ca2+  Ca15  1  0.08083751  0.82719509  0.16335376  1
  Ca2+  Ca16  1  0.08925668  0.82656313  0.49758538  1
  Ca2+  Ca17  1  0.07873333  0.82564388  0.83074931  1
  Ca2+  Ca18  1  0.59240809  0.32614787  0.16498596  1
  Ca2+  Ca19  1  0.58261344  0.33728439  0.49483972  1
  Ca2+  Ca20  1  0.58473560  0.33578199  0.83034065  1
  Ca2+  Ca21  1  0.58256821  0.82627045  0.16646512  1
  Ca2+  Ca22  1  0.58427677  0.81764698  0.49392338  1
  Ca2+  Ca23  1  0.57904756  0.82505487  0.82496399  1
  Ca2+  Ca24  1  0.32853829  0.42681375  0.17057961  1
  Ca2+  Ca25  1  0.33792553  0.42550104  0.50419726  1
  Ca2+  Ca26  1  0.33896898  0.42650270  0.83475902  1
  Ca2+  Ca27  1  0.32511753  0.92384528  0.17902502  1
  Ca2+  Ca28  1  0.32383712  0.91848807  0.49954640  1
  Ca2+  Ca29  1  0.32444464  0.91234710  0.83551425  1
  Ca2+  Ca30  1  0.82524253  0.41679039  0.17557206  1
  Ca2+  Ca31  1  0.82516398  0.42473726  0.49942558  1
  Ca2+  Ca32  1  0.82330141  0.42266301  0.83467677  1
  Ca2+  Ca33  1  0.84346784  0.92772165  0.16731473  1
  Ca2+  Ca34  1  0.83621146  0.92429971  0.49979911  1
  Ca2+  Ca35  1  0.83546224  0.91951756  0.84065027  1
  Ca2+  Ca36  1  0.42782574  0.16235637  0.16265299  1
  Ca2+  Ca37  1  0.42025913  0.17448789  0.49068592  1
  Ca2+  Ca38  1  0.42487979  0.17651262  0.82569840  1
  Ca2+  Ca39  1  0.41808146  0.65809150  0.16855783  1
  Ca2+  Ca40  1  0.42604766  0.65576495  0.49613037  1
  Ca2+  Ca41  1  0.41951135  0.65851526  0.82649270  1
  Ca2+  Ca42  1  0.91235359  0.16965185  0.16217854  1
  Ca2+  Ca43  1  0.91271593  0.17517291  0.49024970  1
  Ca2+  Ca44  1  0.91918888  0.16353903  0.83617268  1
  Ca2+  Ca45  1  0.92729636  0.66744700  0.16093247  1
  Ca2+  Ca46  1  0.92605889  0.65588562  0.49181553  1
  Ca2+  Ca47  1  0.92567111  0.66440890  0.82564382  1
  Al0+  Al48  1  -0.00074751  -0.00020219  -0.00290462  1
  Al0+  Al49  1  -0.00023088  -0.00111193  0.34406119  1
  Al0+  Al50  1  0.00123703  -0.00146258  0.67086673  1
  Al0+  Al51  1  0.00124620  0.49878739  -0.00643594  1
  Al0+  Al52  1  -0.00053776  0.49922371  0.32327089  1
  Al0+  Al53  1  0.00091104  0.49807562  0.66676579  1
  Al0+  Al54  1  0.50038671  -0.00077015  -0.00605723  1
  Al0+  Al55  1  0.49984496  0.00023528  0.33438548  1
  Al0+  Al56  1  0.50064490  0.00074429  0.66570016  1
  Al0+  Al57  1  0.49890780  0.49895969  0.01030522  1
  Al0+  Al58  1  0.49826750  0.49840808  0.33351465  1
  Al0+  Al59  1  0.49980291  0.49834731  0.66636185  1
  Al0+  Al60  1  0.25052544  0.25184973  -0.00391783  1
  Al0+  Al61  1  0.24993044  0.25118722  0.33590856  1
  Al0+  Al62  1  0.25216853  0.24890334  0.66035073  1
  Al0+  Al63  1  0.25043587  0.75157075  0.00228190  1
  Al0+  Al64  1  0.25055682  0.75095186  0.33775636  1
  Al0+  Al65  1  0.24865815  0.75236820  0.67220972  1
  Al0+  Al66  1  0.74960801  0.24908048  0.00095655  1
  Al0+  Al67  1  0.74887094  0.25075133  0.33430548  1
  Al0+  Al68  1  0.75151796  0.24980170  0.67122147  1
  Al0+  Al69  1  0.74834967  0.75000276  -0.00356533  1
  Al0+  Al70  1  0.75170884  0.75135484  0.32932870  1
  Al0+  Al71  1  0.75204473  0.75279052  0.66601148  1
  Al0+  Al72  1  0.56868245  0.17980965  0.31985324  1
  Al0+  Al73  1  0.18044648  0.93095385  0.68529263  1
  Al0+  Al74  1  0.92817421  0.82059478  0.98498136  1
  Al0+  Al75  1  0.57233337  0.67669517  0.31888459  1
  Al0+  Al76  1  0.82319568  0.57361748  0.34436871  1
  Al0+  Al77  1  0.67930045  0.42969935  0.34890962  1
  Al0+  Al78  1  0.81918742  0.07057058  0.34702235  1
  Al0+  Al79  1  0.07159844  0.17989855  0.98805432  1
  Al0+  Al80  1  0.92848585  0.31992887  0.31919156  1
  Al0+  Al81  1  0.43058755  0.32038821  0.65206389  1
  Al0+  Al82  1  0.67934748  0.43005619  0.68251549  1
  Al0+  Al83  1  0.31770499  0.57111024  0.01541324  1
  Al0+  Al84  1  0.81957304  0.06755594  0.01356757  1
  Al0+  Al85  1  0.31836608  0.56943691  0.34850243  1
  Al0+  Al86  1  0.68086423  0.43066579  0.01590807  1
  Al0+  Al87  1  0.07274137  0.67859713  0.98313727  1
  Al0+  Al88  1  0.31890923  0.56894512  0.67964116  1
  Al0+  Al89  1  0.17862190  0.92957167  0.34918332  1
  Al0+  Al90  1  0.07013396  0.67912987  0.65158644  1
  Al0+  Al91  1  0.32378819  0.07401112  0.34799319  1
  Al0+  Al92  1  0.57051442  0.67994490  0.65456052  1
  Al0+  Al93  1  0.82399978  0.57341449  0.68145113  1
  Al0+  Al94  1  0.57141976  0.17915284  0.98526675  1
  Al0+  Al95  1  0.07139559  0.68065461  0.31995260  1
  Si0+  Si96  1  0.82443486  0.57393178  0.01513273  1
  Si0+  Si97  1  0.57465382  0.17706425  0.64953827  1
  Si0+  Si98  1  0.92629062  0.32120516  0.98078966  1
  Si0+  Si99  1  0.42929783  0.82054041  0.31774992  1
  Si0+  Si100  1  0.92924611  0.31896841  0.65208531  1
  Si0+  Si101  1  0.42492384  0.32296943  0.31369252  1
  Si0+  Si102  1  0.42698894  0.82395716  0.64988382  1
  Si0+  Si103  1  0.17688161  0.42435440  0.68215428  1
  Si0+  Si104  1  0.17627898  0.42471167  0.01599189  1
  Si0+  Si105  1  0.67612536  0.92658113  0.34991868  1
  Si0+  Si106  1  0.42926813  0.82183803  0.98536781  1
  Si0+  Si107  1  0.32338089  0.07363750  0.68496926  1
  Si0+  Si108  1  0.92862663  0.82397548  0.64781288  1
  Si0+  Si109  1  0.42886887  0.32286608  0.98385831  1
  Si0+  Si110  1  0.18029457  0.93196044  0.01589899  1
  Si0+  Si111  1  0.17567487  0.42691589  0.34835033  1
  Si0+  Si112  1  0.07066994  0.17659579  0.65085620  1
  Si0+  Si113  1  0.56818272  0.67688450  0.98658883  1
  Si0+  Si114  1  0.92773586  0.82569459  0.31739352  1
  Si0+  Si115  1  0.07121281  0.17646655  0.32074497  1
  Si0+  Si116  1  0.67774683  0.92862604  0.68115260  1
  Si0+  Si117  1  0.32258214  0.07285465  0.01199589  1
  Si0+  Si118  1  0.82007579  0.07035045  0.68310838  1
  Si0+  Si119  1  0.67420173  0.92562225  0.01633574  1
  O2-  O120  1  0.24980149  0.00519700  0.05667676  1
  O2-  O121  1  0.24918444  0.00466426  0.39740077  1
  O2-  O122  1  0.25571767  0.00575603  0.73217581  1
  O2-  O123  1  0.23841763  0.49951831  0.05980137  1
  O2-  O124  1  0.24336815  0.49503974  0.39436145  1
  O2-  O125  1  0.24338374  0.49488994  0.72682761  1
  O2-  O126  1  0.74456243  -0.00729099  0.05990403  1
  O2-  O127  1  0.74542494  -0.00491956  0.39419438  1
  O2-  O128  1  0.74716845  0.00084963  0.72398760  1
  O2-  O129  1  0.75740623  0.50456560  0.06016155  1
  O2-  O130  1  0.74638758  0.50779633  0.39598837  1
  O2-  O131  1  0.74839310  0.50540348  0.73235159  1
  O2-  O132  1  0.00332680  0.24384413  0.27419096  1
  O2-  O133  1  0.00235118  0.24969941  0.60920690  1
  O2-  O134  1  -0.00046177  0.25584619  0.93783706  1
  O2-  O135  1  -0.00663710  0.75319874  0.27505185  1
  O2-  O136  1  -0.00841743  0.75010871  0.60439876  1
  O2-  O137  1  -0.00511545  0.74458613  0.93339832  1
  O2-  O138  1  0.49191648  0.25168218  0.27107960  1
  O2-  O139  1  0.50529366  0.24484510  0.60660048  1
  O2-  O140  1  0.49684328  0.25363665  0.93896672  1
  O2-  O141  1  0.49745629  0.75207735  0.27194651  1
  O2-  O142  1  0.49571737  0.75495829  0.60704904  1
  O2-  O143  1  0.49947364  0.74993920  0.94361109  1
  O2-  O144  1  0.07186491  0.17995036  0.10092181  1
  O2-  O145  1  0.06855121  0.17864039  0.42664419  1
  O2-  O146  1  0.06916607  0.17656279  0.75632528  1
  O2-  O147  1  0.07516549  0.68387439  0.09666450  1
  O2-  O148  1  0.07227324  0.68144990  0.43303847  1
  O2-  O149  1  0.07117463  0.68259300  0.76454631  1
  O2-  O150  1  0.57004618  0.17741463  0.09800249  1
  O2-  O151  1  0.56875672  0.18159605  0.43310076  1
  O2-  O152  1  0.57427072  0.17534729  0.75528905  1
  O2-  O153  1  0.56704179  0.67844887  0.09156666  1
  O2-  O154  1  0.57109645  0.67823650  0.43208774  1
  O2-  O155  1  0.56709338  0.68161358  0.76845711  1
  O2-  O156  1  0.17810753  0.42389326  0.24272850  1
  O2-  O157  1  0.17588457  0.42285707  0.57679340  1
  O2-  O158  1  0.18047226  0.41907594  0.91066425  1
  O2-  O159  1  0.17908800  0.93131854  0.23489897  1
  O2-  O160  1  0.17990903  0.93253565  0.57277601  1
  O2-  O161  1  0.18251955  0.93187553  0.91069141  1
  O2-  O162  1  0.68248849  0.42798154  0.23511678  1
  O2-  O163  1  0.68133207  0.42760813  0.56961681  1
  O2-  O164  1  0.67885728  0.43250832  0.90276900  1
  O2-  O165  1  0.67383042  0.92730872  0.24440837  1
  O2-  O166  1  0.67774912  0.92899548  0.57632979  1
  O2-  O167  1  0.67180802  0.92744034  0.91041030  1
  O2-  O168  1  0.42676243  0.32091027  0.08902715  1
  O2-  O169  1  0.42560124  0.32311408  0.41938479  1
  O2-  O170  1  0.43069286  0.31873493  0.76558320  1
  O2-  O171  1  0.42974035  0.82563821  0.09012304  1
  O2-  O172  1  0.43083694  0.82059042  0.42323062  1
  O2-  O173  1  0.42973307  0.82570739  0.75612115  1
  O2-  O174  1  0.92598586  0.31884492  0.08631419  1
  O2-  O175  1  0.92972451  0.31854782  0.43288152  1
  O2-  O176  1  0.92911140  0.31576548  0.75720422  1
  O2-  O177  1  0.93307599  0.82380344  0.09841987  1
  O2-  O178  1  0.92836477  0.82952574  0.42277389  1
  O2-  O179  1  0.93116020  0.82845950  0.75321684  1
  O2-  O180  1  0.32303217  0.07057733  0.23339623  1
  O2-  O181  1  0.32176140  0.07247054  0.57984595  1
  O2-  O182  1  0.32178572  0.06978169  0.90688877  1
  O2-  O183  1  0.31654093  0.56927813  0.23517720  1
  O2-  O184  1  0.31905544  0.56807148  0.56692946  1
  O2-  O185  1  0.32069956  0.56946772  0.90222797  1
  O2-  O186  1  0.82035070  0.06916666  0.23411597  1
  O2-  O187  1  0.82035280  0.07156031  0.57808557  1
  O2-  O188  1  0.81841205  0.06640473  0.89984350  1
  O2-  O189  1  0.82326421  0.57040443  0.23044653  1
  O2-  O190  1  0.82473473  0.56949753  0.56823671  1
  O2-  O191  1  0.82178622  0.57294746  0.90951946  1
  O2-  O192  1  0.04604118  0.08164625  0.27776531  1
  O2-  O193  1  0.03870391  0.08571356  0.60471979  1
  O2-  O194  1  0.03815022  0.08534392  0.93138517  1
  O2-  O195  1  0.04532250  0.58437363  0.26283773  1
  O2-  O196  1  0.04604788  0.57911304  0.60073575  1
  O2-  O197  1  0.05440937  0.57685021  0.93203248  1
  O2-  O198  1  0.54182811  0.08130591  0.26629322  1
  O2-  O199  1  0.55094160  0.08254965  0.60384723  1
  O2-  O200  1  0.54151609  0.08251264  0.92938582  1
  O2-  O201  1  0.53799714  0.58126669  0.26480503  1
  O2-  O202  1  0.53894545  0.58401984  0.60146500  1
  O2-  O203  1  0.53553942  0.58577825  0.94108272  1
  O2-  O204  1  0.16597213  0.19995916  0.27582461  1
  O2-  O205  1  0.16392965  0.19891303  0.60474071  1
  O2-  O206  1  0.16833638  0.20813499  0.93062608  1
  O2-  O207  1  0.16759761  0.71623680  0.26721852  1
  O2-  O208  1  0.16693248  0.71595365  0.60127778  1
  O2-  O209  1  0.17005930  0.71510420  0.93177655  1
  O2-  O210  1  0.66480470  0.21222120  0.26623205  1
  O2-  O211  1  0.66937941  0.20269121  0.60603180  1
  O2-  O212  1  0.66780373  0.20986888  0.93102073  1
  O2-  O213  1  0.66829583  0.70848496  0.26345195  1
  O2-  O214  1  0.66739780  0.71235788  0.60168807  1
  O2-  O215  1  0.66062006  0.70088598  0.93864595  1
  O2-  O216  1  0.07910068  0.44287772  0.05756943  1
  O2-  O217  1  0.08130745  0.45243874  0.39129131  1
  O2-  O218  1  0.08296452  0.44523164  0.72917436  1
  O2-  O219  1  0.08823402  0.95965127  0.06112160  1
  O2-  O220  1  0.08252472  0.95618647  0.40754018  1
  O2-  O221  1  0.08437371  0.96428043  0.73979247  1
  O2-  O222  1  0.58535490  0.46051147  0.07172089  1
  O2-  O223  1  0.57870376  0.45281161  0.39814892  1
  O2-  O224  1  0.58084129  0.45738046  0.73575627  1
  O2-  O225  1  0.58065144  0.95269917  0.06198160  1
  O2-  O226  1  0.58388363  0.95257110  0.39802559  1
  O2-  O227  1  0.58480139  0.95395467  0.72905124  1
  O2-  O228  1  0.20736216  0.33355620  0.06522667  1
  O2-  O229  1  0.19810535  0.33336043  0.39665282  1
  O2-  O230  1  0.20511481  0.33018159  0.72715225  1
  O2-  O231  1  0.21127048  0.84180009  0.06375326  1
  O2-  O232  1  0.21310137  0.83465857  0.40450842  1
  O2-  O233  1  0.21226561  0.83620787  0.74175189  1
  O2-  O234  1  0.71172664  0.33309310  0.06710404  1
  O2-  O235  1  0.71198709  0.33362510  0.40286126  1
  O2-  O236  1  0.71108281  0.33192010  0.73640242  1
  O2-  O237  1  0.69646030  0.83052223  0.06097319  1
  O2-  O238  1  0.70293214  0.83336878  0.39585971  1
  O2-  O239  1  0.70577627  0.83842891  0.73143799  1
  O2-  O240  1  0.45172514  0.41541704  0.26674430  1
  O2-  O241  1  0.46141632  0.41573992  0.59695658  1
  O2-  O242  1  0.45832203  0.41651619  0.93983414  1
  O2-  O243  1  0.45464735  0.91412970  0.27077700  1
  O2-  O244  1  0.45233517  0.91792008  0.60378829  1
  O2-  O245  1  0.45637155  0.91157259  0.93270779  1
  O2-  O246  1  0.96017803  0.41288763  0.25902309  1
  O2-  O247  1  0.95603577  0.41031823  0.60414778  1
  O2-  O248  1  0.94696945  0.41574189  0.93476703  1
  O2-  O249  1  0.95981321  0.91828678  0.27166089  1
  O2-  O250  1  0.96102696  0.91632294  0.60161940  1
  O2-  O251  1  0.96113322  0.91695039  0.92964228  1
  O2-  O252  1  0.32959236  0.30041289  0.26875109  1
  O2-  O253  1  0.33425655  0.29114275  0.59544967  1
  O2-  O254  1  0.33576451  0.29928694  0.93534643  1
  O2-  O255  1  0.33599159  0.79457886  0.27140552  1
  O2-  O256  1  0.33270532  0.79921511  0.60715729  1
  O2-  O257  1  0.33749533  0.79402456  0.93818614  1
  O2-  O258  1  0.83356655  0.28589352  0.26512974  1
  O2-  O259  1  0.83863744  0.28652011  0.60508490  1
  O2-  O260  1  0.83566572  0.28883276  0.93322391  1
  O2-  O261  1  0.83307558  0.80833263  0.27019911  1
  O2-  O262  1  0.83224141  0.80849024  0.60403946  1
  O2-  O263  1  0.82610438  0.80169139  0.93349239  1
  O2-  O264  1  0.41391973  0.04111902  0.05810529  1
  O2-  O265  1  0.42046701  0.04305821  0.40269985  1
  O2-  O266  1  0.41864292  0.04938889  0.72950624  1
  O2-  O267  1  0.41173374  0.53695912  0.07217418  1
  O2-  O268  1  0.41475610  0.53705891  0.40101060  1
  O2-  O269  1  0.41457903  0.53589865  0.73423824  1
  O2-  O270  1  0.91700651  0.03771147  0.06681696  1
  O2-  O271  1  0.91409647  0.04179820  0.40552431  1
  O2-  O272  1  0.91138395  0.04043066  0.73031038  1
  O2-  O273  1  0.92061886  0.55046703  0.05695854  1
  O2-  O274  1  0.92050316  0.53793669  0.39520664  1
  O2-  O275  1  0.92061111  0.53868884  0.73552112  1
  O2-  O276  1  0.29937811  0.16651549  0.05699127  1
  O2-  O277  1  0.29934846  0.17352595  0.40015943  1
  O2-  O278  1  0.29755652  0.16788730  0.72958508  1
  O2-  O279  1  0.29117536  0.66944898  0.06912037  1
  O2-  O280  1  0.29075272  0.66627497  0.40227338  1
  O2-  O281  1  0.29143381  0.66644116  0.73409077  1
  O2-  O282  1  0.78936752  0.16437065  0.06605113  1
  O2-  O283  1  0.78565802  0.16509246  0.40265063  1
  O2-  O284  1  0.79451440  0.16147316  0.73273946  1
  O2-  O285  1  0.79886290  0.66845649  0.05907267  1
  O2-  O286  1  0.80461114  0.67554475  0.39373195  1
  O2-  O287  1  0.80239800  0.67529770  0.73057856  1
