# generated using pymatgen
data_Ca2Al2SiO7
_symmetry_space_group_name_H-M   'P 1'
_cell_length_a   15.46109346
_cell_length_b   15.45949560
_cell_length_c   15.28484488
_cell_angle_alpha   90.01233730
_cell_angle_beta   89.97694396
_cell_angle_gamma   89.98650382
_symmetry_Int_Tables_number   1
_chemical_formula_structural   Ca2Al2SiO7
_chemical_formula_sum   'Ca48 Al48 Si24 O168'
_cell_volume   3653.39393575
_cell_formula_units_Z   24
loop_
 _symmetry_equiv_pos_site_id
 _symmetry_equiv_pos_as_xyz
  1  'x, y, z'
loop_
 _atom_type_symbol
 _atom_type_oxidation_number
  Ca2+  2.0
  Al0+  0.0
  Si0+  0.0
  O2-  -2.0
loop_
 _atom_site_type_symbol
 _atom_site_label
 _atom_site_symmetry_multiplicity
 _atom_site_fract_x
 _atom_site_fract_y
 _atom_site_fract_z
 _atom_site_occupancy
  Ca2+  Ca0  1  0.16799001  0.09598170  0.16543157  1
  Ca2+  Ca1  1  0.16193260  0.08715168  0.50118405  1
  Ca2+  Ca2  1  0.17148424  0.08611671  0.84202140  1
  Ca2+  Ca3  1  0.17491759  0.58533851  0.16754659  1
  Ca2+  Ca4  1  0.16502071  0.57558489  0.51206156  1
  Ca2+  Ca5  1  0.16561702  0.57758505  0.83598312  1
  Ca2+  Ca6  1  0.67117459  0.07144325  0.16650553  1
  Ca2+  Ca7  1  0.67363614  0.07556175  0.50554551  1
  Ca2+  Ca8  1  0.67991382  0.07904121  0.84225473  1
  Ca2+  Ca9  1  0.67216441  0.57487953  0.16825033  1
  Ca2+  Ca10  1  0.67827998  0.58410475  0.50529222  1
  Ca2+  Ca11  1  0.66849958  0.58063846  0.83392136  1
  Ca2+  Ca12  1  0.07036207  0.32495547  0.16293997  1
  Ca2+  Ca13  1  0.07425887  0.33274083  0.49742000  1
  Ca2+  Ca14  1  0.07458044  0.33057410  0.83122113  1
  Ca2+  Ca15  1  0.06901123  0.83349890  0.16059838  1
  Ca2+  Ca16  1  0.07009925  0.82819565  0.49963777  1
  Ca2+  Ca17  1  0.07292304  0.82714526  0.82911087  1
  Ca2+  Ca18  1  0.57594838  0.33844547  0.15835338  1
  Ca2+  Ca19  1  0.56998955  0.33825112  0.49765386  1
  Ca2+  Ca20  1  0.57290935  0.34396279  0.83206639  1
  Ca2+  Ca21  1  0.58476525  0.83587985  0.15857812  1
  Ca2+  Ca22  1  0.59337990  0.82668184  0.49836262  1
  Ca2+  Ca23  1  0.58102180  0.83307917  0.83216489  1
  Ca2+  Ca24  1  0.33764831  0.41752648  0.16751238  1
  Ca2+  Ca25  1  0.32622060  0.40963364  0.50788809  1
  Ca2+  Ca26  1  0.32858218  0.41640339  0.83984403  1
  Ca2+  Ca27  1  0.33619954  0.92402356  0.16591214  1
  Ca2+  Ca28  1  0.32753281  0.92060668  0.50505402  1
  Ca2+  Ca29  1  0.33189264  0.92122643  0.84588599  1
  Ca2+  Ca30  1  0.83388236  0.41541492  0.17065648  1
  Ca2+  Ca31  1  0.84533082  0.42588225  0.50723329  1
  Ca2+  Ca32  1  0.83440254  0.42067598  0.84009300  1
  Ca2+  Ca33  1  0.83026704  0.91546132  0.16931146  1
  Ca2+  Ca34  1  0.83699211  0.91898233  0.50499155  1
  Ca2+  Ca35  1  0.83693573  0.92408305  0.84073046  1
  Ca2+  Ca36  1  0.41715978  0.17653629  0.15804550  1
  Ca2+  Ca37  1  0.41621073  0.17795655  0.49595171  1
  Ca2+  Ca38  1  0.41632321  0.17463708  0.83267677  1
  Ca2+  Ca39  1  0.41858036  0.67284121  0.15445675  1
  Ca2+  Ca40  1  0.42702410  0.66472754  0.49922451  1
  Ca2+  Ca41  1  0.42169130  0.66644908  0.83214895  1
  Ca2+  Ca42  1  0.92419290  0.16869733  0.15618631  1
  Ca2+  Ca43  1  0.91622839  0.17761341  0.49456714  1
  Ca2+  Ca44  1  0.91034121  0.17310732  0.83050609  1
  Ca2+  Ca45  1  0.90666598  0.67549948  0.16617233  1
  Ca2+  Ca46  1  0.91200375  0.67073087  0.49719192  1
  Ca2+  Ca47  1  0.91400196  0.67731951  0.82376543  1
  Al0+  Al48  1  0.00211225  -0.00145143  -0.00428462  1
  Al0+  Al49  1  0.00156162  -0.00167089  0.32708532  1
  Al0+  Al50  1  0.00120179  -0.00063665  0.66832156  1
  Al0+  Al51  1  0.00179267  0.49920844  0.00109332  1
  Al0+  Al52  1  0.00360099  0.50001945  0.33230508  1
  Al0+  Al53  1  0.00139040  0.49938658  0.67228035  1
  Al0+  Al54  1  0.49877554  0.00067249  0.00307360  1
  Al0+  Al55  1  0.49957852  -0.00021130  0.34138600  1
  Al0+  Al56  1  0.49911319  0.00128411  0.66590543  1
  Al0+  Al57  1  0.50034781  0.50124981  0.00398113  1
  Al0+  Al58  1  0.50139854  0.50214258  0.33039070  1
  Al0+  Al59  1  0.49923695  0.50187899  0.65646475  1
  Al0+  Al60  1  0.24926337  0.25083437  -0.00217089  1
  Al0+  Al61  1  0.25153162  0.25180645  0.32717475  1
  Al0+  Al62  1  0.24926757  0.25098496  0.66801262  1
  Al0+  Al63  1  0.25129257  0.75000215  0.00044136  1
  Al0+  Al64  1  0.25140356  0.75178812  0.33704336  1
  Al0+  Al65  1  0.25016694  0.75061005  0.66380249  1
  Al0+  Al66  1  0.74909549  0.24961284  0.00650945  1
  Al0+  Al67  1  0.74586943  0.24883585  0.33184384  1
  Al0+  Al68  1  0.74744560  0.24904177  0.66518828  1
  Al0+  Al69  1  0.74953579  0.74831246  -0.00232160  1
  Al0+  Al70  1  0.74967344  0.74767842  0.33624382  1
  Al0+  Al71  1  0.74727317  0.74985247  0.66400624  1
  Al0+  Al72  1  0.31973437  0.07230470  0.01396481  1
  Al0+  Al73  1  0.82130630  0.07148707  0.67905621  1
  Al0+  Al74  1  0.67954354  0.42945884  0.01193192  1
  Al0+  Al75  1  0.56932354  0.68051227  0.65196854  1
  Al0+  Al76  1  0.67965784  0.92898547  0.34899068  1
  Al0+  Al77  1  0.92668111  0.32028273  0.65498372  1
  Al0+  Al78  1  0.92648263  0.32364968  0.31943536  1
  Al0+  Al79  1  0.42879679  0.31944540  0.65358301  1
  Al0+  Al80  1  0.92886838  0.81761923  0.31896888  1
  Al0+  Al81  1  0.42943915  0.82255496  0.98802858  1
  Al0+  Al82  1  0.43179683  0.32085753  0.31743201  1
  Al0+  Al83  1  0.17910569  0.42867721  0.68188807  1
  Al0+  Al84  1  0.07048161  0.17918954  0.98241792  1
  Al0+  Al85  1  0.67994776  0.92742250  0.01297559  1
  Al0+  Al86  1  0.32023688  0.57039993  0.01242916  1
  Al0+  Al87  1  0.92850198  0.82159279  0.65143069  1
  Al0+  Al88  1  0.43099688  0.32250201  0.98553177  1
  Al0+  Al89  1  0.92551872  0.32134681  0.98419488  1
  Al0+  Al90  1  0.82103098  0.56628769  0.34674378  1
  Al0+  Al91  1  0.07165159  0.67753831  0.65296350  1
  Al0+  Al92  1  0.06967853  0.17896099  0.31880694  1
  Al0+  Al93  1  0.82045815  0.57048886  0.68091667  1
  Al0+  Al94  1  0.82440861  0.07048192  0.01630812  1
  Al0+  Al95  1  0.92756260  0.81838875  0.98582703  1
  Si0+  Si96  1  0.32343773  0.57413925  0.35015049  1
  Si0+  Si97  1  0.07438732  0.67780545  0.98490266  1
  Si0+  Si98  1  0.57137478  0.17709146  0.98421319  1
  Si0+  Si99  1  0.67534536  0.42625873  0.35124827  1
  Si0+  Si100  1  0.07586031  0.67741783  0.31670891  1
  Si0+  Si101  1  0.17761981  0.42754983  0.02019170  1
  Si0+  Si102  1  0.67504293  0.42847670  0.68039446  1
  Si0+  Si103  1  0.18391945  0.43050904  0.34788363  1
  Si0+  Si104  1  0.57116680  0.67794352  0.98358925  1
  Si0+  Si105  1  0.32050483  0.07116891  0.68134343  1
  Si0+  Si106  1  0.17919057  0.92674454  0.01763919  1
  Si0+  Si107  1  0.18004589  0.92795863  0.68230478  1
  Si0+  Si108  1  0.57050533  0.68141518  0.31600869  1
  Si0+  Si109  1  0.32367704  0.57274660  0.68172039  1
  Si0+  Si110  1  0.07203580  0.17832563  0.65140903  1
  Si0+  Si111  1  0.57028332  0.17388586  0.31622847  1
  Si0+  Si112  1  0.57151918  0.17544775  0.64886453  1
  Si0+  Si113  1  0.42772331  0.82196273  0.31938623  1
  Si0+  Si114  1  0.82425255  0.07140806  0.34925080  1
  Si0+  Si115  1  0.31896175  0.07202254  0.34950717  1
  Si0+  Si116  1  0.82416670  0.57155588  0.01555733  1
  Si0+  Si117  1  0.67667304  0.92799607  0.68383786  1
  Si0+  Si118  1  0.42728725  0.82543468  0.64872937  1
  Si0+  Si119  1  0.17782838  0.92776704  0.34964042  1
  O2-  O120  1  0.24469855  -0.00143113  0.06249850  1
  O2-  O121  1  0.24648379  0.00217338  0.39177313  1
  O2-  O122  1  0.25232589  -0.00194462  0.72360242  1
  O2-  O123  1  0.24654325  0.49717589  0.06333934  1
  O2-  O124  1  0.25312548  0.50305201  0.39235070  1
  O2-  O125  1  0.25351067  0.50595576  0.72549078  1
  O2-  O126  1  0.75435845  -0.00452767  0.06516678  1
  O2-  O127  1  0.75504210  0.00343500  0.39478754  1
  O2-  O128  1  0.74750973  -0.00496438  0.72553773  1
  O2-  O129  1  0.75993864  0.49816459  0.05878867  1
  O2-  O130  1  0.75218360  0.48576199  0.39482713  1
  O2-  O131  1  0.74785172  0.49222123  0.72515897  1
  O2-  O132  1  -0.00861311  0.24475033  0.27044254  1
  O2-  O133  1  -0.00007487  0.24352468  0.60824061  1
  O2-  O134  1  -0.00531044  0.24714736  0.93293182  1
  O2-  O135  1  0.00467147  0.74319891  0.27259580  1
  O2-  O136  1  -0.00322226  0.74555148  0.60131526  1
  O2-  O137  1  0.00080225  0.74112820  0.94144303  1
  O2-  O138  1  0.50828557  0.24826726  0.27134086  1
  O2-  O139  1  0.50383957  0.24594699  0.60536012  1
  O2-  O140  1  0.50658961  0.24914068  0.93841782  1
  O2-  O141  1  0.49844785  0.75206433  0.27551190  1
  O2-  O142  1  0.49634818  0.75746481  0.60424406  1
  O2-  O143  1  0.50520558  0.75005664  0.94070328  1
  O2-  O144  1  0.07136582  0.18340043  0.09600203  1
  O2-  O145  1  0.07180392  0.18126379  0.43292608  1
  O2-  O146  1  0.07575237  0.17943680  0.75626764  1
  O2-  O147  1  0.07747488  0.68096526  0.09082374  1
  O2-  O148  1  0.07851940  0.67875258  0.42198917  1
  O2-  O149  1  0.07409986  0.68224287  0.76638656  1
  O2-  O150  1  0.56679673  0.17633313  0.08997048  1
  O2-  O151  1  0.56596681  0.17239365  0.42206499  1
  O2-  O152  1  0.56887644  0.17120625  0.75390033  1
  O2-  O153  1  0.56978406  0.67726078  0.08955153  1
  O2-  O154  1  0.56879117  0.68097834  0.42122300  1
  O2-  O155  1  0.56611932  0.67917804  0.76481507  1
  O2-  O156  1  0.18687737  0.43266082  0.24311825  1
  O2-  O157  1  0.18242321  0.42623538  0.56797679  1
  O2-  O158  1  0.17778040  0.42873898  0.91459870  1
  O2-  O159  1  0.18135859  0.92210679  0.24538906  1
  O2-  O160  1  0.18130366  0.92923317  0.57665913  1
  O2-  O161  1  0.18341288  0.92470992  0.91177749  1
  O2-  O162  1  0.66966856  0.43239328  0.24600933  1
  O2-  O163  1  0.67226827  0.43136920  0.57473309  1
  O2-  O164  1  0.67482099  0.43556449  0.89892414  1
  O2-  O165  1  0.67713978  0.92948966  0.23644068  1
  O2-  O166  1  0.67490177  0.93050232  0.57786876  1
  O2-  O167  1  0.67875920  0.92926214  0.89944011  1
  O2-  O168  1  0.43300525  0.32189292  0.09874809  1
  O2-  O169  1  0.42915486  0.31874488  0.43092301  1
  O2-  O170  1  0.42977603  0.31960554  0.76630657  1
  O2-  O171  1  0.42979919  0.82049034  0.10169964  1
  O2-  O172  1  0.42551183  0.81983393  0.42460092  1
  O2-  O173  1  0.42711181  0.82774410  0.75397723  1
  O2-  O174  1  0.92852526  0.32254046  0.09782399  1
  O2-  O175  1  0.93216012  0.32500516  0.43331035  1
  O2-  O176  1  0.92645654  0.31971603  0.76743577  1
  O2-  O177  1  0.92713189  0.81581775  0.09941313  1
  O2-  O178  1  0.93042951  0.81801278  0.43179205  1
  O2-  O179  1  0.93150357  0.82207248  0.76479365  1
  O2-  O180  1  0.32074241  0.07053073  0.24487925  1
  O2-  O181  1  0.31922763  0.07081703  0.57565871  1
  O2-  O182  1  0.31971754  0.07015195  0.90039489  1
  O2-  O183  1  0.32289597  0.57678528  0.24524531  1
  O2-  O184  1  0.32369959  0.57138410  0.57551992  1
  O2-  O185  1  0.31962735  0.56933569  0.89944329  1
  O2-  O186  1  0.82360450  0.06884639  0.24417225  1
  O2-  O187  1  0.81974989  0.07116302  0.56543882  1
  O2-  O188  1  0.82127995  0.06987025  0.90239836  1
  O2-  O189  1  0.81567372  0.56888434  0.23365038  1
  O2-  O190  1  0.81914570  0.57018205  0.56748040  1
  O2-  O191  1  0.82225092  0.57375059  0.91010515  1
  O2-  O192  1  0.05217801  0.07824865  0.26626693  1
  O2-  O193  1  0.05131250  0.08312195  0.60662712  1
  O2-  O194  1  0.05236607  0.07766368  0.93225620  1
  O2-  O195  1  0.05514227  0.58323071  0.27071588  1
  O2-  O196  1  0.04811241  0.57727622  0.60280766  1
  O2-  O197  1  0.05500753  0.58179305  0.94242225  1
  O2-  O198  1  0.53718275  0.08216720  0.27087237  1
  O2-  O199  1  0.54262258  0.08350544  0.59951194  1
  O2-  O200  1  0.54078231  0.08593433  0.93654900  1
  O2-  O201  1  0.54247588  0.59000191  0.26816657  1
  O2-  O202  1  0.53718594  0.58723193  0.59147820  1
  O2-  O203  1  0.53904802  0.58728258  0.93649675  1
  O2-  O204  1  0.16637284  0.21285518  0.26555371  1
  O2-  O205  1  0.16436901  0.20696341  0.60350852  1
  O2-  O206  1  0.16813090  0.21089874  0.92960127  1
  O2-  O207  1  0.16941313  0.70704627  0.27140794  1
  O2-  O208  1  0.16994631  0.70715590  0.59810210  1
  O2-  O209  1  0.16553671  0.70764313  0.93671168  1
  O2-  O210  1  0.66619782  0.19101208  0.27243953  1
  O2-  O211  1  0.66431244  0.19950820  0.60106854  1
  O2-  O212  1  0.66661615  0.19890400  0.94158574  1
  O2-  O213  1  0.66143541  0.70971646  0.26893440  1
  O2-  O214  1  0.66442673  0.71096093  0.59473965  1
  O2-  O215  1  0.66474457  0.69964573  0.93660196  1
  O2-  O216  1  0.08470808  0.45401649  0.06792823  1
  O2-  O217  1  0.09164049  0.45638037  0.39532457  1
  O2-  O218  1  0.08487837  0.45856746  0.73981684  1
  O2-  O219  1  0.08456994  0.94918763  0.06174621  1
  O2-  O220  1  0.08563935  0.95426242  0.39701765  1
  O2-  O221  1  0.08937329  0.95575695  0.73083683  1
  O2-  O222  1  0.58666127  0.46709896  0.07028722  1
  O2-  O223  1  0.58482573  0.46259866  0.39910012  1
  O2-  O224  1  0.58269541  0.46176390  0.72555495  1
  O2-  O225  1  0.58240676  0.95840756  0.06721015  1
  O2-  O226  1  0.58300067  0.95852880  0.40590216  1
  O2-  O227  1  0.58218577  0.95498161  0.72835076  1
  O2-  O228  1  0.20621445  0.33512506  0.06538707  1
  O2-  O229  1  0.21534338  0.33926344  0.39471041  1
  O2-  O230  1  0.21348401  0.33354191  0.73661381  1
  O2-  O231  1  0.20820538  0.83513116  0.06572683  1
  O2-  O232  1  0.21051032  0.83870802  0.40117762  1
  O2-  O233  1  0.20817636  0.83618785  0.72939926  1
  O2-  O234  1  0.70036004  0.33214336  0.06884100  1
  O2-  O235  1  0.68631485  0.32795464  0.39254117  1
  O2-  O236  1  0.69176946  0.33219213  0.72334266  1
  O2-  O237  1  0.70375276  0.82688816  0.06476299  1
  O2-  O238  1  0.71039302  0.83216305  0.40224826  1
  O2-  O239  1  0.69710182  0.83289995  0.72723128  1
  O2-  O240  1  0.45982133  0.41957247  0.26601655  1
  O2-  O241  1  0.45734927  0.41504861  0.59614518  1
  O2-  O242  1  0.46247437  0.41965560  0.93330896  1
  O2-  O243  1  0.45465698  0.91551884  0.27600047  1
  O2-  O244  1  0.45120363  0.91933638  0.60137284  1
  O2-  O245  1  0.45763625  0.91930760  0.93341296  1
  O2-  O246  1  0.96241220  0.41928700  0.26496103  1
  O2-  O247  1  0.96280276  0.41594057  0.60327925  1
  O2-  O248  1  0.95695607  0.42087085  0.93404527  1
  O2-  O249  1  0.96049519  0.91314796  0.26433381  1
  O2-  O250  1  0.96363193  0.91837034  0.59792898  1
  O2-  O251  1  0.96100507  0.91347006  0.93179831  1
  O2-  O252  1  0.33701926  0.28845129  0.26247045  1
  O2-  O253  1  0.33341616  0.28476655  0.59865210  1
  O2-  O254  1  0.33430921  0.29184332  0.93346696  1
  O2-  O255  1  0.33590920  0.79457368  0.27195746  1
  O2-  O256  1  0.33418088  0.79968588  0.60150831  1
  O2-  O257  1  0.33391062  0.79009787  0.93312117  1
  O2-  O258  1  0.82272340  0.30605633  0.27358308  1
  O2-  O259  1  0.82913440  0.29382066  0.59978633  1
  O2-  O260  1  0.82424093  0.29764502  0.93534145  1
  O2-  O261  1  0.83249709  0.78376473  0.26654557  1
  O2-  O262  1  0.82828211  0.79809907  0.60102182  1
  O2-  O263  1  0.83133893  0.78886425  0.93072951  1
  O2-  O264  1  0.41448037  0.03998992  0.07048261  1
  O2-  O265  1  0.40850552  0.04215461  0.40069926  1
  O2-  O266  1  0.41342640  0.04606430  0.72761434  1
  O2-  O267  1  0.41566785  0.54117538  0.06964109  1
  O2-  O268  1  0.41642691  0.54643340  0.39543518  1
  O2-  O269  1  0.41721022  0.54475925  0.72568231  1
  O2-  O270  1  0.92422976  0.04231215  0.06594141  1
  O2-  O271  1  0.91851973  0.04467419  0.39365205  1
  O2-  O272  1  0.91873949  0.04275730  0.73233292  1
  O2-  O273  1  0.91950324  0.55298613  0.06131517  1
  O2-  O274  1  0.92154424  0.54366363  0.39813500  1
  O2-  O275  1  0.91703040  0.54414600  0.73571484  1
  O2-  O276  1  0.28933173  0.16919124  0.06811728  1
  O2-  O277  1  0.29094133  0.16465308  0.39579123  1
  O2-  O278  1  0.29111127  0.16175166  0.72916423  1
  O2-  O279  1  0.28990609  0.66697663  0.06876320  1
  O2-  O280  1  0.29777865  0.66617472  0.39890249  1
  O2-  O281  1  0.30227188  0.66862935  0.72511127  1
  O2-  O282  1  0.79467605  0.16758589  0.07074376  1
  O2-  O283  1  0.79798494  0.16625806  0.39403871  1
  O2-  O284  1  0.78738057  0.16734625  0.73343441  1
  O2-  O285  1  0.79131292  0.66244620  0.06308557  1
  O2-  O286  1  0.78367177  0.66058232  0.40152121  1
  O2-  O287  1  0.78488539  0.66683375  0.73309654  1
