# generated using pymatgen
data_Ca2Al2SiO7
_symmetry_space_group_name_H-M   'P 1'
_cell_length_a   15.46977633
_cell_length_b   15.47640169
_cell_length_c   15.29511767
_cell_angle_alpha   89.97733540
_cell_angle_beta   90.00744577
_cell_angle_gamma   90.01925361
_symmetry_Int_Tables_number   1
_chemical_formula_structural   Ca2Al2SiO7
_chemical_formula_sum   'Ca48 Al48 Si24 O168'
_cell_volume   3661.90259710
_cell_formula_units_Z   24
loop_
 _symmetry_equiv_pos_site_id
 _symmetry_equiv_pos_as_xyz
  1  'x, y, z'
loop_
 _atom_type_symbol
 _atom_type_oxidation_number
  Ca2+  2.0
  Al0+  0.0
  Si0+  0.0
  O2-  -2.0
loop_
 _atom_site_type_symbol
 _atom_site_label
 _atom_site_symmetry_multiplicity
 _atom_site_fract_x
 _atom_site_fract_y
 _atom_site_fract_z
 _atom_site_occupancy
  Ca2+  Ca0  1  0.17550962  0.07352125  0.17528120  1
  Ca2+  Ca1  1  0.16794800  0.07511058  0.50666599  1
  Ca2+  Ca2  1  0.17147309  0.07103571  0.83867341  1
  Ca2+  Ca3  1  0.17146764  0.58665855  0.17164622  1
  Ca2+  Ca4  1  0.17859596  0.58992890  0.50625594  1
  Ca2+  Ca5  1  0.17015318  0.59424427  0.83462190  1
  Ca2+  Ca6  1  0.66343516  0.06902094  0.17357015  1
  Ca2+  Ca7  1  0.66734964  0.07163375  0.50570285  1
  Ca2+  Ca8  1  0.66810202  0.06990962  0.83437055  1
  Ca2+  Ca9  1  0.67521099  0.59767774  0.17282753  1
  Ca2+  Ca10  1  0.67211970  0.59216446  0.49825793  1
  Ca2+  Ca11  1  0.67245739  0.58746273  0.84223424  1
  Ca2+  Ca12  1  0.08786011  0.32573714  0.16670682  1
  Ca2+  Ca13  1  0.08601905  0.31766558  0.49587751  1
  Ca2+  Ca14  1  0.08220819  0.32350850  0.82489066  1
  Ca2+  Ca15  1  0.07949098  0.83567510  0.16290963  1
  Ca2+  Ca16  1  0.08046849  0.83781194  0.49641093  1
  Ca2+  Ca17  1  0.09421341  0.82667266  0.82835967  1
  Ca2+  Ca18  1  0.58463568  0.32371575  0.16764409  1
  Ca2+  Ca19  1  0.58164061  0.32182600  0.49195572  1
  Ca2+  Ca20  1  0.58088344  0.32997478  0.82907609  1
  Ca2+  Ca21  1  0.58053079  0.82948097  0.16024403  1
  Ca2+  Ca22  1  0.57758227  0.83806076  0.49427192  1
  Ca2+  Ca23  1  0.57369779  0.84229634  0.83376573  1
  Ca2+  Ca24  1  0.33418692  0.42666328  0.17322811  1
  Ca2+  Ca25  1  0.33943302  0.43145428  0.50135982  1
  Ca2+  Ca26  1  0.33327514  0.42592743  0.83259575  1
  Ca2+  Ca27  1  0.32304970  0.91515483  0.16976914  1
  Ca2+  Ca28  1  0.32464754  0.92388230  0.50676444  1
  Ca2+  Ca29  1  0.32889003  0.91843785  0.83585111  1
  Ca2+  Ca30  1  0.83340196  0.43129341  0.17067550  1
  Ca2+  Ca31  1  0.83519367  0.42282971  0.49954851  1
  Ca2+  Ca32  1  0.83316019  0.42359136  0.84023269  1
  Ca2+  Ca33  1  0.82163754  0.90458905  0.17227659  1
  Ca2+  Ca34  1  0.82200008  0.91327876  0.50238994  1
  Ca2+  Ca35  1  0.82287389  0.91462859  0.83299841  1
  Ca2+  Ca36  1  0.41711326  0.15503633  0.16679548  1
  Ca2+  Ca37  1  0.41755095  0.15947420  0.49212411  1
  Ca2+  Ca38  1  0.41012614  0.16146310  0.82906791  1
  Ca2+  Ca39  1  0.42604584  0.67255265  0.15889716  1
  Ca2+  Ca40  1  0.41753840  0.67323110  0.49559066  1
  Ca2+  Ca41  1  0.41580814  0.68421800  0.82704966  1
  Ca2+  Ca42  1  0.92586830  0.16262041  0.16640871  1
  Ca2+  Ca43  1  0.92860922  0.15204255  0.49790679  1
  Ca2+  Ca44  1  0.92095869  0.16303886  0.82250205  1
  Ca2+  Ca45  1  0.91735846  0.66997212  0.16240079  1
  Ca2+  Ca46  1  0.92249905  0.67365618  0.49194637  1
  Ca2+  Ca47  1  0.92752438  0.66572609  0.83165906  1
  Al0+  Al48  1  -0.00033466  0.00010471  0.00034428  1
  Al0+  Al49  1  -0.00143963  -0.00113207  0.32392230  1
  Al0+  Al50  1  -0.00164339  -0.00214996  0.67023189  1
  Al0+  Al51  1  -0.00042575  0.49942065  0.00030968  1
  Al0+  Al52  1  -0.00009198  0.49897561  0.33849431  1
  Al0+  Al53  1  0.00052533  0.49927971  0.66102268  1
  Al0+  Al54  1  0.50245159  0.00130578  0.00202471  1
  Al0+  Al55  1  0.49903281  -0.00124835  0.33416315  1
  Al0+  Al56  1  0.49927552  0.00014031  0.66848374  1
  Al0+  Al57  1  0.50157345  0.49608240  -0.00312759  1
  Al0+  Al58  1  0.50219313  0.49854463  0.33307932  1
  Al0+  Al59  1  0.50047067  0.49991777  0.67086922  1
  Al0+  Al60  1  0.25060920  0.25096838  0.00197929  1
  Al0+  Al61  1  0.25032771  0.25160398  0.33029293  1
  Al0+  Al62  1  0.24952021  0.25360217  0.66307702  1
  Al0+  Al63  1  0.25096475  0.75060537  -0.00153460  1
  Al0+  Al64  1  0.24943207  0.75004325  0.34103406  1
  Al0+  Al65  1  0.25307503  0.75016659  0.66414904  1
  Al0+  Al66  1  0.74998177  0.25163923  -0.00033345  1
  Al0+  Al67  1  0.75027485  0.25138358  0.32718942  1
  Al0+  Al68  1  0.74934672  0.25223470  0.66895136  1
  Al0+  Al69  1  0.75224277  0.74950878  0.00249075  1
  Al0+  Al70  1  0.75128953  0.75024222  0.33720710  1
  Al0+  Al71  1  0.75001591  0.74777409  0.67294697  1
  Al0+  Al72  1  0.57038968  0.17652237  0.31986111  1
  Al0+  Al73  1  0.92980626  0.81940751  0.32010376  1
  Al0+  Al74  1  0.06949436  0.17790980  0.65409552  1
  Al0+  Al75  1  0.43123169  0.82274212  0.65045908  1
  Al0+  Al76  1  0.17819889  0.92611917  0.01642630  1
  Al0+  Al77  1  0.32014141  0.07434801  0.68024632  1
  Al0+  Al78  1  0.82034017  0.56906067  0.01342117  1
  Al0+  Al79  1  0.82063004  0.07171235  0.67957369  1
  Al0+  Al80  1  0.32008775  0.07298287  0.01599682  1
  Al0+  Al81  1  0.57353926  0.67777785  0.98502099  1
  Al0+  Al82  1  0.17834006  0.92839603  0.68175205  1
  Al0+  Al83  1  0.68176712  0.93040107  0.01555446  1
  Al0+  Al84  1  0.43032214  0.82212123  0.98533619  1
  Al0+  Al85  1  0.32262887  0.57064124  0.34529662  1
  Al0+  Al86  1  0.82068979  0.57113783  0.34895065  1
  Al0+  Al87  1  0.57027887  0.67953596  0.32210172  1
  Al0+  Al88  1  0.07002945  0.67902872  0.98827584  1
  Al0+  Al89  1  0.17502464  0.92913258  0.34935850  1
  Al0+  Al90  1  0.07128137  0.67945834  0.65129080  1
  Al0+  Al91  1  0.67735859  0.92678684  0.68247786  1
  Al0+  Al92  1  0.32012717  0.07103281  0.34840143  1
  Al0+  Al93  1  0.07123113  0.17884883  0.31766557  1
  Al0+  Al94  1  0.32137415  0.57084088  0.68221142  1
  Al0+  Al95  1  0.67975524  0.92902393  0.34634040  1
  Si0+  Si96  1  0.32217566  0.57005878  0.01309020  1
  Si0+  Si97  1  0.67666097  0.42594308  0.01856705  1
  Si0+  Si98  1  0.57034996  0.18098934  0.65307302  1
  Si0+  Si99  1  0.92545767  0.32229415  0.64863522  1
  Si0+  Si100  1  0.17702575  0.42960044  0.68273962  1
  Si0+  Si101  1  0.57131604  0.18054858  0.98375317  1
  Si0+  Si102  1  0.07128258  0.17976034  0.98441311  1
  Si0+  Si103  1  0.42699933  0.32126070  0.98302498  1
  Si0+  Si104  1  0.17910045  0.42911611  0.01403009  1
  Si0+  Si105  1  0.82222809  0.07556738  0.01737298  1
  Si0+  Si106  1  0.07337208  0.67672524  0.31864954  1
  Si0+  Si107  1  0.82120348  0.07479306  0.34601544  1
  Si0+  Si108  1  0.42628494  0.82104981  0.31703450  1
  Si0+  Si109  1  0.42936562  0.32385107  0.65090903  1
  Si0+  Si110  1  0.92496024  0.81985332  0.65061032  1
  Si0+  Si111  1  0.92993224  0.32050308  0.98539194  1
  Si0+  Si112  1  0.92848996  0.32479340  0.31448988  1
  Si0+  Si113  1  0.42909688  0.32263369  0.31581569  1
  Si0+  Si114  1  0.92776774  0.82323060  0.98176596  1
  Si0+  Si115  1  0.67915618  0.42909199  0.68218907  1
  Si0+  Si116  1  0.57231980  0.67585390  0.65092682  1
  Si0+  Si117  1  0.67918915  0.42568646  0.35064137  1
  Si0+  Si118  1  0.82276330  0.56935211  0.68238330  1
  Si0+  Si119  1  0.17758825  0.42772892  0.35090264  1
  O2-  O120  1  0.24971674  -0.00068936  0.06479908  1
  O2-  O121  1  0.24603648  0.00233071  0.39854996  1
  O2-  O122  1  0.24804734  0.00339820  0.73061816  1
  O2-  O123  1  0.24919400  0.50104248  0.05580664  1
  O2-  O124  1  0.24541749  0.49806990  0.39296294  1
  O2-  O125  1  0.24207749  0.50037292  0.72910004  1
  O2-  O126  1  0.75767115  0.00425278  0.06225312  1
  O2-  O127  1  0.75083733  0.00862094  0.39049206  1
  O2-  O128  1  0.75032992  -0.00068342  0.73062713  1
  O2-  O129  1  0.73952600  0.50043228  0.06069029  1
  O2-  O130  1  0.74569558  0.49605389  0.39543075  1
  O2-  O131  1  0.75002029  0.49990960  0.72423176  1
  O2-  O132  1  -0.00386393  0.25471095  0.27096236  1
  O2-  O133  1  -0.00908072  0.24983234  0.60663973  1
  O2-  O134  1  -0.00390412  0.24637218  0.94166741  1
  O2-  O135  1  0.00638085  0.74588735  0.27384143  1
  O2-  O136  1  -0.00359898  0.75413913  0.60613752  1
  O2-  O137  1  0.00055235  0.75784311  0.93929791  1
  O2-  O138  1  0.49320715  0.24925311  0.27227445  1
  O2-  O139  1  0.49531390  0.24778360  0.61008187  1
  O2-  O140  1  0.49704568  0.24874447  0.94163696  1
  O2-  O141  1  0.49362583  0.75044667  0.27374947  1
  O2-  O142  1  0.50827100  0.74808146  0.60676918  1
  O2-  O143  1  0.50184471  0.74892430  0.93421794  1
  O2-  O144  1  0.07103790  0.18353888  0.08933085  1
  O2-  O145  1  0.06906085  0.17995475  0.43075453  1
  O2-  O146  1  0.06828310  0.18318104  0.76751675  1
  O2-  O147  1  0.06765092  0.67407622  0.10111962  1
  O2-  O148  1  0.07113708  0.67578417  0.42411742  1
  O2-  O149  1  0.06774072  0.67730643  0.76469144  1
  O2-  O150  1  0.57354231  0.18356390  0.08860718  1
  O2-  O151  1  0.57221373  0.18013935  0.43317587  1
  O2-  O152  1  0.57197567  0.18573758  0.75839069  1
  O2-  O153  1  0.57092524  0.67851466  0.09872753  1
  O2-  O154  1  0.56935358  0.68059420  0.43534422  1
  O2-  O155  1  0.57050242  0.67144130  0.75617301  1
  O2-  O156  1  0.17771605  0.42822072  0.24462767  1
  O2-  O157  1  0.17931917  0.42875333  0.57756017  1
  O2-  O158  1  0.17977535  0.42614505  0.90912655  1
  O2-  O159  1  0.17618283  0.92815498  0.23577442  1
  O2-  O160  1  0.17702519  0.93086323  0.56851996  1
  O2-  O161  1  0.17779006  0.92775116  0.90312522  1
  O2-  O162  1  0.68054888  0.42312958  0.24531574  1
  O2-  O163  1  0.67861473  0.42677651  0.57752440  1
  O2-  O164  1  0.67973088  0.42110419  0.91268891  1
  O2-  O165  1  0.68093802  0.92831780  0.23323022  1
  O2-  O166  1  0.67813220  0.92792491  0.56887852  1
  O2-  O167  1  0.68183778  0.93357198  0.90267055  1
  O2-  O168  1  0.42690146  0.32590029  0.08753184  1
  O2-  O169  1  0.43250123  0.32570093  0.42143375  1
  O2-  O170  1  0.43250230  0.32676641  0.75623595  1
  O2-  O171  1  0.42890611  0.81829014  0.09904712  1
  O2-  O172  1  0.42785894  0.82090515  0.42260186  1
  O2-  O173  1  0.43098669  0.82253489  0.76349652  1
  O2-  O174  1  0.93178067  0.32120495  0.09008451  1
  O2-  O175  1  0.92857002  0.32700437  0.41983229  1
  O2-  O176  1  0.92649801  0.32526293  0.75463460  1
  O2-  O177  1  0.92598190  0.82035808  0.08731218  1
  O2-  O178  1  0.92774278  0.81757426  0.43326567  1
  O2-  O179  1  0.92084979  0.81550440  0.75604473  1
  O2-  O180  1  0.31949426  0.06820186  0.23504677  1
  O2-  O181  1  0.31967937  0.07424368  0.56718162  1
  O2-  O182  1  0.31480361  0.07810732  0.90280074  1
  O2-  O183  1  0.32161963  0.56822946  0.23155664  1
  O2-  O184  1  0.32399599  0.56699336  0.56923924  1
  O2-  O185  1  0.32124094  0.56721038  0.90813774  1
  O2-  O186  1  0.81914734  0.07553610  0.24027344  1
  O2-  O187  1  0.81775801  0.07304157  0.56605705  1
  O2-  O188  1  0.81935123  0.07951044  0.91197918  1
  O2-  O189  1  0.82097935  0.56896474  0.23599976  1
  O2-  O190  1  0.82195951  0.56871482  0.57746469  1
  O2-  O191  1  0.82250508  0.56317480  0.89997345  1
  O2-  O192  1  0.03856426  0.08538365  0.25948813  1
  O2-  O193  1  0.03882165  0.08070634  0.60132192  1
  O2-  O194  1  0.04665393  0.08668824  0.93854963  1
  O2-  O195  1  0.04775578  0.58180584  0.27489976  1
  O2-  O196  1  0.04128641  0.58233729  0.59717162  1
  O2-  O197  1  0.03624700  0.58296598  0.93300631  1
  O2-  O198  1  0.54028039  0.08055305  0.26444941  1
  O2-  O199  1  0.54691897  0.08827574  0.60722893  1
  O2-  O200  1  0.54721752  0.08862726  0.93629949  1
  O2-  O201  1  0.54646273  0.58040697  0.26919104  1
  O2-  O202  1  0.54402418  0.58273304  0.60468893  1
  O2-  O203  1  0.55053277  0.57578871  0.93542951  1
  O2-  O204  1  0.16658171  0.21365886  0.26253519  1
  O2-  O205  1  0.16395236  0.21460885  0.59903616  1
  O2-  O206  1  0.16123936  0.21425286  0.93801874  1
  O2-  O207  1  0.16853760  0.69956847  0.27478141  1
  O2-  O208  1  0.16872211  0.70749041  0.59922828  1
  O2-  O209  1  0.16792867  0.70518032  0.93461398  1
  O2-  O210  1  0.66530360  0.21108943  0.26349019  1
  O2-  O211  1  0.66045186  0.21450153  0.60554089  1
  O2-  O212  1  0.66166451  0.21375428  0.93553628  1
  O2-  O213  1  0.66666194  0.71268314  0.27022653  1
  O2-  O214  1  0.66906591  0.69693438  0.60927961  1
  O2-  O215  1  0.67368517  0.70376563  0.93474408  1
  O2-  O216  1  0.08765234  0.45546415  0.06216222  1
  O2-  O217  1  0.08387738  0.44878529  0.39780454  1
  O2-  O218  1  0.08126588  0.45039868  0.72698938  1
  O2-  O219  1  0.07774688  0.95400145  0.06603404  1
  O2-  O220  1  0.07472837  0.95814904  0.39756983  1
  O2-  O221  1  0.07858179  0.95067909  0.73442884  1
  O2-  O222  1  0.58027909  0.44260430  0.06171990  1
  O2-  O223  1  0.58509317  0.44803485  0.39624935  1
  O2-  O224  1  0.58827933  0.45587010  0.73203259  1
  O2-  O225  1  0.58632032  0.96336166  0.06945609  1
  O2-  O226  1  0.58309206  0.95842263  0.39943447  1
  O2-  O227  1  0.58177461  0.96111526  0.73624138  1
  O2-  O228  1  0.20909043  0.33943381  0.06425900  1
  O2-  O229  1  0.20517786  0.33488374  0.39651834  1
  O2-  O230  1  0.20642868  0.33792525  0.73074418  1
  O2-  O231  1  0.20680581  0.82747801  0.06931394  1
  O2-  O232  1  0.20106561  0.83056574  0.40235068  1
  O2-  O233  1  0.21168497  0.83092021  0.73261192  1
  O2-  O234  1  0.70930223  0.33521775  0.06681633  1
  O2-  O235  1  0.70824736  0.33317607  0.39801581  1
  O2-  O236  1  0.70665287  0.33879414  0.73331908  1
  O2-  O237  1  0.71207879  0.83332211  0.06821020  1
  O2-  O238  1  0.71476090  0.83600833  0.40321596  1
  O2-  O239  1  0.70528021  0.82868618  0.73680298  1
  O2-  O240  1  0.46093163  0.41303061  0.26612982  1
  O2-  O241  1  0.46478298  0.41291167  0.60246225  1
  O2-  O242  1  0.45713892  0.41083306  0.93157318  1
  O2-  O243  1  0.45384139  0.91332688  0.27076585  1
  O2-  O244  1  0.46166438  0.91966806  0.59673115  1
  O2-  O245  1  0.46154844  0.92068955  0.93347094  1
  O2-  O246  1  0.95781672  0.41754437  0.26765651  1
  O2-  O247  1  0.95426183  0.41368608  0.59990768  1
  O2-  O248  1  0.96152755  0.40985510  0.93544021  1
  O2-  O249  1  0.95417043  0.91487998  0.26089978  1
  O2-  O250  1  0.94674008  0.91492102  0.60703569  1
  O2-  O251  1  0.94670671  0.91936964  0.93775194  1
  O2-  O252  1  0.33372019  0.30516309  0.27039827  1
  O2-  O253  1  0.33590949  0.30508283  0.60384353  1
  O2-  O254  1  0.33469663  0.29541215  0.93504479  1
  O2-  O255  1  0.33168022  0.79465160  0.27351415  1
  O2-  O256  1  0.33674903  0.78816713  0.59580916  1
  O2-  O257  1  0.33254464  0.79230330  0.93175467  1
  O2-  O258  1  0.83469352  0.30253722  0.26734468  1
  O2-  O259  1  0.82997643  0.30220027  0.60409958  1
  O2-  O260  1  0.83607684  0.29803785  0.93831035  1
  O2-  O261  1  0.83507879  0.78298075  0.26599087  1
  O2-  O262  1  0.83228928  0.78945074  0.60413982  1
  O2-  O263  1  0.83651552  0.79211096  0.93474027  1
  O2-  O264  1  0.42149091  0.04991940  0.06353402  1
  O2-  O265  1  0.41859193  0.04265859  0.40018331  1
  O2-  O266  1  0.41890601  0.04735694  0.73264415  1
  O2-  O267  1  0.41333122  0.53740742  0.05917808  1
  O2-  O268  1  0.41768901  0.53496867  0.39974788  1
  O2-  O269  1  0.41524481  0.53316869  0.73736969  1
  O2-  O270  1  0.91795840  0.05420658  0.06010161  1
  O2-  O271  1  0.91448309  0.04567263  0.38884090  1
  O2-  O272  1  0.91763569  0.04455104  0.73528969  1
  O2-  O273  1  0.91426370  0.53083557  0.06816040  1
  O2-  O274  1  0.91649739  0.53877190  0.40408347  1
  O2-  O275  1  0.91408833  0.53763155  0.72848183  1
  O2-  O276  1  0.29199517  0.17200667  0.06940445  1
  O2-  O277  1  0.29901549  0.17397158  0.39502744  1
  O2-  O278  1  0.29670707  0.17611753  0.72954623  1
  O2-  O279  1  0.29631838  0.66148719  0.06004320  1
  O2-  O280  1  0.29426714  0.66561187  0.40243326  1
  O2-  O281  1  0.29182240  0.66723826  0.73494379  1
  O2-  O282  1  0.79522649  0.16895906  0.06356490  1
  O2-  O283  1  0.80072927  0.17020076  0.39020954  1
  O2-  O284  1  0.79352641  0.17137233  0.73288210  1
  O2-  O285  1  0.79616764  0.66653093  0.06750550  1
  O2-  O286  1  0.78806206  0.66492881  0.40572903  1
  O2-  O287  1  0.79745487  0.66011861  0.73199206  1
