# generated using pymatgen
data_Ca2Al2SiO7
_symmetry_space_group_name_H-M   'P 1'
_cell_length_a   15.45511857
_cell_length_b   15.45511046
_cell_length_c   15.28151406
_cell_angle_alpha   89.99590060
_cell_angle_beta   90.00229998
_cell_angle_gamma   90.01152845
_symmetry_Int_Tables_number   1
_chemical_formula_structural   Ca2Al2SiO7
_chemical_formula_sum   'Ca48 Al48 Si24 O168'
_cell_volume   3650.15099234
_cell_formula_units_Z   24
loop_
 _symmetry_equiv_pos_site_id
 _symmetry_equiv_pos_as_xyz
  1  'x, y, z'
loop_
 _atom_type_symbol
 _atom_type_oxidation_number
  Ca2+  2.0
  Al0+  0.0
  Si0+  0.0
  O2-  -2.0
loop_
 _atom_site_type_symbol
 _atom_site_label
 _atom_site_symmetry_multiplicity
 _atom_site_fract_x
 _atom_site_fract_y
 _atom_site_fract_z
 _atom_site_occupancy
  Ca2+  Ca0  1  0.17303616  0.07641724  0.17483755  1
  Ca2+  Ca1  1  0.16826673  0.07226641  0.51048373  1
  Ca2+  Ca2  1  0.17346953  0.08738149  0.83496746  1
  Ca2+  Ca3  1  0.15705444  0.57415825  0.17061434  1
  Ca2+  Ca4  1  0.15860171  0.57999799  0.49995035  1
  Ca2+  Ca5  1  0.15744873  0.58005611  0.83915321  1
  Ca2+  Ca6  1  0.67798363  0.08888941  0.17050664  1
  Ca2+  Ca7  1  0.66794037  0.08344629  0.50119846  1
  Ca2+  Ca8  1  0.67188749  0.07880210  0.83760321  1
  Ca2+  Ca9  1  0.67634556  0.58327077  0.17309896  1
  Ca2+  Ca10  1  0.67629671  0.58324914  0.50886347  1
  Ca2+  Ca11  1  0.68037511  0.57028950  0.83984970  1
  Ca2+  Ca12  1  0.07786561  0.33921445  0.15875829  1
  Ca2+  Ca13  1  0.07933421  0.32907753  0.49939556  1
  Ca2+  Ca14  1  0.07094351  0.33298069  0.82747513  1
  Ca2+  Ca15  1  0.08858653  0.82162379  0.16371797  1
  Ca2+  Ca16  1  0.09001409  0.82560828  0.49537131  1
  Ca2+  Ca17  1  0.08495334  0.82216308  0.82620433  1
  Ca2+  Ca18  1  0.58234779  0.33138887  0.16496219  1
  Ca2+  Ca19  1  0.57756885  0.33160892  0.49081629  1
  Ca2+  Ca20  1  0.58784202  0.33634994  0.82925927  1
  Ca2+  Ca21  1  0.58019896  0.82735763  0.16221613  1
  Ca2+  Ca22  1  0.58573127  0.83069980  0.49418635  1
  Ca2+  Ca23  1  0.57859793  0.83981964  0.82988304  1
  Ca2+  Ca24  1  0.32001690  0.41199883  0.17268232  1
  Ca2+  Ca25  1  0.33032712  0.41278109  0.49837296  1
  Ca2+  Ca26  1  0.32253568  0.41955333  0.84021147  1
  Ca2+  Ca27  1  0.33216174  0.91687700  0.16721283  1
  Ca2+  Ca28  1  0.32292929  0.92044074  0.50748517  1
  Ca2+  Ca29  1  0.32989167  0.92613445  0.83708789  1
  Ca2+  Ca30  1  0.83359888  0.42465962  0.16600416  1
  Ca2+  Ca31  1  0.83125577  0.42726548  0.50725706  1
  Ca2+  Ca32  1  0.83401627  0.41905982  0.83915241  1
  Ca2+  Ca33  1  0.84076531  0.93108614  0.17147285  1
  Ca2+  Ca34  1  0.82803279  0.92283459  0.50362022  1
  Ca2+  Ca35  1  0.82914811  0.92121433  0.83590995  1
  Ca2+  Ca36  1  0.42043317  0.16735914  0.16490074  1
  Ca2+  Ca37  1  0.42170644  0.16937928  0.49295832  1
  Ca2+  Ca38  1  0.41320674  0.16368830  0.82882290  1
  Ca2+  Ca39  1  0.42305513  0.67090753  0.16182358  1
  Ca2+  Ca40  1  0.42745705  0.66759335  0.49108942  1
  Ca2+  Ca41  1  0.41555731  0.67557810  0.83111063  1
  Ca2+  Ca42  1  0.91451658  0.17072589  0.15774170  1
  Ca2+  Ca43  1  0.91540475  0.17177178  0.49713209  1
  Ca2+  Ca44  1  0.91597590  0.17764009  0.82741896  1
  Ca2+  Ca45  1  0.92370462  0.65728115  0.16357027  1
  Ca2+  Ca46  1  0.92198869  0.66252466  0.49580330  1
  Ca2+  Ca47  1  0.92384428  0.65679232  0.82987925  1
  Al0+  Al48  1  0.00155594  -0.00273131  0.00241959  1
  Al0+  Al49  1  0.00009346  0.00045966  0.34329428  1
  Al0+  Al50  1  0.00007078  -0.00212532  0.66863485  1
  Al0+  Al51  1  -0.00101942  0.49800025  -0.00134137  1
  Al0+  Al52  1  -0.00044775  0.49938090  0.33924445  1
  Al0+  Al53  1  0.00044142  0.50011180  0.66028810  1
  Al0+  Al54  1  0.49916818  -0.00025871  0.00043189  1
  Al0+  Al55  1  0.50131769  0.00131733  0.32766430  1
  Al0+  Al56  1  0.49900308  0.00113268  0.67114963  1
  Al0+  Al57  1  0.49967440  0.49899926  0.00087856  1
  Al0+  Al58  1  0.49785302  0.50018847  0.32250226  1
  Al0+  Al59  1  0.49985064  0.50086369  0.66972179  1
  Al0+  Al60  1  0.25168024  0.24877089  0.00856038  1
  Al0+  Al61  1  0.24882593  0.24961380  0.33501217  1
  Al0+  Al62  1  0.24989753  0.25079079  0.66570817  1
  Al0+  Al63  1  0.25195373  0.74984780  -0.00978611  1
  Al0+  Al64  1  0.25021507  0.74818589  0.33218619  1
  Al0+  Al65  1  0.25053373  0.75112485  0.66422476  1
  Al0+  Al66  1  0.74907297  0.24965192  0.00186838  1
  Al0+  Al67  1  0.75017643  0.25155064  0.33412450  1
  Al0+  Al68  1  0.74773724  0.25090391  0.66281304  1
  Al0+  Al69  1  0.75111463  0.74903241  0.00233696  1
  Al0+  Al70  1  0.75189858  0.75220039  0.33123430  1
  Al0+  Al71  1  0.75109349  0.75027720  0.67680345  1
  Al0+  Al72  1  0.67898562  0.92946889  0.67946705  1
  Al0+  Al73  1  0.57432968  0.67973147  0.32034965  1
  Al0+  Al74  1  0.32108413  0.07019326  0.01697832  1
  Al0+  Al75  1  0.82172809  0.57026675  0.01686774  1
  Al0+  Al76  1  0.92958849  0.31766271  0.98772288  1
  Al0+  Al77  1  0.67675660  0.42825833  0.67957375  1
  Al0+  Al78  1  0.81961993  0.57187787  0.34856772  1
  Al0+  Al79  1  0.06787615  0.67960742  0.98650734  1
  Al0+  Al80  1  0.07214492  0.17793607  0.65217068  1
  Al0+  Al81  1  0.07080910  0.68077324  0.65021120  1
  Al0+  Al82  1  0.31910738  0.07180805  0.68086413  1
  Al0+  Al83  1  0.82080530  0.07402600  0.34871821  1
  Al0+  Al84  1  0.17849757  0.42851971  0.34955886  1
  Al0+  Al85  1  0.18081585  0.92719258  0.34673542  1
  Al0+  Al86  1  0.57265865  0.17902988  0.31636951  1
  Al0+  Al87  1  0.82358129  0.56958271  0.68300233  1
  Al0+  Al88  1  0.67684568  0.42730651  0.01791038  1
  Al0+  Al89  1  0.92686682  0.32048861  0.64868717  1
  Al0+  Al90  1  0.06917856  0.67917093  0.31895933  1
  Al0+  Al91  1  0.42611039  0.32072911  0.31602377  1
  Al0+  Al92  1  0.17979954  0.43107338  0.01140436  1
  Al0+  Al93  1  0.43170656  0.82074512  0.98401147  1
  Al0+  Al94  1  0.82152674  0.06924668  0.01114069  1
  Al0+  Al95  1  0.17684601  0.92626703  0.68423272  1
  Si0+  Si96  1  0.17947044  0.92506752  0.01640555  1
  Si0+  Si97  1  0.92863357  0.82478719  0.31738693  1
  Si0+  Si98  1  0.32341526  0.57223085  0.68032329  1
  Si0+  Si99  1  0.67552513  0.43011832  0.34879163  1
  Si0+  Si100  1  0.42650875  0.32054989  0.98374555  1
  Si0+  Si101  1  0.92667114  0.82540936  0.98321769  1
  Si0+  Si102  1  0.92461119  0.82271803  0.65031758  1
  Si0+  Si103  1  0.32349004  0.07113802  0.34994806  1
  Si0+  Si104  1  0.57061974  0.68021276  0.65501015  1
  Si0+  Si105  1  0.67740332  0.92798480  0.01761131  1
  Si0+  Si106  1  0.32224475  0.57446465  0.01538631  1
  Si0+  Si107  1  0.32325039  0.57146060  0.34860217  1
  Si0+  Si108  1  0.82188973  0.07343625  0.68250938  1
  Si0+  Si109  1  0.42854667  0.32318094  0.65355620  1
  Si0+  Si110  1  0.18078952  0.43089679  0.68024654  1
  Si0+  Si111  1  0.07464403  0.17483240  0.98707199  1
  Si0+  Si112  1  0.06971223  0.17636020  0.31919711  1
  Si0+  Si113  1  0.67753160  0.92931166  0.34721934  1
  Si0+  Si114  1  0.57451748  0.67621466  0.98079108  1
  Si0+  Si115  1  0.43085519  0.82269878  0.65016851  1
  Si0+  Si116  1  0.93101100  0.32038181  0.31798283  1
  Si0+  Si117  1  0.42803675  0.82164538  0.31743048  1
  Si0+  Si118  1  0.56970653  0.18041887  0.98310302  1
  Si0+  Si119  1  0.56942117  0.17788308  0.65298282  1
  O2-  O120  1  0.24453375  -0.00334603  0.06189497  1
  O2-  O121  1  0.25598499  0.00153971  0.39353960  1
  O2-  O122  1  0.24490717  0.00292927  0.73249192  1
  O2-  O123  1  0.25414718  0.50565682  0.05957500  1
  O2-  O124  1  0.25548538  0.50255099  0.39440515  1
  O2-  O125  1  0.24930580  0.50443545  0.72233688  1
  O2-  O126  1  0.75055985  -0.00788989  0.06097311  1
  O2-  O127  1  0.74373408  -0.00006811  0.39214604  1
  O2-  O128  1  0.75416493  0.00344715  0.72627335  1
  O2-  O129  1  0.74533717  0.50289913  0.06695614  1
  O2-  O130  1  0.73990787  0.50187423  0.39417248  1
  O2-  O131  1  0.75350281  0.49419623  0.73017938  1
  O2-  O132  1  0.00036294  0.24775611  0.27505798  1
  O2-  O133  1  -0.00288225  0.24557428  0.59957674  1
  O2-  O134  1  0.00358290  0.24083065  0.94281919  1
  O2-  O135  1  -0.00427313  0.75491823  0.27224160  1
  O2-  O136  1  -0.00440189  0.75649347  0.60552890  1
  O2-  O137  1  -0.00699892  0.75415782  0.93958897  1
  O2-  O138  1  0.49951200  0.24990408  0.26614527  1
  O2-  O139  1  0.50067799  0.25238142  0.61287780  1
  O2-  O140  1  0.49906735  0.25183352  0.93992289  1
  O2-  O141  1  0.49884284  0.75449155  0.27430751  1
  O2-  O142  1  0.50231157  0.75202487  0.60857312  1
  O2-  O143  1  0.50729306  0.74666317  0.93618060  1
  O2-  O144  1  0.07373728  0.17509774  0.09310334  1
  O2-  O145  1  0.06837308  0.17713226  0.42404857  1
  O2-  O146  1  0.07390993  0.18409982  0.76608831  1
  O2-  O147  1  0.06864903  0.68000856  0.09969884  1
  O2-  O148  1  0.06857129  0.68048892  0.43184538  1
  O2-  O149  1  0.07115885  0.67918054  0.76340758  1
  O2-  O150  1  0.56908019  0.18036241  0.08790582  1
  O2-  O151  1  0.57026263  0.17829839  0.43063288  1
  O2-  O152  1  0.56872341  0.17587240  0.75819533  1
  O2-  O153  1  0.57251415  0.67833467  0.08663645  1
  O2-  O154  1  0.57277102  0.68167166  0.43432342  1
  O2-  O155  1  0.56506742  0.68080408  0.75963151  1
  O2-  O156  1  0.17658784  0.43036407  0.23635222  1
  O2-  O157  1  0.18358350  0.43028605  0.57515478  1
  O2-  O158  1  0.18095596  0.43145902  0.89781183  1
  O2-  O159  1  0.18239278  0.92835686  0.23328408  1
  O2-  O160  1  0.18330207  0.92412445  0.57043605  1
  O2-  O161  1  0.18093197  0.92495847  0.91123341  1
  O2-  O162  1  0.67880319  0.42971576  0.24344401  1
  O2-  O163  1  0.67056370  0.43348512  0.56616125  1
  O2-  O164  1  0.67798322  0.42700203  0.90434499  1
  O2-  O165  1  0.67827948  0.92868001  0.24182379  1
  O2-  O166  1  0.67781666  0.93041226  0.56620514  1
  O2-  O167  1  0.67612873  0.93178181  0.91169626  1
  O2-  O168  1  0.42498139  0.31786358  0.08821436  1
  O2-  O169  1  0.42802467  0.31963465  0.43062015  1
  O2-  O170  1  0.42699150  0.32410533  0.75872884  1
  O2-  O171  1  0.43282953  0.81848051  0.09746890  1
  O2-  O172  1  0.42901329  0.82112191  0.42334666  1
  O2-  O173  1  0.43156566  0.82221825  0.75519642  1
  O2-  O174  1  0.93173385  0.31785314  0.10128819  1
  O2-  O175  1  0.93192954  0.31919923  0.42291974  1
  O2-  O176  1  0.92822863  0.31998839  0.76257603  1
  O2-  O177  1  0.92955747  0.83027781  0.08862358  1
  O2-  O178  1  0.92724938  0.82473664  0.42291659  1
  O2-  O179  1  0.92363050  0.82191933  0.75598442  1
  O2-  O180  1  0.32217242  0.06964219  0.24416666  1
  O2-  O181  1  0.32290850  0.06872938  0.56731785  1
  O2-  O182  1  0.32086645  0.07128276  0.90411325  1
  O2-  O183  1  0.32205627  0.57344538  0.24317393  1
  O2-  O184  1  0.32903690  0.56989441  0.57548156  1
  O2-  O185  1  0.32228706  0.57269689  0.90911379  1
  O2-  O186  1  0.82249063  0.07285880  0.23541812  1
  O2-  O187  1  0.81863717  0.07303989  0.57682850  1
  O2-  O188  1  0.81733225  0.06933620  0.89807823  1
  O2-  O189  1  0.82132976  0.56850711  0.23586681  1
  O2-  O190  1  0.81971775  0.57178101  0.56908394  1
  O2-  O191  1  0.82328181  0.56670011  0.90361714  1
  O2-  O192  1  0.04144740  0.08417210  0.27288664  1
  O2-  O193  1  0.04959758  0.07603503  0.60340116  1
  O2-  O194  1  0.05364688  0.07974983  0.94212609  1
  O2-  O195  1  0.03584381  0.58158928  0.26813450  1
  O2-  O196  1  0.04122126  0.58440842  0.59546068  1
  O2-  O197  1  0.03656644  0.58343594  0.93206607  1
  O2-  O198  1  0.54689672  0.08033613  0.26150098  1
  O2-  O199  1  0.53795402  0.08763349  0.60400242  1
  O2-  O200  1  0.54094298  0.08825090  0.93681011  1
  O2-  O201  1  0.54302093  0.58549890  0.26293764  1
  O2-  O202  1  0.53991840  0.58951826  0.60647983  1
  O2-  O203  1  0.54622550  0.58267617  0.93584934  1
  O2-  O204  1  0.16299296  0.20139759  0.27367200  1
  O2-  O205  1  0.16939285  0.21031708  0.59749304  1
  O2-  O206  1  0.16836392  0.20359130  0.94311313  1
  O2-  O207  1  0.16734727  0.70723235  0.26591260  1
  O2-  O208  1  0.16915827  0.70953975  0.59682790  1
  O2-  O209  1  0.16497069  0.70749884  0.93123743  1
  O2-  O210  1  0.67115473  0.20956839  0.26423101  1
  O2-  O211  1  0.66105424  0.20133123  0.60352124  1
  O2-  O212  1  0.66131273  0.20756028  0.93515328  1
  O2-  O213  1  0.66906944  0.71258682  0.26374008  1
  O2-  O214  1  0.66405806  0.70727583  0.61104436  1
  O2-  O215  1  0.66939274  0.70001745  0.93677816  1
  O2-  O216  1  0.08452716  0.46224265  0.06639925  1
  O2-  O217  1  0.08448346  0.46182002  0.40606594  1
  O2-  O218  1  0.08814785  0.45783131  0.72516034  1
  O2-  O219  1  0.08474904  0.94509393  0.06230718  1
  O2-  O220  1  0.08582151  0.95760830  0.40322361  1
  O2-  O221  1  0.07579202  0.94600218  0.73485580  1
  O2-  O222  1  0.57560133  0.45090108  0.06785859  1
  O2-  O223  1  0.57853126  0.45106499  0.38929914  1
  O2-  O224  1  0.58020907  0.45995785  0.73616049  1
  O2-  O225  1  0.58577694  0.95778447  0.06432199  1
  O2-  O226  1  0.58275124  0.95256755  0.39289765  1
  O2-  O227  1  0.58409281  0.96248913  0.73553369  1
  O2-  O228  1  0.21021623  0.33570960  0.06794165  1
  O2-  O229  1  0.20876980  0.33140020  0.40349793  1
  O2-  O230  1  0.21132780  0.34082957  0.72849455  1
  O2-  O231  1  0.21176817  0.83244683  0.06096637  1
  O2-  O232  1  0.21237806  0.83055288  0.40040989  1
  O2-  O233  1  0.21227305  0.82926794  0.73625613  1
  O2-  O234  1  0.70703262  0.32967054  0.07028711  1
  O2-  O235  1  0.70356949  0.33740502  0.39514586  1
  O2-  O236  1  0.69764405  0.32663191  0.72918186  1
  O2-  O237  1  0.69665362  0.83206450  0.06061422  1
  O2-  O238  1  0.70513435  0.83707837  0.39500003  1
  O2-  O239  1  0.70639638  0.83479659  0.73863003  1
  O2-  O240  1  0.44878384  0.41930337  0.26100792  1
  O2-  O241  1  0.45589679  0.41504028  0.60525102  1
  O2-  O242  1  0.44982699  0.41446553  0.93744108  1
  O2-  O243  1  0.45175757  0.91514904  0.27030837  1
  O2-  O244  1  0.45962095  0.91443295  0.60339369  1
  O2-  O245  1  0.46323621  0.91756563  0.92986041  1
  O2-  O246  1  0.96260683  0.41135994  0.27188038  1
  O2-  O247  1  0.96000397  0.41673968  0.59475282  1
  O2-  O248  1  0.96377995  0.41192989  0.93202054  1
  O2-  O249  1  0.95757438  0.91873443  0.27305014  1
  O2-  O250  1  0.94555185  0.91783499  0.60516797  1
  O2-  O251  1  0.95381435  0.91770456  0.93410033  1
  O2-  O252  1  0.32727772  0.29013791  0.26422493  1
  O2-  O253  1  0.33806935  0.29507764  0.60406203  1
  O2-  O254  1  0.33494723  0.28990573  0.93649954  1
  O2-  O255  1  0.33638791  0.79302105  0.26937713  1
  O2-  O256  1  0.34007423  0.79337505  0.60217647  1
  O2-  O257  1  0.33718145  0.78961681  0.92577124  1
  O2-  O258  1  0.83808924  0.29511606  0.27238176  1
  O2-  O259  1  0.82725160  0.29500465  0.59535642  1
  O2-  O260  1  0.83277922  0.28679302  0.93380260  1
  O2-  O261  1  0.83482552  0.80379240  0.26994983  1
  O2-  O262  1  0.83043897  0.79560497  0.60499432  1
  O2-  O263  1  0.83074084  0.80363771  0.93982133  1
  O2-  O264  1  0.41718895  0.03635890  0.07010957  1
  O2-  O265  1  0.41878205  0.04718225  0.39332867  1
  O2-  O266  1  0.41584950  0.04078907  0.73603198  1
  O2-  O267  1  0.41623233  0.55043235  0.06058435  1
  O2-  O268  1  0.41760142  0.54555392  0.39412663  1
  O2-  O269  1  0.41207605  0.54243319  0.73258586  1
  O2-  O270  1  0.91929507  0.04220632  0.06643378  1
  O2-  O271  1  0.91477233  0.04159262  0.40607376  1
  O2-  O272  1  0.91558695  0.05016377  0.72827492  1
  O2-  O273  1  0.91785182  0.53504938  0.06980420  1
  O2-  O274  1  0.91333222  0.53569562  0.40393832  1
  O2-  O275  1  0.92331784  0.54065776  0.73242734  1
  O2-  O276  1  0.29333136  0.16582429  0.07378165  1
  O2-  O277  1  0.29767882  0.16447925  0.39532365  1
  O2-  O278  1  0.29398937  0.17184096  0.73375441  1
  O2-  O279  1  0.29768365  0.66886420  0.05919882  1
  O2-  O280  1  0.29914672  0.66487536  0.39591755  1
  O2-  O281  1  0.29830029  0.66524716  0.72586564  1
  O2-  O282  1  0.78704035  0.16339579  0.06662468  1
  O2-  O283  1  0.78930081  0.16999725  0.40346163  1
  O2-  O284  1  0.79291178  0.16637048  0.72738739  1
  O2-  O285  1  0.79981330  0.67166935  0.06788132  1
  O2-  O286  1  0.79396709  0.67152467  0.39913061  1
  O2-  O287  1  0.79481446  0.66655107  0.73793053  1
