# generated using pymatgen
data_Ca2Al2SiO7
_symmetry_space_group_name_H-M   'P 1'
_cell_length_a   15.46155061
_cell_length_b   15.46115202
_cell_length_c   15.28550540
_cell_angle_alpha   90.00231772
_cell_angle_beta   89.98845432
_cell_angle_gamma   90.01653457
_symmetry_Int_Tables_number   1
_chemical_formula_structural   Ca2Al2SiO7
_chemical_formula_sum   'Ca48 Al48 Si24 O168'
_cell_volume   3654.05156764
_cell_formula_units_Z   24
loop_
 _symmetry_equiv_pos_site_id
 _symmetry_equiv_pos_as_xyz
  1  'x, y, z'
loop_
 _atom_type_symbol
 _atom_type_oxidation_number
  Ca2+  2.0
  Al0+  0.0
  Si0+  0.0
  O2-  -2.0
loop_
 _atom_site_type_symbol
 _atom_site_label
 _atom_site_symmetry_multiplicity
 _atom_site_fract_x
 _atom_site_fract_y
 _atom_site_fract_z
 _atom_site_occupancy
  Ca2+  Ca0  1  0.16791927  0.08320021  0.16547196  1
  Ca2+  Ca1  1  0.16802901  0.07998991  0.50778877  1
  Ca2+  Ca2  1  0.17469901  0.07377894  0.83734403  1
  Ca2+  Ca3  1  0.17765990  0.57143632  0.17002380  1
  Ca2+  Ca4  1  0.17454334  0.57436616  0.50923540  1
  Ca2+  Ca5  1  0.17111097  0.57765583  0.83382377  1
  Ca2+  Ca6  1  0.66781421  0.07443336  0.17150446  1
  Ca2+  Ca7  1  0.66677711  0.08032986  0.50914273  1
  Ca2+  Ca8  1  0.67247919  0.09477668  0.83206131  1
  Ca2+  Ca9  1  0.67450353  0.58284066  0.17285084  1
  Ca2+  Ca10  1  0.67765475  0.58573845  0.50685110  1
  Ca2+  Ca11  1  0.67089384  0.59042884  0.82988489  1
  Ca2+  Ca12  1  0.08746756  0.33290497  0.16318377  1
  Ca2+  Ca13  1  0.08550857  0.33386870  0.49686969  1
  Ca2+  Ca14  1  0.07588632  0.34596824  0.82918528  1
  Ca2+  Ca15  1  0.07859908  0.83081557  0.15534147  1
  Ca2+  Ca16  1  0.09050860  0.82558497  0.50131873  1
  Ca2+  Ca17  1  0.08810288  0.83098651  0.82759817  1
  Ca2+  Ca18  1  0.56854595  0.33720093  0.16243068  1
  Ca2+  Ca19  1  0.57582990  0.32733406  0.49807606  1
  Ca2+  Ca20  1  0.57239623  0.32909281  0.82727671  1
  Ca2+  Ca21  1  0.57819935  0.83184519  0.16068855  1
  Ca2+  Ca22  1  0.58555031  0.82925557  0.49907833  1
  Ca2+  Ca23  1  0.57295757  0.82717564  0.82843509  1
  Ca2+  Ca24  1  0.33104498  0.41940417  0.17379325  1
  Ca2+  Ca25  1  0.32390122  0.41856889  0.50506366  1
  Ca2+  Ca26  1  0.32342395  0.42293312  0.84300504  1
  Ca2+  Ca27  1  0.33305967  0.91900886  0.16289579  1
  Ca2+  Ca28  1  0.32563223  0.92556420  0.51173409  1
  Ca2+  Ca29  1  0.32672562  0.92221176  0.83966707  1
  Ca2+  Ca30  1  0.83536555  0.42031449  0.16891964  1
  Ca2+  Ca31  1  0.83798750  0.42521857  0.50814050  1
  Ca2+  Ca32  1  0.83812944  0.41845468  0.83434114  1
  Ca2+  Ca33  1  0.82712166  0.91202431  0.17306719  1
  Ca2+  Ca34  1  0.82710183  0.92487923  0.50589640  1
  Ca2+  Ca35  1  0.83551900  0.92186959  0.83609194  1
  Ca2+  Ca36  1  0.41175272  0.17800677  0.16041977  1
  Ca2+  Ca37  1  0.41472157  0.16994215  0.49738137  1
  Ca2+  Ca38  1  0.41274614  0.16720972  0.82935209  1
  Ca2+  Ca39  1  0.41196907  0.66844751  0.15850635  1
  Ca2+  Ca40  1  0.41824778  0.65805245  0.49878594  1
  Ca2+  Ca41  1  0.41070122  0.66810042  0.82708240  1
  Ca2+  Ca42  1  0.92731497  0.17221925  0.15972176  1
  Ca2+  Ca43  1  0.92165970  0.17073504  0.49828691  1
  Ca2+  Ca44  1  0.91774170  0.17813052  0.82458759  1
  Ca2+  Ca45  1  0.91731070  0.67004992  0.16024678  1
  Ca2+  Ca46  1  0.92296357  0.65807821  0.49987588  1
  Ca2+  Ca47  1  0.92481086  0.67212635  0.82418919  1
  Al0+  Al48  1  -0.00115985  0.00128139  -0.00032964  1
  Al0+  Al49  1  -0.00039850  0.00010281  0.32857818  1
  Al0+  Al50  1  -0.00341207  0.00182217  0.67354706  1
  Al0+  Al51  1  0.00060329  0.50108106  0.00141355  1
  Al0+  Al52  1  0.00120043  0.50027419  0.33710771  1
  Al0+  Al53  1  -0.00153101  0.50367082  0.66555997  1
  Al0+  Al54  1  0.50223027  -0.00243909  -0.00063880  1
  Al0+  Al55  1  0.50041969  -0.00240959  0.33735769  1
  Al0+  Al56  1  0.49987717  -0.00024770  0.66581415  1
  Al0+  Al57  1  0.50353308  0.49821241  -0.00214279  1
  Al0+  Al58  1  0.50299589  0.50026671  0.33135495  1
  Al0+  Al59  1  0.50124277  0.50079967  0.66359261  1
  Al0+  Al60  1  0.24996358  0.24798355  0.00052205  1
  Al0+  Al61  1  0.24947395  0.24882291  0.32839218  1
  Al0+  Al62  1  0.24653938  0.25017016  0.67423223  1
  Al0+  Al63  1  0.25036334  0.74995594  0.00277090  1
  Al0+  Al64  1  0.25069291  0.74979681  0.33383266  1
  Al0+  Al65  1  0.24815446  0.74991223  0.66611305  1
  Al0+  Al66  1  0.75202370  0.25106837  0.00058582  1
  Al0+  Al67  1  0.75090248  0.24905113  0.33098945  1
  Al0+  Al68  1  0.74800508  0.25089641  0.66019166  1
  Al0+  Al69  1  0.75159617  0.75100691  -0.00441564  1
  Al0+  Al70  1  0.74930973  0.75076123  0.34129442  1
  Al0+  Al71  1  0.74826025  0.75124760  0.66693099  1
  Al0+  Al72  1  0.82009424  0.56981568  0.34662587  1
  Al0+  Al73  1  0.67830118  0.93042306  0.34809996  1
  Al0+  Al74  1  0.43128201  0.31944261  0.32075370  1
  Al0+  Al75  1  0.18098374  0.42664600  0.34927537  1
  Al0+  Al76  1  0.81984678  0.57182705  0.68204936  1
  Al0+  Al77  1  0.92958680  0.32210114  0.65179599  1
  Al0+  Al78  1  0.42902625  0.81963290  0.98659339  1
  Al0+  Al79  1  0.42792587  0.32077060  0.98540686  1
  Al0+  Al80  1  0.92762109  0.82227444  0.98627666  1
  Al0+  Al81  1  0.17719454  0.92846098  0.68021614  1
  Al0+  Al82  1  0.56883947  0.17892060  0.65322353  1
  Al0+  Al83  1  0.07004287  0.17806223  0.31913907  1
  Al0+  Al84  1  0.32368865  0.56994596  0.68116747  1
  Al0+  Al85  1  0.32256863  0.07205466  0.68096863  1
  Al0+  Al86  1  0.57065637  0.67901737  0.65104751  1
  Al0+  Al87  1  0.32382126  0.06972253  0.01695444  1
  Al0+  Al88  1  0.81811911  0.07327686  0.68006936  1
  Al0+  Al89  1  0.32317009  0.57286093  0.34904288  1
  Al0+  Al90  1  0.93044130  0.32139857  0.98648817  1
  Al0+  Al91  1  0.17734444  0.42888864  0.01626897  1
  Al0+  Al92  1  0.17730998  0.42924054  0.68243754  1
  Al0+  Al93  1  0.32455923  0.56974520  0.01470819  1
  Al0+  Al94  1  0.07049556  0.68149061  0.65193427  1
  Al0+  Al95  1  0.17740913  0.92895160  0.01671879  1
  Si0+  Si96  1  0.67827954  0.42771134  0.68298283  1
  Si0+  Si97  1  0.42479497  0.32165584  0.65107184  1
  Si0+  Si98  1  0.67754282  0.92820177  0.68623090  1
  Si0+  Si99  1  0.42731702  0.82111379  0.64853786  1
  Si0+  Si100  1  0.42851809  0.82175109  0.31850966  1
  Si0+  Si101  1  0.07071037  0.17714345  0.65180145  1
  Si0+  Si102  1  0.57402908  0.67707097  0.98407658  1
  Si0+  Si103  1  0.31998832  0.06956152  0.34673242  1
  Si0+  Si104  1  0.81955869  0.57191856  0.01336136  1
  Si0+  Si105  1  0.82035793  0.07366595  0.01618072  1
  Si0+  Si106  1  0.57257288  0.17754390  0.98580522  1
  Si0+  Si107  1  0.82323502  0.07158065  0.34830412  1
  Si0+  Si108  1  0.07222697  0.67812013  0.31710902  1
  Si0+  Si109  1  0.07098224  0.67975584  0.98429876  1
  Si0+  Si110  1  0.92778287  0.32416738  0.31626767  1
  Si0+  Si111  1  0.17661505  0.92844757  0.34689350  1
  Si0+  Si112  1  0.57322003  0.17461048  0.31623929  1
  Si0+  Si113  1  0.92933013  0.81913386  0.32026842  1
  Si0+  Si114  1  0.07224270  0.17737341  0.98054541  1
  Si0+  Si115  1  0.68058141  0.42661587  0.01506038  1
  Si0+  Si116  1  0.92673109  0.82490807  0.64881893  1
  Si0+  Si117  1  0.57288600  0.68115429  0.31850624  1
  Si0+  Si118  1  0.68200885  0.92771487  0.01420388  1
  Si0+  Si119  1  0.67789469  0.42578232  0.34959108  1
  O2-  O120  1  0.24984439  -0.00015190  0.06844706  1
  O2-  O121  1  0.24837223  -0.00116032  0.38838474  1
  O2-  O122  1  0.25109781  -0.00122596  0.72874330  1
  O2-  O123  1  0.25597042  0.49464928  0.06524081  1
  O2-  O124  1  0.25225941  0.49983589  0.39807224  1
  O2-  O125  1  0.25427244  0.49635127  0.73121876  1
  O2-  O126  1  0.75238169  -0.00094706  0.05780162  1
  O2-  O127  1  0.74942934  0.00904628  0.39307225  1
  O2-  O128  1  0.74401808  -0.00082779  0.72989740  1
  O2-  O129  1  0.74988324  0.50018349  0.05641454  1
  O2-  O130  1  0.75002235  0.49059254  0.39332306  1
  O2-  O131  1  0.74555227  0.49703922  0.72905258  1
  O2-  O132  1  -0.00402776  0.25465145  0.27318717  1
  O2-  O133  1  0.00548539  0.24833358  0.60582960  1
  O2-  O134  1  0.00745653  0.25063967  0.93806807  1
  O2-  O135  1  0.00009031  0.74920733  0.27577197  1
  O2-  O136  1  -0.00356241  0.75787516  0.60388668  1
  O2-  O137  1  0.00597581  0.75246546  0.94022591  1
  O2-  O138  1  0.50757615  0.24545408  0.27228964  1
  O2-  O139  1  0.49052597  0.24952825  0.60659482  1
  O2-  O140  1  0.50015680  0.24180499  0.94162760  1
  O2-  O141  1  0.49723088  0.74731186  0.27672443  1
  O2-  O142  1  0.49383590  0.75081847  0.60273306  1
  O2-  O143  1  0.49875842  0.73917822  0.94167458  1
  O2-  O144  1  0.06768000  0.17515937  0.08668409  1
  O2-  O145  1  0.06721666  0.17343814  0.43201800  1
  O2-  O146  1  0.06718589  0.17445716  0.75682722  1
  O2-  O147  1  0.06612086  0.67946075  0.09056251  1
  O2-  O148  1  0.07214091  0.67993075  0.42202647  1
  O2-  O149  1  0.06825471  0.68201469  0.76499733  1
  O2-  O150  1  0.57510607  0.17917399  0.09162119  1
  O2-  O151  1  0.57215481  0.17382037  0.42159540  1
  O2-  O152  1  0.57127269  0.18346466  0.76632534  1
  O2-  O153  1  0.58038325  0.68104570  0.09001498  1
  O2-  O154  1  0.57536778  0.68380522  0.42315465  1
  O2-  O155  1  0.57335598  0.68379582  0.76406679  1
  O2-  O156  1  0.18178663  0.42792338  0.23580563  1
  O2-  O157  1  0.17895901  0.42830513  0.56875934  1
  O2-  O158  1  0.17369485  0.43531362  0.90339678  1
  O2-  O159  1  0.17570660  0.92745872  0.24223844  1
  O2-  O160  1  0.17842322  0.93079334  0.56535218  1
  O2-  O161  1  0.17759340  0.93059685  0.90375559  1
  O2-  O162  1  0.67744922  0.42868765  0.24351362  1
  O2-  O163  1  0.67942397  0.42834092  0.57716513  1
  O2-  O164  1  0.68144532  0.42341981  0.91046725  1
  O2-  O165  1  0.68045733  0.92876319  0.23430375  1
  O2-  O166  1  0.67958766  0.92855323  0.58022060  1
  O2-  O167  1  0.68334779  0.92615740  0.90974579  1
  O2-  O168  1  0.43243176  0.32213843  0.09884153  1
  O2-  O169  1  0.43230491  0.31575318  0.43378970  1
  O2-  O170  1  0.42831676  0.32244257  0.75652124  1
  O2-  O171  1  0.43454186  0.82101171  0.10041484  1
  O2-  O172  1  0.42920385  0.82530242  0.42312770  1
  O2-  O173  1  0.43007204  0.82146698  0.75404946  1
  O2-  O174  1  0.92671189  0.31820222  0.09977182  1
  O2-  O175  1  0.92558254  0.32310438  0.42151367  1
  O2-  O176  1  0.92901470  0.32063766  0.76507444  1
  O2-  O177  1  0.92265460  0.81642054  0.10017943  1
  O2-  O178  1  0.93061427  0.82118191  0.42490527  1
  O2-  O179  1  0.92618251  0.82285092  0.75443897  1
  O2-  O180  1  0.32214194  0.06726153  0.24204096  1
  O2-  O181  1  0.32094963  0.07109088  0.56620743  1
  O2-  O182  1  0.32477502  0.06660582  0.90396563  1
  O2-  O183  1  0.32140590  0.57490224  0.23560743  1
  O2-  O184  1  0.32278052  0.56719351  0.56748477  1
  O2-  O185  1  0.32375801  0.56963820  0.90166178  1
  O2-  O186  1  0.82299080  0.06818279  0.24244431  1
  O2-  O187  1  0.81745201  0.07064735  0.56653763  1
  O2-  O188  1  0.81666257  0.07641493  0.91142752  1
  O2-  O189  1  0.81745635  0.57244170  0.23270208  1
  O2-  O190  1  0.81857534  0.57020602  0.56878110  1
  O2-  O191  1  0.81772010  0.57311601  0.90879249  1
  O2-  O192  1  0.03656115  0.08301495  0.26118129  1
  O2-  O193  1  0.04068741  0.08447702  0.60488982  1
  O2-  O194  1  0.04044226  0.08595645  0.93427656  1
  O2-  O195  1  0.04308724  0.58652950  0.27029972  1
  O2-  O196  1  0.03539092  0.58746985  0.59579982  1
  O2-  O197  1  0.03927556  0.58863997  0.93795662  1
  O2-  O198  1  0.54565127  0.08068438  0.27109318  1
  O2-  O199  1  0.54409033  0.08040156  0.59885000  1
  O2-  O200  1  0.55458993  0.08214013  0.94087319  1
  O2-  O201  1  0.55357319  0.58730731  0.27131827  1
  O2-  O202  1  0.54674442  0.58096584  0.59563654  1
  O2-  O203  1  0.55917690  0.58107113  0.94003615  1
  O2-  O204  1  0.16601933  0.20609088  0.26297651  1
  O2-  O205  1  0.16588549  0.19976591  0.60706242  1
  O2-  O206  1  0.16805274  0.19506623  0.93795630  1
  O2-  O207  1  0.16334448  0.70793850  0.26948424  1
  O2-  O208  1  0.16634647  0.71174443  0.59483110  1
  O2-  O209  1  0.16553791  0.70186100  0.94033247  1
  O2-  O210  1  0.66897046  0.19536852  0.27100627  1
  O2-  O211  1  0.66248551  0.21239780  0.59446246  1
  O2-  O212  1  0.66461391  0.20913477  0.93951719  1
  O2-  O213  1  0.66309412  0.71522395  0.27024762  1
  O2-  O214  1  0.66642077  0.71463751  0.59638706  1
  O2-  O215  1  0.66372249  0.71108103  0.93477695  1
  O2-  O216  1  0.08026643  0.46202305  0.07137493  1
  O2-  O217  1  0.08147722  0.45362361  0.39985360  1
  O2-  O218  1  0.08084549  0.46519949  0.73332944  1
  O2-  O219  1  0.07738102  0.95753523  0.06880132  1
  O2-  O220  1  0.08467507  0.95669366  0.39344528  1
  O2-  O221  1  0.07904109  0.95503411  0.73354084  1
  O2-  O222  1  0.58978646  0.45461744  0.06412779  1
  O2-  O223  1  0.58636440  0.45416049  0.39688766  1
  O2-  O224  1  0.58470083  0.45329173  0.72852628  1
  O2-  O225  1  0.59103821  0.95495492  0.06342095  1
  O2-  O226  1  0.58190262  0.95728928  0.40446470  1
  O2-  O227  1  0.58283387  0.95103541  0.72976470  1
  O2-  O228  1  0.19814708  0.32672682  0.06327030  1
  O2-  O229  1  0.20919592  0.32707652  0.40018921  1
  O2-  O230  1  0.19638955  0.32952958  0.73575865  1
  O2-  O231  1  0.20413955  0.83018729  0.06976321  1
  O2-  O232  1  0.20492699  0.83698763  0.39426243  1
  O2-  O233  1  0.20424828  0.83029044  0.73224803  1
  O2-  O234  1  0.71116649  0.33729287  0.06630229  1
  O2-  O235  1  0.69812817  0.32932774  0.39265544  1
  O2-  O236  1  0.70502869  0.33476338  0.72844873  1
  O2-  O237  1  0.71171701  0.83653540  0.06321002  1
  O2-  O238  1  0.71270042  0.83703993  0.40498286  1
  O2-  O239  1  0.70553989  0.83610779  0.73281772  1
  O2-  O240  1  0.46386710  0.41594497  0.26565659  1
  O2-  O241  1  0.45526038  0.41307582  0.60349852  1
  O2-  O242  1  0.46506110  0.41503556  0.93061093  1
  O2-  O243  1  0.46099235  0.91213667  0.27003320  1
  O2-  O244  1  0.45595596  0.91393205  0.60163476  1
  O2-  O245  1  0.46685955  0.91343742  0.93129720  1
  O2-  O246  1  0.95313670  0.41820514  0.27057504  1
  O2-  O247  1  0.95837446  0.41921627  0.59871636  1
  O2-  O248  1  0.95627279  0.42041137  0.93475466  1
  O2-  O249  1  0.95459901  0.91062712  0.27041670  1
  O2-  O250  1  0.94954593  0.92021092  0.60471047  1
  O2-  O251  1  0.95011709  0.92188183  0.93540113  1
  O2-  O252  1  0.33644262  0.28696884  0.26518530  1
  O2-  O253  1  0.32980751  0.29700256  0.60756353  1
  O2-  O254  1  0.33051443  0.29278028  0.93281455  1
  O2-  O255  1  0.33585273  0.79718100  0.27077424  1
  O2-  O256  1  0.33291751  0.79940689  0.60312189  1
  O2-  O257  1  0.33062834  0.79457108  0.93438130  1
  O2-  O258  1  0.83296197  0.30016744  0.26962493  1
  O2-  O259  1  0.83393004  0.29043555  0.59630849  1
  O2-  O260  1  0.83409565  0.28824392  0.93277096  1
  O2-  O261  1  0.83657083  0.78952059  0.27458577  1
  O2-  O262  1  0.83290223  0.79858300  0.60370931  1
  O2-  O263  1  0.83379350  0.78867888  0.92887386  1
  O2-  O264  1  0.42299283  0.03935842  0.06922901  1
  O2-  O265  1  0.41141679  0.04142609  0.39499323  1
  O2-  O266  1  0.42163842  0.04478957  0.73260551  1
  O2-  O267  1  0.42658740  0.54678088  0.06460773  1
  O2-  O268  1  0.42492956  0.54808770  0.39628042  1
  O2-  O269  1  0.42497475  0.54868109  0.73104066  1
  O2-  O270  1  0.91272097  0.04868028  0.06275867  1
  O2-  O271  1  0.91422966  0.03934344  0.39528619  1
  O2-  O272  1  0.91275075  0.04428244  0.73765372  1
  O2-  O273  1  0.91064097  0.54529405  0.06217930  1
  O2-  O274  1  0.91749424  0.54353057  0.40008280  1
  O2-  O275  1  0.91553706  0.54221478  0.73604863  1
  O2-  O276  1  0.29554992  0.16855274  0.06886549  1
  O2-  O277  1  0.29186008  0.16084110  0.39310579  1
  O2-  O278  1  0.29485033  0.16898217  0.73544798  1
  O2-  O279  1  0.29460042  0.66784062  0.06756520  1
  O2-  O280  1  0.29505415  0.67204751  0.40115601  1
  O2-  O281  1  0.29323386  0.66882719  0.73039682  1
  O2-  O282  1  0.78930616  0.16312352  0.06692159  1
  O2-  O283  1  0.80440308  0.16802605  0.39112178  1
  O2-  O284  1  0.78439468  0.16959169  0.73288958  1
  O2-  O285  1  0.78931891  0.66327489  0.06154066  1
  O2-  O286  1  0.78593177  0.66373703  0.40281697  1
  O2-  O287  1  0.78748755  0.66867105  0.73467580  1
