# generated using pymatgen
data_Ca2Al2SiO7
_symmetry_space_group_name_H-M   'P 1'
_cell_length_a   15.46368915
_cell_length_b   15.46150595
_cell_length_c   15.28746664
_cell_angle_alpha   90.00939834
_cell_angle_beta   89.98804019
_cell_angle_gamma   89.99453071
_symmetry_Int_Tables_number   1
_chemical_formula_structural   Ca2Al2SiO7
_chemical_formula_sum   'Ca48 Al48 Si24 O168'
_cell_volume   3655.10963497
_cell_formula_units_Z   24
loop_
 _symmetry_equiv_pos_site_id
 _symmetry_equiv_pos_as_xyz
  1  'x, y, z'
loop_
 _atom_type_symbol
 _atom_type_oxidation_number
  Ca2+  2.0
  Al0+  0.0
  Si0+  0.0
  O2-  -2.0
loop_
 _atom_site_type_symbol
 _atom_site_label
 _atom_site_symmetry_multiplicity
 _atom_site_fract_x
 _atom_site_fract_y
 _atom_site_fract_z
 _atom_site_occupancy
  Ca2+  Ca0  1  0.16873876  0.08812026  0.17137575  1
  Ca2+  Ca1  1  0.17812153  0.07857003  0.50777980  1
  Ca2+  Ca2  1  0.16644190  0.08213946  0.83433359  1
  Ca2+  Ca3  1  0.16389143  0.58275358  0.17266764  1
  Ca2+  Ca4  1  0.15585871  0.58017802  0.50782584  1
  Ca2+  Ca5  1  0.15716914  0.57916888  0.82939107  1
  Ca2+  Ca6  1  0.67758554  0.08161561  0.17184589  1
  Ca2+  Ca7  1  0.67410573  0.07288641  0.50045153  1
  Ca2+  Ca8  1  0.67276708  0.07907396  0.83857644  1
  Ca2+  Ca9  1  0.67235451  0.57739244  0.17534209  1
  Ca2+  Ca10  1  0.68035553  0.59020837  0.50110469  1
  Ca2+  Ca11  1  0.67659052  0.57719124  0.83610431  1
  Ca2+  Ca12  1  0.06817088  0.32453271  0.16216190  1
  Ca2+  Ca13  1  0.07510759  0.33680146  0.49832323  1
  Ca2+  Ca14  1  0.07561977  0.32928134  0.82784054  1
  Ca2+  Ca15  1  0.06922329  0.83399282  0.16358064  1
  Ca2+  Ca16  1  0.07908961  0.82493496  0.49575582  1
  Ca2+  Ca17  1  0.07140379  0.83121264  0.82263082  1
  Ca2+  Ca18  1  0.58101467  0.32857166  0.15882998  1
  Ca2+  Ca19  1  0.57287623  0.33132140  0.49227880  1
  Ca2+  Ca20  1  0.59248208  0.32606816  0.83451168  1
  Ca2+  Ca21  1  0.59522362  0.82802750  0.17140891  1
  Ca2+  Ca22  1  0.58417744  0.83675420  0.49584127  1
  Ca2+  Ca23  1  0.57817391  0.83878407  0.82254128  1
  Ca2+  Ca24  1  0.33141817  0.41420957  0.17384340  1
  Ca2+  Ca25  1  0.32585522  0.41701764  0.50605212  1
  Ca2+  Ca26  1  0.32388500  0.41624686  0.83409985  1
  Ca2+  Ca27  1  0.32744884  0.92533655  0.17541471  1
  Ca2+  Ca28  1  0.33118542  0.92478568  0.51084246  1
  Ca2+  Ca29  1  0.32644910  0.91404917  0.82835058  1
  Ca2+  Ca30  1  0.83096106  0.41405297  0.17289001  1
  Ca2+  Ca31  1  0.84772856  0.42888516  0.50376530  1
  Ca2+  Ca32  1  0.83904314  0.42067482  0.83711278  1
  Ca2+  Ca33  1  0.83668736  0.92629061  0.17530187  1
  Ca2+  Ca34  1  0.82605774  0.90687856  0.50256606  1
  Ca2+  Ca35  1  0.83327390  0.91558625  0.83860981  1
  Ca2+  Ca36  1  0.42193340  0.16753487  0.16561231  1
  Ca2+  Ca37  1  0.41190059  0.16668879  0.49361875  1
  Ca2+  Ca38  1  0.42483522  0.15929303  0.82857115  1
  Ca2+  Ca39  1  0.42630503  0.66650114  0.16599259  1
  Ca2+  Ca40  1  0.42407591  0.67482001  0.49512819  1
  Ca2+  Ca41  1  0.42204379  0.67387529  0.82515324  1
  Ca2+  Ca42  1  0.91026377  0.17128169  0.15722758  1
  Ca2+  Ca43  1  0.91105955  0.17853034  0.49402754  1
  Ca2+  Ca44  1  0.91227496  0.17638165  0.83353665  1
  Ca2+  Ca45  1  0.91054878  0.67736065  0.17180779  1
  Ca2+  Ca46  1  0.92040343  0.67233440  0.49581449  1
  Ca2+  Ca47  1  0.91631600  0.67605386  0.82326277  1
  Al0+  Al48  1  0.00037565  -0.00085626  -0.00361207  1
  Al0+  Al49  1  0.00223375  0.00156312  0.33688195  1
  Al0+  Al50  1  -0.00010383  0.00266654  0.66500953  1
  Al0+  Al51  1  0.00151106  0.50162699  0.00178823  1
  Al0+  Al52  1  -0.00037252  0.49773591  0.32674701  1
  Al0+  Al53  1  -0.00019007  0.49968294  0.67156317  1
  Al0+  Al54  1  0.49842117  -0.00047172  -0.00209348  1
  Al0+  Al55  1  0.49939998  0.00114046  0.33890605  1
  Al0+  Al56  1  0.50257199  -0.00003575  0.66880212  1
  Al0+  Al57  1  0.49947533  0.50094368  0.00217034  1
  Al0+  Al58  1  0.49775327  0.50050205  0.32626089  1
  Al0+  Al59  1  0.50087249  0.49783870  0.66749479  1
  Al0+  Al60  1  0.24981745  0.25098907  -0.00140539  1
  Al0+  Al61  1  0.24941877  0.25177353  0.33307411  1
  Al0+  Al62  1  0.25132634  0.25120189  0.67630159  1
  Al0+  Al63  1  0.25093656  0.75027617  0.00236983  1
  Al0+  Al64  1  0.25170314  0.74839705  0.32920175  1
  Al0+  Al65  1  0.25254146  0.75100145  0.66252852  1
  Al0+  Al66  1  0.74724478  0.25008045  -0.00125079  1
  Al0+  Al67  1  0.74621821  0.24928700  0.33485485  1
  Al0+  Al68  1  0.74864169  0.24926210  0.65906289  1
  Al0+  Al69  1  0.74866565  0.74745504  -0.00425803  1
  Al0+  Al70  1  0.74993136  0.74788223  0.33210098  1
  Al0+  Al71  1  0.74958885  0.74832119  0.67475155  1
  Al0+  Al72  1  0.92978918  0.31930906  0.65255114  1
  Al0+  Al73  1  0.17913967  0.43091526  0.68097957  1
  Al0+  Al74  1  0.07018141  0.67973990  0.65363136  1
  Al0+  Al75  1  0.56887398  0.17892384  0.98621307  1
  Al0+  Al76  1  0.82019340  0.06804832  0.01095635  1
  Al0+  Al77  1  0.82080294  0.56683722  0.34624786  1
  Al0+  Al78  1  0.17726629  0.92744263  0.68124212  1
  Al0+  Al79  1  0.92820389  0.81937957  0.98610853  1
  Al0+  Al80  1  0.31841810  0.07145129  0.34547428  1
  Al0+  Al81  1  0.67987916  0.43002617  0.01387272  1
  Al0+  Al82  1  0.43131750  0.82159970  0.65235786  1
  Al0+  Al83  1  0.32162312  0.07102981  0.68449862  1
  Al0+  Al84  1  0.42742685  0.32037227  0.32038159  1
  Al0+  Al85  1  0.07207422  0.67728182  0.31711826  1
  Al0+  Al86  1  0.92572919  0.82392490  0.65150682  1
  Al0+  Al87  1  0.82448097  0.07426222  0.34909926  1
  Al0+  Al88  1  0.57092916  0.68013145  0.32002678  1
  Al0+  Al89  1  0.92745117  0.32173657  0.98489091  1
  Al0+  Al90  1  0.92909572  0.82276752  0.31909045  1
  Al0+  Al91  1  0.68311092  0.92999968  0.68125961  1
  Al0+  Al92  1  0.68191126  0.92840082  0.34735990  1
  Al0+  Al93  1  0.92718238  0.31855022  0.31977214  1
  Al0+  Al94  1  0.07288622  0.17825817  0.98418533  1
  Al0+  Al95  1  0.82035315  0.56876998  0.68102249  1
  Si0+  Si96  1  0.17908010  0.42867466  0.01810100  1
  Si0+  Si97  1  0.17980837  0.92872642  0.01544893  1
  Si0+  Si98  1  0.82227977  0.07654703  0.68302248  1
  Si0+  Si99  1  0.42858335  0.82437554  0.31578726  1
  Si0+  Si100  1  0.18081029  0.43207703  0.34710132  1
  Si0+  Si101  1  0.32582108  0.57211711  0.68227938  1
  Si0+  Si102  1  0.07581852  0.17926345  0.64936614  1
  Si0+  Si103  1  0.42801572  0.32083562  0.65334597  1
  Si0+  Si104  1  0.67406738  0.42760590  0.34995111  1
  Si0+  Si105  1  0.42806545  0.82023869  0.98522800  1
  Si0+  Si106  1  0.32062985  0.57157298  0.01636596  1
  Si0+  Si107  1  0.32207856  0.07132767  0.01587276  1
  Si0+  Si108  1  0.32351471  0.57234690  0.34830643  1
  Si0+  Si109  1  0.56961774  0.67773523  0.98344370  1
  Si0+  Si110  1  0.57024674  0.17848616  0.64901595  1
  Si0+  Si111  1  0.07538325  0.67992507  0.98326731  1
  Si0+  Si112  1  0.17830297  0.92450632  0.34942857  1
  Si0+  Si113  1  0.42786505  0.32412818  0.98138329  1
  Si0+  Si114  1  0.57195993  0.67537985  0.65135972  1
  Si0+  Si115  1  0.82309756  0.57306139  0.01898617  1
  Si0+  Si116  1  0.56975935  0.17689262  0.31662426  1
  Si0+  Si117  1  0.67532404  0.42546222  0.68161175  1
  Si0+  Si118  1  0.07275716  0.17933742  0.32033297  1
  Si0+  Si119  1  0.67497444  0.92599493  0.01599890  1
  O2-  O120  1  0.24787017  0.00345031  0.05757424  1
  O2-  O121  1  0.24723598  -0.00601385  0.39178385  1
  O2-  O122  1  0.24725944  0.00104293  0.73393365  1
  O2-  O123  1  0.25011673  0.50052359  0.05952810  1
  O2-  O124  1  0.24828965  0.50634775  0.39032225  1
  O2-  O125  1  0.25367132  0.50725966  0.72703589  1
  O2-  O126  1  0.74673944  -0.00833946  0.05832868  1
  O2-  O127  1  0.75752386  -0.00348724  0.39780187  1
  O2-  O128  1  0.76147243  0.00073890  0.72746152  1
  O2-  O129  1  0.75770403  0.50047713  0.06194033  1
  O2-  O130  1  0.74634148  0.49161428  0.39459021  1
  O2-  O131  1  0.74587058  0.49208245  0.72518610  1
  O2-  O132  1  -0.00534349  0.23634401  0.27507238  1
  O2-  O133  1  0.00342168  0.24372507  0.60495249  1
  O2-  O134  1  0.00023858  0.25018255  0.93510968  1
  O2-  O135  1  0.00326475  0.75255489  0.26811710  1
  O2-  O136  1  0.00166577  0.75460670  0.60363330  1
  O2-  O137  1  0.00220761  0.74337723  0.94042822  1
  O2-  O138  1  0.50312593  0.24802488  0.27271439  1
  O2-  O139  1  0.49746659  0.24954600  0.60969945  1
  O2-  O140  1  0.49494703  0.25430432  0.93711327  1
  O2-  O141  1  0.49823787  0.75679669  0.27107134  1
  O2-  O142  1  0.50501929  0.74542224  0.60705229  1
  O2-  O143  1  0.50298721  0.75334068  0.94260030  1
  O2-  O144  1  0.07621370  0.18149316  0.09805961  1
  O2-  O145  1  0.07904258  0.18628250  0.42529600  1
  O2-  O146  1  0.07696056  0.18251538  0.75486967  1
  O2-  O147  1  0.08052185  0.68332443  0.08854658  1
  O2-  O148  1  0.07208456  0.67617644  0.43018928  1
  O2-  O149  1  0.06700033  0.67899564  0.76766107  1
  O2-  O150  1  0.56492199  0.17853848  0.09906074  1
  O2-  O151  1  0.56764047  0.17778333  0.42232136  1
  O2-  O152  1  0.57156056  0.17977372  0.75437462  1
  O2-  O153  1  0.56828207  0.67691069  0.08854579  1
  O2-  O154  1  0.56765133  0.67855007  0.43279694  1
  O2-  O155  1  0.56817232  0.67380146  0.75744081  1
  O2-  O156  1  0.18442619  0.43166197  0.24180650  1
  O2-  O157  1  0.18168699  0.43012318  0.56756172  1
  O2-  O158  1  0.18010866  0.42954253  0.91315333  1
  O2-  O159  1  0.18010428  0.92513854  0.24308363  1
  O2-  O160  1  0.18211388  0.92836688  0.56768881  1
  O2-  O161  1  0.18357822  0.92465776  0.91103945  1
  O2-  O162  1  0.67346065  0.42929724  0.24408302  1
  O2-  O163  1  0.66840616  0.42689037  0.57657114  1
  O2-  O164  1  0.67740963  0.43398424  0.90068925  1
  O2-  O165  1  0.68063962  0.93124374  0.23324827  1
  O2-  O166  1  0.68011516  0.93125323  0.56865630  1
  O2-  O167  1  0.67227674  0.92779904  0.91046211  1
  O2-  O168  1  0.42780911  0.32377857  0.08714084  1
  O2-  O169  1  0.42659231  0.32016978  0.43378359  1
  O2-  O170  1  0.42969293  0.32300003  0.75826926  1
  O2-  O171  1  0.42518008  0.81836636  0.09022055  1
  O2-  O172  1  0.42774500  0.82259691  0.42101747  1
  O2-  O173  1  0.43296830  0.81914535  0.76630446  1
  O2-  O174  1  0.92823319  0.31971774  0.09862477  1
  O2-  O175  1  0.93335151  0.32305551  0.43265657  1
  O2-  O176  1  0.92962341  0.31881677  0.76550945  1
  O2-  O177  1  0.92867969  0.82034028  0.09907350  1
  O2-  O178  1  0.92866223  0.81881261  0.43196599  1
  O2-  O179  1  0.92567966  0.81968705  0.76557646  1
  O2-  O180  1  0.31681986  0.07102429  0.23158850  1
  O2-  O181  1  0.32054760  0.07238110  0.57069897  1
  O2-  O182  1  0.32481611  0.06889965  0.91144605  1
  O2-  O183  1  0.32496212  0.57013679  0.24279727  1
  O2-  O184  1  0.33170982  0.56714689  0.57704844  1
  O2-  O185  1  0.32166154  0.57215759  0.91148592  1
  O2-  O186  1  0.82030393  0.07560973  0.23509134  1
  O2-  O187  1  0.81550120  0.08265607  0.57810361  1
  O2-  O188  1  0.81747190  0.06754012  0.89788222  1
  O2-  O189  1  0.81770396  0.56600520  0.23299819  1
  O2-  O190  1  0.82031474  0.56865968  0.56788675  1
  O2-  O191  1  0.82065323  0.57433698  0.91336066  1
  O2-  O192  1  0.06163188  0.08165162  0.27836550  1
  O2-  O193  1  0.05692098  0.08405791  0.60480545  1
  O2-  O194  1  0.04842842  0.07922104  0.93223005  1
  O2-  O195  1  0.04163843  0.58067377  0.26149033  1
  O2-  O196  1  0.03949108  0.58121414  0.60282104  1
  O2-  O197  1  0.05469522  0.58333879  0.94197869  1
  O2-  O198  1  0.54056828  0.08466074  0.27004225  1
  O2-  O199  1  0.54132004  0.08756069  0.60221700  1
  O2-  O200  1  0.53671470  0.08259786  0.93107471  1
  O2-  O201  1  0.53579838  0.58631036  0.26208535  1
  O2-  O202  1  0.54551034  0.58216250  0.60488690  1
  O2-  O203  1  0.53533946  0.58841552  0.93542032  1
  O2-  O204  1  0.16092684  0.21582154  0.26904321  1
  O2-  O205  1  0.16924636  0.21047191  0.60562079  1
  O2-  O206  1  0.17150940  0.20788954  0.93121937  1
  O2-  O207  1  0.17348715  0.69955735  0.26525988  1
  O2-  O208  1  0.17144072  0.69981600  0.60250868  1
  O2-  O209  1  0.16827803  0.70769762  0.93646226  1
  O2-  O210  1  0.66313446  0.20158765  0.27036304  1
  O2-  O211  1  0.65961347  0.20734312  0.59822064  1
  O2-  O212  1  0.66343522  0.21072422  0.92961981  1
  O2-  O213  1  0.66605306  0.70855940  0.26226224  1
  O2-  O214  1  0.66615000  0.70101653  0.60912127  1
  O2-  O215  1  0.66226637  0.69949354  0.93560414  1
  O2-  O216  1  0.08756566  0.45636569  0.06649144  1
  O2-  O217  1  0.08804136  0.45748415  0.39261898  1
  O2-  O218  1  0.08515633  0.46197909  0.73915226  1
  O2-  O219  1  0.08772459  0.95463446  0.06237739  1
  O2-  O220  1  0.08524398  0.94762782  0.39600958  1
  O2-  O221  1  0.07752975  0.95442564  0.73319782  1
  O2-  O222  1  0.58287431  0.46290115  0.06780089  1
  O2-  O223  1  0.58050676  0.45745353  0.39410287  1
  O2-  O224  1  0.58322688  0.45164057  0.73192586  1
  O2-  O225  1  0.58135310  0.95244365  0.06198641  1
  O2-  O226  1  0.58349124  0.95856254  0.40032706  1
  O2-  O227  1  0.58796053  0.96512333  0.73616655  1
  O2-  O228  1  0.20909664  0.33738228  0.06549680  1
  O2-  O229  1  0.21261385  0.34238651  0.39562731  1
  O2-  O230  1  0.21313360  0.33775681  0.73950962  1
  O2-  O231  1  0.21297232  0.83920269  0.06518783  1
  O2-  O232  1  0.20576112  0.83059731  0.39345859  1
  O2-  O233  1  0.21099848  0.82973601  0.73439290  1
  O2-  O234  1  0.70437747  0.33190687  0.06734167  1
  O2-  O235  1  0.69152509  0.33190642  0.39389790  1
  O2-  O236  1  0.70096821  0.33074708  0.72502714  1
  O2-  O237  1  0.69766802  0.82960402  0.05764851  1
  O2-  O238  1  0.70428528  0.82818444  0.39899873  1
  O2-  O239  1  0.70477002  0.83225810  0.73779927  1
  O2-  O240  1  0.45461899  0.41640614  0.26347737  1
  O2-  O241  1  0.45619825  0.41229879  0.60457105  1
  O2-  O242  1  0.45313350  0.41842323  0.93674852  1
  O2-  O243  1  0.45249986  0.91893911  0.27097087  1
  O2-  O244  1  0.46440912  0.91769831  0.59948845  1
  O2-  O245  1  0.45190393  0.91265639  0.93787236  1
  O2-  O246  1  0.96429217  0.41075926  0.26198766  1
  O2-  O247  1  0.96558686  0.41526812  0.60148660  1
  O2-  O248  1  0.95742496  0.42202475  0.93593757  1
  O2-  O249  1  0.95722528  0.92313346  0.26787711  1
  O2-  O250  1  0.94515713  0.92586808  0.60263202  1
  O2-  O251  1  0.96032313  0.91457188  0.93168923  1
  O2-  O252  1  0.33228792  0.28828524  0.26368839  1
  O2-  O253  1  0.33535025  0.29439362  0.60737643  1
  O2-  O254  1  0.33361283  0.29988421  0.93697327  1
  O2-  O255  1  0.33638091  0.79679586  0.26738149  1
  O2-  O256  1  0.33605160  0.79258143  0.59613612  1
  O2-  O257  1  0.33819494  0.78720084  0.93687792  1
  O2-  O258  1  0.82675034  0.29537331  0.26978406  1
  O2-  O259  1  0.83249331  0.29285851  0.59721627  1
  O2-  O260  1  0.82897286  0.29450957  0.93242474  1
  O2-  O261  1  0.83213636  0.79060245  0.26518115  1
  O2-  O262  1  0.82744259  0.78849576  0.60288242  1
  O2-  O263  1  0.83081807  0.78996023  0.93207568  1
  O2-  O264  1  0.41206656  0.03914598  0.06489119  1
  O2-  O265  1  0.41506464  0.04483613  0.40055100  1
  O2-  O266  1  0.41953294  0.03919766  0.73607464  1
  O2-  O267  1  0.41195222  0.54362618  0.06514198  1
  O2-  O268  1  0.41329852  0.53999469  0.39627267  1
  O2-  O269  1  0.41689900  0.54169659  0.73269035  1
  O2-  O270  1  0.91837384  0.04083656  0.06425549  1
  O2-  O271  1  0.92632263  0.05745357  0.39909858  1
  O2-  O272  1  0.91978315  0.06253310  0.72383632  1
  O2-  O273  1  0.91922016  0.55426733  0.06235418  1
  O2-  O274  1  0.91808817  0.53437957  0.39782054  1
  O2-  O275  1  0.91459559  0.53715230  0.73827500  1
  O2-  O276  1  0.29786303  0.16549496  0.06090219  1
  O2-  O277  1  0.28628846  0.16773657  0.39969728  1
  O2-  O278  1  0.29804357  0.16977309  0.73910193  1
  O2-  O279  1  0.29359228  0.66313961  0.06540327  1
  O2-  O280  1  0.30264544  0.66671814  0.39338332  1
  O2-  O281  1  0.30483128  0.66726768  0.72605729  1
  O2-  O282  1  0.78608708  0.16426659  0.06368088  1
  O2-  O283  1  0.78783617  0.17011377  0.40374001  1
  O2-  O284  1  0.78638074  0.16704507  0.73050991  1
  O2-  O285  1  0.78997171  0.66504959  0.06454498  1
  O2-  O286  1  0.78797766  0.66282841  0.39912442  1
  O2-  O287  1  0.78652030  0.66194672  0.73996949  1
