# generated using pymatgen
data_Ca2Al2SiO7
_symmetry_space_group_name_H-M   'P 1'
_cell_length_a   15.46044571
_cell_length_b   15.46187982
_cell_length_c   15.28625162
_cell_angle_alpha   90.00336969
_cell_angle_beta   90.01016796
_cell_angle_gamma   90.00809963
_symmetry_Int_Tables_number   1
_chemical_formula_structural   Ca2Al2SiO7
_chemical_formula_sum   'Ca48 Al48 Si24 O168'
_cell_volume   3654.14095296
_cell_formula_units_Z   24
loop_
 _symmetry_equiv_pos_site_id
 _symmetry_equiv_pos_as_xyz
  1  'x, y, z'
loop_
 _atom_type_symbol
 _atom_type_oxidation_number
  Ca2+  2.0
  Al0+  0.0
  Si0+  0.0
  O2-  -2.0
loop_
 _atom_site_type_symbol
 _atom_site_label
 _atom_site_symmetry_multiplicity
 _atom_site_fract_x
 _atom_site_fract_y
 _atom_site_fract_z
 _atom_site_occupancy
  Ca2+  Ca0  1  0.16969622  0.08916924  0.17421726  1
  Ca2+  Ca1  1  0.17506513  0.09246675  0.50276944  1
  Ca2+  Ca2  1  0.17029477  0.09868518  0.83323651  1
  Ca2+  Ca3  1  0.16987665  0.57116701  0.17291183  1
  Ca2+  Ca4  1  0.17474194  0.57950036  0.50638301  1
  Ca2+  Ca5  1  0.17386476  0.57905602  0.83880977  1
  Ca2+  Ca6  1  0.67374011  0.07771057  0.17163974  1
  Ca2+  Ca7  1  0.65403367  0.07580607  0.50538689  1
  Ca2+  Ca8  1  0.67135139  0.07796385  0.83900115  1
  Ca2+  Ca9  1  0.66830772  0.57620931  0.16564798  1
  Ca2+  Ca10  1  0.66889679  0.57571317  0.50781675  1
  Ca2+  Ca11  1  0.66612355  0.56713229  0.83682356  1
  Ca2+  Ca12  1  0.08598592  0.32770934  0.15898197  1
  Ca2+  Ca13  1  0.08587376  0.32590996  0.49631270  1
  Ca2+  Ca14  1  0.07584961  0.32976654  0.82924304  1
  Ca2+  Ca15  1  0.07658451  0.83218773  0.15774294  1
  Ca2+  Ca16  1  0.08921524  0.82488514  0.49916357  1
  Ca2+  Ca17  1  0.07664223  0.82864515  0.82880255  1
  Ca2+  Ca18  1  0.58328735  0.32887398  0.16205547  1
  Ca2+  Ca19  1  0.57862136  0.32483707  0.50064114  1
  Ca2+  Ca20  1  0.58143474  0.33109046  0.82060946  1
  Ca2+  Ca21  1  0.58130055  0.83853803  0.16605545  1
  Ca2+  Ca22  1  0.57895003  0.83757873  0.49148118  1
  Ca2+  Ca23  1  0.58727070  0.83468618  0.82997461  1
  Ca2+  Ca24  1  0.32079652  0.42422822  0.17190488  1
  Ca2+  Ca25  1  0.33295387  0.42291908  0.50539918  1
  Ca2+  Ca26  1  0.33218031  0.42515369  0.84042057  1
  Ca2+  Ca27  1  0.33301422  0.92118828  0.17478730  1
  Ca2+  Ca28  1  0.33976441  0.92917058  0.50167173  1
  Ca2+  Ca29  1  0.33064948  0.92648753  0.83268304  1
  Ca2+  Ca30  1  0.82951098  0.40561197  0.16320255  1
  Ca2+  Ca31  1  0.82785455  0.41013169  0.50743953  1
  Ca2+  Ca32  1  0.82586747  0.40208103  0.83588719  1
  Ca2+  Ca33  1  0.82781028  0.91890281  0.16786653  1
  Ca2+  Ca34  1  0.81998276  0.92016847  0.50658893  1
  Ca2+  Ca35  1  0.82619373  0.92301007  0.84333958  1
  Ca2+  Ca36  1  0.42265380  0.16078959  0.16778178  1
  Ca2+  Ca37  1  0.42251816  0.16254139  0.49721044  1
  Ca2+  Ca38  1  0.42200853  0.17630921  0.82066261  1
  Ca2+  Ca39  1  0.40855265  0.66883206  0.16562953  1
  Ca2+  Ca40  1  0.41195888  0.67093726  0.49437266  1
  Ca2+  Ca41  1  0.41287924  0.66458549  0.82792188  1
  Ca2+  Ca42  1  0.92964491  0.16733519  0.15495707  1
  Ca2+  Ca43  1  0.92622076  0.17066270  0.49880622  1
  Ca2+  Ca44  1  0.92329018  0.17186354  0.83034027  1
  Ca2+  Ca45  1  0.91610717  0.67467857  0.15909339  1
  Ca2+  Ca46  1  0.92434099  0.66378887  0.49990985  1
  Ca2+  Ca47  1  0.91946448  0.67299483  0.82818586  1
  Al0+  Al48  1  0.00131899  -0.00081742  -0.00690653  1
  Al0+  Al49  1  -0.00127209  0.00014522  0.33129803  1
  Al0+  Al50  1  -0.00137291  -0.00117987  0.66155888  1
  Al0+  Al51  1  -0.00021194  0.49930414  -0.00093584  1
  Al0+  Al52  1  -0.00120945  0.49980143  0.33558644  1
  Al0+  Al53  1  -0.00036072  0.50275266  0.65899251  1
  Al0+  Al54  1  0.49925309  -0.00185888  0.00113950  1
  Al0+  Al55  1  0.49940757  -0.00146220  0.33013498  1
  Al0+  Al56  1  0.49710425  -0.00065557  0.67490649  1
  Al0+  Al57  1  0.50159620  0.50205818  0.00926563  1
  Al0+  Al58  1  0.50150577  0.50020049  0.33528716  1
  Al0+  Al59  1  0.50120041  0.50151231  0.66930357  1
  Al0+  Al60  1  0.25386912  0.25241824  0.00127212  1
  Al0+  Al61  1  0.25079422  0.25104144  0.33677500  1
  Al0+  Al62  1  0.24991033  0.25341097  0.66493922  1
  Al0+  Al63  1  0.25205570  0.75381379  0.00136741  1
  Al0+  Al64  1  0.24946527  0.74978140  0.32977685  1
  Al0+  Al65  1  0.24963716  0.75077889  0.66694026  1
  Al0+  Al66  1  0.75136693  0.24628482  0.00672463  1
  Al0+  Al67  1  0.75072060  0.24826498  0.33055959  1
  Al0+  Al68  1  0.74999686  0.24636464  0.66192223  1
  Al0+  Al69  1  0.74709029  0.74881250  -0.00159488  1
  Al0+  Al70  1  0.74867346  0.74925065  0.33727278  1
  Al0+  Al71  1  0.74920558  0.74950619  0.66980728  1
  Al0+  Al72  1  0.82362201  0.06959065  0.01540976  1
  Al0+  Al73  1  0.32004012  0.06921398  0.34556270  1
  Al0+  Al74  1  0.32025613  0.57176520  0.68092512  1
  Al0+  Al75  1  0.56896309  0.17645771  0.65373991  1
  Al0+  Al76  1  0.68197605  0.42804578  0.67778088  1
  Al0+  Al77  1  0.07174504  0.18048939  0.31875379  1
  Al0+  Al78  1  0.32101782  0.57229726  0.35016387  1
  Al0+  Al79  1  0.07243055  0.17844107  0.64958915  1
  Al0+  Al80  1  0.67758256  0.92889659  0.68159580  1
  Al0+  Al81  1  0.17793099  0.42869395  0.01367098  1
  Al0+  Al82  1  0.31820774  0.07317221  0.68096166  1
  Al0+  Al83  1  0.57005281  0.17833128  0.31774402  1
  Al0+  Al84  1  0.92762960  0.32095890  0.65067357  1
  Al0+  Al85  1  0.92763414  0.32118706  0.98506252  1
  Al0+  Al86  1  0.67791833  0.92742796  0.01712769  1
  Al0+  Al87  1  0.68021158  0.42663676  0.01389601  1
  Al0+  Al88  1  0.42956408  0.81899542  0.31975856  1
  Al0+  Al89  1  0.32136310  0.57389824  0.01643575  1
  Al0+  Al90  1  0.07552892  0.17925938  0.98436360  1
  Al0+  Al91  1  0.68067890  0.93092328  0.34764692  1
  Al0+  Al92  1  0.17756223  0.42888868  0.35146878  1
  Al0+  Al93  1  0.92721065  0.82031685  0.98616436  1
  Al0+  Al94  1  0.07150304  0.68108044  0.65305400  1
  Al0+  Al95  1  0.42915445  0.32552766  0.65267412  1
  Si0+  Si96  1  0.42968975  0.82012342  0.65336685  1
  Si0+  Si97  1  0.57009115  0.17739708  0.98642310  1
  Si0+  Si98  1  0.92687616  0.81921863  0.31964749  1
  Si0+  Si99  1  0.67996173  0.42629784  0.34909728  1
  Si0+  Si100  1  0.56947534  0.67790842  0.98403334  1
  Si0+  Si101  1  0.42934281  0.32420797  0.31513578  1
  Si0+  Si102  1  0.42849094  0.82206371  0.98204754  1
  Si0+  Si103  1  0.81960233  0.57197172  0.34843437  1
  Si0+  Si104  1  0.17563401  0.42952291  0.68349015  1
  Si0+  Si105  1  0.92789460  0.32326945  0.31515060  1
  Si0+  Si106  1  0.17709980  0.92787792  0.68222891  1
  Si0+  Si107  1  0.17429522  0.92737230  0.34825620  1
  Si0+  Si108  1  0.92516883  0.82108527  0.64786471  1
  Si0+  Si109  1  0.82368499  0.57235518  0.68340795  1
  Si0+  Si110  1  0.07347681  0.67908962  0.98485762  1
  Si0+  Si111  1  0.82366743  0.07244462  0.35210902  1
  Si0+  Si112  1  0.06992775  0.67875289  0.31678179  1
  Si0+  Si113  1  0.82170757  0.57264420  0.01451565  1
  Si0+  Si114  1  0.43317349  0.32280912  0.98756424  1
  Si0+  Si115  1  0.82403144  0.07022412  0.68304278  1
  Si0+  Si116  1  0.57416462  0.67642840  0.31597690  1
  Si0+  Si117  1  0.32081249  0.07160168  0.01450666  1
  Si0+  Si118  1  0.17963878  0.92937178  0.01311124  1
  Si0+  Si119  1  0.57191948  0.67927728  0.65283794  1
  O2-  O120  1  0.24526000  0.00492918  0.05527102  1
  O2-  O121  1  0.24216808  -0.00320055  0.39160851  1
  O2-  O122  1  0.23805653  0.00309716  0.72746684  1
  O2-  O123  1  0.24668558  0.50411015  0.06402185  1
  O2-  O124  1  0.25082632  0.50000549  0.40135197  1
  O2-  O125  1  0.24737624  0.49566872  0.72735733  1
  O2-  O126  1  0.75149829  -0.00236299  0.06636659  1
  O2-  O127  1  0.75209596  0.00702269  0.39688069  1
  O2-  O128  1  0.75408148  0.00192477  0.72635160  1
  O2-  O129  1  0.75901967  0.49859072  0.05957379  1
  O2-  O130  1  0.75134201  0.49797540  0.38974476  1
  O2-  O131  1  0.75957371  0.49932689  0.72642493  1
  O2-  O132  1  -0.00193978  0.25602866  0.27217096  1
  O2-  O133  1  0.00214439  0.25236139  0.59978378  1
  O2-  O134  1  0.00192842  0.25090951  0.93656823  1
  O2-  O135  1  0.00007210  0.75132836  0.27527788  1
  O2-  O136  1  -0.00386125  0.75476100  0.60360794  1
  O2-  O137  1  0.00139677  0.74429370  0.94039031  1
  O2-  O138  1  0.49745944  0.25489597  0.26989173  1
  O2-  O139  1  0.49689376  0.24864102  0.60341218  1
  O2-  O140  1  0.50442962  0.25282286  0.94387579  1
  O2-  O141  1  0.50182157  0.74157138  0.27233908  1
  O2-  O142  1  0.50286996  0.75169122  0.61068449  1
  O2-  O143  1  0.49828063  0.74909698  0.94151227  1
  O2-  O144  1  0.07623875  0.17932883  0.09820875  1
  O2-  O145  1  0.06924681  0.17928413  0.43131563  1
  O2-  O146  1  0.07049227  0.17950430  0.76288571  1
  O2-  O147  1  0.07265617  0.68284738  0.09085927  1
  O2-  O148  1  0.06933109  0.68034260  0.42186512  1
  O2-  O149  1  0.07024311  0.68421619  0.76620580  1
  O2-  O150  1  0.56603046  0.17668934  0.09172486  1
  O2-  O151  1  0.56818263  0.17861211  0.43049514  1
  O2-  O152  1  0.56883644  0.17794476  0.76792148  1
  O2-  O153  1  0.57077653  0.67719686  0.08905100  1
  O2-  O154  1  0.57790345  0.67751603  0.42159926  1
  O2-  O155  1  0.57166074  0.67886407  0.75802606  1
  O2-  O156  1  0.17606507  0.43150259  0.23776098  1
  O2-  O157  1  0.17554585  0.43284486  0.57799230  1
  O2-  O158  1  0.18083901  0.42947358  0.90014705  1
  O2-  O159  1  0.17307004  0.92672402  0.24229971  1
  O2-  O160  1  0.18198693  0.92315590  0.57683523  1
  O2-  O161  1  0.18412148  0.92264981  0.90845902  1
  O2-  O162  1  0.68081730  0.42713253  0.24377839  1
  O2-  O163  1  0.68151399  0.43233213  0.56439199  1
  O2-  O164  1  0.67656908  0.42841643  0.90106651  1
  O2-  O165  1  0.68407790  0.92911896  0.23505664  1
  O2-  O166  1  0.67747100  0.92792058  0.56821181  1
  O2-  O167  1  0.67706696  0.93002976  0.90349765  1
  O2-  O168  1  0.43384430  0.32033826  0.09269531  1
  O2-  O169  1  0.43266044  0.32643498  0.42039787  1
  O2-  O170  1  0.43273834  0.32584348  0.76719991  1
  O2-  O171  1  0.42767331  0.82416725  0.08692966  1
  O2-  O172  1  0.43245444  0.82013904  0.43310776  1
  O2-  O173  1  0.42906270  0.81875725  0.75875642  1
  O2-  O174  1  0.92838409  0.31892993  0.09881347  1
  O2-  O175  1  0.92579805  0.32316054  0.42049187  1
  O2-  O176  1  0.92713669  0.31906124  0.76390903  1
  O2-  O177  1  0.92946220  0.81773735  0.10004899  1
  O2-  O178  1  0.92617179  0.81583761  0.42451056  1
  O2-  O179  1  0.92473772  0.81884765  0.75343031  1
  O2-  O180  1  0.31976521  0.06586757  0.23185132  1
  O2-  O181  1  0.32196610  0.06729756  0.56820609  1
  O2-  O182  1  0.32304948  0.06994640  0.90946131  1
  O2-  O183  1  0.31682173  0.57221355  0.23681033  1
  O2-  O184  1  0.31918670  0.57478269  0.56832413  1
  O2-  O185  1  0.32163331  0.57267275  0.90261178  1
  O2-  O186  1  0.82500303  0.06913028  0.24675532  1
  O2-  O187  1  0.82619026  0.06707899  0.57735096  1
  O2-  O188  1  0.82039802  0.06906511  0.90167720  1
  O2-  O189  1  0.81850920  0.57607509  0.24340343  1
  O2-  O190  1  0.81954797  0.57635893  0.57747848  1
  O2-  O191  1  0.81740523  0.57732610  0.90950087  1
  O2-  O192  1  0.04169558  0.08191242  0.26608077  1
  O2-  O193  1  0.04558023  0.07842209  0.59758985  1
  O2-  O194  1  0.05161693  0.07971174  0.93163691  1
  O2-  O195  1  0.03831762  0.58777866  0.27009238  1
  O2-  O196  1  0.04110854  0.58714225  0.59410520  1
  O2-  O197  1  0.05246271  0.58445534  0.94026244  1
  O2-  O198  1  0.53660350  0.08344222  0.26231158  1
  O2-  O199  1  0.53549924  0.07798435  0.60281268  1
  O2-  O200  1  0.53793062  0.08685693  0.93909392  1
  O2-  O201  1  0.55309946  0.58118405  0.27073644  1
  O2-  O202  1  0.54343536  0.58907378  0.60362161  1
  O2-  O203  1  0.54095638  0.58565374  0.93730631  1
  O2-  O204  1  0.17035231  0.20867720  0.26713686  1
  O2-  O205  1  0.17142741  0.20603019  0.59815987  1
  O2-  O206  1  0.17473500  0.20966643  0.93328698  1
  O2-  O207  1  0.16087610  0.70570278  0.26817148  1
  O2-  O208  1  0.16646412  0.71577385  0.59717459  1
  O2-  O209  1  0.16562763  0.71081385  0.93923527  1
  O2-  O210  1  0.66811355  0.20733481  0.26481491  1
  O2-  O211  1  0.66725189  0.20002543  0.59952156  1
  O2-  O212  1  0.66459315  0.19973636  0.94400667  1
  O2-  O213  1  0.66634301  0.70654148  0.26868864  1
  O2-  O214  1  0.66470406  0.70443274  0.60524551  1
  O2-  O215  1  0.66031137  0.70487368  0.93444252  1
  O2-  O216  1  0.07813834  0.45350890  0.06659657  1
  O2-  O217  1  0.07844507  0.45860018  0.40287004  1
  O2-  O218  1  0.08238214  0.46036127  0.72742705  1
  O2-  O219  1  0.08572915  0.95016240  0.05832069  1
  O2-  O220  1  0.08016087  0.94921090  0.39503163  1
  O2-  O221  1  0.07940704  0.94398820  0.72331228  1
  O2-  O222  1  0.58789548  0.46332252  0.07268007  1
  O2-  O223  1  0.58856649  0.45441268  0.39604786  1
  O2-  O224  1  0.58802017  0.46422112  0.73369007  1
  O2-  O225  1  0.57892150  0.95711862  0.06859879  1
  O2-  O226  1  0.58288894  0.96031312  0.39881462  1
  O2-  O227  1  0.58195001  0.95734874  0.73779550  1
  O2-  O228  1  0.21337217  0.33303948  0.06905673  1
  O2-  O229  1  0.20629071  0.33099348  0.40348789  1
  O2-  O230  1  0.19690575  0.33491993  0.72777322  1
  O2-  O231  1  0.21170415  0.84097119  0.06542857  1
  O2-  O232  1  0.20145170  0.83362160  0.39280215  1
  O2-  O233  1  0.21062377  0.83836801  0.73214851  1
  O2-  O234  1  0.70741747  0.33079982  0.07086079  1
  O2-  O235  1  0.70830983  0.33446716  0.39571814  1
  O2-  O236  1  0.70865682  0.32942570  0.72967102  1
  O2-  O237  1  0.70328080  0.82709340  0.06728516  1
  O2-  O238  1  0.71118909  0.83376359  0.40190868  1
  O2-  O239  1  0.70760636  0.83126584  0.73476815  1
  O2-  O240  1  0.45722373  0.41748204  0.26839682  1
  O2-  O241  1  0.46323237  0.42174667  0.59836159  1
  O2-  O242  1  0.46034726  0.41622774  0.94338714  1
  O2-  O243  1  0.46282243  0.91302488  0.26244617  1
  O2-  O244  1  0.45691605  0.91244135  0.60786748  1
  O2-  O245  1  0.45818629  0.91317553  0.93345351  1
  O2-  O246  1  0.94921806  0.41905979  0.27082815  1
  O2-  O247  1  0.94824181  0.42217869  0.59929776  1
  O2-  O248  1  0.94882777  0.42245126  0.93354487  1
  O2-  O249  1  0.95156176  0.91170492  0.27249481  1
  O2-  O250  1  0.94701538  0.91474856  0.60128454  1
  O2-  O251  1  0.95971506  0.91396130  0.92866520  1
  O2-  O252  1  0.33522429  0.29820802  0.27133120  1
  O2-  O253  1  0.32908346  0.30425965  0.60227063  1
  O2-  O254  1  0.34220313  0.29486146  0.93951087  1
  O2-  O255  1  0.33177455  0.79255797  0.26375493  1
  O2-  O256  1  0.33903164  0.79134501  0.60514897  1
  O2-  O257  1  0.33633491  0.79641299  0.93372786  1
  O2-  O258  1  0.83438018  0.29647073  0.26929186  1
  O2-  O259  1  0.83131752  0.28898479  0.59475758  1
  O2-  O260  1  0.82818527  0.28930122  0.93518036  1
  O2-  O261  1  0.83663178  0.78648980  0.27175492  1
  O2-  O262  1  0.83241548  0.79098170  0.60168103  1
  O2-  O263  1  0.83056718  0.78902420  0.93248824  1
  O2-  O264  1  0.40999534  0.03697565  0.06293330  1
  O2-  O265  1  0.41484067  0.03311798  0.39917019  1
  O2-  O266  1  0.41051901  0.03611008  0.73983578  1
  O2-  O267  1  0.41867900  0.54605155  0.07106995  1
  O2-  O268  1  0.42269694  0.54860478  0.39918594  1
  O2-  O269  1  0.41802574  0.54444670  0.73435088  1
  O2-  O270  1  0.92332508  0.03965775  0.06542630  1
  O2-  O271  1  0.91567832  0.04215091  0.39899547  1
  O2-  O272  1  0.91709940  0.04267233  0.72971266  1
  O2-  O273  1  0.91751066  0.55556279  0.05926136  1
  O2-  O274  1  0.91208919  0.54755298  0.39586363  1
  O2-  O275  1  0.91979828  0.55412230  0.72611730  1
  O2-  O276  1  0.29984262  0.16437639  0.06225055  1
  O2-  O277  1  0.29523137  0.16664460  0.39922736  1
  O2-  O278  1  0.29312066  0.17190996  0.73419605  1
  O2-  O279  1  0.29604963  0.67452637  0.06656080  1
  O2-  O280  1  0.29127319  0.67207203  0.40007628  1
  O2-  O281  1  0.28776207  0.66833539  0.73503526  1
  O2-  O282  1  0.79518507  0.16543635  0.07291840  1
  O2-  O283  1  0.80089153  0.16779467  0.39509376  1
  O2-  O284  1  0.79773514  0.16361503  0.72748509  1
  O2-  O285  1  0.78835849  0.66255965  0.06452547  1
  O2-  O286  1  0.78932848  0.66100436  0.39993787  1
  O2-  O287  1  0.79368112  0.66386734  0.73162719  1
