# generated using pymatgen
data_Ca2Al2SiO7
_symmetry_space_group_name_H-M   'P 1'
_cell_length_a   15.47650561
_cell_length_b   15.47436723
_cell_length_c   15.29668250
_cell_angle_alpha   89.99371640
_cell_angle_beta   89.98716396
_cell_angle_gamma   89.99924450
_symmetry_Int_Tables_number   1
_chemical_formula_structural   Ca2Al2SiO7
_chemical_formula_sum   'Ca48 Al48 Si24 O168'
_cell_volume   3663.38908754
_cell_formula_units_Z   24
loop_
 _symmetry_equiv_pos_site_id
 _symmetry_equiv_pos_as_xyz
  1  'x, y, z'
loop_
 _atom_type_symbol
 _atom_type_oxidation_number
  Ca2+  2.0
  Al0+  0.0
  Si0+  0.0
  O2-  -2.0
loop_
 _atom_site_type_symbol
 _atom_site_label
 _atom_site_symmetry_multiplicity
 _atom_site_fract_x
 _atom_site_fract_y
 _atom_site_fract_z
 _atom_site_occupancy
  Ca2+  Ca0  1  0.17042552  0.08678622  0.16463986  1
  Ca2+  Ca1  1  0.17418934  0.08506079  0.50754660  1
  Ca2+  Ca2  1  0.16872259  0.07792234  0.83797515  1
  Ca2+  Ca3  1  0.17255599  0.58199249  0.16723336  1
  Ca2+  Ca4  1  0.17659131  0.57523922  0.51097373  1
  Ca2+  Ca5  1  0.17435678  0.57612170  0.84390916  1
  Ca2+  Ca6  1  0.67222579  0.08164454  0.16981395  1
  Ca2+  Ca7  1  0.67473676  0.07906567  0.51570130  1
  Ca2+  Ca8  1  0.67026360  0.08257094  0.82993245  1
  Ca2+  Ca9  1  0.66422273  0.58544880  0.16761158  1
  Ca2+  Ca10  1  0.66878752  0.58153094  0.50388322  1
  Ca2+  Ca11  1  0.66706105  0.58842783  0.83885048  1
  Ca2+  Ca12  1  0.09472569  0.32334175  0.16087567  1
  Ca2+  Ca13  1  0.09691177  0.32090049  0.50147702  1
  Ca2+  Ca14  1  0.09735692  0.32467947  0.83029231  1
  Ca2+  Ca15  1  0.07501512  0.83377359  0.15595448  1
  Ca2+  Ca16  1  0.07232944  0.84744572  0.50057678  1
  Ca2+  Ca17  1  0.08083870  0.84217930  0.82916678  1
  Ca2+  Ca18  1  0.56713299  0.33338732  0.16041296  1
  Ca2+  Ca19  1  0.57657218  0.32333097  0.49687836  1
  Ca2+  Ca20  1  0.57259922  0.32615876  0.82894137  1
  Ca2+  Ca21  1  0.57698598  0.82573748  0.15925149  1
  Ca2+  Ca22  1  0.57521685  0.84066042  0.50603801  1
  Ca2+  Ca23  1  0.57452986  0.83276628  0.82709954  1
  Ca2+  Ca24  1  0.33472558  0.42206144  0.16561505  1
  Ca2+  Ca25  1  0.33438291  0.42498564  0.50325645  1
  Ca2+  Ca26  1  0.32518240  0.42109493  0.83803802  1
  Ca2+  Ca27  1  0.32528588  0.92695615  0.17006159  1
  Ca2+  Ca28  1  0.32792130  0.92686582  0.51378512  1
  Ca2+  Ca29  1  0.32553124  0.92479145  0.83669228  1
  Ca2+  Ca30  1  0.83010898  0.41815471  0.16840935  1
  Ca2+  Ca31  1  0.83091334  0.41763341  0.50638903  1
  Ca2+  Ca32  1  0.82932971  0.41571579  0.83733983  1
  Ca2+  Ca33  1  0.83627503  0.90875068  0.16794756  1
  Ca2+  Ca34  1  0.82998750  0.91759217  0.51131019  1
  Ca2+  Ca35  1  0.83366720  0.91305357  0.83204398  1
  Ca2+  Ca36  1  0.40109898  0.17677485  0.16252760  1
  Ca2+  Ca37  1  0.41448925  0.16606594  0.49541257  1
  Ca2+  Ca38  1  0.41102071  0.16701566  0.82729877  1
  Ca2+  Ca39  1  0.41980142  0.65796240  0.15918158  1
  Ca2+  Ca40  1  0.40430705  0.67327800  0.50217281  1
  Ca2+  Ca41  1  0.41619799  0.66527462  0.82854054  1
  Ca2+  Ca42  1  0.93271300  0.16591260  0.16088041  1
  Ca2+  Ca43  1  0.93108303  0.15716744  0.50084688  1
  Ca2+  Ca44  1  0.93030704  0.16251324  0.82639773  1
  Ca2+  Ca45  1  0.92657757  0.67609582  0.15704128  1
  Ca2+  Ca46  1  0.92051351  0.67917129  0.49691791  1
  Ca2+  Ca47  1  0.92908978  0.67661263  0.83245190  1
  Al0+  Al48  1  -0.00183662  0.00268222  -0.00352570  1
  Al0+  Al49  1  -0.00195321  0.00081693  0.32311514  1
  Al0+  Al50  1  -0.00059185  0.00216499  0.66379996  1
  Al0+  Al51  1  -0.00215277  0.50133894  0.00225212  1
  Al0+  Al52  1  -0.00166419  0.49925574  0.33543862  1
  Al0+  Al53  1  -0.00145411  0.49952536  0.66903326  1
  Al0+  Al54  1  0.50395282  0.00057496  0.00701802  1
  Al0+  Al55  1  0.50140097  -0.00162175  0.33450117  1
  Al0+  Al56  1  0.50250894  -0.00139344  0.66621315  1
  Al0+  Al57  1  0.50089438  0.49706551  -0.00709051  1
  Al0+  Al58  1  0.49981011  0.49846782  0.33575136  1
  Al0+  Al59  1  0.50238568  0.49882752  0.66762225  1
  Al0+  Al60  1  0.25024390  0.25221069  -0.00359868  1
  Al0+  Al61  1  0.25118447  0.24980886  0.32921983  1
  Al0+  Al62  1  0.25179163  0.25322167  0.66618285  1
  Al0+  Al63  1  0.25068038  0.75128411  0.00646086  1
  Al0+  Al64  1  0.24761021  0.75023284  0.33713431  1
  Al0+  Al65  1  0.25071656  0.74973669  0.66849774  1
  Al0+  Al66  1  0.74919316  0.24950414  0.00334815  1
  Al0+  Al67  1  0.75030254  0.24921392  0.33382665  1
  Al0+  Al68  1  0.74950332  0.25020918  0.66655172  1
  Al0+  Al69  1  0.74920973  0.74998600  -0.00600193  1
  Al0+  Al70  1  0.74937711  0.74913279  0.33110107  1
  Al0+  Al71  1  0.75011008  0.74914662  0.66561426  1
  Al0+  Al72  1  0.43188287  0.31959172  0.31930016  1
  Al0+  Al73  1  0.07489366  0.67810374  0.98593037  1
  Al0+  Al74  1  0.32302262  0.07224155  0.67960414  1
  Al0+  Al75  1  0.31989554  0.07045753  0.34767798  1
  Al0+  Al76  1  0.17718290  0.42990259  0.01663767  1
  Al0+  Al77  1  0.82151884  0.07196436  0.68189703  1
  Al0+  Al78  1  0.93083984  0.81957092  0.65219371  1
  Al0+  Al79  1  0.56804558  0.67918596  0.98688593  1
  Al0+  Al80  1  0.07195362  0.18137830  0.65302168  1
  Al0+  Al81  1  0.17586209  0.92966995  0.01607222  1
  Al0+  Al82  1  0.06986204  0.18185545  0.31833698  1
  Al0+  Al83  1  0.67960788  0.92688827  0.68311366  1
  Al0+  Al84  1  0.07013367  0.18296116  0.98394495  1
  Al0+  Al85  1  0.57102058  0.17819422  0.65353232  1
  Al0+  Al86  1  0.42981971  0.31801075  0.98381258  1
  Al0+  Al87  1  0.42759376  0.81964517  0.65496155  1
  Al0+  Al88  1  0.17742443  0.93025107  0.67935981  1
  Al0+  Al89  1  0.32164840  0.57123886  0.34842777  1
  Al0+  Al90  1  0.92914073  0.81869112  0.31909795  1
  Al0+  Al91  1  0.32277836  0.57158348  0.68251829  1
  Al0+  Al92  1  0.93043200  0.82163631  0.98219713  1
  Al0+  Al93  1  0.32336554  0.57103101  0.01463846  1
  Al0+  Al94  1  0.32246703  0.07126549  0.01488708  1
  Al0+  Al95  1  0.17798648  0.42958299  0.68130035  1
  Si0+  Si96  1  0.82002510  0.57136121  0.34826267  1
  Si0+  Si97  1  0.17693717  0.42786705  0.34958205  1
  Si0+  Si98  1  0.67895916  0.42881959  0.34844469  1
  Si0+  Si99  1  0.56898566  0.67955300  0.32045864  1
  Si0+  Si100  1  0.57582764  0.17663947  0.98434752  1
  Si0+  Si101  1  0.92415204  0.32290043  0.98475616  1
  Si0+  Si102  1  0.42684153  0.82225010  0.31944122  1
  Si0+  Si103  1  0.57423638  0.17555632  0.31599005  1
  Si0+  Si104  1  0.42827374  0.82567310  0.98692654  1
  Si0+  Si105  1  0.57211730  0.67637005  0.64813157  1
  Si0+  Si106  1  0.82001786  0.07196700  0.01665601  1
  Si0+  Si107  1  0.82061007  0.07037877  0.34704860  1
  Si0+  Si108  1  0.82034052  0.57166106  0.68241566  1
  Si0+  Si109  1  0.68022813  0.92656004  0.34827031  1
  Si0+  Si110  1  0.67950728  0.42812699  0.01536738  1
  Si0+  Si111  1  0.68009671  0.42850440  0.68227853  1
  Si0+  Si112  1  0.42982915  0.32216807  0.64752513  1
  Si0+  Si113  1  0.07209660  0.67457175  0.31821131  1
  Si0+  Si114  1  0.92396558  0.32430265  0.31623724  1
  Si0+  Si115  1  0.17510899  0.92907746  0.34892193  1
  Si0+  Si116  1  0.68110740  0.92693074  0.01739215  1
  Si0+  Si117  1  0.07247326  0.67518935  0.64986845  1
  Si0+  Si118  1  0.81847335  0.57253967  0.01553582  1
  Si0+  Si119  1  0.92603893  0.32386264  0.65014032  1
  O2-  O120  1  0.25027742  -0.00039016  0.06593946  1
  O2-  O121  1  0.24700901  -0.00609950  0.39333908  1
  O2-  O122  1  0.25004040  0.00146517  0.72885094  1
  O2-  O123  1  0.24771080  0.50374897  0.06646721  1
  O2-  O124  1  0.24270266  0.49976429  0.39268752  1
  O2-  O125  1  0.24705088  0.50387324  0.73105687  1
  O2-  O126  1  0.75177394  -0.00174010  0.05978049  1
  O2-  O127  1  0.74788262  0.00122105  0.38897063  1
  O2-  O128  1  0.75173394  -0.00152837  0.73310040  1
  O2-  O129  1  0.74930619  0.49975698  0.05892699  1
  O2-  O130  1  0.75283901  0.49683442  0.39127378  1
  O2-  O131  1  0.75029995  0.49975590  0.72473137  1
  O2-  O132  1  -0.00444723  0.25909014  0.27316151  1
  O2-  O133  1  -0.00299926  0.25765235  0.60656752  1
  O2-  O134  1  -0.00354692  0.26040816  0.93950479  1
  O2-  O135  1  0.00599351  0.74603402  0.27457294  1
  O2-  O136  1  0.00835620  0.74811883  0.60422798  1
  O2-  O137  1  0.00941219  0.75589856  0.93483307  1
  O2-  O138  1  0.50312332  0.24088749  0.27165300  1
  O2-  O139  1  0.49372282  0.24836775  0.60416134  1
  O2-  O140  1  0.50047220  0.23731033  0.94099529  1
  O2-  O141  1  0.49468820  0.74689579  0.27822765  1
  O2-  O142  1  0.50070706  0.74250365  0.60541085  1
  O2-  O143  1  0.49004492  0.75032682  0.94284495  1
  O2-  O144  1  0.06730979  0.18345854  0.09750080  1
  O2-  O145  1  0.06845303  0.18129127  0.43127112  1
  O2-  O146  1  0.07037742  0.18223615  0.76544273  1
  O2-  O147  1  0.06758729  0.67596927  0.09999788  1
  O2-  O148  1  0.06837277  0.67064316  0.42350244  1
  O2-  O149  1  0.06759171  0.67135432  0.75469471  1
  O2-  O150  1  0.58333697  0.18171398  0.08989607  1
  O2-  O151  1  0.57797353  0.17806231  0.42118900  1
  O2-  O152  1  0.57373001  0.18367255  0.76631432  1
  O2-  O153  1  0.57098619  0.68051758  0.10098249  1
  O2-  O154  1  0.57424558  0.67996057  0.42495175  1
  O2-  O155  1  0.57410507  0.67543704  0.75337427  1
  O2-  O156  1  0.17585290  0.42903047  0.24442988  1
  O2-  O157  1  0.17971213  0.42987601  0.56694556  1
  O2-  O158  1  0.17865303  0.43032182  0.90369371  1
  O2-  O159  1  0.17578461  0.92878618  0.24364431  1
  O2-  O160  1  0.17733174  0.93338962  0.56501767  1
  O2-  O161  1  0.17540597  0.93322930  0.90295363  1
  O2-  O162  1  0.67916249  0.43100200  0.24338672  1
  O2-  O163  1  0.68118235  0.42984304  0.57662286  1
  O2-  O164  1  0.68293389  0.42635257  0.91051166  1
  O2-  O165  1  0.68104689  0.92467789  0.24294287  1
  O2-  O166  1  0.68202447  0.92736924  0.56857564  1
  O2-  O167  1  0.67966625  0.92602668  0.91321317  1
  O2-  O168  1  0.43327605  0.32027185  0.09735613  1
  O2-  O169  1  0.43620521  0.32093445  0.43209888  1
  O2-  O170  1  0.43334258  0.32463154  0.75270878  1
  O2-  O171  1  0.43502481  0.82776945  0.09311554  1
  O2-  O172  1  0.42999488  0.82387106  0.42418835  1
  O2-  O173  1  0.43123266  0.81945462  0.76766614  1
  O2-  O174  1  0.91819462  0.31820263  0.09043154  1
  O2-  O175  1  0.91735418  0.32481162  0.42112801  1
  O2-  O176  1  0.92107085  0.32445316  0.75528968  1
  O2-  O177  1  0.92677211  0.81655400  0.09630355  1
  O2-  O178  1  0.92651227  0.81822946  0.43198155  1
  O2-  O179  1  0.92857621  0.81603100  0.76429845  1
  O2-  O180  1  0.31872620  0.07005178  0.23498382  1
  O2-  O181  1  0.32099426  0.07127552  0.56535592  1
  O2-  O182  1  0.32462380  0.06851282  0.90196821  1
  O2-  O183  1  0.32612062  0.56874913  0.23607201  1
  O2-  O184  1  0.32275450  0.56800039  0.56814373  1
  O2-  O185  1  0.32664331  0.56616688  0.90193278  1
  O2-  O186  1  0.81840906  0.07093044  0.24176960  1
  O2-  O187  1  0.82059426  0.07044882  0.56738543  1
  O2-  O188  1  0.81678717  0.07633916  0.91251802  1
  O2-  O189  1  0.81673549  0.57192609  0.24339092  1
  O2-  O190  1  0.81823028  0.57067574  0.57661763  1
  O2-  O191  1  0.81577259  0.57126448  0.91060316  1
  O2-  O192  1  0.03518013  0.08802024  0.26132110  1
  O2-  O193  1  0.03894452  0.08674564  0.59610194  1
  O2-  O194  1  0.03478283  0.08810895  0.93120049  1
  O2-  O195  1  0.04281993  0.58216642  0.27111462  1
  O2-  O196  1  0.03998355  0.58377316  0.60164723  1
  O2-  O197  1  0.03667723  0.58205299  0.93321120  1
  O2-  O198  1  0.55435975  0.07961983  0.27224530  1
  O2-  O199  1  0.54840693  0.08026168  0.59914362  1
  O2-  O200  1  0.55965535  0.07917485  0.94435098  1
  O2-  O201  1  0.54484073  0.58644996  0.27388658  1
  O2-  O202  1  0.55116262  0.58103126  0.60251038  1
  O2-  O203  1  0.54584850  0.58169038  0.93148880  1
  O2-  O204  1  0.16576651  0.21229444  0.26371890  1
  O2-  O205  1  0.16820695  0.21394306  0.59779452  1
  O2-  O206  1  0.16618766  0.21194538  0.93042910  1
  O2-  O207  1  0.16710924  0.69758375  0.27437326  1
  O2-  O208  1  0.16802180  0.69525997  0.60675642  1
  O2-  O209  1  0.17726484  0.69679760  0.93889062  1
  O2-  O210  1  0.66726778  0.20443849  0.26919981  1
  O2-  O211  1  0.66594919  0.21492821  0.59757374  1
  O2-  O212  1  0.66587316  0.21070886  0.93601560  1
  O2-  O213  1  0.65922423  0.70989332  0.27041434  1
  O2-  O214  1  0.66466970  0.70422392  0.60043178  1
  O2-  O215  1  0.66285818  0.71214633  0.93145485  1
  O2-  O216  1  0.07586704  0.45254552  0.06845804  1
  O2-  O217  1  0.08100077  0.44768415  0.39488079  1
  O2-  O218  1  0.07658876  0.44994981  0.73138656  1
  O2-  O219  1  0.07670354  0.96116312  0.06745931  1
  O2-  O220  1  0.08097617  0.95953195  0.39139262  1
  O2-  O221  1  0.07945599  0.95903467  0.73069702  1
  O2-  O222  1  0.58866647  0.45770481  0.06229968  1
  O2-  O223  1  0.59065293  0.46063106  0.39902725  1
  O2-  O224  1  0.58928917  0.45587943  0.73050369  1
  O2-  O225  1  0.59136276  0.95419569  0.06974507  1
  O2-  O226  1  0.58734238  0.95057999  0.39491795  1
  O2-  O227  1  0.58239428  0.95565555  0.73595907  1
  O2-  O228  1  0.21102407  0.33277189  0.06811204  1
  O2-  O229  1  0.20829633  0.33579390  0.39443283  1
  O2-  O230  1  0.21135670  0.33364011  0.73409402  1
  O2-  O231  1  0.19972751  0.83061863  0.07060263  1
  O2-  O232  1  0.19367111  0.83362342  0.39411157  1
  O2-  O233  1  0.20205207  0.83063913  0.73001659  1
  O2-  O234  1  0.70850368  0.33807861  0.06639161  1
  O2-  O235  1  0.70495530  0.33596509  0.39529645  1
  O2-  O236  1  0.70905204  0.33850771  0.73100746  1
  O2-  O237  1  0.71077259  0.83511912  0.06488917  1
  O2-  O238  1  0.71087130  0.83581985  0.39586571  1
  O2-  O239  1  0.70707881  0.82756390  0.73406434  1
  O2-  O240  1  0.46963061  0.41458252  0.26557830  1
  O2-  O241  1  0.46422229  0.41339951  0.60061564  1
  O2-  O242  1  0.46948126  0.40982680  0.92745219  1
  O2-  O243  1  0.46033842  0.91133821  0.26980603  1
  O2-  O244  1  0.46332442  0.91378292  0.59794782  1
  O2-  O245  1  0.46422224  0.91588681  0.94069113  1
  O2-  O246  1  0.94478130  0.42009403  0.27191838  1
  O2-  O247  1  0.94731877  0.41896791  0.60385858  1
  O2-  O248  1  0.94038480  0.41982421  0.94336513  1
  O2-  O249  1  0.95502310  0.91510092  0.26287099  1
  O2-  O250  1  0.95761681  0.91712275  0.59739134  1
  O2-  O251  1  0.94898132  0.92285300  0.93306261  1
  O2-  O252  1  0.33510223  0.29252991  0.26502643  1
  O2-  O253  1  0.33560741  0.30220460  0.60163291  1
  O2-  O254  1  0.33368990  0.29224455  0.92898958  1
  O2-  O255  1  0.33269975  0.79951880  0.27516899  1
  O2-  O256  1  0.33146470  0.79133488  0.59700132  1
  O2-  O257  1  0.33165322  0.80944764  0.94658874  1
  O2-  O258  1  0.83109647  0.29669096  0.26809076  1
  O2-  O259  1  0.83334645  0.29719155  0.60212981  1
  O2-  O260  1  0.83168412  0.29322942  0.93766961  1
  O2-  O261  1  0.83315007  0.78421955  0.26465579  1
  O2-  O262  1  0.83475399  0.78424754  0.59792140  1
  O2-  O263  1  0.83411170  0.78605901  0.93014022  1
  O2-  O264  1  0.42275271  0.04757544  0.06912351  1
  O2-  O265  1  0.41966218  0.04243151  0.39778721  1
  O2-  O266  1  0.42155501  0.04477488  0.73036662  1
  O2-  O267  1  0.42222565  0.53541662  0.06552501  1
  O2-  O268  1  0.41761327  0.53757086  0.40276896  1
  O2-  O269  1  0.42236922  0.54189250  0.73191348  1
  O2-  O270  1  0.91155403  0.04584395  0.06425307  1
  O2-  O271  1  0.91239136  0.04011263  0.39195125  1
  O2-  O272  1  0.91957413  0.04475501  0.73303180  1
  O2-  O273  1  0.90905619  0.54647600  0.06565347  1
  O2-  O274  1  0.91196486  0.54703243  0.39701593  1
  O2-  O275  1  0.91131675  0.54494275  0.73040924  1
  O2-  O276  1  0.28984657  0.16963107  0.06482072  1
  O2-  O277  1  0.28968203  0.16831861  0.39923546  1
  O2-  O278  1  0.29853093  0.17226768  0.72853451  1
  O2-  O279  1  0.30486537  0.67174202  0.06762248  1
  O2-  O280  1  0.29375117  0.66954344  0.40149281  1
  O2-  O281  1  0.30133035  0.67164519  0.73258016  1
  O2-  O282  1  0.78859778  0.16185804  0.06746475  1
  O2-  O283  1  0.79596117  0.16326877  0.39407354  1
  O2-  O284  1  0.79072853  0.16998826  0.73409000  1
  O2-  O285  1  0.78552183  0.66264931  0.06328700  1
  O2-  O286  1  0.78610605  0.66083961  0.39690050  1
  O2-  O287  1  0.78899131  0.66103766  0.73036988  1
