# generated using pymatgen
data_Ca2Al2SiO7
_symmetry_space_group_name_H-M   'P 1'
_cell_length_a   15.46005750
_cell_length_b   15.46254251
_cell_length_c   15.28656959
_cell_angle_alpha   90.00140511
_cell_angle_beta   90.01021204
_cell_angle_gamma   89.99961372
_symmetry_Int_Tables_number   1
_chemical_formula_structural   Ca2Al2SiO7
_chemical_formula_sum   'Ca48 Al48 Si24 O168'
_cell_volume   3654.28185923
_cell_formula_units_Z   24
loop_
 _symmetry_equiv_pos_site_id
 _symmetry_equiv_pos_as_xyz
  1  'x, y, z'
loop_
 _atom_type_symbol
 _atom_type_oxidation_number
  Ca2+  2.0
  Al0+  0.0
  Si0+  0.0
  O2-  -2.0
loop_
 _atom_site_type_symbol
 _atom_site_label
 _atom_site_symmetry_multiplicity
 _atom_site_fract_x
 _atom_site_fract_y
 _atom_site_fract_z
 _atom_site_occupancy
  Ca2+  Ca0  1  0.17017504  0.07370238  0.16936062  1
  Ca2+  Ca1  1  0.16758956  0.07722183  0.50818129  1
  Ca2+  Ca2  1  0.17029060  0.07548717  0.83509131  1
  Ca2+  Ca3  1  0.16104308  0.57730467  0.17265626  1
  Ca2+  Ca4  1  0.16485389  0.57632038  0.50068672  1
  Ca2+  Ca5  1  0.16373072  0.58212936  0.84040469  1
  Ca2+  Ca6  1  0.67129100  0.08259147  0.16790146  1
  Ca2+  Ca7  1  0.67070037  0.07879867  0.51200883  1
  Ca2+  Ca8  1  0.67382078  0.07382961  0.83856849  1
  Ca2+  Ca9  1  0.66892506  0.58331477  0.16676046  1
  Ca2+  Ca10  1  0.66186391  0.57871139  0.50380701  1
  Ca2+  Ca11  1  0.67027333  0.58973239  0.84221860  1
  Ca2+  Ca12  1  0.09264475  0.32544440  0.16516185  1
  Ca2+  Ca13  1  0.08558043  0.31955715  0.49396744  1
  Ca2+  Ca14  1  0.07788047  0.32343083  0.82621930  1
  Ca2+  Ca15  1  0.07553406  0.83730470  0.15958340  1
  Ca2+  Ca16  1  0.07249942  0.84835922  0.49563064  1
  Ca2+  Ca17  1  0.07397008  0.84587426  0.83267809  1
  Ca2+  Ca18  1  0.58276737  0.32953229  0.16366005  1
  Ca2+  Ca19  1  0.58729890  0.31880917  0.49342378  1
  Ca2+  Ca20  1  0.57602389  0.32450887  0.82848519  1
  Ca2+  Ca21  1  0.57795839  0.83327306  0.15915085  1
  Ca2+  Ca22  1  0.57910290  0.83453523  0.49740091  1
  Ca2+  Ca23  1  0.59765868  0.82725273  0.83001026  1
  Ca2+  Ca24  1  0.33272227  0.41809355  0.16994985  1
  Ca2+  Ca25  1  0.32872986  0.41500225  0.49973455  1
  Ca2+  Ca26  1  0.33511195  0.41551142  0.83930460  1
  Ca2+  Ca27  1  0.32250045  0.91218275  0.17216517  1
  Ca2+  Ca28  1  0.32194871  0.91786116  0.50730340  1
  Ca2+  Ca29  1  0.32543938  0.92870863  0.84047512  1
  Ca2+  Ca30  1  0.83094817  0.42799204  0.17308760  1
  Ca2+  Ca31  1  0.82699354  0.41670270  0.50073888  1
  Ca2+  Ca32  1  0.83085693  0.42585128  0.84157901  1
  Ca2+  Ca33  1  0.83276028  0.91331409  0.16356181  1
  Ca2+  Ca34  1  0.83121505  0.91857900  0.50940035  1
  Ca2+  Ca35  1  0.82989758  0.91992261  0.83696962  1
  Ca2+  Ca36  1  0.41861754  0.17089224  0.16079906  1
  Ca2+  Ca37  1  0.42981509  0.15230290  0.49898168  1
  Ca2+  Ca38  1  0.41358185  0.16582177  0.82907295  1
  Ca2+  Ca39  1  0.42084899  0.67354428  0.16240019  1
  Ca2+  Ca40  1  0.42117679  0.67561241  0.49672531  1
  Ca2+  Ca41  1  0.42996344  0.67088444  0.82934955  1
  Ca2+  Ca42  1  0.92185543  0.16421935  0.16409018  1
  Ca2+  Ca43  1  0.92923693  0.15436349  0.49813830  1
  Ca2+  Ca44  1  0.91869135  0.15574330  0.82755039  1
  Ca2+  Ca45  1  0.91977881  0.67673949  0.15601985  1
  Ca2+  Ca46  1  0.91753952  0.68275790  0.49621475  1
  Ca2+  Ca47  1  0.91691201  0.67902074  0.83437279  1
  Al0+  Al48  1  0.00053346  0.00116850  0.00337690  1
  Al0+  Al49  1  0.00078418  0.00133705  0.32560978  1
  Al0+  Al50  1  -0.00059919  0.00060145  0.66482778  1
  Al0+  Al51  1  -0.00103822  0.49955666  0.00177606  1
  Al0+  Al52  1  -0.00054165  0.50031818  0.34222237  1
  Al0+  Al53  1  -0.00123584  0.50059622  0.66563579  1
  Al0+  Al54  1  0.50026089  0.00204068  0.00619056  1
  Al0+  Al55  1  0.50150807  -0.00077566  0.32232410  1
  Al0+  Al56  1  0.49854809  -0.00169242  0.67117327  1
  Al0+  Al57  1  0.49812291  0.49904496  -0.00746726  1
  Al0+  Al58  1  0.50140350  0.49935395  0.33900593  1
  Al0+  Al59  1  0.49859818  0.49990921  0.66194849  1
  Al0+  Al60  1  0.25026405  0.25060481  -0.00206594  1
  Al0+  Al61  1  0.25248354  0.25017286  0.33396410  1
  Al0+  Al62  1  0.24782787  0.25153590  0.66540064  1
  Al0+  Al63  1  0.25142024  0.74782181  -0.00042670  1
  Al0+  Al64  1  0.24953224  0.74984588  0.33576630  1
  Al0+  Al65  1  0.24886175  0.74578338  0.67122615  1
  Al0+  Al66  1  0.74927869  0.24984227  0.00255899  1
  Al0+  Al67  1  0.75194904  0.25096594  0.33310486  1
  Al0+  Al68  1  0.74822381  0.25272720  0.66811999  1
  Al0+  Al69  1  0.75146113  0.74964832  0.00242263  1
  Al0+  Al70  1  0.75089869  0.75082589  0.33052125  1
  Al0+  Al71  1  0.75147500  0.74742090  0.65873529  1
  Al0+  Al72  1  0.32066856  0.07436230  0.01690601  1
  Al0+  Al73  1  0.56965465  0.17790140  0.65539242  1
  Al0+  Al74  1  0.92927850  0.82172916  0.31728040  1
  Al0+  Al75  1  0.93114292  0.82214875  0.98309792  1
  Al0+  Al76  1  0.56924681  0.68169248  0.98804911  1
  Al0+  Al77  1  0.67836225  0.92597624  0.67877318  1
  Al0+  Al78  1  0.17706928  0.92702710  0.68150993  1
  Al0+  Al79  1  0.82116919  0.57009680  0.01352005  1
  Al0+  Al80  1  0.57153470  0.67933475  0.65144556  1
  Al0+  Al81  1  0.93222216  0.82002062  0.65263016  1
  Al0+  Al82  1  0.18090463  0.92740672  0.01647034  1
  Al0+  Al83  1  0.32147700  0.07202757  0.68046373  1
  Al0+  Al84  1  0.06848727  0.18049976  0.65380147  1
  Al0+  Al85  1  0.17939785  0.42742599  0.34781194  1
  Al0+  Al86  1  0.42793649  0.82021786  0.32029376  1
  Al0+  Al87  1  0.82171088  0.07301147  0.01743420  1
  Al0+  Al88  1  0.07307314  0.18070120  0.31773575  1
  Al0+  Al89  1  0.67991112  0.92753876  0.01671428  1
  Al0+  Al90  1  0.07288235  0.67607549  0.98618840  1
  Al0+  Al91  1  0.82026092  0.07254618  0.67897658  1
  Al0+  Al92  1  0.67987098  0.42909547  0.34758821  1
  Al0+  Al93  1  0.57388094  0.17872947  0.31826219  1
  Al0+  Al94  1  0.42948498  0.31884161  0.98653237  1
  Al0+  Al95  1  0.17865252  0.93001513  0.34768958  1
  Si0+  Si96  1  0.07105039  0.67612623  0.31937397  1
  Si0+  Si97  1  0.32278108  0.57228329  0.35136615  1
  Si0+  Si98  1  0.81982346  0.56960589  0.68121161  1
  Si0+  Si99  1  0.32202114  0.56892895  0.68349168  1
  Si0+  Si100  1  0.57428557  0.17702192  0.98209182  1
  Si0+  Si101  1  0.42699870  0.32194443  0.64735457  1
  Si0+  Si102  1  0.43017486  0.32319348  0.31751856  1
  Si0+  Si103  1  0.17890951  0.43029498  0.01329491  1
  Si0+  Si104  1  0.06968477  0.18137539  0.98466928  1
  Si0+  Si105  1  0.32417690  0.07141093  0.34874856  1
  Si0+  Si106  1  0.67559923  0.42916975  0.01488694  1
  Si0+  Si107  1  0.82042604  0.07058770  0.34772125  1
  Si0+  Si108  1  0.92652520  0.32592274  0.64979072  1
  Si0+  Si109  1  0.42512002  0.82079955  0.65234068  1
  Si0+  Si110  1  0.67804056  0.92878329  0.34746273  1
  Si0+  Si111  1  0.57115964  0.67667634  0.31673818  1
  Si0+  Si112  1  0.92938516  0.32390071  0.31714869  1
  Si0+  Si113  1  0.07329652  0.67427118  0.64834745  1
  Si0+  Si114  1  0.42687530  0.82474301  0.98275481  1
  Si0+  Si115  1  0.92685802  0.32196634  0.98697879  1
  Si0+  Si116  1  0.67646359  0.42959906  0.68310802  1
  Si0+  Si117  1  0.32327579  0.56958556  0.01345237  1
  Si0+  Si118  1  0.17835831  0.43000978  0.68278872  1
  Si0+  Si119  1  0.82140598  0.57431741  0.35326165  1
  O2-  O120  1  0.25558004  -0.00338811  0.06737460  1
  O2-  O121  1  0.25483942  0.00387950  0.39343315  1
  O2-  O122  1  0.25103973  -0.00188426  0.72954295  1
  O2-  O123  1  0.24640442  0.50467845  0.05552371  1
  O2-  O124  1  0.25324035  0.50328591  0.39472628  1
  O2-  O125  1  0.24938123  0.49972212  0.72646056  1
  O2-  O126  1  0.74973645  0.00138773  0.06795764  1
  O2-  O127  1  0.74876809  -0.00000320  0.38964163  1
  O2-  O128  1  0.74702034  0.00155942  0.72787414  1
  O2-  O129  1  0.74580557  0.49558960  0.05987920  1
  O2-  O130  1  0.75200918  0.50553068  0.39662788  1
  O2-  O131  1  0.74745621  0.50042298  0.72488781  1
  O2-  O132  1  0.00131302  0.25955689  0.27180456  1
  O2-  O133  1  -0.00928983  0.25277731  0.60671443  1
  O2-  O134  1  -0.00684439  0.24760742  0.94334433  1
  O2-  O135  1  0.00448741  0.74540557  0.27451471  1
  O2-  O136  1  0.01156827  0.74922788  0.60524056  1
  O2-  O137  1  0.00686654  0.75226666  0.93450647  1
  O2-  O138  1  0.49846437  0.25438314  0.27382885  1
  O2-  O139  1  0.49284757  0.24991594  0.60503839  1
  O2-  O140  1  0.50171830  0.24268883  0.93919145  1
  O2-  O141  1  0.50336801  0.74586056  0.27328044  1
  O2-  O142  1  0.49815564  0.75627327  0.60718033  1
  O2-  O143  1  0.50027727  0.76060116  0.93881007  1
  O2-  O144  1  0.07195300  0.18580766  0.08985512  1
  O2-  O145  1  0.07064706  0.18038654  0.43089555  1
  O2-  O146  1  0.06863491  0.18464180  0.76707925  1
  O2-  O147  1  0.06875294  0.66999715  0.09975716  1
  O2-  O148  1  0.06918510  0.67387764  0.42506037  1
  O2-  O149  1  0.06906337  0.66513202  0.75291004  1
  O2-  O150  1  0.57681943  0.18237848  0.08777527  1
  O2-  O151  1  0.57337441  0.17787041  0.43170817  1
  O2-  O152  1  0.57024136  0.18378161  0.76786408  1
  O2-  O153  1  0.56451041  0.67735204  0.10117585  1
  O2-  O154  1  0.56976200  0.67678980  0.42250635  1
  O2-  O155  1  0.57061772  0.67645695  0.76442329  1
  O2-  O156  1  0.18099786  0.42951527  0.23438232  1
  O2-  O157  1  0.17945852  0.43125697  0.57771201  1
  O2-  O158  1  0.17930430  0.42959414  0.90803488  1
  O2-  O159  1  0.17957636  0.92941726  0.23504924  1
  O2-  O160  1  0.17796506  0.93005282  0.56747151  1
  O2-  O161  1  0.18020920  0.93118200  0.90304403  1
  O2-  O162  1  0.68091009  0.43161666  0.23443096  1
  O2-  O163  1  0.67769569  0.42945950  0.57790348  1
  O2-  O164  1  0.67700226  0.43031161  0.90903205  1
  O2-  O165  1  0.67839206  0.92807786  0.24281871  1
  O2-  O166  1  0.67923724  0.92725107  0.56431109  1
  O2-  O167  1  0.68255875  0.92723116  0.90316282  1
  O2-  O168  1  0.43057744  0.32180569  0.09965604  1
  O2-  O169  1  0.43039204  0.32483517  0.42292448  1
  O2-  O170  1  0.42855431  0.32568944  0.75298282  1
  O2-  O171  1  0.42544655  0.81845263  0.08859385  1
  O2-  O172  1  0.42981717  0.81927329  0.43369369  1
  O2-  O173  1  0.42205765  0.81623991  0.75740542  1
  O2-  O174  1  0.92990308  0.32449163  0.09191049  1
  O2-  O175  1  0.92839250  0.32284806  0.42274451  1
  O2-  O176  1  0.93060931  0.33260472  0.75538590  1
  O2-  O177  1  0.93157449  0.81883568  0.09685400  1
  O2-  O178  1  0.92834518  0.82147075  0.43065352  1
  O2-  O179  1  0.93009361  0.81776371  0.76495577  1
  O2-  O180  1  0.32194156  0.07221530  0.24339404  1
  O2-  O181  1  0.32177476  0.07048827  0.56650092  1
  O2-  O182  1  0.31517391  0.07675069  0.90347650  1
  O2-  O183  1  0.32477545  0.57078825  0.24572053  1
  O2-  O184  1  0.32208968  0.56747542  0.57832225  1
  O2-  O185  1  0.32571147  0.56485777  0.90845773  1
  O2-  O186  1  0.81917214  0.07185908  0.24288946  1
  O2-  O187  1  0.82046520  0.07056233  0.56473772  1
  O2-  O188  1  0.81974124  0.07522952  0.90414795  1
  O2-  O189  1  0.82261343  0.57273756  0.24781102  1
  O2-  O190  1  0.81984016  0.56683351  0.57606572  1
  O2-  O191  1  0.82037304  0.56748918  0.90000491  1
  O2-  O192  1  0.03815838  0.08775548  0.26082288  1
  O2-  O193  1  0.03935919  0.08490911  0.59753165  1
  O2-  O194  1  0.04522970  0.08864048  0.93924769  1
  O2-  O195  1  0.04455923  0.58151005  0.27502072  1
  O2-  O196  1  0.04064536  0.58346141  0.59855491  1
  O2-  O197  1  0.04041357  0.57814354  0.93210025  1
  O2-  O198  1  0.54482314  0.08409918  0.26091977  1
  O2-  O199  1  0.54156366  0.07977674  0.60154307  1
  O2-  O200  1  0.55246680  0.08142783  0.93981304  1
  O2-  O201  1  0.54449337  0.58264032  0.27229861  1
  O2-  O202  1  0.53608397  0.58389195  0.59629817  1
  O2-  O203  1  0.53498845  0.58703098  0.93142730  1
  O2-  O204  1  0.17017461  0.21229936  0.26484261  1
  O2-  O205  1  0.16350123  0.21548431  0.59853273  1
  O2-  O206  1  0.15827501  0.21638460  0.93608427  1
  O2-  O207  1  0.16666036  0.69649903  0.27610936  1
  O2-  O208  1  0.17066605  0.69021020  0.60642756  1
  O2-  O209  1  0.17518556  0.69366796  0.93636106  1
  O2-  O210  1  0.66939973  0.21356898  0.26467561  1
  O2-  O211  1  0.66554782  0.21298835  0.60066038  1
  O2-  O212  1  0.66648623  0.20712429  0.93514602  1
  O2-  O213  1  0.66560204  0.70040205  0.27254796  1
  O2-  O214  1  0.66751327  0.70409724  0.59409044  1
  O2-  O215  1  0.66756821  0.70750540  0.93566810  1
  O2-  O216  1  0.08698872  0.45352555  0.06235703  1
  O2-  O217  1  0.08335184  0.45622763  0.40482208  1
  O2-  O218  1  0.08578603  0.45802616  0.72891137  1
  O2-  O219  1  0.08377295  0.96015872  0.06866647  1
  O2-  O220  1  0.08164880  0.96556451  0.39807238  1
  O2-  O221  1  0.08082050  0.96135047  0.73350768  1
  O2-  O222  1  0.58259892  0.45809074  0.06000129  1
  O2-  O223  1  0.58362466  0.45720828  0.40438522  1
  O2-  O224  1  0.58346933  0.45733695  0.72770243  1
  O2-  O225  1  0.57997646  0.95247659  0.06877712  1
  O2-  O226  1  0.58508782  0.95666448  0.39234705  1
  O2-  O227  1  0.57889216  0.94666804  0.73167813  1
  O2-  O228  1  0.21169360  0.34067351  0.06122532  1
  O2-  O229  1  0.21336867  0.33240294  0.40358239  1
  O2-  O230  1  0.20507821  0.33867479  0.73095676  1
  O2-  O231  1  0.20610401  0.82637755  0.06717567  1
  O2-  O232  1  0.20625045  0.83193783  0.40109466  1
  O2-  O233  1  0.19833586  0.82555496  0.73140436  1
  O2-  O234  1  0.69890510  0.33533451  0.06050108  1
  O2-  O235  1  0.71468404  0.33374283  0.40292624  1
  O2-  O236  1  0.70382867  0.33919245  0.73282266  1
  O2-  O237  1  0.70863829  0.82997019  0.07124715  1
  O2-  O238  1  0.70475203  0.83580935  0.39372027  1
  O2-  O239  1  0.71141843  0.82715662  0.72814229  1
  O2-  O240  1  0.45609461  0.41746116  0.27211964  1
  O2-  O241  1  0.45518324  0.41407718  0.59952811  1
  O2-  O242  1  0.46088953  0.41327572  0.92781210  1
  O2-  O243  1  0.45785372  0.91409939  0.26176399  1
  O2-  O244  1  0.44633620  0.91546588  0.60739938  1
  O2-  O245  1  0.44658547  0.92161037  0.94228672  1
  O2-  O246  1  0.95141771  0.42026586  0.27494774  1
  O2-  O247  1  0.95707008  0.41664075  0.59980207  1
  O2-  O248  1  0.95882715  0.41126476  0.93689036  1
  O2-  O249  1  0.96040523  0.91661523  0.26185683  1
  O2-  O250  1  0.95967105  0.91688152  0.59724010  1
  O2-  O251  1  0.95773248  0.92257111  0.93291803  1
  O2-  O252  1  0.33652274  0.29892169  0.27115088  1
  O2-  O253  1  0.33135643  0.30190646  0.60367092  1
  O2-  O254  1  0.33225062  0.29162865  0.93051354  1
  O2-  O255  1  0.33200512  0.78616868  0.26618298  1
  O2-  O256  1  0.33347032  0.78790866  0.60464317  1
  O2-  O257  1  0.33589686  0.79364494  0.93516774  1
  O2-  O258  1  0.83762858  0.29574177  0.26939485  1
  O2-  O259  1  0.83037625  0.30675753  0.60715033  1
  O2-  O260  1  0.83290366  0.30074446  0.94037161  1
  O2-  O261  1  0.83239737  0.79034805  0.26394167  1
  O2-  O262  1  0.83860907  0.78404829  0.59514645  1
  O2-  O263  1  0.83354124  0.78811399  0.93276174  1
  O2-  O264  1  0.42252183  0.05735934  0.06604691  1
  O2-  O265  1  0.41907886  0.04292646  0.39084255  1
  O2-  O266  1  0.41905616  0.04637735  0.73613343  1
  O2-  O267  1  0.41153206  0.53382764  0.06306006  1
  O2-  O268  1  0.41515635  0.54544327  0.39984801  1
  O2-  O269  1  0.41328009  0.53775269  0.73052706  1
  O2-  O270  1  0.92058946  0.04710783  0.06975806  1
  O2-  O271  1  0.91275538  0.04049134  0.39213851  1
  O2-  O272  1  0.91769529  0.04268327  0.73134768  1
  O2-  O273  1  0.91557522  0.53547060  0.07015702  1
  O2-  O274  1  0.91371430  0.54844128  0.40205704  1
  O2-  O275  1  0.91124729  0.53995075  0.72855567  1
  O2-  O276  1  0.28638297  0.17164478  0.06993176  1
  O2-  O277  1  0.30269222  0.16612297  0.39403693  1
  O2-  O278  1  0.29208462  0.17186708  0.73088883  1
  O2-  O279  1  0.30368747  0.66282257  0.06069190  1
  O2-  O280  1  0.29610631  0.66428193  0.39981357  1
  O2-  O281  1  0.29744736  0.66008736  0.73289763  1
  O2-  O282  1  0.79453605  0.17273779  0.07096334  1
  O2-  O283  1  0.79585855  0.16325464  0.39458150  1
  O2-  O284  1  0.79759664  0.17346316  0.73059945  1
  O2-  O285  1  0.79003344  0.66434861  0.06976242  1
  O2-  O286  1  0.79380718  0.66779767  0.39868594  1
  O2-  O287  1  0.79196706  0.66130763  0.72680216  1
