# generated using pymatgen
data_Ca2Al2SiO7
_symmetry_space_group_name_H-M   'P 1'
_cell_length_a   15.46963731
_cell_length_b   15.47105449
_cell_length_c   15.29160960
_cell_angle_alpha   90.00585192
_cell_angle_beta   89.98832802
_cell_angle_gamma   89.98362469
_symmetry_Int_Tables_number   1
_chemical_formula_structural   Ca2Al2SiO7
_chemical_formula_sum   'Ca48 Al48 Si24 O168'
_cell_volume   3659.76517280
_cell_formula_units_Z   24
loop_
 _symmetry_equiv_pos_site_id
 _symmetry_equiv_pos_as_xyz
  1  'x, y, z'
loop_
 _atom_type_symbol
 _atom_type_oxidation_number
  Ca2+  2.0
  Al0+  0.0
  Si0+  0.0
  O2-  -2.0
loop_
 _atom_site_type_symbol
 _atom_site_label
 _atom_site_symmetry_multiplicity
 _atom_site_fract_x
 _atom_site_fract_y
 _atom_site_fract_z
 _atom_site_occupancy
  Ca2+  Ca0  1  0.17421018  0.08474066  0.17716008  1
  Ca2+  Ca1  1  0.16914005  0.09410014  0.50396115  1
  Ca2+  Ca2  1  0.16450200  0.08280242  0.83546832  1
  Ca2+  Ca3  1  0.17264540  0.58433267  0.17130830  1
  Ca2+  Ca4  1  0.17802420  0.58996067  0.50817515  1
  Ca2+  Ca5  1  0.16991391  0.59372639  0.83285612  1
  Ca2+  Ca6  1  0.67125984  0.07796488  0.16996587  1
  Ca2+  Ca7  1  0.65976949  0.07193752  0.50783670  1
  Ca2+  Ca8  1  0.66614824  0.08073772  0.83147597  1
  Ca2+  Ca9  1  0.66588764  0.57095163  0.16874343  1
  Ca2+  Ca10  1  0.66973655  0.57159125  0.51268645  1
  Ca2+  Ca11  1  0.67363954  0.57760008  0.83131066  1
  Ca2+  Ca12  1  0.07783891  0.33021627  0.16801567  1
  Ca2+  Ca13  1  0.07100894  0.32975827  0.49798911  1
  Ca2+  Ca14  1  0.07339936  0.32632001  0.82133103  1
  Ca2+  Ca15  1  0.08303919  0.82534476  0.16012648  1
  Ca2+  Ca16  1  0.07771390  0.82886698  0.50660841  1
  Ca2+  Ca17  1  0.07359885  0.82190651  0.82553981  1
  Ca2+  Ca18  1  0.57961677  0.34036224  0.16024626  1
  Ca2+  Ca19  1  0.58564694  0.33543739  0.50005423  1
  Ca2+  Ca20  1  0.58047777  0.33604539  0.82435780  1
  Ca2+  Ca21  1  0.57740986  0.83533902  0.16259646  1
  Ca2+  Ca22  1  0.58915156  0.82761492  0.50077147  1
  Ca2+  Ca23  1  0.57632682  0.82986565  0.82032277  1
  Ca2+  Ca24  1  0.33318812  0.42135133  0.17387416  1
  Ca2+  Ca25  1  0.33442608  0.42700039  0.50969023  1
  Ca2+  Ca26  1  0.33892631  0.41902797  0.83253447  1
  Ca2+  Ca27  1  0.33392315  0.92202664  0.17425293  1
  Ca2+  Ca28  1  0.33453629  0.92258193  0.50685156  1
  Ca2+  Ca29  1  0.33663413  0.91154080  0.83515263  1
  Ca2+  Ca30  1  0.82456256  0.41877941  0.17020595  1
  Ca2+  Ca31  1  0.82835541  0.41418431  0.50838367  1
  Ca2+  Ca32  1  0.82550991  0.42035196  0.83656878  1
  Ca2+  Ca33  1  0.83045158  0.92484989  0.17177840  1
  Ca2+  Ca34  1  0.82409566  0.91481695  0.50975201  1
  Ca2+  Ca35  1  0.83157771  0.91953419  0.83338120  1
  Ca2+  Ca36  1  0.41789756  0.17189613  0.16111352  1
  Ca2+  Ca37  1  0.42073932  0.17024147  0.50258073  1
  Ca2+  Ca38  1  0.42498460  0.18059322  0.82449271  1
  Ca2+  Ca39  1  0.41674728  0.67128794  0.16000778  1
  Ca2+  Ca40  1  0.42016134  0.66324653  0.50309818  1
  Ca2+  Ca41  1  0.42389985  0.67434246  0.82224707  1
  Ca2+  Ca42  1  0.91421703  0.17010618  0.16592952  1
  Ca2+  Ca43  1  0.92272561  0.17742056  0.49591002  1
  Ca2+  Ca44  1  0.91689707  0.17060474  0.82284839  1
  Ca2+  Ca45  1  0.92225188  0.66361281  0.15761077  1
  Ca2+  Ca46  1  0.91103256  0.66758822  0.50196996  1
  Ca2+  Ca47  1  0.92144228  0.66030962  0.82326900  1
  Al0+  Al48  1  0.00117980  -0.00194561  0.00716919  1
  Al0+  Al49  1  0.00123244  -0.00172457  0.32958723  1
  Al0+  Al50  1  0.00214840  -0.00240740  0.66009582  1
  Al0+  Al51  1  0.00218968  0.49736616  -0.00024072  1
  Al0+  Al52  1  0.00036633  0.50022346  0.32703526  1
  Al0+  Al53  1  0.00353103  0.49791683  0.66016919  1
  Al0+  Al54  1  0.49827253  0.00248529  -0.00330207  1
  Al0+  Al55  1  0.49823896  0.00046815  0.33971034  1
  Al0+  Al56  1  0.49802068  0.00210568  0.66669266  1
  Al0+  Al57  1  0.49812259  0.50234601  -0.00036245  1
  Al0+  Al58  1  0.50148594  0.50120513  0.33915535  1
  Al0+  Al59  1  0.49857320  0.50272861  0.66880850  1
  Al0+  Al60  1  0.25035513  0.25065946  -0.00260866  1
  Al0+  Al61  1  0.25027571  0.25134523  0.33460640  1
  Al0+  Al62  1  0.25274179  0.25123063  0.66286309  1
  Al0+  Al63  1  0.24866280  0.75070087  -0.00533880  1
  Al0+  Al64  1  0.25073255  0.75261464  0.33682145  1
  Al0+  Al65  1  0.24897301  0.75286896  0.66494710  1
  Al0+  Al66  1  0.74977876  0.24781947  0.00828918  1
  Al0+  Al67  1  0.74951512  0.24846399  0.33122690  1
  Al0+  Al68  1  0.74906229  0.24703777  0.66243430  1
  Al0+  Al69  1  0.75022156  0.75082450  0.00430347  1
  Al0+  Al70  1  0.74884907  0.74899019  0.33082992  1
  Al0+  Al71  1  0.74840704  0.74971271  0.66899131  1
  Al0+  Al72  1  0.07080460  0.67723046  0.65043491  1
  Al0+  Al73  1  0.82394233  0.56996049  0.67923682  1
  Al0+  Al74  1  0.42884614  0.32239897  0.98780493  1
  Al0+  Al75  1  0.43088226  0.32385165  0.65010712  1
  Al0+  Al76  1  0.57160235  0.17929014  0.65154217  1
  Al0+  Al77  1  0.67761819  0.92897729  0.68121810  1
  Al0+  Al78  1  0.82451552  0.57132980  0.01482522  1
  Al0+  Al79  1  0.07220920  0.17721535  0.65366606  1
  Al0+  Al80  1  0.92645994  0.32129933  0.31407466  1
  Al0+  Al81  1  0.68037888  0.42807743  0.34806125  1
  Al0+  Al82  1  0.32009028  0.57228760  0.34648960  1
  Al0+  Al83  1  0.67912313  0.42581023  0.68121780  1
  Al0+  Al84  1  0.06865387  0.67737669  0.98678167  1
  Al0+  Al85  1  0.92705620  0.32130397  0.65345599  1
  Al0+  Al86  1  0.07221089  0.17892339  0.31616409  1
  Al0+  Al87  1  0.82253054  0.06900477  0.01349559  1
  Al0+  Al88  1  0.43037892  0.82193073  0.98813010  1
  Al0+  Al89  1  0.31901658  0.57305928  0.68331985  1
  Al0+  Al90  1  0.67741573  0.43039906  0.01473248  1
  Al0+  Al91  1  0.92680312  0.81965977  0.65290675  1
  Al0+  Al92  1  0.57130834  0.67979046  0.65155668  1
  Al0+  Al93  1  0.31931120  0.07269639  0.34832979  1
  Al0+  Al94  1  0.42818071  0.82234580  0.64961274  1
  Al0+  Al95  1  0.67970770  0.92917377  0.34649923  1
  Si0+  Si96  1  0.17976657  0.42545509  0.01545211  1
  Si0+  Si97  1  0.07325805  0.68173993  0.31774536  1
  Si0+  Si98  1  0.18034697  0.42656016  0.68377431  1
  Si0+  Si99  1  0.17709959  0.42943214  0.35000417  1
  Si0+  Si100  1  0.56894030  0.17588949  0.31723921  1
  Si0+  Si101  1  0.92844974  0.31783471  0.98589453  1
  Si0+  Si102  1  0.17700517  0.92778718  0.35182214  1
  Si0+  Si103  1  0.57322626  0.67828350  0.98422518  1
  Si0+  Si104  1  0.32013551  0.07283149  0.68502854  1
  Si0+  Si105  1  0.82362499  0.57133656  0.34780021  1
  Si0+  Si106  1  0.07129042  0.17724243  0.98698721  1
  Si0+  Si107  1  0.57324466  0.17872971  0.98464420  1
  Si0+  Si108  1  0.31954925  0.07237620  0.01402570  1
  Si0+  Si109  1  0.17845034  0.93035399  0.68397253  1
  Si0+  Si110  1  0.18081427  0.92861069  0.01584283  1
  Si0+  Si111  1  0.67431919  0.92919619  0.01554010  1
  Si0+  Si112  1  0.43186732  0.32275909  0.31906012  1
  Si0+  Si113  1  0.82400586  0.06925283  0.67987921  1
  Si0+  Si114  1  0.92654745  0.81943250  0.31622547  1
  Si0+  Si115  1  0.92764728  0.82337086  0.98603181  1
  Si0+  Si116  1  0.31784822  0.57223567  0.01406614  1
  Si0+  Si117  1  0.82364519  0.07042802  0.35116973  1
  Si0+  Si118  1  0.42961677  0.82145492  0.31886979  1
  Si0+  Si119  1  0.57060557  0.67810068  0.31654274  1
  O2-  O120  1  0.25150083  -0.00033412  0.05843358  1
  O2-  O121  1  0.24014369  0.00214818  0.39429499  1
  O2-  O122  1  0.24839686  0.00227328  0.72733053  1
  O2-  O123  1  0.25002652  0.49838490  0.05691260  1
  O2-  O124  1  0.24456195  0.49911836  0.39342564  1
  O2-  O125  1  0.24432133  0.49840230  0.73079285  1
  O2-  O126  1  0.74708348  -0.00624277  0.05960181  1
  O2-  O127  1  0.75519946  0.00185027  0.39467102  1
  O2-  O128  1  0.75454063  0.00236780  0.72622040  1
  O2-  O129  1  0.74967344  0.50239786  0.06549239  1
  O2-  O130  1  0.75978804  0.49879520  0.39119721  1
  O2-  O131  1  0.75393866  0.49604316  0.72945044  1
  O2-  O132  1  -0.00156633  0.24782682  0.26413107  1
  O2-  O133  1  -0.00068600  0.24811050  0.60529409  1
  O2-  O134  1  -0.00268910  0.24397390  0.94442087  1
  O2-  O135  1  -0.00091908  0.74915887  0.27469186  1
  O2-  O136  1  -0.00677725  0.74321701  0.60076804  1
  O2-  O137  1  -0.01260962  0.74652552  0.94318406  1
  O2-  O138  1  0.50181075  0.25115272  0.27491007  1
  O2-  O139  1  0.50552736  0.25543070  0.59947473  1
  O2-  O140  1  0.50863977  0.25241685  0.94338596  1
  O2-  O141  1  0.49927365  0.74999329  0.27504696  1
  O2-  O142  1  0.50035692  0.75185197  0.59867924  1
  O2-  O143  1  0.50937363  0.75257015  0.94233920  1
  O2-  O144  1  0.07415552  0.17949970  0.09167688  1
  O2-  O145  1  0.07130977  0.18169604  0.42893821  1
  O2-  O146  1  0.07032374  0.17703419  0.76846434  1
  O2-  O147  1  0.07317287  0.68222831  0.10070446  1
  O2-  O148  1  0.07506615  0.68361857  0.42190362  1
  O2-  O149  1  0.07181740  0.68262021  0.76420144  1
  O2-  O150  1  0.56901406  0.17373736  0.09063373  1
  O2-  O151  1  0.56644729  0.17335680  0.42148296  1
  O2-  O152  1  0.56822616  0.17748936  0.76560117  1
  O2-  O153  1  0.56849724  0.67705192  0.09063075  1
  O2-  O154  1  0.57208520  0.67812318  0.42070543  1
  O2-  O155  1  0.57003891  0.68153784  0.76558043  1
  O2-  O156  1  0.17962161  0.43034552  0.24341504  1
  O2-  O157  1  0.18398521  0.42568545  0.57828534  1
  O2-  O158  1  0.17942792  0.42086304  0.91124190  1
  O2-  O159  1  0.18139831  0.92353227  0.24557041  1
  O2-  O160  1  0.17891559  0.93011962  0.57902497  1
  O2-  O161  1  0.17886806  0.93014912  0.91126767  1
  O2-  O162  1  0.67575795  0.43224690  0.23474369  1
  O2-  O163  1  0.68068103  0.42769563  0.56750602  1
  O2-  O164  1  0.67808043  0.42901287  0.90212160  1
  O2-  O165  1  0.67992112  0.93142626  0.23260929  1
  O2-  O166  1  0.67873835  0.93069571  0.56798271  1
  O2-  O167  1  0.67226635  0.93183089  0.91064756  1
  O2-  O168  1  0.42595424  0.31930147  0.10173398  1
  O2-  O169  1  0.43310418  0.32347415  0.42323106  1
  O2-  O170  1  0.42896852  0.31957703  0.76411080  1
  O2-  O171  1  0.42921570  0.82120519  0.10220244  1
  O2-  O172  1  0.42875783  0.82184016  0.42285072  1
  O2-  O173  1  0.42992633  0.82061327  0.76382088  1
  O2-  O174  1  0.93082961  0.31745054  0.09082818  1
  O2-  O175  1  0.92820223  0.32098632  0.42690578  1
  O2-  O176  1  0.92860424  0.31834985  0.76804254  1
  O2-  O177  1  0.93321774  0.82625018  0.09204564  1
  O2-  O178  1  0.92445765  0.81869959  0.42057783  1
  O2-  O179  1  0.93146329  0.82492976  0.76661824  1
  O2-  O180  1  0.32115393  0.06890819  0.23407713  1
  O2-  O181  1  0.31888784  0.07224813  0.57993473  1
  O2-  O182  1  0.31673581  0.07323573  0.90956575  1
  O2-  O183  1  0.31854292  0.57202454  0.23224032  1
  O2-  O184  1  0.31704788  0.57247777  0.57000078  1
  O2-  O185  1  0.31629789  0.57398909  0.90977675  1
  O2-  O186  1  0.82202404  0.06765847  0.24484593  1
  O2-  O187  1  0.82499371  0.06618429  0.57455892  1
  O2-  O188  1  0.82619272  0.06830790  0.90085198  1
  O2-  O189  1  0.82163816  0.57288641  0.24194223  1
  O2-  O190  1  0.82092627  0.56925520  0.56524550  1
  O2-  O191  1  0.82691850  0.56724094  0.90217243  1
  O2-  O192  1  0.04938404  0.07734687  0.26485582  1
  O2-  O193  1  0.04904730  0.07930006  0.59885419  1
  O2-  O194  1  0.04747427  0.08259226  0.94375759  1
  O2-  O195  1  0.05069770  0.58868018  0.26991211  1
  O2-  O196  1  0.05567265  0.57706394  0.59758269  1
  O2-  O197  1  0.04772911  0.57807388  0.93437474  1
  O2-  O198  1  0.53536405  0.08597816  0.26842244  1
  O2-  O199  1  0.53439973  0.08431590  0.59757054  1
  O2-  O200  1  0.54240041  0.08806750  0.93586818  1
  O2-  O201  1  0.53895907  0.58733525  0.26879775  1
  O2-  O202  1  0.53990752  0.58286378  0.59863529  1
  O2-  O203  1  0.54145456  0.58784865  0.93712968  1
  O2-  O204  1  0.17140177  0.20991164  0.26351831  1
  O2-  O205  1  0.16974106  0.20704521  0.60167121  1
  O2-  O206  1  0.16168600  0.20698582  0.93828302  1
  O2-  O207  1  0.16386487  0.71456552  0.26911256  1
  O2-  O208  1  0.16514342  0.71682299  0.59707783  1
  O2-  O209  1  0.16205552  0.71526763  0.93181330  1
  O2-  O210  1  0.66266631  0.19790883  0.27110774  1
  O2-  O211  1  0.67106954  0.19631927  0.59748927  1
  O2-  O212  1  0.66916971  0.19834585  0.94209033  1
  O2-  O213  1  0.66150775  0.70625962  0.26674651  1
  O2-  O214  1  0.66894650  0.70759040  0.59808573  1
  O2-  O215  1  0.66968331  0.69783335  0.94233630  1
  O2-  O216  1  0.08892441  0.45312076  0.06469198  1
  O2-  O217  1  0.08240162  0.45442088  0.39275085  1
  O2-  O218  1  0.08462519  0.44687156  0.72703751  1
  O2-  O219  1  0.09047017  0.95484298  0.06732713  1
  O2-  O220  1  0.08062417  0.94619298  0.39406338  1
  O2-  O221  1  0.08660340  0.95799716  0.73207459  1
  O2-  O222  1  0.57850481  0.46162122  0.06849742  1
  O2-  O223  1  0.58596598  0.46276509  0.40257928  1
  O2-  O224  1  0.58117831  0.45746684  0.73287733  1
  O2-  O225  1  0.58220387  0.96032038  0.06368531  1
  O2-  O226  1  0.58399781  0.95997536  0.40046769  1
  O2-  O227  1  0.58168834  0.96378581  0.73489071  1
  O2-  O228  1  0.21011329  0.33519688  0.06579192  1
  O2-  O229  1  0.20308500  0.33649914  0.39509589  1
  O2-  O230  1  0.20995110  0.33424362  0.73152339  1
  O2-  O231  1  0.21062710  0.83718312  0.06367808  1
  O2-  O232  1  0.20870701  0.83771695  0.40038419  1
  O2-  O233  1  0.20792174  0.83995250  0.73282460  1
  O2-  O234  1  0.70313968  0.33128190  0.06849063  1
  O2-  O235  1  0.70446485  0.32806599  0.39729099  1
  O2-  O236  1  0.70358080  0.32506439  0.73189702  1
  O2-  O237  1  0.69333481  0.83385772  0.06110908  1
  O2-  O238  1  0.70897679  0.83084341  0.39705351  1
  O2-  O239  1  0.70587025  0.83311463  0.73671139  1
  O2-  O240  1  0.46083963  0.41462949  0.27109790  1
  O2-  O241  1  0.45273276  0.42384963  0.60014859  1
  O2-  O242  1  0.45289343  0.42103966  0.93574033  1
  O2-  O243  1  0.45917443  0.91327501  0.27132461  1
  O2-  O244  1  0.45309770  0.92225573  0.60025411  1
  O2-  O245  1  0.45374907  0.92045857  0.93448786  1
  O2-  O246  1  0.95729153  0.41969943  0.26001552  1
  O2-  O247  1  0.95792246  0.41634697  0.59638684  1
  O2-  O248  1  0.96025650  0.40797888  0.93919161  1
  O2-  O249  1  0.95452658  0.91127454  0.26832786  1
  O2-  O250  1  0.96249063  0.91376261  0.59541253  1
  O2-  O251  1  0.96296241  0.91368152  0.93951495  1
  O2-  O252  1  0.33876224  0.29659744  0.27292418  1
  O2-  O253  1  0.33473794  0.29063283  0.59622452  1
  O2-  O254  1  0.33435795  0.28729660  0.93242792  1
  O2-  O255  1  0.33692746  0.79466559  0.27114871  1
  O2-  O256  1  0.32948707  0.79612941  0.59809828  1
  O2-  O257  1  0.33494185  0.78981567  0.93381559  1
  O2-  O258  1  0.82808199  0.29086289  0.26050487  1
  O2-  O259  1  0.83089413  0.29185983  0.59859047  1
  O2-  O260  1  0.83534949  0.29043393  0.94204697  1
  O2-  O261  1  0.83588114  0.79158687  0.26580157  1
  O2-  O262  1  0.82764855  0.79661508  0.60078110  1
  O2-  O263  1  0.82965787  0.80998146  0.94575562  1
  O2-  O264  1  0.41247555  0.04699628  0.06107772  1
  O2-  O265  1  0.41285544  0.03779943  0.40388635  1
  O2-  O266  1  0.41061674  0.04395033  0.73362153  1
  O2-  O267  1  0.41031162  0.54803748  0.06192846  1
  O2-  O268  1  0.41559586  0.54129866  0.40031804  1
  O2-  O269  1  0.41531625  0.54383901  0.73783278  1
  O2-  O270  1  0.91761839  0.03748595  0.07239914  1
  O2-  O271  1  0.91849091  0.04499824  0.39343677  1
  O2-  O272  1  0.91770726  0.04210167  0.72591620  1
  O2-  O273  1  0.92278633  0.54000048  0.06852420  1
  O2-  O274  1  0.92025346  0.55241766  0.38973194  1
  O2-  O275  1  0.92545116  0.54492414  0.72770129  1
  O2-  O276  1  0.28915411  0.16295042  0.06314739  1
  O2-  O277  1  0.29273611  0.17037898  0.40167637  1
  O2-  O278  1  0.29238884  0.16493507  0.73210164  1
  O2-  O279  1  0.28610384  0.66312974  0.06247986  1
  O2-  O280  1  0.29017132  0.66889809  0.39994150  1
  O2-  O281  1  0.28618991  0.67043033  0.73561716  1
  O2-  O282  1  0.79144273  0.16320997  0.07235226  1
  O2-  O283  1  0.79871506  0.16482308  0.39339232  1
  O2-  O284  1  0.79876748  0.16264689  0.72595075  1
  O2-  O285  1  0.80280451  0.67298655  0.06672591  1
  O2-  O286  1  0.79449816  0.66439241  0.39209778  1
  O2-  O287  1  0.79513330  0.66784992  0.73316103  1
