# generated using pymatgen
data_Ca2Al2SiO7
_symmetry_space_group_name_H-M   'P 1'
_cell_length_a   15.46946579
_cell_length_b   15.46737855
_cell_length_c   15.29179094
_cell_angle_alpha   90.01026967
_cell_angle_beta   90.00711528
_cell_angle_gamma   89.98350938
_symmetry_Int_Tables_number   1
_chemical_formula_structural   Ca2Al2SiO7
_chemical_formula_sum   'Ca48 Al48 Si24 O168'
_cell_volume   3658.89843700
_cell_formula_units_Z   24
loop_
 _symmetry_equiv_pos_site_id
 _symmetry_equiv_pos_as_xyz
  1  'x, y, z'
loop_
 _atom_type_symbol
 _atom_type_oxidation_number
  Ca2+  2.0
  Al0+  0.0
  Si0+  0.0
  O2-  -2.0
loop_
 _atom_site_type_symbol
 _atom_site_label
 _atom_site_symmetry_multiplicity
 _atom_site_fract_x
 _atom_site_fract_y
 _atom_site_fract_z
 _atom_site_occupancy
  Ca2+  Ca0  1  0.17365778  0.08797937  0.17071618  1
  Ca2+  Ca1  1  0.17516452  0.08272797  0.50884754  1
  Ca2+  Ca2  1  0.15817474  0.08239301  0.83698092  1
  Ca2+  Ca3  1  0.17077046  0.58623520  0.16373314  1
  Ca2+  Ca4  1  0.17122331  0.58032265  0.50439317  1
  Ca2+  Ca5  1  0.17556145  0.58638277  0.84295123  1
  Ca2+  Ca6  1  0.66266885  0.07935013  0.16857267  1
  Ca2+  Ca7  1  0.65687513  0.08038327  0.50079264  1
  Ca2+  Ca8  1  0.66796391  0.08043902  0.84609009  1
  Ca2+  Ca9  1  0.65753743  0.56969375  0.16592379  1
  Ca2+  Ca10  1  0.66635515  0.56943989  0.50696320  1
  Ca2+  Ca11  1  0.66717838  0.57195869  0.83855197  1
  Ca2+  Ca12  1  0.07283553  0.32692006  0.15532942  1
  Ca2+  Ca13  1  0.08416892  0.32782767  0.49897157  1
  Ca2+  Ca14  1  0.07881319  0.32254766  0.83327943  1
  Ca2+  Ca15  1  0.07581944  0.82767928  0.15484594  1
  Ca2+  Ca16  1  0.07922533  0.83851128  0.50229144  1
  Ca2+  Ca17  1  0.07176590  0.83204872  0.82946663  1
  Ca2+  Ca18  1  0.58234056  0.32552842  0.15817514  1
  Ca2+  Ca19  1  0.58164239  0.32779169  0.49542482  1
  Ca2+  Ca20  1  0.58120284  0.33039485  0.82847202  1
  Ca2+  Ca21  1  0.58456774  0.83268891  0.16157950  1
  Ca2+  Ca22  1  0.58063845  0.83194925  0.48903027  1
  Ca2+  Ca23  1  0.59599049  0.82428786  0.83478870  1
  Ca2+  Ca24  1  0.34363174  0.41896696  0.16631649  1
  Ca2+  Ca25  1  0.33951144  0.41222445  0.50379331  1
  Ca2+  Ca26  1  0.33873940  0.41690594  0.84189670  1
  Ca2+  Ca27  1  0.33675579  0.92589378  0.17549413  1
  Ca2+  Ca28  1  0.33488875  0.92629413  0.50255119  1
  Ca2+  Ca29  1  0.32309981  0.91756450  0.83758788  1
  Ca2+  Ca30  1  0.81899853  0.40605521  0.16707218  1
  Ca2+  Ca31  1  0.81966687  0.42113641  0.50874501  1
  Ca2+  Ca32  1  0.82305583  0.41259039  0.84000151  1
  Ca2+  Ca33  1  0.82504991  0.91856364  0.16302263  1
  Ca2+  Ca34  1  0.82777085  0.91594825  0.50380679  1
  Ca2+  Ca35  1  0.83426611  0.92167342  0.84314462  1
  Ca2+  Ca36  1  0.42581649  0.17377373  0.16416267  1
  Ca2+  Ca37  1  0.42605489  0.17510781  0.49272689  1
  Ca2+  Ca38  1  0.42957478  0.17665393  0.82916585  1
  Ca2+  Ca39  1  0.42055393  0.67296900  0.15849700  1
  Ca2+  Ca40  1  0.41688115  0.67664303  0.49492477  1
  Ca2+  Ca41  1  0.42225475  0.66218762  0.83729057  1
  Ca2+  Ca42  1  0.92120898  0.16654757  0.15449945  1
  Ca2+  Ca43  1  0.92442110  0.16265506  0.50234619  1
  Ca2+  Ca44  1  0.91904827  0.16670745  0.83654859  1
  Ca2+  Ca45  1  0.92232423  0.67224937  0.15442440  1
  Ca2+  Ca46  1  0.90875530  0.66998319  0.50133899  1
  Ca2+  Ca47  1  0.90652584  0.67875300  0.82979849  1
  Al0+  Al48  1  -0.00057551  -0.00225155  -0.00008796  1
  Al0+  Al49  1  -0.00076269  -0.00175959  0.33209856  1
  Al0+  Al50  1  -0.00084934  -0.00247759  0.66061733  1
  Al0+  Al51  1  0.00187452  0.49916266  -0.00736025  1
  Al0+  Al52  1  0.00206625  0.50051379  0.33452342  1
  Al0+  Al53  1  0.00187828  0.50274355  0.67046880  1
  Al0+  Al54  1  0.49623912  -0.00015054  -0.00018141  1
  Al0+  Al55  1  0.49884063  0.00067680  0.33559229  1
  Al0+  Al56  1  0.49793479  0.00026356  0.66754547  1
  Al0+  Al57  1  0.49896608  0.50387414  0.00216011  1
  Al0+  Al58  1  0.49978864  0.50174116  0.33858830  1
  Al0+  Al59  1  0.50007858  0.50163862  0.66621759  1
  Al0+  Al60  1  0.24930334  0.25022177  -0.00557518  1
  Al0+  Al61  1  0.25081812  0.25068482  0.33507406  1
  Al0+  Al62  1  0.25141477  0.25038256  0.66104899  1
  Al0+  Al63  1  0.24983062  0.74954357  0.00227244  1
  Al0+  Al64  1  0.24868576  0.74969109  0.33060207  1
  Al0+  Al65  1  0.24795903  0.75076531  0.67001878  1
  Al0+  Al66  1  0.75145650  0.24767900  0.00184077  1
  Al0+  Al67  1  0.75236144  0.24911530  0.33790999  1
  Al0+  Al68  1  0.75089732  0.24809828  0.66513666  1
  Al0+  Al69  1  0.74871082  0.74923841  -0.00310757  1
  Al0+  Al70  1  0.75125247  0.75119170  0.33516494  1
  Al0+  Al71  1  0.74992641  0.75003688  0.66216180  1
  Al0+  Al72  1  0.57382225  0.17653869  0.65086299  1
  Al0+  Al73  1  0.43105771  0.32259008  0.98608218  1
  Al0+  Al74  1  0.42847486  0.82114455  0.32089842  1
  Al0+  Al75  1  0.56983438  0.68083564  0.98712793  1
  Al0+  Al76  1  0.92848688  0.81841584  0.98490115  1
  Al0+  Al77  1  0.67971436  0.42912518  0.01346528  1
  Al0+  Al78  1  0.06922278  0.17935236  0.65198013  1
  Al0+  Al79  1  0.82151151  0.07002725  0.01503846  1
  Al0+  Al80  1  0.57129046  0.17674738  0.98617446  1
  Al0+  Al81  1  0.17862645  0.93104483  0.68085222  1
  Al0+  Al82  1  0.82110192  0.57304677  0.68224281  1
  Al0+  Al83  1  0.67615823  0.92721197  0.01413104  1
  Al0+  Al84  1  0.31989302  0.57041206  0.01547468  1
  Al0+  Al85  1  0.92890084  0.81885482  0.64949341  1
  Al0+  Al86  1  0.57347978  0.17958210  0.31729960  1
  Al0+  Al87  1  0.67922512  0.42790827  0.68356421  1
  Al0+  Al88  1  0.42846258  0.32328306  0.31712256  1
  Al0+  Al89  1  0.07178768  0.17762583  0.98682030  1
  Al0+  Al90  1  0.43135579  0.32291596  0.65086958  1
  Al0+  Al91  1  0.07340645  0.67813102  0.98383689  1
  Al0+  Al92  1  0.92610357  0.32151184  0.98573372  1
  Al0+  Al93  1  0.31962497  0.07187650  0.34797195  1
  Al0+  Al94  1  0.68039601  0.93037504  0.34748116  1
  Al0+  Al95  1  0.67880498  0.42834672  0.34804248  1
  Si0+  Si96  1  0.32014737  0.57300219  0.34939709  1
  Si0+  Si97  1  0.92877565  0.32495287  0.64914973  1
  Si0+  Si98  1  0.56984838  0.68157847  0.65030918  1
  Si0+  Si99  1  0.32142269  0.07319491  0.68618974  1
  Si0+  Si100  1  0.92824928  0.82064280  0.31657972  1
  Si0+  Si101  1  0.42618432  0.82343532  0.98278829  1
  Si0+  Si102  1  0.17672545  0.92669553  0.34943806  1
  Si0+  Si103  1  0.07496892  0.67820659  0.64792008  1
  Si0+  Si104  1  0.82155200  0.06855599  0.67937570  1
  Si0+  Si105  1  0.17927719  0.42663389  0.68193130  1
  Si0+  Si106  1  0.07074059  0.17858679  0.32015343  1
  Si0+  Si107  1  0.42530827  0.82028267  0.65339097  1
  Si0+  Si108  1  0.17942970  0.92933318  0.01605947  1
  Si0+  Si109  1  0.93144852  0.32224088  0.32159581  1
  Si0+  Si110  1  0.82353956  0.57184611  0.01521409  1
  Si0+  Si111  1  0.82484040  0.57145373  0.34811505  1
  Si0+  Si112  1  0.07079595  0.67758662  0.31815189  1
  Si0+  Si113  1  0.67651542  0.92944147  0.67962863  1
  Si0+  Si114  1  0.31954073  0.57155813  0.68113931  1
  Si0+  Si115  1  0.17751631  0.42596613  0.01641475  1
  Si0+  Si116  1  0.17821436  0.43050042  0.34856467  1
  Si0+  Si117  1  0.82585763  0.07151088  0.35269090  1
  Si0+  Si118  1  0.57271850  0.67956396  0.31798578  1
  Si0+  Si119  1  0.31958405  0.07277038  0.01470157  1
  O2-  O120  1  0.24890128  0.00128941  0.05815293  1
  O2-  O121  1  0.24445301  -0.00411022  0.39362115  1
  O2-  O122  1  0.25053068  0.00664286  0.73061728  1
  O2-  O123  1  0.24583021  0.49463183  0.06220378  1
  O2-  O124  1  0.25290804  0.49808649  0.39095880  1
  O2-  O125  1  0.25145249  0.49739220  0.72216056  1
  O2-  O126  1  0.74545156  0.00169954  0.06443157  1
  O2-  O127  1  0.75351826  0.00603149  0.39593531  1
  O2-  O128  1  0.74326325  0.00468588  0.71984678  1
  O2-  O129  1  0.75807610  0.50119205  0.06109684  1
  O2-  O130  1  0.75455511  0.50441805  0.39161386  1
  O2-  O131  1  0.75491952  0.49676416  0.73271872  1
  O2-  O132  1  -0.00192210  0.24736265  0.27876114  1
  O2-  O133  1  -0.00211515  0.25679388  0.60344629  1
  O2-  O134  1  -0.00101780  0.24904315  0.93784680  1
  O2-  O135  1  -0.00023225  0.74885642  0.27709996  1
  O2-  O136  1  0.00232922  0.74201322  0.60256576  1
  O2-  O137  1  -0.00254028  0.74437373  0.93308848  1
  O2-  O138  1  0.50438754  0.25526855  0.26855426  1
  O2-  O139  1  0.50407234  0.25144846  0.60200553  1
  O2-  O140  1  0.50448223  0.25303934  0.93572584  1
  O2-  O141  1  0.50456748  0.74860568  0.27394899  1
  O2-  O142  1  0.50006633  0.75439040  0.60924939  1
  O2-  O143  1  0.49918405  0.75938912  0.93880141  1
  O2-  O144  1  0.07307970  0.17963648  0.10118701  1
  O2-  O145  1  0.07015392  0.17914912  0.42533183  1
  O2-  O146  1  0.06613003  0.17920593  0.76421139  1
  O2-  O147  1  0.07311248  0.68227721  0.09849914  1
  O2-  O148  1  0.07238918  0.67558980  0.42308996  1
  O2-  O149  1  0.08144046  0.68214263  0.75228929  1
  O2-  O150  1  0.56790527  0.17556414  0.09954001  1
  O2-  O151  1  0.57074146  0.17998473  0.43084656  1
  O2-  O152  1  0.57178203  0.17297113  0.76390392  1
  O2-  O153  1  0.56660266  0.67963823  0.10037240  1
  O2-  O154  1  0.57051336  0.68088925  0.42415197  1
  O2-  O155  1  0.56928254  0.68136879  0.75522058  1
  O2-  O156  1  0.17187531  0.43320772  0.24432942  1
  O2-  O157  1  0.17843247  0.42876641  0.57609942  1
  O2-  O158  1  0.18003738  0.42525391  0.91086624  1
  O2-  O159  1  0.17555319  0.92697706  0.24390974  1
  O2-  O160  1  0.18228349  0.93132224  0.56737101  1
  O2-  O161  1  0.18055182  0.92871699  0.91093793  1
  O2-  O162  1  0.67907039  0.42921710  0.23506902  1
  O2-  O163  1  0.67886645  0.43128991  0.56946725  1
  O2-  O164  1  0.67867845  0.43097031  0.90089595  1
  O2-  O165  1  0.68361105  0.92599509  0.23535350  1
  O2-  O166  1  0.67714689  0.92750369  0.57428923  1
  O2-  O167  1  0.67918528  0.92729726  0.89994205  1
  O2-  O168  1  0.43119711  0.32061756  0.09957327  1
  O2-  O169  1  0.42750729  0.32135809  0.43048394  1
  O2-  O170  1  0.43063251  0.32357466  0.76397726  1
  O2-  O171  1  0.42381489  0.82170766  0.08848820  1
  O2-  O172  1  0.42779673  0.81767552  0.43473333  1
  O2-  O173  1  0.42294505  0.81747551  0.75808140  1
  O2-  O174  1  0.92927018  0.32115347  0.10040811  1
  O2-  O175  1  0.93633868  0.32455664  0.42664256  1
  O2-  O176  1  0.92977152  0.32375269  0.75412785  1
  O2-  O177  1  0.93140159  0.81767262  0.09919292  1
  O2-  O178  1  0.92854833  0.82098482  0.42166269  1
  O2-  O179  1  0.92873217  0.82018190  0.76164358  1
  O2-  O180  1  0.31587115  0.07126756  0.23468774  1
  O2-  O181  1  0.32107387  0.06998949  0.58038818  1
  O2-  O182  1  0.31888054  0.07018455  0.90978018  1
  O2-  O183  1  0.31770485  0.57642090  0.24497526  1
  O2-  O184  1  0.31705191  0.57487551  0.57560194  1
  O2-  O185  1  0.31921695  0.57142148  0.90199469  1
  O2-  O186  1  0.83322017  0.06886668  0.24806179  1
  O2-  O187  1  0.82464710  0.06473858  0.57400646  1
  O2-  O188  1  0.82412106  0.06700448  0.90107524  1
  O2-  O189  1  0.82966569  0.57076495  0.24304793  1
  O2-  O190  1  0.81609408  0.57241950  0.56778835  1
  O2-  O191  1  0.81896290  0.57297347  0.91001310  1
  O2-  O192  1  0.04583013  0.08541098  0.27384236  1
  O2-  O193  1  0.03614288  0.08466270  0.59541073  1
  O2-  O194  1  0.04421975  0.07910973  0.93533261  1
  O2-  O195  1  0.04344886  0.58608523  0.26996152  1
  O2-  O196  1  0.05477103  0.58213654  0.60379316  1
  O2-  O197  1  0.05710295  0.57722252  0.93341346  1
  O2-  O198  1  0.54104337  0.08130368  0.26768090  1
  O2-  O199  1  0.54057329  0.07789909  0.59867732  1
  O2-  O200  1  0.53842162  0.07962896  0.93267772  1
  O2-  O201  1  0.54462612  0.58632459  0.27415713  1
  O2-  O202  1  0.53893901  0.59130047  0.60206697  1
  O2-  O203  1  0.53320982  0.58783171  0.93084980  1
  O2-  O204  1  0.16153834  0.20854811  0.27353891  1
  O2-  O205  1  0.16615298  0.20885987  0.59750339  1
  O2-  O206  1  0.16767986  0.20639996  0.92973661  1
  O2-  O207  1  0.16177442  0.70548291  0.26956891  1
  O2-  O208  1  0.16639099  0.70940797  0.59864472  1
  O2-  O209  1  0.17042000  0.71186334  0.93177477  1
  O2-  O210  1  0.67584770  0.20219663  0.26965767  1
  O2-  O211  1  0.67406433  0.19902659  0.59828009  1
  O2-  O212  1  0.67213141  0.19822006  0.93790767  1
  O2-  O213  1  0.66703649  0.70391528  0.27372165  1
  O2-  O214  1  0.66010658  0.70921024  0.60053956  1
  O2-  O215  1  0.66556491  0.70780706  0.93009158  1
  O2-  O216  1  0.08333743  0.45182527  0.06224882  1
  O2-  O217  1  0.08944051  0.46292460  0.40077643  1
  O2-  O218  1  0.08790890  0.45348303  0.72961629  1
  O2-  O219  1  0.08777149  0.95493276  0.06432429  1
  O2-  O220  1  0.08262935  0.95192492  0.39518266  1
  O2-  O221  1  0.08059051  0.96040250  0.73173862  1
  O2-  O222  1  0.58532669  0.46622461  0.06760664  1
  O2-  O223  1  0.58365056  0.46212464  0.40412563  1
  O2-  O224  1  0.58162403  0.46330500  0.73387830  1
  O2-  O225  1  0.57507695  0.95092748  0.06458853  1
  O2-  O226  1  0.58286958  0.95733739  0.40183649  1
  O2-  O227  1  0.58285339  0.94926188  0.72667222  1
  O2-  O228  1  0.20210957  0.33201664  0.06268853  1
  O2-  O229  1  0.20302447  0.33810155  0.39636151  1
  O2-  O230  1  0.20613201  0.33425788  0.72762953  1
  O2-  O231  1  0.20871595  0.83855083  0.06462814  1
  O2-  O232  1  0.20150467  0.83240297  0.39483708  1
  O2-  O233  1  0.21116609  0.83513726  0.73526755  1
  O2-  O234  1  0.70981540  0.33259384  0.06772781  1
  O2-  O235  1  0.71205974  0.33305467  0.40335457  1
  O2-  O236  1  0.70568906  0.32719556  0.73217931  1
  O2-  O237  1  0.70665795  0.82869769  0.06672882  1
  O2-  O238  1  0.71260678  0.83351714  0.40313553  1
  O2-  O239  1  0.70889900  0.83824151  0.72458768  1
  O2-  O240  1  0.45042408  0.42632219  0.27145982  1
  O2-  O241  1  0.45600213  0.42327561  0.59843772  1
  O2-  O242  1  0.45504111  0.42280668  0.93625247  1
  O2-  O243  1  0.45624951  0.91791098  0.26806565  1
  O2-  O244  1  0.44871667  0.91389893  0.60813527  1
  O2-  O245  1  0.44356637  0.91814174  0.93701388  1
  O2-  O246  1  0.96351554  0.41213442  0.27325040  1
  O2-  O247  1  0.95539321  0.41937023  0.60440576  1
  O2-  O248  1  0.95333194  0.41870972  0.93078850  1
  O2-  O249  1  0.95717936  0.91196688  0.26917620  1
  O2-  O250  1  0.96310371  0.91262387  0.59201549  1
  O2-  O251  1  0.96126589  0.91504661  0.93248802  1
  O2-  O252  1  0.32880808  0.29414257  0.26639282  1
  O2-  O253  1  0.33245547  0.29548503  0.59749973  1
  O2-  O254  1  0.33267906  0.29431201  0.93359653  1
  O2-  O255  1  0.33213781  0.78951595  0.26649167  1
  O2-  O256  1  0.33604710  0.78726239  0.60382404  1
  O2-  O257  1  0.33494328  0.79102143  0.93635954  1
  O2-  O258  1  0.83840302  0.29775783  0.27687923  1
  O2-  O259  1  0.83621060  0.29716804  0.60231652  1
  O2-  O260  1  0.83005581  0.29112779  0.93119244  1
  O2-  O261  1  0.83684428  0.79264229  0.26947947  1
  O2-  O262  1  0.83267591  0.78770633  0.59299091  1
  O2-  O263  1  0.83021828  0.79309711  0.93122979  1
  O2-  O264  1  0.40986375  0.04396362  0.06413858  1
  O2-  O265  1  0.41407448  0.03866624  0.40411464  1
  O2-  O266  1  0.41349876  0.04342966  0.73288497  1
  O2-  O267  1  0.41559229  0.54298712  0.07215559  1
  O2-  O268  1  0.41234256  0.55161933  0.39899339  1
  O2-  O269  1  0.41251724  0.54773122  0.72716929  1
  O2-  O270  1  0.91894114  0.03699782  0.06991216  1
  O2-  O271  1  0.91785270  0.03978737  0.40107263  1
  O2-  O272  1  0.91025495  0.03277580  0.72657230  1
  O2-  O273  1  0.92043244  0.55122421  0.05717075  1
  O2-  O274  1  0.91767630  0.54512427  0.39724023  1
  O2-  O275  1  0.92412897  0.55718910  0.73001800  1
  O2-  O276  1  0.28956763  0.16401770  0.06182035  1
  O2-  O277  1  0.28656024  0.16725885  0.40378175  1
  O2-  O278  1  0.29693393  0.16822978  0.72818073  1
  O2-  O279  1  0.28673499  0.66648959  0.07105727  1
  O2-  O280  1  0.28619254  0.66284375  0.39872359  1
  O2-  O281  1  0.28859835  0.66134142  0.73021200  1
  O2-  O282  1  0.80003809  0.16913525  0.06921273  1
  O2-  O283  1  0.80685365  0.16647020  0.39848330  1
  O2-  O284  1  0.80387786  0.16342109  0.72389918  1
  O2-  O285  1  0.79605966  0.66475995  0.06179956  1
  O2-  O286  1  0.80021524  0.66570546  0.39370285  1
  O2-  O287  1  0.78637796  0.67061038  0.73291936  1
