# generated using pymatgen
data_Ca2Al2SiO7
_symmetry_space_group_name_H-M   'P 1'
_cell_length_a   15.45556229
_cell_length_b   15.45529054
_cell_length_c   15.28188275
_cell_angle_alpha   90.01396644
_cell_angle_beta   89.98689473
_cell_angle_gamma   90.01181402
_symmetry_Int_Tables_number   1
_chemical_formula_structural   Ca2Al2SiO7
_chemical_formula_sum   'Ca48 Al48 Si24 O168'
_cell_volume   3650.38619394
_cell_formula_units_Z   24
loop_
 _symmetry_equiv_pos_site_id
 _symmetry_equiv_pos_as_xyz
  1  'x, y, z'
loop_
 _atom_type_symbol
 _atom_type_oxidation_number
  Ca2+  2.0
  Al0+  0.0
  Si0+  0.0
  O2-  -2.0
loop_
 _atom_site_type_symbol
 _atom_site_label
 _atom_site_symmetry_multiplicity
 _atom_site_fract_x
 _atom_site_fract_y
 _atom_site_fract_z
 _atom_site_occupancy
  Ca2+  Ca0  1  0.17366573  0.07841433  0.16997206  1
  Ca2+  Ca1  1  0.17274915  0.07738318  0.50440628  1
  Ca2+  Ca2  1  0.16466710  0.06917871  0.83759336  1
  Ca2+  Ca3  1  0.16534109  0.58491799  0.15925883  1
  Ca2+  Ca4  1  0.16733803  0.58202649  0.50307708  1
  Ca2+  Ca5  1  0.17233884  0.57906372  0.84569579  1
  Ca2+  Ca6  1  0.67773866  0.07891817  0.17261505  1
  Ca2+  Ca7  1  0.67362144  0.07590360  0.50341980  1
  Ca2+  Ca8  1  0.67167774  0.08820500  0.83047780  1
  Ca2+  Ca9  1  0.66989695  0.56998348  0.17469546  1
  Ca2+  Ca10  1  0.67954432  0.58177741  0.50137338  1
  Ca2+  Ca11  1  0.67327991  0.57673982  0.83723137  1
  Ca2+  Ca12  1  0.07092538  0.33392842  0.15953974  1
  Ca2+  Ca13  1  0.06996288  0.33054360  0.49469531  1
  Ca2+  Ca14  1  0.07338699  0.33672297  0.82987320  1
  Ca2+  Ca15  1  0.07866923  0.83072660  0.16044932  1
  Ca2+  Ca16  1  0.07630220  0.83475340  0.49582164  1
  Ca2+  Ca17  1  0.09081292  0.82876385  0.83175868  1
  Ca2+  Ca18  1  0.59159458  0.33394277  0.16156140  1
  Ca2+  Ca19  1  0.58512842  0.32818833  0.49937186  1
  Ca2+  Ca20  1  0.58104197  0.33041826  0.82562550  1
  Ca2+  Ca21  1  0.57371961  0.84147118  0.16528826  1
  Ca2+  Ca22  1  0.57899455  0.84468052  0.49405897  1
  Ca2+  Ca23  1  0.57145737  0.83884161  0.82590718  1
  Ca2+  Ca24  1  0.32704898  0.42287523  0.16902839  1
  Ca2+  Ca25  1  0.33287302  0.41627905  0.50644716  1
  Ca2+  Ca26  1  0.32975809  0.42088100  0.84473079  1
  Ca2+  Ca27  1  0.33040075  0.91328285  0.17006442  1
  Ca2+  Ca28  1  0.33390254  0.91687729  0.50396719  1
  Ca2+  Ca29  1  0.32627427  0.90702573  0.83683250  1
  Ca2+  Ca30  1  0.82733516  0.41564316  0.17361183  1
  Ca2+  Ca31  1  0.83695656  0.42176382  0.50186060  1
  Ca2+  Ca32  1  0.83283499  0.41478911  0.83776655  1
  Ca2+  Ca33  1  0.83227772  0.92579343  0.17853089  1
  Ca2+  Ca34  1  0.82649069  0.92197269  0.50942496  1
  Ca2+  Ca35  1  0.82786729  0.93128771  0.83800733  1
  Ca2+  Ca36  1  0.41894789  0.16358647  0.16494070  1
  Ca2+  Ca37  1  0.42360917  0.16335831  0.49731890  1
  Ca2+  Ca38  1  0.42520361  0.17493285  0.82090151  1
  Ca2+  Ca39  1  0.41529774  0.67598741  0.15929295  1
  Ca2+  Ca40  1  0.42176515  0.67977385  0.49498903  1
  Ca2+  Ca41  1  0.41435775  0.67268686  0.83164669  1
  Ca2+  Ca42  1  0.90505771  0.17412999  0.16307964  1
  Ca2+  Ca43  1  0.90556871  0.17280730  0.49619436  1
  Ca2+  Ca44  1  0.90741555  0.17513843  0.82983977  1
  Ca2+  Ca45  1  0.91661805  0.67107576  0.16484137  1
  Ca2+  Ca46  1  0.91203333  0.66963679  0.49213363  1
  Ca2+  Ca47  1  0.92481854  0.66097909  0.82934904  1
  Al0+  Al48  1  0.00038464  0.00181512  0.00897097  1
  Al0+  Al49  1  0.00273568  0.00034025  0.33241929  1
  Al0+  Al50  1  0.00121248  -0.00075010  0.67578044  1
  Al0+  Al51  1  0.00006217  0.50103602  -0.00482551  1
  Al0+  Al52  1  0.00130090  0.49820784  0.33095863  1
  Al0+  Al53  1  0.00167851  0.49960943  0.66503961  1
  Al0+  Al54  1  0.50048838  0.00079262  -0.00755712  1
  Al0+  Al55  1  0.49881379  0.00215077  0.33346204  1
  Al0+  Al56  1  0.49919202  0.00161617  0.66234845  1
  Al0+  Al57  1  0.50092729  0.50167020  0.00767794  1
  Al0+  Al58  1  0.49856167  0.50007886  0.33801634  1
  Al0+  Al59  1  0.50075539  0.50299629  0.66202336  1
  Al0+  Al60  1  0.24839247  0.24905209  0.00287276  1
  Al0+  Al61  1  0.25016668  0.24944561  0.33686032  1
  Al0+  Al62  1  0.24754667  0.24976529  0.66407567  1
  Al0+  Al63  1  0.24881099  0.75032215  0.00089946  1
  Al0+  Al64  1  0.25071567  0.74860892  0.32994201  1
  Al0+  Al65  1  0.25107877  0.74821707  0.66363259  1
  Al0+  Al66  1  0.74995035  0.24990362  0.00223807  1
  Al0+  Al67  1  0.74754037  0.24919907  0.33581813  1
  Al0+  Al68  1  0.74877061  0.25145007  0.66020922  1
  Al0+  Al69  1  0.74783015  0.75125361  -0.00175031  1
  Al0+  Al70  1  0.74848681  0.74759572  0.33279305  1
  Al0+  Al71  1  0.75075873  0.74907087  0.67872640  1
  Al0+  Al72  1  0.32025571  0.07103567  0.34715234  1
  Al0+  Al73  1  0.92941257  0.31869708  0.98600521  1
  Al0+  Al74  1  0.82399419  0.07009607  0.34898216  1
  Al0+  Al75  1  0.67592915  0.92868713  0.68380254  1
  Al0+  Al76  1  0.92753441  0.82151420  0.32246373  1
  Al0+  Al77  1  0.81880104  0.07026715  0.01505891  1
  Al0+  Al78  1  0.93074513  0.32039849  0.65170316  1
  Al0+  Al79  1  0.67694712  0.42738274  0.35161702  1
  Al0+  Al80  1  0.82371534  0.57052567  0.68236443  1
  Al0+  Al81  1  0.32078829  0.57119708  0.01568995  1
  Al0+  Al82  1  0.82058150  0.07325040  0.68266422  1
  Al0+  Al83  1  0.42640659  0.32400850  0.65250780  1
  Al0+  Al84  1  0.67909346  0.92827495  0.34560782  1
  Al0+  Al85  1  0.43089530  0.82158211  0.31805300  1
  Al0+  Al86  1  0.06742539  0.68229688  0.98554607  1
  Al0+  Al87  1  0.17649780  0.42684378  0.01498201  1
  Al0+  Al88  1  0.92885115  0.31820334  0.31820424  1
  Al0+  Al89  1  0.18098648  0.92785529  0.67987125  1
  Al0+  Al90  1  0.43053565  0.81975865  0.98487288  1
  Al0+  Al91  1  0.68124738  0.43024306  0.01152115  1
  Al0+  Al92  1  0.82302997  0.56956085  0.34635852  1
  Al0+  Al93  1  0.57066374  0.17987712  0.64839647  1
  Al0+  Al94  1  0.42968027  0.81872374  0.65159047  1
  Al0+  Al95  1  0.18051173  0.92874808  0.01547994  1
  Si0+  Si96  1  0.32455225  0.07236240  0.01399450  1
  Si0+  Si97  1  0.56823459  0.18122226  0.31567558  1
  Si0+  Si98  1  0.57027448  0.18122787  0.98560521  1
  Si0+  Si99  1  0.07158138  0.17405363  0.65035952  1
  Si0+  Si100  1  0.92561584  0.82609678  0.98304934  1
  Si0+  Si101  1  0.82357607  0.57432568  0.01553029  1
  Si0+  Si102  1  0.07271591  0.67705090  0.31573306  1
  Si0+  Si103  1  0.17996202  0.42910603  0.34941956  1
  Si0+  Si104  1  0.07451338  0.17620848  0.98332666  1
  Si0+  Si105  1  0.42648221  0.32296050  0.31687094  1
  Si0+  Si106  1  0.67540070  0.92763940  0.01567530  1
  Si0+  Si107  1  0.07555783  0.17803947  0.31589656  1
  Si0+  Si108  1  0.07109958  0.67926396  0.65098264  1
  Si0+  Si109  1  0.92932135  0.82082699  0.65665162  1
  Si0+  Si110  1  0.17955615  0.92535396  0.34999252  1
  Si0+  Si111  1  0.57140594  0.67532700  0.31567824  1
  Si0+  Si112  1  0.57286157  0.67499587  0.98277969  1
  Si0+  Si113  1  0.57589341  0.67832561  0.64962224  1
  Si0+  Si114  1  0.32024715  0.57217762  0.35044881  1
  Si0+  Si115  1  0.32100870  0.56994616  0.67962605  1
  Si0+  Si116  1  0.42754277  0.32264575  0.98953345  1
  Si0+  Si117  1  0.67796028  0.43006251  0.68232490  1
  Si0+  Si118  1  0.17954284  0.42850055  0.68022388  1
  Si0+  Si119  1  0.32141681  0.07349973  0.68352375  1
  O2-  O120  1  0.25614800  0.00396494  0.05914980  1
  O2-  O121  1  0.24742147  -0.00522484  0.39390513  1
  O2-  O122  1  0.25534771  0.00259534  0.72795459  1
  O2-  O123  1  0.25025310  0.49705101  0.06549907  1
  O2-  O124  1  0.25010990  0.50051357  0.39298869  1
  O2-  O125  1  0.25727069  0.49238559  0.72145045  1
  O2-  O126  1  0.74992726  -0.01067599  0.05989917  1
  O2-  O127  1  0.75801270  -0.00833921  0.39692201  1
  O2-  O128  1  0.74777240  0.00165802  0.73268525  1
  O2-  O129  1  0.75375696  0.50661049  0.05868145  1
  O2-  O130  1  0.75209392  0.49766057  0.39866295  1
  O2-  O131  1  0.74852949  0.49586983  0.72794511  1
  O2-  O132  1  0.00102569  0.24045445  0.27171116  1
  O2-  O133  1  0.00137481  0.24100967  0.60574779  1
  O2-  O134  1  0.00662012  0.24585247  0.93922543  1
  O2-  O135  1  0.00238782  0.74610194  0.27537100  1
  O2-  O136  1  -0.00168324  0.74890069  0.61094153  1
  O2-  O137  1  -0.00838336  0.75533563  0.93711239  1
  O2-  O138  1  0.49964096  0.25527920  0.27300292  1
  O2-  O139  1  0.49601693  0.25137354  0.60013347  1
  O2-  O140  1  0.49673042  0.25116307  0.94581330  1
  O2-  O141  1  0.50610304  0.74753523  0.27113420  1
  O2-  O142  1  0.51116697  0.75111527  0.60525938  1
  O2-  O143  1  0.50695513  0.74647143  0.93835085  1
  O2-  O144  1  0.07684875  0.17700345  0.08881972  1
  O2-  O145  1  0.08045887  0.18228300  0.42144043  1
  O2-  O146  1  0.07476337  0.17635674  0.75583681  1
  O2-  O147  1  0.06617579  0.68369594  0.09864309  1
  O2-  O148  1  0.07621462  0.67714415  0.42183174  1
  O2-  O149  1  0.07347951  0.67855295  0.75581970  1
  O2-  O150  1  0.56948873  0.17999650  0.09088903  1
  O2-  O151  1  0.56569665  0.18057232  0.42022336  1
  O2-  O152  1  0.56959825  0.18426122  0.76308356  1
  O2-  O153  1  0.57205662  0.67355755  0.08811960  1
  O2-  O154  1  0.56777819  0.67295360  0.42124037  1
  O2-  O155  1  0.57115525  0.67362543  0.75517759  1
  O2-  O156  1  0.18133467  0.42892994  0.24470900  1
  O2-  O157  1  0.17792206  0.43267118  0.57474278  1
  O2-  O158  1  0.17959968  0.42808163  0.90080193  1
  O2-  O159  1  0.18134807  0.92466553  0.24444621  1
  O2-  O160  1  0.18078898  0.92771382  0.56675936  1
  O2-  O161  1  0.18263077  0.92801932  0.90215103  1
  O2-  O162  1  0.67683773  0.42875377  0.23755641  1
  O2-  O163  1  0.67737360  0.43288380  0.57715002  1
  O2-  O164  1  0.68026403  0.42955135  0.89834761  1
  O2-  O165  1  0.67711100  0.93379500  0.23163197  1
  O2-  O166  1  0.67948508  0.92723893  0.57034203  1
  O2-  O167  1  0.67333897  0.93081200  0.91041197  1
  O2-  O168  1  0.42781607  0.32082471  0.09470939  1
  O2-  O169  1  0.42460150  0.32152031  0.42168614  1
  O2-  O170  1  0.42700024  0.32441993  0.76700856  1
  O2-  O171  1  0.43221253  0.82115843  0.09805239  1
  O2-  O172  1  0.42904456  0.81906107  0.43114776  1
  O2-  O173  1  0.42569686  0.81309443  0.76462470  1
  O2-  O174  1  0.92802398  0.31693059  0.09902960  1
  O2-  O175  1  0.93326170  0.32043336  0.43131290  1
  O2-  O176  1  0.93300087  0.32230072  0.76496103  1
  O2-  O177  1  0.92702094  0.82417407  0.08885158  1
  O2-  O178  1  0.93076772  0.82051377  0.43624854  1
  O2-  O179  1  0.93317954  0.81968862  0.76153304  1
  O2-  O180  1  0.31905706  0.07177400  0.23373546  1
  O2-  O181  1  0.31835190  0.07348715  0.57780601  1
  O2-  O182  1  0.32470517  0.07385858  0.90864399  1
  O2-  O183  1  0.32005279  0.57207118  0.24576776  1
  O2-  O184  1  0.31648961  0.57183473  0.57423941  1
  O2-  O185  1  0.32058847  0.56853780  0.90136817  1
  O2-  O186  1  0.81900890  0.07126892  0.23513435  1
  O2-  O187  1  0.82219487  0.06926513  0.56954432  1
  O2-  O188  1  0.81500382  0.07349140  0.90222684  1
  O2-  O189  1  0.82265994  0.56791320  0.23262707  1
  O2-  O190  1  0.82514025  0.57077549  0.56961410  1
  O2-  O191  1  0.82279696  0.57195044  0.90966714  1
  O2-  O192  1  0.05901903  0.08156087  0.27255844  1
  O2-  O193  1  0.04899528  0.07885533  0.60609513  1
  O2-  O194  1  0.04741387  0.08188541  0.93939002  1
  O2-  O195  1  0.04879239  0.58349141  0.26933127  1
  O2-  O196  1  0.04476930  0.58769081  0.60219477  1
  O2-  O197  1  0.04064127  0.58539440  0.92873021  1
  O2-  O198  1  0.53581829  0.09166751  0.26636082  1
  O2-  O199  1  0.54181590  0.08220788  0.59463147  1
  O2-  O200  1  0.54458034  0.09056312  0.93498588  1
  O2-  O201  1  0.53935573  0.58291932  0.26943491  1
  O2-  O202  1  0.54637160  0.58771855  0.59951597  1
  O2-  O203  1  0.54363032  0.58224179  0.93581457  1
  O2-  O204  1  0.16677744  0.21053443  0.26777332  1
  O2-  O205  1  0.16405680  0.20133817  0.60206138  1
  O2-  O206  1  0.16882682  0.19900629  0.93617904  1
  O2-  O207  1  0.16533875  0.70390152  0.26813419  1
  O2-  O208  1  0.16137276  0.70823659  0.60083811  1
  O2-  O209  1  0.16428310  0.71345929  0.93159339  1
  O2-  O210  1  0.66035458  0.20770540  0.26819294  1
  O2-  O211  1  0.66705907  0.20969048  0.59335877  1
  O2-  O212  1  0.65984069  0.21373381  0.93753131  1
  O2-  O213  1  0.66613447  0.69414399  0.26985993  1
  O2-  O214  1  0.67246801  0.69983351  0.60854039  1
  O2-  O215  1  0.66777122  0.69670807  0.93665318  1
  O2-  O216  1  0.07916558  0.46037358  0.06670329  1
  O2-  O217  1  0.08892434  0.45799191  0.39740385  1
  O2-  O218  1  0.09123633  0.46352378  0.72917017  1
  O2-  O219  1  0.08494848  0.95873106  0.07157764  1
  O2-  O220  1  0.08621930  0.95097285  0.39595021  1
  O2-  O221  1  0.08617262  0.95642228  0.73840431  1
  O2-  O222  1  0.58523885  0.45751469  0.06884560  1
  O2-  O223  1  0.57808546  0.45611269  0.40383583  1
  O2-  O224  1  0.58409068  0.45809697  0.72800504  1
  O2-  O225  1  0.58351238  0.96066967  0.06126008  1
  O2-  O226  1  0.58340309  0.96502135  0.39849279  1
  O2-  O227  1  0.57635553  0.95882463  0.73397568  1
  O2-  O228  1  0.20212977  0.32809006  0.06868782  1
  O2-  O229  1  0.20890956  0.33858609  0.39831665  1
  O2-  O230  1  0.19818198  0.33401682  0.72586226  1
  O2-  O231  1  0.21202075  0.83380704  0.07048479  1
  O2-  O232  1  0.20564878  0.83147866  0.39550659  1
  O2-  O233  1  0.21395965  0.83054788  0.73229933  1
  O2-  O234  1  0.71292672  0.33529046  0.06769297  1
  O2-  O235  1  0.70265981  0.32867841  0.40265451  1
  O2-  O236  1  0.70149055  0.33538540  0.72593802  1
  O2-  O237  1  0.69172891  0.83076073  0.05859752  1
  O2-  O238  1  0.69474291  0.82600938  0.39417508  1
  O2-  O239  1  0.70191676  0.83083564  0.73926428  1
  O2-  O240  1  0.45019564  0.41715128  0.27223590  1
  O2-  O241  1  0.45339212  0.42281942  0.59862956  1
  O2-  O242  1  0.45588444  0.41501751  0.94367032  1
  O2-  O243  1  0.45965766  0.91912127  0.26445498  1
  O2-  O244  1  0.45171925  0.91830990  0.60066468  1
  O2-  O245  1  0.45882650  0.91675564  0.92901372  1
  O2-  O246  1  0.96400535  0.41392248  0.26451700  1
  O2-  O247  1  0.96890338  0.41493894  0.59711875  1
  O2-  O248  1  0.95772278  0.41599137  0.93191259  1
  O2-  O249  1  0.96012220  0.91747765  0.26681732  1
  O2-  O250  1  0.95944302  0.91234983  0.61004458  1
  O2-  O251  1  0.95458224  0.92010118  0.94018048  1
  O2-  O252  1  0.33517545  0.29218402  0.26977552  1
  O2-  O253  1  0.32619467  0.29879083  0.60033700  1
  O2-  O254  1  0.33477651  0.29731094  0.94221464  1
  O2-  O255  1  0.33428043  0.78786572  0.26495873  1
  O2-  O256  1  0.33579546  0.78091051  0.59551263  1
  O2-  O257  1  0.33429832  0.78587494  0.93273699  1
  O2-  O258  1  0.82989395  0.28996826  0.26717554  1
  O2-  O259  1  0.83307507  0.29636500  0.59814283  1
  O2-  O260  1  0.83323736  0.28478925  0.93216509  1
  O2-  O261  1  0.83128490  0.79178807  0.26644310  1
  O2-  O262  1  0.83606304  0.79360315  0.61258508  1
  O2-  O263  1  0.82980817  0.80540815  0.93886457  1
  O2-  O264  1  0.41857562  0.04632600  0.05926559  1
  O2-  O265  1  0.41582376  0.04069509  0.40158972  1
  O2-  O266  1  0.41634533  0.05190035  0.72691124  1
  O2-  O267  1  0.41832812  0.54544777  0.07121406  1
  O2-  O268  1  0.41115253  0.54530006  0.39941817  1
  O2-  O269  1  0.41556862  0.55055208  0.72483239  1
  O2-  O270  1  0.91675513  0.04765344  0.06950965  1
  O2-  O271  1  0.92654303  0.05204706  0.39740008  1
  O2-  O272  1  0.91852607  0.04538958  0.73741868  1
  O2-  O273  1  0.91720006  0.54934578  0.05973728  1
  O2-  O274  1  0.92289353  0.54315489  0.39866136  1
  O2-  O275  1  0.92097630  0.53793442  0.73479210  1
  O2-  O276  1  0.29989175  0.16530198  0.06241379  1
  O2-  O277  1  0.28963263  0.16692268  0.40313282  1
  O2-  O278  1  0.29439337  0.16729907  0.72938551  1
  O2-  O279  1  0.28708214  0.66712236  0.06928301  1
  O2-  O280  1  0.28984744  0.66326030  0.39841743  1
  O2-  O281  1  0.28574961  0.65838763  0.72838987  1
  O2-  O282  1  0.78057779  0.16371537  0.07000160  1
  O2-  O283  1  0.78786065  0.16588084  0.40083343  1
  O2-  O284  1  0.78954645  0.17298434  0.73231241  1
  O2-  O285  1  0.79999585  0.66968555  0.05931179  1
  O2-  O286  1  0.79365223  0.66749149  0.40012459  1
  O2-  O287  1  0.79598191  0.66527534  0.74112659  1
