# generated using pymatgen
data_Ca2Al2SiO7
_symmetry_space_group_name_H-M   'P 1'
_cell_length_a   15.46365495
_cell_length_b   15.46258005
_cell_length_c   15.28774716
_cell_angle_alpha   89.99225703
_cell_angle_beta   89.99017166
_cell_angle_gamma   89.98976525
_symmetry_Int_Tables_number   1
_chemical_formula_structural   Ca2Al2SiO7
_chemical_formula_sum   'Ca48 Al48 Si24 O168'
_cell_volume   3655.42254098
_cell_formula_units_Z   24
loop_
 _symmetry_equiv_pos_site_id
 _symmetry_equiv_pos_as_xyz
  1  'x, y, z'
loop_
 _atom_type_symbol
 _atom_type_oxidation_number
  Ca2+  2.0
  Al0+  0.0
  Si0+  0.0
  O2-  -2.0
loop_
 _atom_site_type_symbol
 _atom_site_label
 _atom_site_symmetry_multiplicity
 _atom_site_fract_x
 _atom_site_fract_y
 _atom_site_fract_z
 _atom_site_occupancy
  Ca2+  Ca0  1  0.17469765  0.08680084  0.16742613  1
  Ca2+  Ca1  1  0.16710712  0.08083331  0.50319567  1
  Ca2+  Ca2  1  0.17561772  0.08115613  0.84057547  1
  Ca2+  Ca3  1  0.18238784  0.57827286  0.16805433  1
  Ca2+  Ca4  1  0.17212649  0.58670995  0.50237423  1
  Ca2+  Ca5  1  0.17358402  0.57880516  0.84114104  1
  Ca2+  Ca6  1  0.66088613  0.07986112  0.17250892  1
  Ca2+  Ca7  1  0.67658916  0.09154289  0.50242772  1
  Ca2+  Ca8  1  0.66550354  0.07876382  0.83932778  1
  Ca2+  Ca9  1  0.66363338  0.57759726  0.17788740  1
  Ca2+  Ca10  1  0.67111011  0.57641316  0.50292178  1
  Ca2+  Ca11  1  0.66109460  0.58127612  0.83219720  1
  Ca2+  Ca12  1  0.07544788  0.34426183  0.16538854  1
  Ca2+  Ca13  1  0.06626965  0.33710272  0.49706979  1
  Ca2+  Ca14  1  0.07780842  0.33839006  0.82773553  1
  Ca2+  Ca15  1  0.07533997  0.83337537  0.16755323  1
  Ca2+  Ca16  1  0.07646928  0.82472695  0.49559184  1
  Ca2+  Ca17  1  0.08295902  0.82421838  0.82505117  1
  Ca2+  Ca18  1  0.57867231  0.32690489  0.16529799  1
  Ca2+  Ca19  1  0.58043877  0.33838740  0.49271256  1
  Ca2+  Ca20  1  0.57057740  0.33600180  0.82907835  1
  Ca2+  Ca21  1  0.59196785  0.82003871  0.16109577  1
  Ca2+  Ca22  1  0.58853578  0.81958694  0.49916804  1
  Ca2+  Ca23  1  0.58199734  0.82415984  0.83033827  1
  Ca2+  Ca24  1  0.34154855  0.42160081  0.16952693  1
  Ca2+  Ca25  1  0.34210971  0.42036648  0.50099976  1
  Ca2+  Ca26  1  0.32984182  0.41648413  0.84447027  1
  Ca2+  Ca27  1  0.33876507  0.92598115  0.16803443  1
  Ca2+  Ca28  1  0.33646935  0.91520154  0.50572397  1
  Ca2+  Ca29  1  0.33990105  0.92054464  0.83869186  1
  Ca2+  Ca30  1  0.82449445  0.42286623  0.18041447  1
  Ca2+  Ca31  1  0.82198554  0.41643949  0.50724797  1
  Ca2+  Ca32  1  0.82750386  0.41906463  0.82922092  1
  Ca2+  Ca33  1  0.82704306  0.92172627  0.17464604  1
  Ca2+  Ca34  1  0.83793139  0.92678201  0.50126021  1
  Ca2+  Ca35  1  0.82643869  0.92311064  0.83790240  1
  Ca2+  Ca36  1  0.42487010  0.17531244  0.15871216  1
  Ca2+  Ca37  1  0.42695603  0.18070785  0.49180931  1
  Ca2+  Ca38  1  0.41835064  0.17289040  0.83189165  1
  Ca2+  Ca39  1  0.42679321  0.65748238  0.16363131  1
  Ca2+  Ca40  1  0.43011815  0.66436996  0.49565727  1
  Ca2+  Ca41  1  0.42691690  0.66569622  0.82717681  1
  Ca2+  Ca42  1  0.91161860  0.17203839  0.16994329  1
  Ca2+  Ca43  1  0.90626523  0.17564043  0.49543711  1
  Ca2+  Ca44  1  0.91642372  0.17223781  0.82539915  1
  Ca2+  Ca45  1  0.90516224  0.67394422  0.16642469  1
  Ca2+  Ca46  1  0.91664149  0.66168413  0.49389391  1
  Ca2+  Ca47  1  0.92382339  0.66270278  0.82296541  1
  Al0+  Al48  1  -0.00151677  0.00152708  -0.00107438  1
  Al0+  Al49  1  -0.00004570  -0.00182674  0.33251598  1
  Al0+  Al50  1  0.00237370  -0.00059420  0.67345737  1
  Al0+  Al51  1  0.00008074  0.50249392  0.00368491  1
  Al0+  Al52  1  0.00421976  0.50075731  0.32927131  1
  Al0+  Al53  1  0.00039888  0.49904356  0.66088160  1
  Al0+  Al54  1  0.50108390  -0.00150029  0.00649251  1
  Al0+  Al55  1  0.49931713  -0.00168050  0.33537761  1
  Al0+  Al56  1  0.50002216  0.00114599  0.66383638  1
  Al0+  Al57  1  0.50169154  0.49927524  -0.00483646  1
  Al0+  Al58  1  0.49908994  0.50118077  0.33466909  1
  Al0+  Al59  1  0.50014565  0.50090696  0.66396061  1
  Al0+  Al60  1  0.24543900  0.24886671  0.00551321  1
  Al0+  Al61  1  0.24908390  0.24987953  0.33272751  1
  Al0+  Al62  1  0.25036861  0.24911662  0.66221083  1
  Al0+  Al63  1  0.24789573  0.74950039  0.00537977  1
  Al0+  Al64  1  0.24953709  0.75030280  0.33608766  1
  Al0+  Al65  1  0.24824768  0.75037473  0.66068377  1
  Al0+  Al66  1  0.75137020  0.25064226  -0.00462369  1
  Al0+  Al67  1  0.74978376  0.24903529  0.33102755  1
  Al0+  Al68  1  0.74988565  0.25051503  0.67570580  1
  Al0+  Al69  1  0.74978842  0.75308197  -0.00383643  1
  Al0+  Al70  1  0.75089798  0.75078251  0.32944327  1
  Al0+  Al71  1  0.75186470  0.75217552  0.66674037  1
  Al0+  Al72  1  0.92856733  0.31861109  0.65419919  1
  Al0+  Al73  1  0.82026631  0.06940737  0.34595564  1
  Al0+  Al74  1  0.17632492  0.42816722  0.01494539  1
  Al0+  Al75  1  0.92937274  0.32160106  0.31960930  1
  Al0+  Al76  1  0.06961615  0.67791718  0.65262595  1
  Al0+  Al77  1  0.42775281  0.31950451  0.98501464  1
  Al0+  Al78  1  0.32376197  0.56993275  0.01334799  1
  Al0+  Al79  1  0.42825548  0.32175057  0.31736050  1
  Al0+  Al80  1  0.42755641  0.32050669  0.65284402  1
  Al0+  Al81  1  0.42907856  0.82262792  0.65279207  1
  Al0+  Al82  1  0.32045956  0.06985362  0.01377723  1
  Al0+  Al83  1  0.57233316  0.17728765  0.31950240  1
  Al0+  Al84  1  0.57350894  0.67917100  0.64983367  1
  Al0+  Al85  1  0.32032301  0.57016903  0.34968772  1
  Al0+  Al86  1  0.57176389  0.17614473  0.98363961  1
  Al0+  Al87  1  0.93043235  0.81983353  0.31953966  1
  Al0+  Al88  1  0.82300375  0.57207065  0.68088207  1
  Al0+  Al89  1  0.82292724  0.57310455  0.34588205  1
  Al0+  Al90  1  0.57155168  0.67882919  0.98549252  1
  Al0+  Al91  1  0.56983906  0.68164731  0.31922922  1
  Al0+  Al92  1  0.68037967  0.92984951  0.01433365  1
  Al0+  Al93  1  0.82152038  0.07108540  0.68217875  1
  Al0+  Al94  1  0.67645169  0.43018133  0.68462764  1
  Al0+  Al95  1  0.67950800  0.42872372  0.34663580  1
  Si0+  Si96  1  0.31935960  0.57195937  0.68041730  1
  Si0+  Si97  1  0.82297973  0.07361256  0.01797845  1
  Si0+  Si98  1  0.17471929  0.92736605  0.01752644  1
  Si0+  Si99  1  0.67697762  0.92666146  0.35154762  1
  Si0+  Si100  1  0.67658096  0.92853813  0.68345446  1
  Si0+  Si101  1  0.57210875  0.17809456  0.65161957  1
  Si0+  Si102  1  0.93015656  0.32384451  0.98431433  1
  Si0+  Si103  1  0.82100660  0.57140103  0.01325311  1
  Si0+  Si104  1  0.17978268  0.42808929  0.67888627  1
  Si0+  Si105  1  0.17785726  0.42585723  0.35305410  1
  Si0+  Si106  1  0.07527058  0.67804280  0.31291679  1
  Si0+  Si107  1  0.68011072  0.42849921  0.01427365  1
  Si0+  Si108  1  0.32168741  0.07177941  0.35077769  1
  Si0+  Si109  1  0.42567262  0.82108795  0.98731665  1
  Si0+  Si110  1  0.92918315  0.82253979  0.98272094  1
  Si0+  Si111  1  0.07005524  0.68074555  0.98580997  1
  Si0+  Si112  1  0.32058890  0.07136121  0.68026405  1
  Si0+  Si113  1  0.06936347  0.17744343  0.98452473  1
  Si0+  Si114  1  0.42507759  0.82199269  0.31558237  1
  Si0+  Si115  1  0.92939835  0.82458429  0.65161008  1
  Si0+  Si116  1  0.17930096  0.93037346  0.34945281  1
  Si0+  Si117  1  0.07150660  0.17634558  0.31650996  1
  Si0+  Si118  1  0.07258612  0.17607441  0.65113213  1
  Si0+  Si119  1  0.18041753  0.92781125  0.68239150  1
  O2-  O120  1  0.24585904  -0.00631939  0.06094106  1
  O2-  O121  1  0.25129502  -0.00027174  0.39300189  1
  O2-  O122  1  0.25282401  -0.00259141  0.72399421  1
  O2-  O123  1  0.25555253  0.49330393  0.06291073  1
  O2-  O124  1  0.24736479  0.49351307  0.39726015  1
  O2-  O125  1  0.25163428  0.49744289  0.72254263  1
  O2-  O126  1  0.75085852  0.00868585  0.06106630  1
  O2-  O127  1  0.74240389  -0.00104234  0.39470683  1
  O2-  O128  1  0.74633396  -0.00340150  0.72779218  1
  O2-  O129  1  0.74982371  0.50138903  0.05551462  1
  O2-  O130  1  0.75505549  0.49799470  0.39581044  1
  O2-  O131  1  0.74775696  0.50495970  0.73355396  1
  O2-  O132  1  0.00551532  0.24760882  0.27230617  1
  O2-  O133  1  0.00062628  0.24072538  0.60756591  1
  O2-  O134  1  0.00068888  0.25104511  0.94301962  1
  O2-  O135  1  0.00010577  0.74093023  0.27022643  1
  O2-  O136  1  -0.00915540  0.74943587  0.60763915  1
  O2-  O137  1  0.00090278  0.75232262  0.94114776  1
  O2-  O138  1  0.49911047  0.24778302  0.26950507  1
  O2-  O139  1  0.50662110  0.24975053  0.60805581  1
  O2-  O140  1  0.49923201  0.24753197  0.93327581  1
  O2-  O141  1  0.49499249  0.75582712  0.27083974  1
  O2-  O142  1  0.50071078  0.75193636  0.60157774  1
  O2-  O143  1  0.49088069  0.74981531  0.94260806  1
  O2-  O144  1  0.06659264  0.17150651  0.08910692  1
  O2-  O145  1  0.07150610  0.17412550  0.42218942  1
  O2-  O146  1  0.07550181  0.17723332  0.75688476  1
  O2-  O147  1  0.06866499  0.68275270  0.09042002  1
  O2-  O148  1  0.07787369  0.68213073  0.41858403  1
  O2-  O149  1  0.07221697  0.68077889  0.76644567  1
  O2-  O150  1  0.57136705  0.17758553  0.09678381  1
  O2-  O151  1  0.57040859  0.17652026  0.43341173  1
  O2-  O152  1  0.56707333  0.17388411  0.75703481  1
  O2-  O153  1  0.57480947  0.67964369  0.09835590  1
  O2-  O154  1  0.57063752  0.68282417  0.43177373  1
  O2-  O155  1  0.56982656  0.68043803  0.76377901  1
  O2-  O156  1  0.17640181  0.42739839  0.24760729  1
  O2-  O157  1  0.17982202  0.42808995  0.57420627  1
  O2-  O158  1  0.17204575  0.43288995  0.90071697  1
  O2-  O159  1  0.17895296  0.93190263  0.24427569  1
  O2-  O160  1  0.17737424  0.93006127  0.57742911  1
  O2-  O161  1  0.17272892  0.92806356  0.91177536  1
  O2-  O162  1  0.68023999  0.42995078  0.23219523  1
  O2-  O163  1  0.67791903  0.42735418  0.57157337  1
  O2-  O164  1  0.68138465  0.42848276  0.90933169  1
  O2-  O165  1  0.67932394  0.92593851  0.24577618  1
  O2-  O166  1  0.67663861  0.92933680  0.57808885  1
  O2-  O167  1  0.68443135  0.92829557  0.90107264  1
  O2-  O168  1  0.43114702  0.31982397  0.09797608  1
  O2-  O169  1  0.42842088  0.31928620  0.43126873  1
  O2-  O170  1  0.42133626  0.31665782  0.76564958  1
  O2-  O171  1  0.42583690  0.82134600  0.09268158  1
  O2-  O172  1  0.42391998  0.82110134  0.42104685  1
  O2-  O173  1  0.42807463  0.82267630  0.76678417  1
  O2-  O174  1  0.92991361  0.32395092  0.08926708  1
  O2-  O175  1  0.92970354  0.31930945  0.43257261  1
  O2-  O176  1  0.93354241  0.31892760  0.76790584  1
  O2-  O177  1  0.92968811  0.82274134  0.08771493  1
  O2-  O178  1  0.93566736  0.82384394  0.43231691  1
  O2-  O179  1  0.93498484  0.82719332  0.75756768  1
  O2-  O180  1  0.31988997  0.07029862  0.24572313  1
  O2-  O181  1  0.31641538  0.07102659  0.57530048  1
  O2-  O182  1  0.31755766  0.06780420  0.90006366  1
  O2-  O183  1  0.31927976  0.57116034  0.23671031  1
  O2-  O184  1  0.31675248  0.57229637  0.57543284  1
  O2-  O185  1  0.31904249  0.57309815  0.89928237  1
  O2-  O186  1  0.82326234  0.06610598  0.23297909  1
  O2-  O187  1  0.82284960  0.06971881  0.56915858  1
  O2-  O188  1  0.82738631  0.06997303  0.91238597  1
  O2-  O189  1  0.81800974  0.57289106  0.23133733  1
  O2-  O190  1  0.82496364  0.56813794  0.56803306  1
  O2-  O191  1  0.82547713  0.56913201  0.90842911  1
  O2-  O192  1  0.04409523  0.08414544  0.26877866  1
  O2-  O193  1  0.05091315  0.08029356  0.60794017  1
  O2-  O194  1  0.04028767  0.08669897  0.93366182  1
  O2-  O195  1  0.05952602  0.58239779  0.26868832  1
  O2-  O196  1  0.04458627  0.58188799  0.59609645  1
  O2-  O197  1  0.04011283  0.58946317  0.93829403  1
  O2-  O198  1  0.54335404  0.07709879  0.26932803  1
  O2-  O199  1  0.54528479  0.08637951  0.60266423  1
  O2-  O200  1  0.54264272  0.07606861  0.93395071  1
  O2-  O201  1  0.53712644  0.58550784  0.26651098  1
  O2-  O202  1  0.54300937  0.58191324  0.59744160  1
  O2-  O203  1  0.54415270  0.58260907  0.92995312  1
  O2-  O204  1  0.16592769  0.19950612  0.27114557  1
  O2-  O205  1  0.16397254  0.20322801  0.60168888  1
  O2-  O206  1  0.16192994  0.20130508  0.93715929  1
  O2-  O207  1  0.16517213  0.71416114  0.26570798  1
  O2-  O208  1  0.16254002  0.71445555  0.59546376  1
  O2-  O209  1  0.16238208  0.70774707  0.93820946  1
  O2-  O210  1  0.67004509  0.20255202  0.26457997  1
  O2-  O211  1  0.66794555  0.20122859  0.61098676  1
  O2-  O212  1  0.67205121  0.20196805  0.93230451  1
  O2-  O213  1  0.66576179  0.71260982  0.26392738  1
  O2-  O214  1  0.67266957  0.70864625  0.59877306  1
  O2-  O215  1  0.66593173  0.71555818  0.93003013  1
  O2-  O216  1  0.08186842  0.46616549  0.07144578  1
  O2-  O217  1  0.08473335  0.45464020  0.39871177  1
  O2-  O218  1  0.08846491  0.45691271  0.72635302  1
  O2-  O219  1  0.08220698  0.95773966  0.06385828  1
  O2-  O220  1  0.08911071  0.96063338  0.39842380  1
  O2-  O221  1  0.09088463  0.95612211  0.73454501  1
  O2-  O222  1  0.58794513  0.45519200  0.05992639  1
  O2-  O223  1  0.58271025  0.46009370  0.39970467  1
  O2-  O224  1  0.57731567  0.45974997  0.73727341  1
  O2-  O225  1  0.58357879  0.95292219  0.07068463  1
  O2-  O226  1  0.58142254  0.94574298  0.39639473  1
  O2-  O227  1  0.58319748  0.95629187  0.72977205  1
  O2-  O228  1  0.18984853  0.32658821  0.06593471  1
  O2-  O229  1  0.19867949  0.33041595  0.39778612  1
  O2-  O230  1  0.20536457  0.33477385  0.72573713  1
  O2-  O231  1  0.19554589  0.83359785  0.06472284  1
  O2-  O232  1  0.20512628  0.83852889  0.39755004  1
  O2-  O233  1  0.20678773  0.83546349  0.72984157  1
  O2-  O234  1  0.71048421  0.33674239  0.06031035  1
  O2-  O235  1  0.70575248  0.32950850  0.39815385  1
  O2-  O236  1  0.70686700  0.33339310  0.74032335  1
  O2-  O237  1  0.71802688  0.83493843  0.06851547  1
  O2-  O238  1  0.70964185  0.83564104  0.39755677  1
  O2-  O239  1  0.70195458  0.83528831  0.73039580  1
  O2-  O240  1  0.45710615  0.42007617  0.26660697  1
  O2-  O241  1  0.45460260  0.41823134  0.60102812  1
  O2-  O242  1  0.45695721  0.41713526  0.93065780  1
  O2-  O243  1  0.44824999  0.91727069  0.27228069  1
  O2-  O244  1  0.45365133  0.92211504  0.59898920  1
  O2-  O245  1  0.45444890  0.91372329  0.94148796  1
  O2-  O246  1  0.96141666  0.41767231  0.26369071  1
  O2-  O247  1  0.96293464  0.41211363  0.59800439  1
  O2-  O248  1  0.96096320  0.41541921  0.93792516  1
  O2-  O249  1  0.96751912  0.91373173  0.26282171  1
  O2-  O250  1  0.96450850  0.91537302  0.60506595  1
  O2-  O251  1  0.95718963  0.91474038  0.93566409  1
  O2-  O252  1  0.32815084  0.29433762  0.26708647  1
  O2-  O253  1  0.33316576  0.28632309  0.59596098  1
  O2-  O254  1  0.32552222  0.29271547  0.93784932  1
  O2-  O255  1  0.33083894  0.79787932  0.27033480  1
  O2-  O256  1  0.33000827  0.79712542  0.59973110  1
  O2-  O257  1  0.32912709  0.80173044  0.94318413  1
  O2-  O258  1  0.83492044  0.28901363  0.26345958  1
  O2-  O259  1  0.83080662  0.28790151  0.60392904  1
  O2-  O260  1  0.83920619  0.29687269  0.93533489  1
  O2-  O261  1  0.83422955  0.79345457  0.26252467  1
  O2-  O262  1  0.83325984  0.81026334  0.60867675  1
  O2-  O263  1  0.83903948  0.79425488  0.93350496  1
  O2-  O264  1  0.41490692  0.03862888  0.07077377  1
  O2-  O265  1  0.41274096  0.04352427  0.39927417  1
  O2-  O266  1  0.41324211  0.04641288  0.72703962  1
  O2-  O267  1  0.42335407  0.54353554  0.06464011  1
  O2-  O268  1  0.41610954  0.54033132  0.40462675  1
  O2-  O269  1  0.41252753  0.54822953  0.72550066  1
  O2-  O270  1  0.91536087  0.04365737  0.06451136  1
  O2-  O271  1  0.91654802  0.03537270  0.39975856  1
  O2-  O272  1  0.91883351  0.04048948  0.73739865  1
  O2-  O273  1  0.91175870  0.54500639  0.06323800  1
  O2-  O274  1  0.92617532  0.55223702  0.39114727  1
  O2-  O275  1  0.92166915  0.53876696  0.73343462  1
  O2-  O276  1  0.28517232  0.16336883  0.07036363  1
  O2-  O277  1  0.29151670  0.16289318  0.39815510  1
  O2-  O278  1  0.28785224  0.16134209  0.72869151  1
  O2-  O279  1  0.29063707  0.66677729  0.06812072  1
  O2-  O280  1  0.28647688  0.66685387  0.40277166  1
  O2-  O281  1  0.28690029  0.66304784  0.72658180  1
  O2-  O282  1  0.80278279  0.17004852  0.05983700  1
  O2-  O283  1  0.79178123  0.16639050  0.39943012  1
  O2-  O284  1  0.79305364  0.16597195  0.73982087  1
  O2-  O285  1  0.79465031  0.66535323  0.05636752  1
  O2-  O286  1  0.79514905  0.67193508  0.39748926  1
  O2-  O287  1  0.80406060  0.67462313  0.73098492  1
