# generated using pymatgen
data_Ca2Al2SiO7
_symmetry_space_group_name_H-M   'P 1'
_cell_length_a   15.46485092
_cell_length_b   15.46619184
_cell_length_c   15.28841950
_cell_angle_alpha   90.01781640
_cell_angle_beta   89.98641848
_cell_angle_gamma   90.00830567
_symmetry_Int_Tables_number   1
_chemical_formula_structural   Ca2Al2SiO7
_chemical_formula_sum   'Ca48 Al48 Si24 O168'
_cell_volume   3656.71980461
_cell_formula_units_Z   24
loop_
 _symmetry_equiv_pos_site_id
 _symmetry_equiv_pos_as_xyz
  1  'x, y, z'
loop_
 _atom_type_symbol
 _atom_type_oxidation_number
  Ca2+  2.0
  Al0+  0.0
  Si0+  0.0
  O2-  -2.0
loop_
 _atom_site_type_symbol
 _atom_site_label
 _atom_site_symmetry_multiplicity
 _atom_site_fract_x
 _atom_site_fract_y
 _atom_site_fract_z
 _atom_site_occupancy
  Ca2+  Ca0  1  0.17385274  0.06798239  0.17433490  1
  Ca2+  Ca1  1  0.18197210  0.08519764  0.50078905  1
  Ca2+  Ca2  1  0.17058511  0.07679389  0.84017495  1
  Ca2+  Ca3  1  0.16765494  0.57953187  0.16808502  1
  Ca2+  Ca4  1  0.16330947  0.58216452  0.49398578  1
  Ca2+  Ca5  1  0.17046687  0.57905603  0.84624148  1
  Ca2+  Ca6  1  0.66544729  0.08463547  0.16649087  1
  Ca2+  Ca7  1  0.66307217  0.08491680  0.50018675  1
  Ca2+  Ca8  1  0.67643381  0.07493179  0.84283873  1
  Ca2+  Ca9  1  0.67048796  0.58449825  0.16906624  1
  Ca2+  Ca10  1  0.66975531  0.56739633  0.50839818  1
  Ca2+  Ca11  1  0.67842820  0.58632146  0.83991156  1
  Ca2+  Ca12  1  0.08079885  0.34128123  0.16315313  1
  Ca2+  Ca13  1  0.07125275  0.33961470  0.49230672  1
  Ca2+  Ca14  1  0.07775839  0.33643352  0.83026321  1
  Ca2+  Ca15  1  0.09372423  0.82293434  0.16088913  1
  Ca2+  Ca16  1  0.08003190  0.82863951  0.49222313  1
  Ca2+  Ca17  1  0.08131252  0.82835445  0.83301290  1
  Ca2+  Ca18  1  0.57371948  0.33424586  0.16619378  1
  Ca2+  Ca19  1  0.58277638  0.32876065  0.48716870  1
  Ca2+  Ca20  1  0.57871508  0.33774219  0.83206885  1
  Ca2+  Ca21  1  0.57143792  0.83210374  0.15668486  1
  Ca2+  Ca22  1  0.57657445  0.83005520  0.49132556  1
  Ca2+  Ca23  1  0.58770182  0.82869594  0.83865712  1
  Ca2+  Ca24  1  0.32667874  0.41494855  0.17084645  1
  Ca2+  Ca25  1  0.32588484  0.40652868  0.49890923  1
  Ca2+  Ca26  1  0.32688534  0.42251699  0.84772214  1
  Ca2+  Ca27  1  0.32846593  0.91077361  0.17499275  1
  Ca2+  Ca28  1  0.33468009  0.92512536  0.49837338  1
  Ca2+  Ca29  1  0.33010154  0.92036918  0.84213784  1
  Ca2+  Ca30  1  0.82900944  0.42215084  0.17340415  1
  Ca2+  Ca31  1  0.82582216  0.41463382  0.50574553  1
  Ca2+  Ca32  1  0.83064073  0.42376800  0.83520331  1
  Ca2+  Ca33  1  0.82738072  0.92100441  0.16461562  1
  Ca2+  Ca34  1  0.83381061  0.91605975  0.50592685  1
  Ca2+  Ca35  1  0.83270037  0.91943099  0.84598951  1
  Ca2+  Ca36  1  0.41326867  0.17441817  0.16704326  1
  Ca2+  Ca37  1  0.42068793  0.16756078  0.48832551  1
  Ca2+  Ca38  1  0.41168938  0.17242146  0.83185421  1
  Ca2+  Ca39  1  0.41758251  0.67496061  0.15481034  1
  Ca2+  Ca40  1  0.41762130  0.67376665  0.49152674  1
  Ca2+  Ca41  1  0.41694251  0.66936176  0.83961263  1
  Ca2+  Ca42  1  0.91429580  0.17326930  0.16294055  1
  Ca2+  Ca43  1  0.91552927  0.18063142  0.49296164  1
  Ca2+  Ca44  1  0.91674760  0.17034347  0.82766703  1
  Ca2+  Ca45  1  0.92902448  0.66121820  0.16035458  1
  Ca2+  Ca46  1  0.91882873  0.66733143  0.49772092  1
  Ca2+  Ca47  1  0.91932859  0.66357079  0.82949265  1
  Al0+  Al48  1  0.00207484  0.00222777  0.00879692  1
  Al0+  Al49  1  -0.00187705  0.00018210  0.33785638  1
  Al0+  Al50  1  0.00225245  -0.00154902  0.66076879  1
  Al0+  Al51  1  -0.00164392  0.50034925  0.00072715  1
  Al0+  Al52  1  0.00072109  0.50191006  0.33004210  1
  Al0+  Al53  1  -0.00007914  0.49931969  0.66450238  1
  Al0+  Al54  1  0.50077988  0.00249740  -0.00243699  1
  Al0+  Al55  1  0.50130985  -0.00068930  0.32906067  1
  Al0+  Al56  1  0.49955793  0.00150178  0.67218372  1
  Al0+  Al57  1  0.50048020  0.50112225  -0.00642688  1
  Al0+  Al58  1  0.50139836  0.49985850  0.33501493  1
  Al0+  Al59  1  0.49746275  0.49932043  0.66856058  1
  Al0+  Al60  1  0.24731728  0.24917934  -0.00202323  1
  Al0+  Al61  1  0.24828760  0.24923094  0.33896316  1
  Al0+  Al62  1  0.25055800  0.24865929  0.67161678  1
  Al0+  Al63  1  0.25006644  0.74877591  -0.00451627  1
  Al0+  Al64  1  0.24837270  0.74886317  0.33282834  1
  Al0+  Al65  1  0.25016805  0.75037722  0.66476456  1
  Al0+  Al66  1  0.74983819  0.25141129  0.00118166  1
  Al0+  Al67  1  0.75031356  0.25084745  0.32785678  1
  Al0+  Al68  1  0.74830188  0.24823729  0.66783471  1
  Al0+  Al69  1  0.74992172  0.75181708  0.00766688  1
  Al0+  Al70  1  0.75227037  0.75196158  0.33498955  1
  Al0+  Al71  1  0.74962088  0.74792977  0.66347555  1
  Al0+  Al72  1  0.57412613  0.67912730  0.98495702  1
  Al0+  Al73  1  0.17866343  0.42931362  0.34795085  1
  Al0+  Al74  1  0.42788224  0.82299685  0.98322144  1
  Al0+  Al75  1  0.42770812  0.31954092  0.98559394  1
  Al0+  Al76  1  0.67690528  0.42544308  0.68314185  1
  Al0+  Al77  1  0.32127686  0.07016443  0.68319130  1
  Al0+  Al78  1  0.32213434  0.06939485  0.34702035  1
  Al0+  Al79  1  0.67937286  0.42970168  0.34545461  1
  Al0+  Al80  1  0.92796454  0.82077810  0.65464482  1
  Al0+  Al81  1  0.18153420  0.92881248  0.01224881  1
  Al0+  Al82  1  0.06961744  0.67803861  0.98502004  1
  Al0+  Al83  1  0.32247958  0.57077103  0.01443064  1
  Al0+  Al84  1  0.67777470  0.92971474  0.01631537  1
  Al0+  Al85  1  0.82248951  0.07371225  0.01547085  1
  Al0+  Al86  1  0.93039504  0.32078771  0.31791385  1
  Al0+  Al87  1  0.43078013  0.81857292  0.32156491  1
  Al0+  Al88  1  0.42610942  0.32238964  0.31962203  1
  Al0+  Al89  1  0.57165300  0.17843545  0.31703086  1
  Al0+  Al90  1  0.82046831  0.57155933  0.01467403  1
  Al0+  Al91  1  0.92936296  0.31920389  0.65346475  1
  Al0+  Al92  1  0.06827217  0.68155092  0.31868614  1
  Al0+  Al93  1  0.17843666  0.42788670  0.01449393  1
  Al0+  Al94  1  0.82055933  0.57037086  0.68132310  1
  Al0+  Al95  1  0.17763197  0.92515664  0.35067616  1
  Si0+  Si96  1  0.43035054  0.82208615  0.65174073  1
  Si0+  Si97  1  0.32083087  0.57375466  0.68138955  1
  Si0+  Si98  1  0.56908678  0.17892072  0.65325745  1
  Si0+  Si99  1  0.32264453  0.57147908  0.34996745  1
  Si0+  Si100  1  0.17781724  0.92704163  0.68381735  1
  Si0+  Si101  1  0.32231492  0.07332537  0.01619808  1
  Si0+  Si102  1  0.82251832  0.06925968  0.67812853  1
  Si0+  Si103  1  0.82273049  0.57240398  0.35051580  1
  Si0+  Si104  1  0.07153947  0.17660835  0.31706435  1
  Si0+  Si105  1  0.17970814  0.42996072  0.68081311  1
  Si0+  Si106  1  0.82025946  0.07240495  0.35016091  1
  Si0+  Si107  1  0.93045243  0.82369694  0.98769442  1
  Si0+  Si108  1  0.07398301  0.17718603  0.64894988  1
  Si0+  Si109  1  0.92553769  0.82567332  0.31428828  1
  Si0+  Si110  1  0.57070613  0.67806435  0.65059450  1
  Si0+  Si111  1  0.67990779  0.92950522  0.34950296  1
  Si0+  Si112  1  0.57462928  0.67722533  0.31922042  1
  Si0+  Si113  1  0.67923445  0.92835437  0.67945859  1
  Si0+  Si114  1  0.42744935  0.32119114  0.65212672  1
  Si0+  Si115  1  0.57401513  0.17970185  0.97989408  1
  Si0+  Si116  1  0.92788420  0.32139207  0.98385666  1
  Si0+  Si117  1  0.06909722  0.17795992  0.98543732  1
  Si0+  Si118  1  0.07320412  0.67772889  0.64893205  1
  Si0+  Si119  1  0.67701502  0.42825159  0.01690567  1
  O2-  O120  1  0.26205732  -0.00279382  0.05891669  1
  O2-  O121  1  0.24934308  -0.00146304  0.39921292  1
  O2-  O122  1  0.24584069  -0.00412937  0.72840277  1
  O2-  O123  1  0.25295998  0.49682786  0.06439757  1
  O2-  O124  1  0.25801775  0.49913123  0.39589193  1
  O2-  O125  1  0.24982550  0.50185589  0.72190220  1
  O2-  O126  1  0.74812963  0.00417059  0.06521165  1
  O2-  O127  1  0.75099824  -0.00023126  0.39327378  1
  O2-  O128  1  0.75716634  -0.00699815  0.72002129  1
  O2-  O129  1  0.74343778  0.49909947  0.06061997  1
  O2-  O130  1  0.75201740  0.50567190  0.39391177  1
  O2-  O131  1  0.74822201  0.49880841  0.73184162  1
  O2-  O132  1  0.00620633  0.24735193  0.27085161  1
  O2-  O133  1  0.00418755  0.24491582  0.60527851  1
  O2-  O134  1  -0.00170296  0.24914643  0.94227982  1
  O2-  O135  1  -0.00366292  0.75913635  0.27193222  1
  O2-  O136  1  0.00284215  0.74630847  0.60735039  1
  O2-  O137  1  -0.00532187  0.75326868  0.93957097  1
  O2-  O138  1  0.49765898  0.24981882  0.26992842  1
  O2-  O139  1  0.50152587  0.25312389  0.61091691  1
  O2-  O140  1  0.50301858  0.24611071  0.93565441  1
  O2-  O141  1  0.50439205  0.74335072  0.27534618  1
  O2-  O142  1  0.49939423  0.74934822  0.60869140  1
  O2-  O143  1  0.50196532  0.75166639  0.93408114  1
  O2-  O144  1  0.06844078  0.17747456  0.09002057  1
  O2-  O145  1  0.06758342  0.17758085  0.42307317  1
  O2-  O146  1  0.07283250  0.17677171  0.75484123  1
  O2-  O147  1  0.06877507  0.67770390  0.09768868  1
  O2-  O148  1  0.06504237  0.68094507  0.43253905  1
  O2-  O149  1  0.07546444  0.67786650  0.75420965  1
  O2-  O150  1  0.57576682  0.18166797  0.08491725  1
  O2-  O151  1  0.57221158  0.17879169  0.43179575  1
  O2-  O152  1  0.56846040  0.17675572  0.75791573  1
  O2-  O153  1  0.57358506  0.68070913  0.09863485  1
  O2-  O154  1  0.57418546  0.68013789  0.42565595  1
  O2-  O155  1  0.57245534  0.68004481  0.75502650  1
  O2-  O156  1  0.17696675  0.43150152  0.23581893  1
  O2-  O157  1  0.18024976  0.42901463  0.57576123  1
  O2-  O158  1  0.17819552  0.42852318  0.89979116  1
  O2-  O159  1  0.18025766  0.92560190  0.23719605  1
  O2-  O160  1  0.17925184  0.92608668  0.57866164  1
  O2-  O161  1  0.17824265  0.93340778  0.89855826  1
  O2-  O162  1  0.68036463  0.43161661  0.23268119  1
  O2-  O163  1  0.67745537  0.42520754  0.56933137  1
  O2-  O164  1  0.68093037  0.42573367  0.91113823  1
  O2-  O165  1  0.68122430  0.92809763  0.24525889  1
  O2-  O166  1  0.67645301  0.93139484  0.57408179  1
  O2-  O167  1  0.68289836  0.93035058  0.90150108  1
  O2-  O168  1  0.42633854  0.31722356  0.09813381  1
  O2-  O169  1  0.42841128  0.32020349  0.43413722  1
  O2-  O170  1  0.42574370  0.31943807  0.75706360  1
  O2-  O171  1  0.42783570  0.82079488  0.09671402  1
  O2-  O172  1  0.43433581  0.81836392  0.43592526  1
  O2-  O173  1  0.43014991  0.82203825  0.75614521  1
  O2-  O174  1  0.92792862  0.32110935  0.08875904  1
  O2-  O175  1  0.92936811  0.31901446  0.43155064  1
  O2-  O176  1  0.93147996  0.31718200  0.76673056  1
  O2-  O177  1  0.93365411  0.82409771  0.09296196  1
  O2-  O178  1  0.92253105  0.82344516  0.42035624  1
  O2-  O179  1  0.92911874  0.82397146  0.76746429  1
  O2-  O180  1  0.32067275  0.06865719  0.23383949  1
  O2-  O181  1  0.32385025  0.06945083  0.57056617  1
  O2-  O182  1  0.31691625  0.07452570  0.91000541  1
  O2-  O183  1  0.32154330  0.57298370  0.24519083  1
  O2-  O184  1  0.32196295  0.57602419  0.57631889  1
  O2-  O185  1  0.31851257  0.56888201  0.89972647  1
  O2-  O186  1  0.82081665  0.07164117  0.24557218  1
  O2-  O187  1  0.81884581  0.07058386  0.57307371  1
  O2-  O188  1  0.82334802  0.07187903  0.90072770  1
  O2-  O189  1  0.82169283  0.57210865  0.24498956  1
  O2-  O190  1  0.81845314  0.57031559  0.56766745  1
  O2-  O191  1  0.82218718  0.56874671  0.90141811  1
  O2-  O192  1  0.04243854  0.08330404  0.27220400  1
  O2-  O193  1  0.05220416  0.08337878  0.60212015  1
  O2-  O194  1  0.03980700  0.08686929  0.93638001  1
  O2-  O195  1  0.03608038  0.58668371  0.26341954  1
  O2-  O196  1  0.04802271  0.58416100  0.60253311  1
  O2-  O197  1  0.03664505  0.58202686  0.92998805  1
  O2-  O198  1  0.54628661  0.08001815  0.26405250  1
  O2-  O199  1  0.53891273  0.08749056  0.60516999  1
  O2-  O200  1  0.55228629  0.08509919  0.93407595  1
  O2-  O201  1  0.55348849  0.58284069  0.27484874  1
  O2-  O202  1  0.54039375  0.58605764  0.60405248  1
  O2-  O203  1  0.54888251  0.58147027  0.92851379  1
  O2-  O204  1  0.16659420  0.19810209  0.27439208  1
  O2-  O205  1  0.16760712  0.20610462  0.60469159  1
  O2-  O206  1  0.15965317  0.20491167  0.93464390  1
  O2-  O207  1  0.16591595  0.70844662  0.26598958  1
  O2-  O208  1  0.16625672  0.70478076  0.60118086  1
  O2-  O209  1  0.16488806  0.70847839  0.92876784  1
  O2-  O210  1  0.66867488  0.20745739  0.26310126  1
  O2-  O211  1  0.66190134  0.20237456  0.60535933  1
  O2-  O212  1  0.66738427  0.20767625  0.93295794  1
  O2-  O213  1  0.66841365  0.70483158  0.27501415  1
  O2-  O214  1  0.66133921  0.70500756  0.60052652  1
  O2-  O215  1  0.67269174  0.71250133  0.93254693  1
  O2-  O216  1  0.08057232  0.45791012  0.06553978  1
  O2-  O217  1  0.08333911  0.46660240  0.40228082  1
  O2-  O218  1  0.08743944  0.45635277  0.72738395  1
  O2-  O219  1  0.08883453  0.96379899  0.06979361  1
  O2-  O220  1  0.07725708  0.95179362  0.40159631  1
  O2-  O221  1  0.08341623  0.95291367  0.72841368  1
  O2-  O222  1  0.58195626  0.45102509  0.05911737  1
  O2-  O223  1  0.58280152  0.45749468  0.40275294  1
  O2-  O224  1  0.57669448  0.45278388  0.73282816  1
  O2-  O225  1  0.57843234  0.95818545  0.06673068  1
  O2-  O226  1  0.58870486  0.95764447  0.39783433  1
  O2-  O227  1  0.59131243  0.96234913  0.72973897  1
  O2-  O228  1  0.20249836  0.32774582  0.06509076  1
  O2-  O229  1  0.20311227  0.33214566  0.40484745  1
  O2-  O230  1  0.20683334  0.33825903  0.72875853  1
  O2-  O231  1  0.20817493  0.83073034  0.06288325  1
  O2-  O232  1  0.20720885  0.82753182  0.40465623  1
  O2-  O233  1  0.20436844  0.83307167  0.72895877  1
  O2-  O234  1  0.70514280  0.33594213  0.06326714  1
  O2-  O235  1  0.71273025  0.33277838  0.39808811  1
  O2-  O236  1  0.70528461  0.32703415  0.73629057  1
  O2-  O237  1  0.70645276  0.83410881  0.07298118  1
  O2-  O238  1  0.70763798  0.83777769  0.39919406  1
  O2-  O239  1  0.70100375  0.83431733  0.72364189  1
  O2-  O240  1  0.45517347  0.42129636  0.26845196  1
  O2-  O241  1  0.44847352  0.41514073  0.60596374  1
  O2-  O242  1  0.45687815  0.41584126  0.92970632  1
  O2-  O243  1  0.46205506  0.91332528  0.26678573  1
  O2-  O244  1  0.46219287  0.91362549  0.60590727  1
  O2-  O245  1  0.45440205  0.92301974  0.93114649  1
  O2-  O246  1  0.95989634  0.41747044  0.26521897  1
  O2-  O247  1  0.96027556  0.41548195  0.59866719  1
  O2-  O248  1  0.95807599  0.41162519  0.93535260  1
  O2-  O249  1  0.94623407  0.92160641  0.27209438  1
  O2-  O250  1  0.95701663  0.91694000  0.59684581  1
  O2-  O251  1  0.95889832  0.91743350  0.94220204  1
  O2-  O252  1  0.32623482  0.29457535  0.27000102  1
  O2-  O253  1  0.33596733  0.28961622  0.60581048  1
  O2-  O254  1  0.33117744  0.28695894  0.92999760  1
  O2-  O255  1  0.33374768  0.78916436  0.27020390  1
  O2-  O256  1  0.33785082  0.79528801  0.60455389  1
  O2-  O257  1  0.33171221  0.79156413  0.92686242  1
  O2-  O258  1  0.83597101  0.28803534  0.26253706  1
  O2-  O259  1  0.83236295  0.28586295  0.60087054  1
  O2-  O260  1  0.83604198  0.29389119  0.93615867  1
  O2-  O261  1  0.83201459  0.79896208  0.26845420  1
  O2-  O262  1  0.83139369  0.79191531  0.59763621  1
  O2-  O263  1  0.83464076  0.80235682  0.94548438  1
  O2-  O264  1  0.41996709  0.05964863  0.05570748  1
  O2-  O265  1  0.42100161  0.03898501  0.39987641  1
  O2-  O266  1  0.41696328  0.03954181  0.73903517  1
  O2-  O267  1  0.42361242  0.54807186  0.06260704  1
  O2-  O268  1  0.41796671  0.55244865  0.39614626  1
  O2-  O269  1  0.41208513  0.54656815  0.72924811  1
  O2-  O270  1  0.91859369  0.04533363  0.07164574  1
  O2-  O271  1  0.91173301  0.04728960  0.39992082  1
  O2-  O272  1  0.91740488  0.04788344  0.72239629  1
  O2-  O273  1  0.91473539  0.53627612  0.06917817  1
  O2-  O274  1  0.91509012  0.54422997  0.39634184  1
  O2-  O275  1  0.92044550  0.54246289  0.73187473  1
  O2-  O276  1  0.28773072  0.16318549  0.06267295  1
  O2-  O277  1  0.29324831  0.16673797  0.40361965  1
  O2-  O278  1  0.28944601  0.16638196  0.73831230  1
  O2-  O279  1  0.29225974  0.66879235  0.06464870  1
  O2-  O280  1  0.29059244  0.66220638  0.39921544  1
  O2-  O281  1  0.29292707  0.66557488  0.72885182  1
  O2-  O282  1  0.79422349  0.17235456  0.06759740  1
  O2-  O283  1  0.78970229  0.16353891  0.39719322  1
  O2-  O284  1  0.79017148  0.15801082  0.72829264  1
  O2-  O285  1  0.79482477  0.66800632  0.07038142  1
  O2-  O286  1  0.80047015  0.66787446  0.39547304  1
  O2-  O287  1  0.79176442  0.66967198  0.73308716  1
