# generated using pymatgen
data_Ca2Al2SiO7
_symmetry_space_group_name_H-M   'P 1'
_cell_length_a   15.45458080
_cell_length_b   15.45478381
_cell_length_c   15.28176010
_cell_angle_alpha   89.99517402
_cell_angle_beta   90.00310232
_cell_angle_gamma   90.00049251
_symmetry_Int_Tables_number   1
_chemical_formula_structural   Ca2Al2SiO7
_chemical_formula_sum   'Ca48 Al48 Si24 O168'
_cell_volume   3650.00567079
_cell_formula_units_Z   24
loop_
 _symmetry_equiv_pos_site_id
 _symmetry_equiv_pos_as_xyz
  1  'x, y, z'
loop_
 _atom_type_symbol
 _atom_type_oxidation_number
  Ca2+  2.0
  Al0+  0.0
  Si0+  0.0
  O2-  -2.0
loop_
 _atom_site_type_symbol
 _atom_site_label
 _atom_site_symmetry_multiplicity
 _atom_site_fract_x
 _atom_site_fract_y
 _atom_site_fract_z
 _atom_site_occupancy
  Ca2+  Ca0  1  0.16874038  0.08041852  0.16685606  1
  Ca2+  Ca1  1  0.16615001  0.08382292  0.50290316  1
  Ca2+  Ca2  1  0.17532295  0.07329980  0.84627075  1
  Ca2+  Ca3  1  0.16834077  0.57420862  0.17163811  1
  Ca2+  Ca4  1  0.16765100  0.57540718  0.50584133  1
  Ca2+  Ca5  1  0.15822456  0.57598954  0.83819978  1
  Ca2+  Ca6  1  0.66884689  0.08013675  0.16831138  1
  Ca2+  Ca7  1  0.66905437  0.07944457  0.50809729  1
  Ca2+  Ca8  1  0.67354987  0.09022394  0.83780947  1
  Ca2+  Ca9  1  0.67270902  0.58978773  0.17174928  1
  Ca2+  Ca10  1  0.66851925  0.58102759  0.50950431  1
  Ca2+  Ca11  1  0.67340920  0.58806800  0.83537949  1
  Ca2+  Ca12  1  0.08526843  0.33438306  0.16624774  1
  Ca2+  Ca13  1  0.07938207  0.33336428  0.49093234  1
  Ca2+  Ca14  1  0.08466763  0.33759042  0.83019989  1
  Ca2+  Ca15  1  0.07993233  0.82644308  0.15314071  1
  Ca2+  Ca16  1  0.08171736  0.82486150  0.49879015  1
  Ca2+  Ca17  1  0.08299505  0.82387758  0.83253700  1
  Ca2+  Ca18  1  0.57296641  0.32763777  0.15418641  1
  Ca2+  Ca19  1  0.59258935  0.32837135  0.49943356  1
  Ca2+  Ca20  1  0.58287188  0.32607265  0.83019116  1
  Ca2+  Ca21  1  0.58263272  0.83320530  0.16958250  1
  Ca2+  Ca22  1  0.57775419  0.82511595  0.49295713  1
  Ca2+  Ca23  1  0.57565808  0.82902554  0.82385756  1
  Ca2+  Ca24  1  0.32482217  0.41774283  0.17255899  1
  Ca2+  Ca25  1  0.32302749  0.42104835  0.50272235  1
  Ca2+  Ca26  1  0.32278402  0.41285786  0.84034812  1
  Ca2+  Ca27  1  0.33319763  0.91901874  0.16805543  1
  Ca2+  Ca28  1  0.33894508  0.91169801  0.50098666  1
  Ca2+  Ca29  1  0.33116981  0.91817736  0.84028853  1
  Ca2+  Ca30  1  0.83622716  0.42194834  0.16806273  1
  Ca2+  Ca31  1  0.82950754  0.41958618  0.50966238  1
  Ca2+  Ca32  1  0.82721984  0.42900089  0.83321381  1
  Ca2+  Ca33  1  0.83167621  0.91999317  0.16879573  1
  Ca2+  Ca34  1  0.82599928  0.92295381  0.50443727  1
  Ca2+  Ca35  1  0.83677754  0.92700834  0.84131373  1
  Ca2+  Ca36  1  0.41993613  0.17079313  0.15429252  1
  Ca2+  Ca37  1  0.42375936  0.16806411  0.49907231  1
  Ca2+  Ca38  1  0.42472136  0.16634280  0.83351869  1
  Ca2+  Ca39  1  0.41809038  0.66480264  0.16826397  1
  Ca2+  Ca40  1  0.42432064  0.67193867  0.49241404  1
  Ca2+  Ca41  1  0.42129456  0.67403983  0.82243554  1
  Ca2+  Ca42  1  0.91994228  0.17112877  0.16412975  1
  Ca2+  Ca43  1  0.92100813  0.17352551  0.49204573  1
  Ca2+  Ca44  1  0.91313241  0.16466020  0.82847716  1
  Ca2+  Ca45  1  0.92134162  0.67281270  0.15363465  1
  Ca2+  Ca46  1  0.92152595  0.65661786  0.50084992  1
  Ca2+  Ca47  1  0.92176392  0.66318315  0.83370655  1
  Al0+  Al48  1  -0.00126211  0.00029706  0.00511970  1
  Al0+  Al49  1  0.00164403  0.00124093  0.33132002  1
  Al0+  Al50  1  0.00084249  -0.00087272  0.66918708  1
  Al0+  Al51  1  -0.00107037  0.49929198  0.00551917  1
  Al0+  Al52  1  -0.00065313  0.49916996  0.33217288  1
  Al0+  Al53  1  -0.00103906  0.49959833  0.66966642  1
  Al0+  Al54  1  0.50157157  -0.00012626  -0.00079268  1
  Al0+  Al55  1  0.50030052  -0.00196359  0.33442313  1
  Al0+  Al56  1  0.49964678  0.00252929  0.65891469  1
  Al0+  Al57  1  0.49852932  0.49870578  -0.00633585  1
  Al0+  Al58  1  0.50159046  0.50038238  0.33355053  1
  Al0+  Al59  1  0.49710345  0.49880536  0.66712816  1
  Al0+  Al60  1  0.24946773  0.24994970  0.00365934  1
  Al0+  Al61  1  0.25014622  0.24774834  0.33484499  1
  Al0+  Al62  1  0.25057168  0.24873595  0.67025762  1
  Al0+  Al63  1  0.25018195  0.74727061  -0.00079456  1
  Al0+  Al64  1  0.25134413  0.75132865  0.33310117  1
  Al0+  Al65  1  0.24721935  0.74965319  0.65773282  1
  Al0+  Al66  1  0.75076103  0.25035169  0.00194150  1
  Al0+  Al67  1  0.75276605  0.25115771  0.32719773  1
  Al0+  Al68  1  0.74982040  0.25090902  0.66958323  1
  Al0+  Al69  1  0.75114895  0.75163864  -0.00045770  1
  Al0+  Al70  1  0.74964747  0.75131568  0.33644834  1
  Al0+  Al71  1  0.75028156  0.75250834  0.66767670  1
  Al0+  Al72  1  0.57169078  0.18305768  0.65132443  1
  Al0+  Al73  1  0.17901527  0.42972764  0.01522088  1
  Al0+  Al74  1  0.92806339  0.82324805  0.98456749  1
  Al0+  Al75  1  0.17968966  0.92619035  0.01478562  1
  Al0+  Al76  1  0.07123947  0.67706279  0.98579034  1
  Al0+  Al77  1  0.92885531  0.32258251  0.31666524  1
  Al0+  Al78  1  0.82105654  0.07312340  0.01620643  1
  Al0+  Al79  1  0.57313667  0.67710210  0.65217497  1
  Al0+  Al80  1  0.67544100  0.42825652  0.68211916  1
  Al0+  Al81  1  0.42576443  0.32149378  0.98396985  1
  Al0+  Al82  1  0.82084773  0.06995761  0.67870380  1
  Al0+  Al83  1  0.67949871  0.93027354  0.34858299  1
  Al0+  Al84  1  0.57216300  0.17821761  0.98503589  1
  Al0+  Al85  1  0.82028899  0.57332903  0.68196427  1
  Al0+  Al86  1  0.57247363  0.67783371  0.31700864  1
  Al0+  Al87  1  0.17989360  0.42911061  0.68119270  1
  Al0+  Al88  1  0.07302102  0.17799712  0.31683872  1
  Al0+  Al89  1  0.81816832  0.57120024  0.01519342  1
  Al0+  Al90  1  0.32244951  0.57237747  0.34944136  1
  Al0+  Al91  1  0.42827474  0.82142594  0.65065836  1
  Al0+  Al92  1  0.42863634  0.82134648  0.31422299  1
  Al0+  Al93  1  0.17866994  0.42862785  0.35001302  1
  Al0+  Al94  1  0.06677301  0.67788926  0.65141980  1
  Al0+  Al95  1  0.32252748  0.06930643  0.01479902  1
  Si0+  Si96  1  0.42936811  0.82029555  0.98589094  1
  Si0+  Si97  1  0.07025149  0.17911653  0.98447452  1
  Si0+  Si98  1  0.67682824  0.42921898  0.01693096  1
  Si0+  Si99  1  0.67610006  0.93023930  0.68297430  1
  Si0+  Si100  1  0.82255099  0.07311033  0.34989936  1
  Si0+  Si101  1  0.17741906  0.92908321  0.34970959  1
  Si0+  Si102  1  0.67945218  0.42754823  0.34565510  1
  Si0+  Si103  1  0.93100486  0.31915802  0.65483463  1
  Si0+  Si104  1  0.57181733  0.17843554  0.31881350  1
  Si0+  Si105  1  0.42996861  0.32011754  0.32077574  1
  Si0+  Si106  1  0.92924674  0.32120940  0.98293005  1
  Si0+  Si107  1  0.07069056  0.67935767  0.31876376  1
  Si0+  Si108  1  0.82031488  0.57156528  0.34763753  1
  Si0+  Si109  1  0.17906256  0.92790235  0.68025405  1
  Si0+  Si110  1  0.92870732  0.82619463  0.64904727  1
  Si0+  Si111  1  0.57218643  0.67858736  0.98515069  1
  Si0+  Si112  1  0.07257660  0.17701507  0.65501897  1
  Si0+  Si113  1  0.32161223  0.07043624  0.68088327  1
  Si0+  Si114  1  0.32542454  0.57238054  0.01509819  1
  Si0+  Si115  1  0.92921845  0.82121810  0.32036346  1
  Si0+  Si116  1  0.67775097  0.92738767  0.01612912  1
  Si0+  Si117  1  0.31965029  0.57388949  0.68271790  1
  Si0+  Si118  1  0.32164088  0.06998991  0.35014731  1
  Si0+  Si119  1  0.42394069  0.32107025  0.64865995  1
  O2-  O120  1  0.25159071  -0.00267651  0.06669384  1
  O2-  O121  1  0.24962380  -0.00069246  0.39224977  1
  O2-  O122  1  0.25263717  -0.00328489  0.72126524  1
  O2-  O123  1  0.25606940  0.50365884  0.05840541  1
  O2-  O124  1  0.24886851  0.50204382  0.40021607  1
  O2-  O125  1  0.25396060  0.50352783  0.72901085  1
  O2-  O126  1  0.74620950  -0.00283577  0.05985640  1
  O2-  O127  1  0.75264709  0.00684092  0.39522169  1
  O2-  O128  1  0.74691103  -0.00397475  0.72795533  1
  O2-  O129  1  0.74116952  0.50018440  0.06420160  1
  O2-  O130  1  0.74984249  0.49921067  0.38794981  1
  O2-  O131  1  0.74122616  0.50738085  0.73032718  1
  O2-  O132  1  0.00233371  0.25150572  0.26726831  1
  O2-  O133  1  0.00223377  0.24819236  0.61267811  1
  O2-  O134  1  -0.00047627  0.24941376  0.94016243  1
  O2-  O135  1  0.00022947  0.75095759  0.27732121  1
  O2-  O136  1  -0.00962586  0.75126033  0.60380570  1
  O2-  O137  1  0.00084352  0.75125571  0.93595311  1
  O2-  O138  1  0.50175592  0.25027574  0.27762499  1
  O2-  O139  1  0.49899199  0.25948512  0.60316194  1
  O2-  O140  1  0.49936674  0.24993415  0.93571013  1
  O2-  O141  1  0.49910660  0.74749301  0.26495537  1
  O2-  O142  1  0.50062685  0.74881378  0.60240579  1
  O2-  O143  1  0.49939987  0.74831489  0.94405474  1
  O2-  O144  1  0.06958959  0.18035177  0.08933911  1
  O2-  O145  1  0.07013353  0.17606479  0.43145201  1
  O2-  O146  1  0.07278634  0.17573010  0.75993665  1
  O2-  O147  1  0.06893540  0.67788726  0.10000258  1
  O2-  O148  1  0.06813248  0.67912870  0.42410533  1
  O2-  O149  1  0.06811913  0.67902839  0.76387170  1
  O2-  O150  1  0.57093473  0.18015349  0.09948482  1
  O2-  O151  1  0.57261015  0.18008929  0.42403900  1
  O2-  O152  1  0.57024527  0.18102267  0.76368711  1
  O2-  O153  1  0.57284001  0.67853688  0.09008642  1
  O2-  O154  1  0.57455116  0.67836873  0.43004467  1
  O2-  O155  1  0.57066091  0.68184171  0.76654374  1
  O2-  O156  1  0.18043390  0.42987810  0.23662077  1
  O2-  O157  1  0.17955535  0.42745553  0.56837017  1
  O2-  O158  1  0.17832770  0.43049660  0.90180651  1
  O2-  O159  1  0.17586460  0.92949719  0.24518688  1
  O2-  O160  1  0.17578521  0.93110043  0.57488141  1
  O2-  O161  1  0.18269001  0.92749686  0.90047004  1
  O2-  O162  1  0.67917533  0.42667071  0.24071469  1
  O2-  O163  1  0.68325777  0.42408457  0.56785237  1
  O2-  O164  1  0.67923782  0.42985154  0.91174261  1
  O2-  O165  1  0.68178156  0.93203605  0.23538545  1
  O2-  O166  1  0.67764998  0.93325743  0.57720634  1
  O2-  O167  1  0.67640643  0.92651715  0.91064565  1
  O2-  O168  1  0.42826290  0.32138706  0.09855271  1
  O2-  O169  1  0.43062046  0.31743742  0.42590371  1
  O2-  O170  1  0.41904387  0.31456584  0.75342208  1
  O2-  O171  1  0.43022498  0.82099943  0.09054102  1
  O2-  O172  1  0.43159971  0.82206991  0.42741964  1
  O2-  O173  1  0.42811625  0.82187651  0.76511045  1
  O2-  O174  1  0.92977094  0.32080918  0.08787797  1
  O2-  O175  1  0.92618964  0.32061967  0.43093015  1
  O2-  O176  1  0.93222533  0.31835567  0.76001694  1
  O2-  O177  1  0.92747219  0.82045356  0.09909833  1
  O2-  O178  1  0.93102584  0.82150905  0.42558794  1
  O2-  O179  1  0.93462962  0.83269475  0.75365840  1
  O2-  O180  1  0.32289619  0.07025206  0.24551444  1
  O2-  O181  1  0.31903343  0.07351022  0.57551572  1
  O2-  O182  1  0.32168163  0.06609633  0.90062183  1
  O2-  O183  1  0.32079486  0.56909827  0.23553637  1
  O2-  O184  1  0.31659350  0.57257456  0.57731078  1
  O2-  O185  1  0.32702649  0.57389739  0.90958163  1
  O2-  O186  1  0.82164268  0.07184939  0.24449940  1
  O2-  O187  1  0.82147400  0.06915974  0.56534417  1
  O2-  O188  1  0.82046673  0.07286407  0.90282592  1
  O2-  O189  1  0.81976780  0.57282902  0.24256484  1
  O2-  O190  1  0.82402830  0.56641847  0.56783581  1
  O2-  O191  1  0.81719421  0.57006052  0.90255407  1
  O2-  O192  1  0.04350050  0.07998825  0.26308122  1
  O2-  O193  1  0.04476401  0.08573025  0.60596539  1
  O2-  O194  1  0.04282357  0.08665084  0.93858195  1
  O2-  O195  1  0.04256187  0.58777045  0.27204734  1
  O2-  O196  1  0.03525891  0.58104837  0.59713594  1
  O2-  O197  1  0.03713633  0.57943642  0.93444529  1
  O2-  O198  1  0.54206298  0.08717248  0.27299370  1
  O2-  O199  1  0.53827019  0.08840531  0.59451996  1
  O2-  O200  1  0.54551309  0.07937892  0.93169481  1
  O2-  O201  1  0.54739633  0.57801049  0.26413770  1
  O2-  O202  1  0.54713224  0.57661480  0.60176055  1
  O2-  O203  1  0.54722622  0.58663481  0.93710008  1
  O2-  O204  1  0.17281562  0.20327988  0.26544683  1
  O2-  O205  1  0.16451307  0.20387721  0.60707228  1
  O2-  O206  1  0.16246830  0.20618323  0.93786889  1
  O2-  O207  1  0.16261162  0.70703292  0.27305015  1
  O2-  O208  1  0.16097909  0.71096227  0.59403406  1
  O2-  O209  1  0.17075973  0.70181149  0.93245379  1
  O2-  O210  1  0.66399232  0.20396564  0.27141843  1
  O2-  O211  1  0.66901424  0.21281494  0.59682479  1
  O2-  O212  1  0.67064182  0.20932977  0.93348951  1
  O2-  O213  1  0.67073892  0.71154939  0.26517922  1
  O2-  O214  1  0.67296255  0.70429544  0.60066134  1
  O2-  O215  1  0.66278827  0.70909837  0.93764152  1
  O2-  O216  1  0.08366191  0.46071289  0.07102187  1
  O2-  O217  1  0.07857296  0.45658258  0.40064284  1
  O2-  O218  1  0.08345348  0.45950915  0.73477803  1
  O2-  O219  1  0.08212568  0.95585799  0.06793992  1
  O2-  O220  1  0.08625120  0.95843078  0.39890904  1
  O2-  O221  1  0.08952905  0.95820058  0.73000299  1
  O2-  O222  1  0.58064966  0.45093698  0.05942987  1
  O2-  O223  1  0.58798593  0.45199148  0.39482446  1
  O2-  O224  1  0.57299927  0.44485970  0.73140226  1
  O2-  O225  1  0.58497181  0.95324312  0.06371324  1
  O2-  O226  1  0.58296102  0.96054981  0.40267480  1
  O2-  O227  1  0.58234353  0.95893556  0.72683828  1
  O2-  O228  1  0.20801007  0.33305131  0.06934085  1
  O2-  O229  1  0.20746334  0.32906587  0.40119825  1
  O2-  O230  1  0.20967887  0.33157788  0.73506403  1
  O2-  O231  1  0.20680263  0.82713149  0.06692866  1
  O2-  O232  1  0.20424340  0.83718196  0.39758099  1
  O2-  O233  1  0.20508715  0.83484938  0.72525482  1
  O2-  O234  1  0.70575718  0.33700939  0.06388541  1
  O2-  O235  1  0.70923144  0.33549931  0.39286865  1
  O2-  O236  1  0.71219507  0.33366173  0.73737298  1
  O2-  O237  1  0.70450154  0.83508170  0.06419731  1
  O2-  O238  1  0.71311764  0.83511449  0.40421916  1
  O2-  O239  1  0.69723604  0.83562063  0.72804407  1
  O2-  O240  1  0.45672359  0.41166763  0.27315701  1
  O2-  O241  1  0.44016597  0.41781184  0.60645894  1
  O2-  O242  1  0.45217771  0.41946663  0.92852759  1
  O2-  O243  1  0.46034509  0.91999768  0.26267541  1
  O2-  O244  1  0.45517445  0.91993717  0.59684740  1
  O2-  O245  1  0.45809745  0.91133298  0.93743179  1
  O2-  O246  1  0.95576574  0.42132011  0.26303802  1
  O2-  O247  1  0.95910795  0.41002562  0.60635827  1
  O2-  O248  1  0.95902101  0.41261948  0.93673604  1
  O2-  O249  1  0.95558837  0.91343619  0.27343426  1
  O2-  O250  1  0.96231961  0.91623028  0.59854580  1
  O2-  O251  1  0.95608529  0.92274062  0.93382365  1
  O2-  O252  1  0.33871447  0.29044935  0.27396886  1
  O2-  O253  1  0.33374259  0.28612985  0.59949370  1
  O2-  O254  1  0.32764940  0.29081284  0.93195078  1
  O2-  O255  1  0.32819118  0.79693525  0.26338518  1
  O2-  O256  1  0.32983153  0.79539955  0.59638768  1
  O2-  O257  1  0.33765544  0.79365060  0.93771857  1
  O2-  O258  1  0.83188611  0.29353537  0.25966649  1
  O2-  O259  1  0.83989461  0.29091316  0.60681864  1
  O2-  O260  1  0.83701526  0.29389817  0.93683253  1
  O2-  O261  1  0.83772538  0.79309303  0.27357510  1
  O2-  O262  1  0.83187451  0.80854700  0.60720593  1
  O2-  O263  1  0.82967922  0.79561490  0.93114496  1
  O2-  O264  1  0.42145067  0.04212345  0.06744029  1
  O2-  O265  1  0.41288342  0.04140782  0.39879223  1
  O2-  O266  1  0.41451599  0.04416464  0.72622735  1
  O2-  O267  1  0.41904451  0.54640743  0.06167605  1
  O2-  O268  1  0.42125663  0.54232129  0.40137722  1
  O2-  O269  1  0.41465756  0.55293059  0.72746402  1
  O2-  O270  1  0.91657450  0.04310210  0.07198390  1
  O2-  O271  1  0.91635499  0.04584995  0.39511892  1
  O2-  O272  1  0.91794720  0.04038054  0.73351281  1
  O2-  O273  1  0.91272476  0.53706806  0.07060342  1
  O2-  O274  1  0.91224112  0.54326108  0.39447388  1
  O2-  O275  1  0.91497158  0.53600660  0.73666274  1
  O2-  O276  1  0.29267668  0.16678765  0.06795861  1
  O2-  O277  1  0.29429067  0.16099930  0.39972719  1
  O2-  O278  1  0.29153976  0.15986892  0.73089259  1
  O2-  O279  1  0.30087945  0.66552921  0.06220436  1
  O2-  O280  1  0.29562308  0.67223781  0.40030213  1
  O2-  O281  1  0.29149974  0.66803077  0.72652314  1
  O2-  O282  1  0.79022686  0.16927271  0.07145918  1
  O2-  O283  1  0.79802504  0.16833974  0.39333846  1
  O2-  O284  1  0.79091695  0.16591606  0.73324820  1
  O2-  O285  1  0.78989653  0.66913780  0.06838555  1
  O2-  O286  1  0.79411771  0.66265260  0.39680237  1
  O2-  O287  1  0.80133546  0.67510382  0.73252276  1
