# generated using pymatgen
data_Ca2Al2SiO7
_symmetry_space_group_name_H-M   'P 1'
_cell_length_a   15.45665951
_cell_length_b   15.45777139
_cell_length_c   15.28315865
_cell_angle_alpha   90.00108964
_cell_angle_beta   90.00476388
_cell_angle_gamma   90.00540882
_symmetry_Int_Tables_number   1
_chemical_formula_structural   Ca2Al2SiO7
_chemical_formula_sum   'Ca48 Al48 Si24 O168'
_cell_volume   3651.53643257
_cell_formula_units_Z   24
loop_
 _symmetry_equiv_pos_site_id
 _symmetry_equiv_pos_as_xyz
  1  'x, y, z'
loop_
 _atom_type_symbol
 _atom_type_oxidation_number
  Ca2+  2.0
  Al0+  0.0
  Si0+  0.0
  O2-  -2.0
loop_
 _atom_site_type_symbol
 _atom_site_label
 _atom_site_symmetry_multiplicity
 _atom_site_fract_x
 _atom_site_fract_y
 _atom_site_fract_z
 _atom_site_occupancy
  Ca2+  Ca0  1  0.16886484  0.08526848  0.17798131  1
  Ca2+  Ca1  1  0.16822923  0.08201665  0.49645237  1
  Ca2+  Ca2  1  0.16459205  0.08343931  0.83905015  1
  Ca2+  Ca3  1  0.16898348  0.56974695  0.17730231  1
  Ca2+  Ca4  1  0.17240672  0.58890171  0.50185969  1
  Ca2+  Ca5  1  0.17031824  0.58074955  0.83655498  1
  Ca2+  Ca6  1  0.67367249  0.09250882  0.17079727  1
  Ca2+  Ca7  1  0.67107511  0.08132545  0.50994114  1
  Ca2+  Ca8  1  0.67810850  0.07819451  0.83422075  1
  Ca2+  Ca9  1  0.66989285  0.57307209  0.17143631  1
  Ca2+  Ca10  1  0.65712528  0.57342501  0.50213725  1
  Ca2+  Ca11  1  0.67152016  0.57374423  0.83941573  1
  Ca2+  Ca12  1  0.08716216  0.32726240  0.15754461  1
  Ca2+  Ca13  1  0.08094370  0.32969639  0.49105041  1
  Ca2+  Ca14  1  0.07891623  0.33331605  0.83620477  1
  Ca2+  Ca15  1  0.08988447  0.82809731  0.16886312  1
  Ca2+  Ca16  1  0.08301981  0.82504523  0.49646113  1
  Ca2+  Ca17  1  0.07522336  0.82375803  0.82079176  1
  Ca2+  Ca18  1  0.58007804  0.33617971  0.16442835  1
  Ca2+  Ca19  1  0.58065874  0.33530008  0.49407467  1
  Ca2+  Ca20  1  0.57624761  0.34337849  0.82901945  1
  Ca2+  Ca21  1  0.58328659  0.82459751  0.16573468  1
  Ca2+  Ca22  1  0.57897089  0.83186191  0.49408517  1
  Ca2+  Ca23  1  0.57944073  0.83217782  0.82304541  1
  Ca2+  Ca24  1  0.32337189  0.41313420  0.17215065  1
  Ca2+  Ca25  1  0.33078533  0.42706971  0.50336729  1
  Ca2+  Ca26  1  0.33292676  0.41827108  0.83694271  1
  Ca2+  Ca27  1  0.32517047  0.92735024  0.17849586  1
  Ca2+  Ca28  1  0.33193264  0.91856122  0.50127175  1
  Ca2+  Ca29  1  0.33378847  0.91610798  0.83433063  1
  Ca2+  Ca30  1  0.82783507  0.41353023  0.16620273  1
  Ca2+  Ca31  1  0.81947660  0.41399241  0.50455573  1
  Ca2+  Ca32  1  0.82332406  0.41746863  0.84400751  1
  Ca2+  Ca33  1  0.83532443  0.92461917  0.16789063  1
  Ca2+  Ca34  1  0.82839178  0.92161708  0.51110233  1
  Ca2+  Ca35  1  0.83806254  0.92381941  0.83342902  1
  Ca2+  Ca36  1  0.42055343  0.17029574  0.16293798  1
  Ca2+  Ca37  1  0.42300014  0.17186841  0.49234390  1
  Ca2+  Ca38  1  0.41763942  0.18322051  0.82786514  1
  Ca2+  Ca39  1  0.42105249  0.65566175  0.17094040  1
  Ca2+  Ca40  1  0.41517633  0.66668296  0.49584983  1
  Ca2+  Ca41  1  0.41643481  0.67065517  0.82238671  1
  Ca2+  Ca42  1  0.92801421  0.17273991  0.15829651  1
  Ca2+  Ca43  1  0.91922616  0.16525733  0.49449325  1
  Ca2+  Ca44  1  0.91499607  0.16531643  0.83517140  1
  Ca2+  Ca45  1  0.92068862  0.66203319  0.16311735  1
  Ca2+  Ca46  1  0.92552799  0.67115041  0.49548009  1
  Ca2+  Ca47  1  0.92077248  0.66612755  0.82514285  1
  Al0+  Al48  1  -0.00008735  -0.00242464  0.00121568  1
  Al0+  Al49  1  -0.00013632  0.00135074  0.33334235  1
  Al0+  Al50  1  0.00120720  -0.00070464  0.66660199  1
  Al0+  Al51  1  0.00117890  0.49825113  0.00222203  1
  Al0+  Al52  1  -0.00296069  0.50190187  0.33306567  1
  Al0+  Al53  1  0.00110968  0.49625632  0.66048272  1
  Al0+  Al54  1  0.49991293  -0.00127365  -0.00069701  1
  Al0+  Al55  1  0.50117249  0.00144797  0.33015927  1
  Al0+  Al56  1  0.49978380  0.00110029  0.66815162  1
  Al0+  Al57  1  0.50125559  0.50153701  -0.00144554  1
  Al0+  Al58  1  0.49969423  0.50068201  0.33514663  1
  Al0+  Al59  1  0.49625708  0.50085850  0.67092761  1
  Al0+  Al60  1  0.25273929  0.24902562  -0.00567750  1
  Al0+  Al61  1  0.24985103  0.25009443  0.33918103  1
  Al0+  Al62  1  0.25039649  0.25120838  0.66181727  1
  Al0+  Al63  1  0.25101678  0.75057082  0.00016495  1
  Al0+  Al64  1  0.24783560  0.75175362  0.33388186  1
  Al0+  Al65  1  0.25201386  0.75033287  0.66397953  1
  Al0+  Al66  1  0.75033410  0.24741063  0.00452928  1
  Al0+  Al67  1  0.74908817  0.25115343  0.33419056  1
  Al0+  Al68  1  0.75026343  0.24919907  0.67634628  1
  Al0+  Al69  1  0.75033755  0.74956280  0.00221252  1
  Al0+  Al70  1  0.74927198  0.75130645  0.32748609  1
  Al0+  Al71  1  0.74991169  0.74867273  0.66539529  1
  Al0+  Al72  1  0.43160694  0.32091225  0.98686488  1
  Al0+  Al73  1  0.68103259  0.43012143  0.34778251  1
  Al0+  Al74  1  0.67827104  0.43049799  0.68112412  1
  Al0+  Al75  1  0.07047954  0.18124873  0.32120856  1
  Al0+  Al76  1  0.42898793  0.32331105  0.65024007  1
  Al0+  Al77  1  0.17502534  0.42733570  0.34913652  1
  Al0+  Al78  1  0.17743292  0.93023443  0.34993176  1
  Al0+  Al79  1  0.82128050  0.06885048  0.01691714  1
  Al0+  Al80  1  0.57028009  0.67859404  0.31904576  1
  Al0+  Al81  1  0.67692139  0.42835201  0.01670848  1
  Al0+  Al82  1  0.82383790  0.07004939  0.68271926  1
  Al0+  Al83  1  0.31739666  0.57138580  0.68164278  1
  Al0+  Al84  1  0.57213457  0.17852379  0.32071977  1
  Al0+  Al85  1  0.07199290  0.17711928  0.98434298  1
  Al0+  Al86  1  0.92836826  0.32112304  0.98480769  1
  Al0+  Al87  1  0.43035245  0.82335721  0.65218237  1
  Al0+  Al88  1  0.67713443  0.92640668  0.68012821  1
  Al0+  Al89  1  0.82243534  0.57188423  0.01474668  1
  Al0+  Al90  1  0.07128144  0.67674746  0.65144265  1
  Al0+  Al91  1  0.18200956  0.42854961  0.01116779  1
  Al0+  Al92  1  0.07117008  0.67916513  0.31685902  1
  Al0+  Al93  1  0.32415760  0.07246684  0.34924838  1
  Al0+  Al94  1  0.31990702  0.57003285  0.34794754  1
  Al0+  Al95  1  0.92740886  0.82178338  0.65133197  1
  Si0+  Si96  1  0.57309406  0.17479909  0.98169261  1
  Si0+  Si97  1  0.92604838  0.32263688  0.31786722  1
  Si0+  Si98  1  0.18143948  0.93006196  0.68233803  1
  Si0+  Si99  1  0.32177743  0.57515403  0.01634163  1
  Si0+  Si100  1  0.92868506  0.81993699  0.98525043  1
  Si0+  Si101  1  0.57124058  0.67775765  0.65162914  1
  Si0+  Si102  1  0.92682349  0.31890232  0.65207203  1
  Si0+  Si103  1  0.07159187  0.17818560  0.65076499  1
  Si0+  Si104  1  0.67939523  0.92755092  0.34611117  1
  Si0+  Si105  1  0.17954960  0.92748404  0.01362438  1
  Si0+  Si106  1  0.82097185  0.57601029  0.35125035  1
  Si0+  Si107  1  0.42910146  0.32165242  0.31792186  1
  Si0+  Si108  1  0.57120416  0.68043428  0.98384040  1
  Si0+  Si109  1  0.17642769  0.42498711  0.68427033  1
  Si0+  Si110  1  0.57200340  0.18060222  0.65271163  1
  Si0+  Si111  1  0.67591330  0.92765959  0.01871784  1
  Si0+  Si112  1  0.32100232  0.07010824  0.01256064  1
  Si0+  Si113  1  0.82504834  0.57010156  0.67998816  1
  Si0+  Si114  1  0.07206283  0.67857107  0.98602624  1
  Si0+  Si115  1  0.42885769  0.82153225  0.98522601  1
  Si0+  Si116  1  0.81935558  0.07048593  0.34745999  1
  Si0+  Si117  1  0.42764188  0.82315914  0.31515531  1
  Si0+  Si118  1  0.92776647  0.82256232  0.31418490  1
  Si0+  Si119  1  0.32121646  0.07344177  0.68293572  1
  O2-  O120  1  0.24799219  0.00124784  0.05467214  1
  O2-  O121  1  0.25203710  0.00022407  0.39942723  1
  O2-  O122  1  0.25082683  0.00197360  0.72640819  1
  O2-  O123  1  0.25516585  0.50431246  0.05864478  1
  O2-  O124  1  0.24483207  0.50170920  0.39881310  1
  O2-  O125  1  0.24238591  0.49681688  0.72771795  1
  O2-  O126  1  0.74285425  -0.00251750  0.06383981  1
  O2-  O127  1  0.74779509  0.00017307  0.38913338  1
  O2-  O128  1  0.75308757  -0.00547825  0.73014436  1
  O2-  O129  1  0.75212869  0.49828760  0.06501678  1
  O2-  O130  1  0.75364253  0.50630686  0.39579115  1
  O2-  O131  1  0.75486724  0.50423015  0.72587720  1
  O2-  O132  1  0.00157608  0.26088222  0.27466837  1
  O2-  O133  1  -0.00176404  0.24779859  0.61042737  1
  O2-  O134  1  -0.00074341  0.24792258  0.93344456  1
  O2-  O135  1  -0.00424421  0.75337071  0.26918967  1
  O2-  O136  1  -0.00277288  0.74758060  0.60229696  1
  O2-  O137  1  -0.00193746  0.74675423  0.94396631  1
  O2-  O138  1  0.49520930  0.25031732  0.27351297  1
  O2-  O139  1  0.50618582  0.25022208  0.60580943  1
  O2-  O140  1  0.50928378  0.24871821  0.93871913  1
  O2-  O141  1  0.49393841  0.75188271  0.27068841  1
  O2-  O142  1  0.50877057  0.75219624  0.60730705  1
  O2-  O143  1  0.49946775  0.75102174  0.94210612  1
  O2-  O144  1  0.07336253  0.17703481  0.09777594  1
  O2-  O145  1  0.06472094  0.17876675  0.43471377  1
  O2-  O146  1  0.07377172  0.17809848  0.75570362  1
  O2-  O147  1  0.07480332  0.68234770  0.09077492  1
  O2-  O148  1  0.06921122  0.68135348  0.42957579  1
  O2-  O149  1  0.07046089  0.67845720  0.76614386  1
  O2-  O150  1  0.56809352  0.17063453  0.08730848  1
  O2-  O151  1  0.57437310  0.17935080  0.43380685  1
  O2-  O152  1  0.56894621  0.18050027  0.75834442  1
  O2-  O153  1  0.57005649  0.68115517  0.08899140  1
  O2-  O154  1  0.57117040  0.68169275  0.43191693  1
  O2-  O155  1  0.56798838  0.67805222  0.75772827  1
  O2-  O156  1  0.17853851  0.42581339  0.23511394  1
  O2-  O157  1  0.17661621  0.42247241  0.57914999  1
  O2-  O158  1  0.18273497  0.43175443  0.89791561  1
  O2-  O159  1  0.17879654  0.93226156  0.23534733  1
  O2-  O160  1  0.18164539  0.93169444  0.57780865  1
  O2-  O161  1  0.18224586  0.92438639  0.90834656  1
  O2-  O162  1  0.68198830  0.42960507  0.23515706  1
  O2-  O163  1  0.67907876  0.42961410  0.56781297  1
  O2-  O164  1  0.67547905  0.43395862  0.90298506  1
  O2-  O165  1  0.68198717  0.92636482  0.24084256  1
  O2-  O166  1  0.67565445  0.93121319  0.56613523  1
  O2-  O167  1  0.67463547  0.92715309  0.91346754  1
  O2-  O168  1  0.42920358  0.31732835  0.09985468  1
  O2-  O169  1  0.43265630  0.32205765  0.42351401  1
  O2-  O170  1  0.42844461  0.32138845  0.76369922  1
  O2-  O171  1  0.42845099  0.82341678  0.08986522  1
  O2-  O172  1  0.43136595  0.82536396  0.42057558  1
  O2-  O173  1  0.42917419  0.82090477  0.76620691  1
  O2-  O174  1  0.93094626  0.31941268  0.09836805  1
  O2-  O175  1  0.92227291  0.31725019  0.42395790  1
  O2-  O176  1  0.92733685  0.32097542  0.75672617  1
  O2-  O177  1  0.93008092  0.82190221  0.09029141  1
  O2-  O178  1  0.92562563  0.82198924  0.41936358  1
  O2-  O179  1  0.93197711  0.82173637  0.76561561  1
  O2-  O180  1  0.32388218  0.07084722  0.23474185  1
  O2-  O181  1  0.32057523  0.07314359  0.57835754  1
  O2-  O182  1  0.32186048  0.06735225  0.90721656  1
  O2-  O183  1  0.32091229  0.56531535  0.23377065  1
  O2-  O184  1  0.31818749  0.57163483  0.56914934  1
  O2-  O185  1  0.31910655  0.58026889  0.91082418  1
  O2-  O186  1  0.81928705  0.06915918  0.24242632  1
  O2-  O187  1  0.82188208  0.07193495  0.56858318  1
  O2-  O188  1  0.82238296  0.06381812  0.90423451  1
  O2-  O189  1  0.81939739  0.57635216  0.24567454  1
  O2-  O190  1  0.82544546  0.56703825  0.57450218  1
  O2-  O191  1  0.81903122  0.57555418  0.90082345  1
  O2-  O192  1  0.03677396  0.08552700  0.26654996  1
  O2-  O193  1  0.04551687  0.08598071  0.60396359  1
  O2-  O194  1  0.04364391  0.07699075  0.93316759  1
  O2-  O195  1  0.03964325  0.58200416  0.26331631  1
  O2-  O196  1  0.04759171  0.57743430  0.59815107  1
  O2-  O197  1  0.04785056  0.58622845  0.93923186  1
  O2-  O198  1  0.54643331  0.08165377  0.26358202  1
  O2-  O199  1  0.54456771  0.08749434  0.60681914  1
  O2-  O200  1  0.54258034  0.08248280  0.93445753  1
  O2-  O201  1  0.53852594  0.58246875  0.26395205  1
  O2-  O202  1  0.53721394  0.58723025  0.60532124  1
  O2-  O203  1  0.54430318  0.58930981  0.93521649  1
  O2-  O204  1  0.17036179  0.20526851  0.27029171  1
  O2-  O205  1  0.16225493  0.20713974  0.60210950  1
  O2-  O206  1  0.17013554  0.20424616  0.93001348  1
  O2-  O207  1  0.16739529  0.71143582  0.26213637  1
  O2-  O208  1  0.16765210  0.71151422  0.59961256  1
  O2-  O209  1  0.16305211  0.71059847  0.93794500  1
  O2-  O210  1  0.66729226  0.21247693  0.26537010  1
  O2-  O211  1  0.66781606  0.20304423  0.60985548  1
  O2-  O212  1  0.66941841  0.19343773  0.94024860  1
  O2-  O213  1  0.66515284  0.71201311  0.26196007  1
  O2-  O214  1  0.66722712  0.69326403  0.60716919  1
  O2-  O215  1  0.66295873  0.70951993  0.93698787  1
  O2-  O216  1  0.08567827  0.45635794  0.06574633  1
  O2-  O217  1  0.07399970  0.45187413  0.39873012  1
  O2-  O218  1  0.08091414  0.44772280  0.72809556  1
  O2-  O219  1  0.08699869  0.94982149  0.06080946  1
  O2-  O220  1  0.07957750  0.96098118  0.40278722  1
  O2-  O221  1  0.08961567  0.95714761  0.73037913  1
  O2-  O222  1  0.57969674  0.46210903  0.06963845  1
  O2-  O223  1  0.58438779  0.46112781  0.40084284  1
  O2-  O224  1  0.58288387  0.46395285  0.73516507  1
  O2-  O225  1  0.58102861  0.95051482  0.06432124  1
  O2-  O226  1  0.58632692  0.95231540  0.39101485  1
  O2-  O227  1  0.58014879  0.95828023  0.73583372  1
  O2-  O228  1  0.21491824  0.33137415  0.06319218  1
  O2-  O229  1  0.20348469  0.33040630  0.40402544  1
  O2-  O230  1  0.20586222  0.33226684  0.73038767  1
  O2-  O231  1  0.21157734  0.83765846  0.06334319  1
  O2-  O232  1  0.20423396  0.83177655  0.40190648  1
  O2-  O233  1  0.21120964  0.83911559  0.73029316  1
  O2-  O234  1  0.69939607  0.32763366  0.06655494  1
  O2-  O235  1  0.71324597  0.33420605  0.40324948  1
  O2-  O236  1  0.70735319  0.33464129  0.73665893  1
  O2-  O237  1  0.70413173  0.83477634  0.06483296  1
  O2-  O238  1  0.70825890  0.83655423  0.39406566  1
  O2-  O239  1  0.69935291  0.82553108  0.73182370  1
  O2-  O240  1  0.45776588  0.41354218  0.27091656  1
  O2-  O241  1  0.45894122  0.42065470  0.59861123  1
  O2-  O242  1  0.45870189  0.41931531  0.93293729  1
  O2-  O243  1  0.45683996  0.91499862  0.26668098  1
  O2-  O244  1  0.45675754  0.92159558  0.59913890  1
  O2-  O245  1  0.45548270  0.91322852  0.93602135  1
  O2-  O246  1  0.94089592  0.41949645  0.27560526  1
  O2-  O247  1  0.95322319  0.40916606  0.60091358  1
  O2-  O248  1  0.95770214  0.41975390  0.93141053  1
  O2-  O249  1  0.95562176  0.91600322  0.26844863  1
  O2-  O250  1  0.95862530  0.91968855  0.59869425  1
  O2-  O251  1  0.95991065  0.90984225  0.93658291  1
  O2-  O252  1  0.33429512  0.29689700  0.27461196  1
  O2-  O253  1  0.33326985  0.29056748  0.59628129  1
  O2-  O254  1  0.33818964  0.28637158  0.92856903  1
  O2-  O255  1  0.33272015  0.80151928  0.27081552  1
  O2-  O256  1  0.33534471  0.79100079  0.59766701  1
  O2-  O257  1  0.33681882  0.79401717  0.93686095  1
  O2-  O258  1  0.83614609  0.28906688  0.26952006  1
  O2-  O259  1  0.83468869  0.28925080  0.60583288  1
  O2-  O260  1  0.82829177  0.29246295  0.93459081  1
  O2-  O261  1  0.83446367  0.79868311  0.26585123  1
  O2-  O262  1  0.82745557  0.79792115  0.59893198  1
  O2-  O263  1  0.83538448  0.79575930  0.93894575  1
  O2-  O264  1  0.41205980  0.03986316  0.06060344  1
  O2-  O265  1  0.42333000  0.04332097  0.40072523  1
  O2-  O266  1  0.41247953  0.04645563  0.73149775  1
  O2-  O267  1  0.41693991  0.55151081  0.05851294  1
  O2-  O268  1  0.41759095  0.54137827  0.40181651  1
  O2-  O269  1  0.41271989  0.54044701  0.73823708  1
  O2-  O270  1  0.91709111  0.03348704  0.07087245  1
  O2-  O271  1  0.91032762  0.04192031  0.39517889  1
  O2-  O272  1  0.92278633  0.04235556  0.73594008  1
  O2-  O273  1  0.92141318  0.54611149  0.06734530  1
  O2-  O274  1  0.91502201  0.55280801  0.39640492  1
  O2-  O275  1  0.91849638  0.54260732  0.72588640  1
  O2-  O276  1  0.29587593  0.16208597  0.05933925  1
  O2-  O277  1  0.29668123  0.16940235  0.40405922  1
  O2-  O278  1  0.29060917  0.16510429  0.72960243  1
  O2-  O279  1  0.29586722  0.66807976  0.06434032  1
  O2-  O280  1  0.29600118  0.67100321  0.39676282  1
  O2-  O281  1  0.28850945  0.66904899  0.73612469  1
  O2-  O282  1  0.79394957  0.16537001  0.07191686  1
  O2-  O283  1  0.79182951  0.16189454  0.39519502  1
  O2-  O284  1  0.79294018  0.16576771  0.73946986  1
  O2-  O285  1  0.79333819  0.67012142  0.06905355  1
  O2-  O286  1  0.79417662  0.67019032  0.39520658  1
  O2-  O287  1  0.80368997  0.66540068  0.72441690  1
