# generated using pymatgen
data_Ca2Al2SiO7
_symmetry_space_group_name_H-M   'P 1'
_cell_length_a   15.45473753
_cell_length_b   15.45515886
_cell_length_c   15.28120036
_cell_angle_alpha   90.00291308
_cell_angle_beta   89.99564651
_cell_angle_gamma   90.01003174
_symmetry_Int_Tables_number   1
_chemical_formula_structural   Ca2Al2SiO7
_chemical_formula_sum   'Ca48 Al48 Si24 O168'
_cell_volume   3649.99751631
_cell_formula_units_Z   24
loop_
 _symmetry_equiv_pos_site_id
 _symmetry_equiv_pos_as_xyz
  1  'x, y, z'
loop_
 _atom_type_symbol
 _atom_type_oxidation_number
  Ca2+  2.0
  Al0+  0.0
  Si0+  0.0
  O2-  -2.0
loop_
 _atom_site_type_symbol
 _atom_site_label
 _atom_site_symmetry_multiplicity
 _atom_site_fract_x
 _atom_site_fract_y
 _atom_site_fract_z
 _atom_site_occupancy
  Ca2+  Ca0  1  0.18047832  0.08288948  0.17365957  1
  Ca2+  Ca1  1  0.16488726  0.07945188  0.50106533  1
  Ca2+  Ca2  1  0.16937605  0.08711745  0.83647515  1
  Ca2+  Ca3  1  0.16793381  0.57793377  0.16634656  1
  Ca2+  Ca4  1  0.17241497  0.58782931  0.50608911  1
  Ca2+  Ca5  1  0.17581157  0.58482298  0.83922554  1
  Ca2+  Ca6  1  0.66696744  0.07542014  0.17621929  1
  Ca2+  Ca7  1  0.67563546  0.07579885  0.50162248  1
  Ca2+  Ca8  1  0.67189130  0.07049021  0.83520621  1
  Ca2+  Ca9  1  0.67175998  0.57267604  0.17010849  1
  Ca2+  Ca10  1  0.67069398  0.58175413  0.50605167  1
  Ca2+  Ca11  1  0.66165717  0.57431817  0.83494689  1
  Ca2+  Ca12  1  0.07251214  0.33782830  0.15985508  1
  Ca2+  Ca13  1  0.07743779  0.32452428  0.49474540  1
  Ca2+  Ca14  1  0.08121189  0.33091549  0.83133983  1
  Ca2+  Ca15  1  0.07855662  0.84050987  0.16916903  1
  Ca2+  Ca16  1  0.07317315  0.83299287  0.49536869  1
  Ca2+  Ca17  1  0.07693963  0.82770902  0.82109028  1
  Ca2+  Ca18  1  0.58237004  0.32302955  0.15918316  1
  Ca2+  Ca19  1  0.58652033  0.32712283  0.49535659  1
  Ca2+  Ca20  1  0.57872778  0.34267253  0.83019856  1
  Ca2+  Ca21  1  0.58087369  0.84106065  0.16562909  1
  Ca2+  Ca22  1  0.58426408  0.83475744  0.49427114  1
  Ca2+  Ca23  1  0.58634834  0.82887267  0.82703192  1
  Ca2+  Ca24  1  0.33199011  0.41585362  0.16305718  1
  Ca2+  Ca25  1  0.33194724  0.42342473  0.50807107  1
  Ca2+  Ca26  1  0.32877026  0.42705713  0.84378720  1
  Ca2+  Ca27  1  0.33160336  0.92580431  0.17797576  1
  Ca2+  Ca28  1  0.33270681  0.91658572  0.49504540  1
  Ca2+  Ca29  1  0.33097094  0.92425207  0.84030451  1
  Ca2+  Ca30  1  0.83541275  0.41704259  0.17326062  1
  Ca2+  Ca31  1  0.83080521  0.41938413  0.50112704  1
  Ca2+  Ca32  1  0.82231816  0.41254303  0.83870498  1
  Ca2+  Ca33  1  0.82274318  0.92086755  0.17863955  1
  Ca2+  Ca34  1  0.83081234  0.92031212  0.50675018  1
  Ca2+  Ca35  1  0.82822570  0.91436061  0.83268122  1
  Ca2+  Ca36  1  0.42063108  0.16225220  0.16202585  1
  Ca2+  Ca37  1  0.42647360  0.16272311  0.49021128  1
  Ca2+  Ca38  1  0.41276260  0.17371953  0.83416952  1
  Ca2+  Ca39  1  0.41447972  0.67297224  0.16409480  1
  Ca2+  Ca40  1  0.42342388  0.66970587  0.49786695  1
  Ca2+  Ca41  1  0.41984128  0.66098647  0.82540680  1
  Ca2+  Ca42  1  0.91029132  0.17628977  0.16507455  1
  Ca2+  Ca43  1  0.91280572  0.16640556  0.49450600  1
  Ca2+  Ca44  1  0.91911380  0.16967951  0.82672060  1
  Ca2+  Ca45  1  0.91107862  0.67087335  0.16799363  1
  Ca2+  Ca46  1  0.91324385  0.67752377  0.49438871  1
  Ca2+  Ca47  1  0.92468401  0.67254826  0.82284322  1
  Al0+  Al48  1  -0.00122429  0.00066768  -0.00205354  1
  Al0+  Al49  1  0.00183106  -0.00002623  0.33275181  1
  Al0+  Al50  1  0.00126579  0.00204291  0.66428904  1
  Al0+  Al51  1  0.00021409  0.50137358  -0.00406222  1
  Al0+  Al52  1  0.00021568  0.49970506  0.33515832  1
  Al0+  Al53  1  0.00075319  0.49824015  0.66252808  1
  Al0+  Al54  1  0.50033703  -0.00091546  0.00338941  1
  Al0+  Al55  1  0.49975445  -0.00059853  0.33268882  1
  Al0+  Al56  1  0.50014383  0.00172526  0.67169766  1
  Al0+  Al57  1  0.50131975  0.49970948  0.00690727  1
  Al0+  Al58  1  0.49899728  0.49960286  0.33211456  1
  Al0+  Al59  1  0.49845419  0.50212592  0.66739888  1
  Al0+  Al60  1  0.25104477  0.25069456  0.00407707  1
  Al0+  Al61  1  0.25043210  0.25160137  0.33797112  1
  Al0+  Al62  1  0.24871705  0.25169931  0.66149856  1
  Al0+  Al63  1  0.24983872  0.75116107  0.00282809  1
  Al0+  Al64  1  0.25116797  0.74927178  0.33174001  1
  Al0+  Al65  1  0.25112225  0.75185414  0.66783049  1
  Al0+  Al66  1  0.74980954  0.24817574  -0.00337266  1
  Al0+  Al67  1  0.74806190  0.24897284  0.32714384  1
  Al0+  Al68  1  0.74818447  0.24935760  0.67542653  1
  Al0+  Al69  1  0.74845372  0.75007405  0.00240682  1
  Al0+  Al70  1  0.75074221  0.74619152  0.33437043  1
  Al0+  Al71  1  0.74868117  0.74850672  0.66302263  1
  Al0+  Al72  1  0.82162255  0.56886941  0.34727489  1
  Al0+  Al73  1  0.67976097  0.42720525  0.01470454  1
  Al0+  Al74  1  0.68119450  0.92802075  0.01520755  1
  Al0+  Al75  1  0.82101717  0.07298380  0.34607360  1
  Al0+  Al76  1  0.43092877  0.81837470  0.31941271  1
  Al0+  Al77  1  0.17770537  0.42985941  0.01445806  1
  Al0+  Al78  1  0.92894804  0.81998254  0.65120036  1
  Al0+  Al79  1  0.82349016  0.07064477  0.68345614  1
  Al0+  Al80  1  0.67987314  0.43022653  0.67927007  1
  Al0+  Al81  1  0.31844988  0.57161453  0.67907763  1
  Al0+  Al82  1  0.17914133  0.92778207  0.34919641  1
  Al0+  Al83  1  0.67820218  0.92670776  0.68220068  1
  Al0+  Al84  1  0.92786975  0.32230325  0.98404861  1
  Al0+  Al85  1  0.32157550  0.07257421  0.35049470  1
  Al0+  Al86  1  0.56911884  0.17982343  0.32010570  1
  Al0+  Al87  1  0.93068115  0.31984909  0.32035724  1
  Al0+  Al88  1  0.31945125  0.07066220  0.01261472  1
  Al0+  Al89  1  0.67885951  0.92749639  0.34872391  1
  Al0+  Al90  1  0.92853341  0.82172963  0.31810369  1
  Al0+  Al91  1  0.07415593  0.67717813  0.65161235  1
  Al0+  Al92  1  0.32269096  0.57299918  0.01770169  1
  Al0+  Al93  1  0.56890811  0.67853422  0.65363340  1
  Al0+  Al94  1  0.07152579  0.18085401  0.65211952  1
  Al0+  Al95  1  0.43053649  0.32058853  0.98637358  1
  Si0+  Si96  1  0.42975716  0.32150631  0.65229558  1
  Si0+  Si97  1  0.42580290  0.32461330  0.31680067  1
  Si0+  Si98  1  0.57025707  0.67962026  0.98633077  1
  Si0+  Si99  1  0.17757245  0.42611641  0.68223283  1
  Si0+  Si100  1  0.57322930  0.67452237  0.31423084  1
  Si0+  Si101  1  0.17801944  0.42982336  0.35023100  1
  Si0+  Si102  1  0.18017239  0.93087108  0.68157294  1
  Si0+  Si103  1  0.07190458  0.68039173  0.98511588  1
  Si0+  Si104  1  0.42843917  0.82164402  0.98496925  1
  Si0+  Si105  1  0.67681573  0.42758597  0.34852488  1
  Si0+  Si106  1  0.92403879  0.32047148  0.65003696  1
  Si0+  Si107  1  0.07475345  0.17774278  0.31511581  1
  Si0+  Si108  1  0.82379627  0.07118842  0.01692050  1
  Si0+  Si109  1  0.82224780  0.57155997  0.01446937  1
  Si0+  Si110  1  0.57027086  0.17855399  0.65394301  1
  Si0+  Si111  1  0.32179790  0.07389876  0.68180578  1
  Si0+  Si112  1  0.07200705  0.17842040  0.98493667  1
  Si0+  Si113  1  0.42831286  0.82614801  0.65159359  1
  Si0+  Si114  1  0.82409879  0.57184466  0.68256401  1
  Si0+  Si115  1  0.07247799  0.67809588  0.31470383  1
  Si0+  Si116  1  0.32136649  0.57054571  0.34911465  1
  Si0+  Si117  1  0.57145916  0.17521278  0.97974280  1
  Si0+  Si118  1  0.92769314  0.82095172  0.98574036  1
  Si0+  Si119  1  0.17566578  0.92756500  0.01517314  1
  O2-  O120  1  0.24429510  -0.00367284  0.05813643  1
  O2-  O121  1  0.24818071  0.00223856  0.40076765  1
  O2-  O122  1  0.25102521  0.00244248  0.72390414  1
  O2-  O123  1  0.25022972  0.50066808  0.06646254  1
  O2-  O124  1  0.25200251  0.49825654  0.39151783  1
  O2-  O125  1  0.24004574  0.50082288  0.72552900  1
  O2-  O126  1  0.75532365  0.00279780  0.06087937  1
  O2-  O127  1  0.75514620  -0.00415275  0.39711429  1
  O2-  O128  1  0.75343062  -0.00435643  0.73222799  1
  O2-  O129  1  0.75904861  0.49790028  0.05926354  1
  O2-  O130  1  0.74443322  0.49648558  0.39330426  1
  O2-  O131  1  0.75657388  0.50248632  0.72757693  1
  O2-  O132  1  0.00364745  0.24420698  0.27135043  1
  O2-  O133  1  -0.00624293  0.25270341  0.60621240  1
  O2-  O134  1  0.00302616  0.24654581  0.93981002  1
  O2-  O135  1  0.00443109  0.74753036  0.27018305  1
  O2-  O136  1  -0.00096712  0.74528219  0.60152391  1
  O2-  O137  1  0.00147758  0.75257908  0.94389113  1
  O2-  O138  1  0.49238171  0.25348831  0.27430273  1
  O2-  O139  1  0.49936613  0.24950500  0.61042468  1
  O2-  O140  1  0.50575440  0.24769918  0.93589911  1
  O2-  O141  1  0.50743921  0.74626296  0.27048738  1
  O2-  O142  1  0.49885312  0.75850830  0.60891594  1
  O2-  O143  1  0.49688764  0.74829403  0.94293061  1
  O2-  O144  1  0.07065333  0.17668003  0.09012674  1
  O2-  O145  1  0.07659647  0.18190476  0.42081061  1
  O2-  O146  1  0.07600645  0.18471244  0.76544004  1
  O2-  O147  1  0.07199108  0.67947063  0.09001059  1
  O2-  O148  1  0.07312449  0.67757087  0.42003174  1
  O2-  O149  1  0.07450660  0.68126826  0.76600673  1
  O2-  O150  1  0.56947226  0.17450524  0.08535400  1
  O2-  O151  1  0.56974494  0.18326904  0.43393009  1
  O2-  O152  1  0.56684866  0.17784231  0.75891617  1
  O2-  O153  1  0.57193968  0.68182961  0.09118529  1
  O2-  O154  1  0.56923647  0.66956527  0.41970281  1
  O2-  O155  1  0.56519958  0.67571690  0.76727170  1
  O2-  O156  1  0.17652737  0.43082183  0.24533565  1
  O2-  O157  1  0.18257545  0.42273120  0.57651373  1
  O2-  O158  1  0.17838226  0.43242756  0.90068788  1
  O2-  O159  1  0.18221352  0.92902385  0.23499676  1
  O2-  O160  1  0.18128586  0.93012142  0.57711073  1
  O2-  O161  1  0.17659448  0.92655803  0.90907852  1
  O2-  O162  1  0.67680133  0.42905205  0.24289173  1
  O2-  O163  1  0.68017240  0.42935270  0.56612563  1
  O2-  O164  1  0.67778606  0.43235954  0.90146877  1
  O2-  O165  1  0.67910077  0.93061298  0.23467878  1
  O2-  O166  1  0.67460118  0.93090875  0.56952138  1
  O2-  O167  1  0.68267204  0.92525169  0.90224647  1
  O2-  O168  1  0.43214245  0.31797684  0.09925590  1
  O2-  O169  1  0.42777760  0.32841853  0.42289368  1
  O2-  O170  1  0.42869994  0.32129950  0.75741500  1
  O2-  O171  1  0.42905915  0.82189754  0.08978917  1
  O2-  O172  1  0.42976585  0.81434142  0.43263648  1
  O2-  O173  1  0.42671806  0.82692463  0.75770172  1
  O2-  O174  1  0.92917991  0.32223860  0.09726060  1
  O2-  O175  1  0.93242687  0.32077650  0.43344534  1
  O2-  O176  1  0.92524333  0.32028829  0.75576670  1
  O2-  O177  1  0.92775792  0.82038288  0.09058418  1
  O2-  O178  1  0.92855985  0.81958493  0.43060462  1
  O2-  O179  1  0.93196104  0.81830136  0.76610215  1
  O2-  O180  1  0.32074497  0.07187044  0.23672964  1
  O2-  O181  1  0.32377395  0.07393018  0.57740406  1
  O2-  O182  1  0.31755674  0.06962069  0.89866537  1
  O2-  O183  1  0.32077512  0.57020728  0.24428851  1
  O2-  O184  1  0.32024357  0.56802393  0.56565481  1
  O2-  O185  1  0.32085079  0.57374496  0.90388695  1
  O2-  O186  1  0.81674432  0.07389266  0.23215715  1
  O2-  O187  1  0.82020279  0.07334710  0.57026728  1
  O2-  O188  1  0.82590497  0.06827715  0.91134865  1
  O2-  O189  1  0.82155394  0.56644123  0.23361169  1
  O2-  O190  1  0.82254039  0.56996854  0.57708879  1
  O2-  O191  1  0.82001596  0.57443761  0.90889476  1
  O2-  O192  1  0.05569963  0.08278998  0.27031639  1
  O2-  O193  1  0.04585006  0.08358935  0.59836251  1
  O2-  O194  1  0.04719085  0.08452155  0.93650040  1
  O2-  O195  1  0.04415037  0.58473213  0.26927921  1
  O2-  O196  1  0.05387256  0.57585847  0.60076673  1
  O2-  O197  1  0.04442754  0.59003997  0.93491944  1
  O2-  O198  1  0.53811224  0.08403746  0.26506944  1
  O2-  O199  1  0.54075539  0.08759475  0.60603916  1
  O2-  O200  1  0.54041614  0.08269988  0.93373519  1
  O2-  O201  1  0.54269892  0.58236995  0.26636129  1
  O2-  O202  1  0.53228496  0.58489018  0.59655446  1
  O2-  O203  1  0.54383737  0.58670660  0.94071691  1
  O2-  O204  1  0.16819148  0.20801964  0.27043362  1
  O2-  O205  1  0.16635229  0.21393169  0.59427197  1
  O2-  O206  1  0.16572080  0.20452962  0.93916468  1
  O2-  O207  1  0.16616215  0.70235871  0.26797505  1
  O2-  O208  1  0.17199262  0.70923331  0.59936881  1
  O2-  O209  1  0.16423113  0.70861300  0.93779627  1
  O2-  O210  1  0.66247215  0.21220201  0.26081126  1
  O2-  O211  1  0.66219713  0.20816061  0.60860701  1
  O2-  O212  1  0.66655654  0.19632136  0.93548552  1
  O2-  O213  1  0.66825307  0.69452597  0.26979141  1
  O2-  O214  1  0.66654717  0.70181434  0.59927581  1
  O2-  O215  1  0.66136419  0.70921530  0.93765454  1
  O2-  O216  1  0.07967772  0.46204361  0.06703059  1
  O2-  O217  1  0.08845209  0.45997650  0.39987835  1
  O2-  O218  1  0.08077073  0.44341330  0.72450791  1
  O2-  O219  1  0.08148966  0.95272147  0.06013107  1
  O2-  O220  1  0.08026183  0.95373014  0.40134714  1
  O2-  O221  1  0.08922096  0.95897113  0.73016322  1
  O2-  O222  1  0.58661456  0.46103070  0.07210784  1
  O2-  O223  1  0.58237732  0.45212624  0.39420140  1
  O2-  O224  1  0.58397266  0.46489056  0.73290974  1
  O2-  O225  1  0.58406060  0.95861868  0.06719413  1
  O2-  O226  1  0.58130028  0.95812372  0.40036789  1
  O2-  O227  1  0.58083826  0.95904889  0.73777410  1
  O2-  O228  1  0.20476182  0.33212407  0.06848841  1
  O2-  O229  1  0.20393325  0.33815944  0.39885716  1
  O2-  O230  1  0.20998833  0.33528789  0.73032918  1
  O2-  O231  1  0.19999890  0.83480524  0.06238455  1
  O2-  O232  1  0.21068415  0.82934052  0.40066818  1
  O2-  O233  1  0.20870271  0.84013777  0.73138755  1
  O2-  O234  1  0.70560806  0.32768695  0.06456281  1
  O2-  O235  1  0.70371771  0.33436661  0.39308459  1
  O2-  O236  1  0.70560116  0.33454584  0.73745662  1
  O2-  O237  1  0.71066300  0.83166965  0.07021011  1
  O2-  O238  1  0.70061292  0.82587175  0.39650689  1
  O2-  O239  1  0.70353135  0.82613912  0.73317262  1
  O2-  O240  1  0.45187784  0.41735858  0.26895444  1
  O2-  O241  1  0.45947040  0.41205686  0.60383962  1
  O2-  O242  1  0.46117790  0.41920954  0.93496861  1
  O2-  O243  1  0.45875419  0.91553747  0.26514656  1
  O2-  O244  1  0.45217290  0.92051271  0.60622241  1
  O2-  O245  1  0.45828732  0.91261634  0.93657662  1
  O2-  O246  1  0.96468216  0.41610218  0.26644388  1
  O2-  O247  1  0.94781333  0.41462699  0.60424488  1
  O2-  O248  1  0.95762564  0.41927063  0.92940780  1
  O2-  O249  1  0.95939748  0.91837587  0.26295774  1
  O2-  O250  1  0.96024508  0.91800060  0.60068099  1
  O2-  O251  1  0.95306476  0.91346500  0.93783848  1
  O2-  O252  1  0.33047897  0.30226673  0.27329086  1
  O2-  O253  1  0.33818882  0.29578151  0.60350020  1
  O2-  O254  1  0.33307003  0.28959647  0.93279037  1
  O2-  O255  1  0.33537291  0.78499002  0.26359447  1
  O2-  O256  1  0.33569527  0.79871407  0.60543455  1
  O2-  O257  1  0.33452405  0.79795071  0.93865035  1
  O2-  O258  1  0.83367225  0.29251768  0.26512942  1
  O2-  O259  1  0.82993243  0.29371390  0.60592332  1
  O2-  O260  1  0.83145386  0.29066122  0.92949255  1
  O2-  O261  1  0.83267561  0.78622320  0.26403626  1
  O2-  O262  1  0.83008145  0.79397546  0.59906302  1
  O2-  O263  1  0.83687663  0.78947328  0.93833869  1
  O2-  O264  1  0.41511096  0.03826714  0.06620143  1
  O2-  O265  1  0.41846966  0.03993949  0.40279767  1
  O2-  O266  1  0.41227339  0.04746668  0.73246066  1
  O2-  O267  1  0.41993293  0.54519847  0.07182561  1
  O2-  O268  1  0.41387486  0.54336381  0.39613121  1
  O2-  O269  1  0.41256876  0.53587620  0.73431737  1
  O2-  O270  1  0.91789518  0.04734428  0.06283581  1
  O2-  O271  1  0.92309130  0.05354820  0.39369367  1
  O2-  O272  1  0.92366573  0.04561326  0.73543097  1
  O2-  O273  1  0.91756486  0.55189664  0.05865335  1
  O2-  O274  1  0.91726389  0.53751587  0.40255447  1
  O2-  O275  1  0.91933570  0.54831977  0.72721884  1
  O2-  O276  1  0.29121729  0.16604876  0.06879290  1
  O2-  O277  1  0.29771697  0.17272904  0.40298003  1
  O2-  O278  1  0.29124867  0.16615873  0.72743745  1
  O2-  O279  1  0.29256126  0.67164473  0.06981843  1
  O2-  O280  1  0.29206920  0.66124636  0.39668080  1
  O2-  O281  1  0.29384713  0.66977799  0.73400536  1
  O2-  O282  1  0.79811401  0.16558608  0.05989036  1
  O2-  O283  1  0.78730088  0.17020201  0.39892360  1
  O2-  O284  1  0.79145431  0.16688214  0.73932791  1
  O2-  O285  1  0.79083912  0.66242033  0.06306070  1
  O2-  O286  1  0.79145560  0.66425127  0.40246381  1
  O2-  O287  1  0.79824485  0.66521163  0.72818181  1
