# generated using pymatgen
data_Ca2Al2SiO7
_symmetry_space_group_name_H-M   'P 1'
_cell_length_a   15.46799683
_cell_length_b   15.46668075
_cell_length_c   15.29047866
_cell_angle_alpha   90.01506982
_cell_angle_beta   89.99646009
_cell_angle_gamma   90.01724095
_symmetry_Int_Tables_number   1
_chemical_formula_structural   Ca2Al2SiO7
_chemical_formula_sum   'Ca48 Al48 Si24 O168'
_cell_volume   3658.07193061
_cell_formula_units_Z   24
loop_
 _symmetry_equiv_pos_site_id
 _symmetry_equiv_pos_as_xyz
  1  'x, y, z'
loop_
 _atom_type_symbol
 _atom_type_oxidation_number
  Ca2+  2.0
  Al0+  0.0
  Si0+  0.0
  O2-  -2.0
loop_
 _atom_site_type_symbol
 _atom_site_label
 _atom_site_symmetry_multiplicity
 _atom_site_fract_x
 _atom_site_fract_y
 _atom_site_fract_z
 _atom_site_occupancy
  Ca2+  Ca0  1  0.15420416  0.07140739  0.17032047  1
  Ca2+  Ca1  1  0.15081085  0.07435303  0.50376331  1
  Ca2+  Ca2  1  0.15523848  0.07456691  0.83300879  1
  Ca2+  Ca3  1  0.16620361  0.57650666  0.16984105  1
  Ca2+  Ca4  1  0.16846816  0.56851337  0.49970836  1
  Ca2+  Ca5  1  0.16816406  0.57091113  0.84207371  1
  Ca2+  Ca6  1  0.66813173  0.07638190  0.16750554  1
  Ca2+  Ca7  1  0.67510012  0.08303394  0.50594915  1
  Ca2+  Ca8  1  0.67497467  0.08084676  0.83933218  1
  Ca2+  Ca9  1  0.67863096  0.58324737  0.16872711  1
  Ca2+  Ca10  1  0.67717999  0.58912402  0.50090100  1
  Ca2+  Ca11  1  0.68000863  0.57745441  0.84028917  1
  Ca2+  Ca12  1  0.07799933  0.33992012  0.16268782  1
  Ca2+  Ca13  1  0.07805346  0.33037122  0.49336707  1
  Ca2+  Ca14  1  0.07654718  0.33530953  0.82475220  1
  Ca2+  Ca15  1  0.08283144  0.82690442  0.15542482  1
  Ca2+  Ca16  1  0.08597659  0.83428049  0.49527628  1
  Ca2+  Ca17  1  0.08721303  0.82794948  0.83482702  1
  Ca2+  Ca18  1  0.58449508  0.33752406  0.16057232  1
  Ca2+  Ca19  1  0.57485723  0.33749965  0.49840472  1
  Ca2+  Ca20  1  0.57598230  0.34372395  0.83025931  1
  Ca2+  Ca21  1  0.57897124  0.82660865  0.16361163  1
  Ca2+  Ca22  1  0.57402468  0.82585338  0.48707430  1
  Ca2+  Ca23  1  0.58523879  0.83388027  0.83180763  1
  Ca2+  Ca24  1  0.32081414  0.42819571  0.17099334  1
  Ca2+  Ca25  1  0.32362789  0.41339276  0.50489670  1
  Ca2+  Ca26  1  0.32280116  0.41515884  0.83941755  1
  Ca2+  Ca27  1  0.32101722  0.91260170  0.17262777  1
  Ca2+  Ca28  1  0.32299177  0.91346804  0.50024946  1
  Ca2+  Ca29  1  0.32031589  0.91882086  0.83764978  1
  Ca2+  Ca30  1  0.84081568  0.42482410  0.16955481  1
  Ca2+  Ca31  1  0.84363484  0.42502043  0.50315835  1
  Ca2+  Ca32  1  0.83800864  0.42285075  0.84070315  1
  Ca2+  Ca33  1  0.82925142  0.90755501  0.16698171  1
  Ca2+  Ca34  1  0.83458197  0.92758536  0.50871119  1
  Ca2+  Ca35  1  0.83489005  0.92425566  0.84071948  1
  Ca2+  Ca36  1  0.41832921  0.16737529  0.16401103  1
  Ca2+  Ca37  1  0.41415949  0.17246046  0.50061991  1
  Ca2+  Ca38  1  0.42085914  0.17311193  0.82757485  1
  Ca2+  Ca39  1  0.41263717  0.66320071  0.16480528  1
  Ca2+  Ca40  1  0.42099598  0.66969756  0.48596869  1
  Ca2+  Ca41  1  0.41574907  0.66223078  0.83164627  1
  Ca2+  Ca42  1  0.92252658  0.18023740  0.16480046  1
  Ca2+  Ca43  1  0.92384454  0.17619590  0.49685418  1
  Ca2+  Ca44  1  0.91881653  0.17961324  0.82522410  1
  Ca2+  Ca45  1  0.92157404  0.66655098  0.15570907  1
  Ca2+  Ca46  1  0.91473552  0.66446382  0.49589007  1
  Ca2+  Ca47  1  0.91779667  0.66508217  0.83559165  1
  Al0+  Al48  1  -0.00103412  0.00143454  0.00151097  1
  Al0+  Al49  1  -0.00267393  0.00170771  0.33361138  1
  Al0+  Al50  1  -0.00325608  -0.00108106  0.67411521  1
  Al0+  Al51  1  0.00119570  0.50084588  -0.00223013  1
  Al0+  Al52  1  -0.00040672  0.50169607  0.33857538  1
  Al0+  Al53  1  0.00212850  0.50281982  0.67044358  1
  Al0+  Al54  1  0.50184376  -0.00005699  0.00188113  1
  Al0+  Al55  1  0.49779375  -0.00106371  0.33044086  1
  Al0+  Al56  1  0.49759787  -0.00156503  0.66440734  1
  Al0+  Al57  1  0.50122161  0.50076570  0.00449655  1
  Al0+  Al58  1  0.50282586  0.49997869  0.33061409  1
  Al0+  Al59  1  0.50155999  0.50176269  0.65887337  1
  Al0+  Al60  1  0.25184377  0.24910148  0.00264346  1
  Al0+  Al61  1  0.25058184  0.24531980  0.33072393  1
  Al0+  Al62  1  0.25100989  0.24646154  0.66289229  1
  Al0+  Al63  1  0.25145531  0.75231912  -0.00038560  1
  Al0+  Al64  1  0.24921626  0.75086961  0.33786068  1
  Al0+  Al65  1  0.24991988  0.75025806  0.66904218  1
  Al0+  Al66  1  0.75025247  0.24829157  -0.00079683  1
  Al0+  Al67  1  0.75003795  0.25057501  0.33017575  1
  Al0+  Al68  1  0.74910577  0.25110881  0.66697708  1
  Al0+  Al69  1  0.74846731  0.75141230  0.00160162  1
  Al0+  Al70  1  0.74688172  0.74921806  0.33478080  1
  Al0+  Al71  1  0.75011595  0.74906243  0.66973274  1
  Al0+  Al72  1  0.81923615  0.07287964  0.68110153  1
  Al0+  Al73  1  0.17810124  0.42718539  0.01428857  1
  Al0+  Al74  1  0.82163460  0.57024958  0.01479108  1
  Al0+  Al75  1  0.07359635  0.67958247  0.98414578  1
  Al0+  Al76  1  0.07199043  0.17669185  0.31680227  1
  Al0+  Al77  1  0.81967383  0.57110141  0.34779203  1
  Al0+  Al78  1  0.82153003  0.57129828  0.68218137  1
  Al0+  Al79  1  0.92701075  0.82168284  0.98472166  1
  Al0+  Al80  1  0.32212278  0.57047603  0.34892987  1
  Al0+  Al81  1  0.42946691  0.32081898  0.65359540  1
  Al0+  Al82  1  0.17885403  0.93192664  0.01368823  1
  Al0+  Al83  1  0.17921510  0.42638546  0.34915912  1
  Al0+  Al84  1  0.67903598  0.92971872  0.01452601  1
  Al0+  Al85  1  0.92877114  0.32491984  0.65119596  1
  Al0+  Al86  1  0.93003959  0.32112522  0.98561464  1
  Al0+  Al87  1  0.57234397  0.67732453  0.31468073  1
  Al0+  Al88  1  0.17861530  0.92869069  0.68206348  1
  Al0+  Al89  1  0.42702360  0.81960869  0.31594115  1
  Al0+  Al90  1  0.32199785  0.57187840  0.01277587  1
  Al0+  Al91  1  0.17752070  0.93097455  0.34699806  1
  Al0+  Al92  1  0.67952661  0.42718632  0.01385837  1
  Al0+  Al93  1  0.18143078  0.42660348  0.67945419  1
  Al0+  Al94  1  0.93088765  0.32316430  0.31737086  1
  Al0+  Al95  1  0.06931662  0.17643003  0.65280734  1
  Si0+  Si96  1  0.43093771  0.32125131  0.98679066  1
  Si0+  Si97  1  0.06915107  0.68128087  0.32178527  1
  Si0+  Si98  1  0.32422669  0.07171863  0.01666685  1
  Si0+  Si99  1  0.92716878  0.82263252  0.32219164  1
  Si0+  Si100  1  0.67864654  0.42486466  0.35123012  1
  Si0+  Si101  1  0.81836803  0.07174209  0.34822789  1
  Si0+  Si102  1  0.67687278  0.92850577  0.68095863  1
  Si0+  Si103  1  0.07286441  0.68067858  0.65022455  1
  Si0+  Si104  1  0.57013527  0.67913327  0.98276795  1
  Si0+  Si105  1  0.57099502  0.17698762  0.98493638  1
  Si0+  Si106  1  0.67750663  0.92969384  0.34874343  1
  Si0+  Si107  1  0.57191088  0.68130134  0.65126767  1
  Si0+  Si108  1  0.82209482  0.07259317  0.01969040  1
  Si0+  Si109  1  0.07393068  0.17833956  0.98319448  1
  Si0+  Si110  1  0.32483620  0.07085425  0.68412884  1
  Si0+  Si111  1  0.32388242  0.57100259  0.68077898  1
  Si0+  Si112  1  0.43000679  0.82310794  0.98248754  1
  Si0+  Si113  1  0.42864930  0.32093885  0.31637417  1
  Si0+  Si114  1  0.57193172  0.17535110  0.65042251  1
  Si0+  Si115  1  0.67570394  0.42948749  0.68081892  1
  Si0+  Si116  1  0.92799977  0.81943016  0.65247576  1
  Si0+  Si117  1  0.57153417  0.17891214  0.31806629  1
  Si0+  Si118  1  0.42732054  0.82050035  0.65136685  1
  Si0+  Si119  1  0.32525865  0.07092643  0.35155533  1
  O2-  O120  1  0.25216929  0.00739464  0.06097142  1
  O2-  O121  1  0.25173227  0.00652943  0.39403394  1
  O2-  O122  1  0.25211767  0.00600144  0.72686595  1
  O2-  O123  1  0.24661801  0.50375100  0.06216299  1
  O2-  O124  1  0.25528512  0.49449725  0.39981920  1
  O2-  O125  1  0.25884537  0.49976483  0.72487209  1
  O2-  O126  1  0.75719841  -0.00048542  0.06343719  1
  O2-  O127  1  0.74840299  -0.00033890  0.39189029  1
  O2-  O128  1  0.74161156  -0.00034000  0.72600104  1
  O2-  O129  1  0.75386964  0.49470478  0.06552095  1
  O2-  O130  1  0.74655964  0.49435055  0.39489937  1
  O2-  O131  1  0.75054637  0.49094333  0.72455468  1
  O2-  O132  1  0.00717061  0.25531746  0.26758349  1
  O2-  O133  1  0.00188554  0.25278985  0.60257151  1
  O2-  O134  1  0.00860918  0.24989652  0.93939905  1
  O2-  O135  1  -0.00209624  0.75233547  0.28031501  1
  O2-  O136  1  -0.00029603  0.75049277  0.60822183  1
  O2-  O137  1  -0.00041130  0.75076392  0.93380059  1
  O2-  O138  1  0.50131612  0.25020142  0.27527643  1
  O2-  O139  1  0.50498590  0.24589179  0.60654950  1
  O2-  O140  1  0.50322642  0.25127754  0.94355969  1
  O2-  O141  1  0.49586149  0.74509010  0.26497670  1
  O2-  O142  1  0.49926956  0.75072908  0.60964849  1
  O2-  O143  1  0.49815751  0.74936069  0.93940183  1
  O2-  O144  1  0.07174028  0.17685252  0.08855903  1
  O2-  O145  1  0.06477780  0.17234586  0.42992573  1
  O2-  O146  1  0.06602800  0.17637429  0.76640604  1
  O2-  O147  1  0.07401707  0.68199931  0.09837457  1
  O2-  O148  1  0.06756317  0.68237541  0.42745408  1
  O2-  O149  1  0.07538627  0.68211956  0.75474310  1
  O2-  O150  1  0.56803590  0.17384270  0.09010521  1
  O2-  O151  1  0.57198004  0.17831921  0.42329728  1
  O2-  O152  1  0.56922055  0.17112264  0.75577293  1
  O2-  O153  1  0.57013763  0.68074849  0.08721536  1
  O2-  O154  1  0.57485684  0.68415124  0.42909574  1
  O2-  O155  1  0.57171639  0.68182615  0.75637235  1
  O2-  O156  1  0.17842648  0.43063903  0.23601252  1
  O2-  O157  1  0.18191032  0.42849673  0.56652949  1
  O2-  O158  1  0.18255825  0.42385326  0.90046338  1
  O2-  O159  1  0.17699424  0.93085398  0.23419375  1
  O2-  O160  1  0.18036367  0.92714777  0.56900679  1
  O2-  O161  1  0.18154796  0.93275514  0.90045639  1
  O2-  O162  1  0.67996759  0.42191109  0.24612208  1
  O2-  O163  1  0.67014485  0.43342467  0.57551294  1
  O2-  O164  1  0.67537846  0.43147769  0.90005658  1
  O2-  O165  1  0.67844757  0.93089178  0.24389951  1
  O2-  O166  1  0.67845621  0.92864799  0.57505511  1
  O2-  O167  1  0.67505943  0.93490463  0.90124111  1
  O2-  O168  1  0.43207737  0.31816499  0.09169642  1
  O2-  O169  1  0.43040417  0.31935551  0.42184118  1
  O2-  O170  1  0.43269856  0.32094784  0.76694810  1
  O2-  O171  1  0.43153747  0.82586027  0.08695400  1
  O2-  O172  1  0.43080604  0.82124712  0.43038147  1
  O2-  O173  1  0.42806682  0.82123840  0.75649234  1
  O2-  O174  1  0.92823692  0.31883433  0.09847483  1
  O2-  O175  1  0.92820090  0.32105667  0.43085400  1
  O2-  O176  1  0.92885422  0.32366347  0.76477633  1
  O2-  O177  1  0.92814115  0.82012109  0.09906368  1
  O2-  O178  1  0.92742593  0.82385000  0.42787455  1
  O2-  O179  1  0.92591053  0.81865130  0.75683290  1
  O2-  O180  1  0.33244011  0.06861935  0.24640071  1
  O2-  O181  1  0.33342899  0.06673254  0.57924314  1
  O2-  O182  1  0.32842794  0.07023625  0.91108055  1
  O2-  O183  1  0.31782616  0.56999998  0.23580776  1
  O2-  O184  1  0.32355213  0.57217178  0.57553443  1
  O2-  O185  1  0.32515044  0.56637404  0.89859456  1
  O2-  O186  1  0.81539783  0.07083835  0.24358119  1
  O2-  O187  1  0.81734290  0.06907006  0.56740694  1
  O2-  O188  1  0.81811786  0.07332054  0.91397600  1
  O2-  O189  1  0.82045294  0.57397707  0.23557253  1
  O2-  O190  1  0.81732240  0.57655162  0.56912704  1
  O2-  O191  1  0.81783224  0.57035584  0.90104527  1
  O2-  O192  1  0.03275538  0.08156752  0.26230308  1
  O2-  O193  1  0.03403585  0.07814025  0.60208214  1
  O2-  O194  1  0.04442666  0.08563910  0.93752239  1
  O2-  O195  1  0.04098109  0.58998391  0.27500072  1
  O2-  O196  1  0.04508113  0.58915878  0.60319911  1
  O2-  O197  1  0.04645301  0.58149201  0.93039623  1
  O2-  O198  1  0.54238767  0.08753949  0.27011064  1
  O2-  O199  1  0.54446876  0.08263648  0.60172598  1
  O2-  O200  1  0.53903739  0.08742362  0.93489939  1
  O2-  O201  1  0.55325067  0.57621021  0.26428595  1
  O2-  O202  1  0.54709688  0.59038918  0.60100362  1
  O2-  O203  1  0.54181092  0.58707423  0.93552131  1
  O2-  O204  1  0.17494783  0.19025414  0.26757433  1
  O2-  O205  1  0.17162848  0.19257287  0.60310906  1
  O2-  O206  1  0.17058710  0.19727032  0.93990069  1
  O2-  O207  1  0.16045050  0.70966676  0.27547878  1
  O2-  O208  1  0.16390142  0.71139470  0.60235951  1
  O2-  O209  1  0.17137217  0.71120792  0.92994187  1
  O2-  O210  1  0.66246094  0.20499117  0.26848722  1
  O2-  O211  1  0.66554397  0.19923614  0.60437546  1
  O2-  O212  1  0.66352683  0.19979962  0.93754523  1
  O2-  O213  1  0.66836445  0.71400204  0.26171713  1
  O2-  O214  1  0.66283148  0.71225585  0.60342520  1
  O2-  O215  1  0.66044588  0.71024726  0.93452925  1
  O2-  O216  1  0.07995987  0.45495310  0.06561713  1
  O2-  O217  1  0.08358146  0.46136423  0.40365803  1
  O2-  O218  1  0.08720504  0.46219384  0.73385301  1
  O2-  O219  1  0.08160196  0.96004013  0.06771712  1
  O2-  O220  1  0.07969990  0.96075616  0.40090576  1
  O2-  O221  1  0.08193957  0.95623309  0.73661353  1
  O2-  O222  1  0.58304679  0.45777467  0.06878427  1
  O2-  O223  1  0.58411988  0.44968803  0.39576609  1
  O2-  O224  1  0.58450148  0.46280994  0.72861852  1
  O2-  O225  1  0.58492173  0.96562937  0.07053131  1
  O2-  O226  1  0.58590482  0.95945794  0.39553433  1
  O2-  O227  1  0.58139794  0.95004560  0.72519571  1
  O2-  O228  1  0.20982602  0.32991757  0.06793758  1
  O2-  O229  1  0.20515565  0.32489400  0.39697238  1
  O2-  O230  1  0.21118083  0.32870548  0.73097542  1
  O2-  O231  1  0.21210680  0.83616671  0.06625249  1
  O2-  O232  1  0.20883465  0.83578844  0.40342974  1
  O2-  O233  1  0.21442723  0.83370530  0.73664603  1
  O2-  O234  1  0.69900352  0.32535150  0.06333619  1
  O2-  O235  1  0.70197967  0.33058083  0.39792057  1
  O2-  O236  1  0.69007903  0.33251337  0.72348656  1
  O2-  O237  1  0.70497963  0.83298643  0.06927312  1
  O2-  O238  1  0.70393181  0.83837053  0.39694396  1
  O2-  O239  1  0.70459198  0.83652392  0.72832425  1
  O2-  O240  1  0.45676053  0.41218693  0.26929712  1
  O2-  O241  1  0.46129589  0.41608255  0.59627671  1
  O2-  O242  1  0.45949588  0.41263026  0.93911817  1
  O2-  O243  1  0.45877560  0.91757219  0.26354557  1
  O2-  O244  1  0.45368081  0.91222204  0.60267779  1
  O2-  O245  1  0.46310864  0.91359698  0.93456435  1
  O2-  O246  1  0.95727525  0.42362342  0.26796609  1
  O2-  O247  1  0.95814167  0.42445588  0.60090382  1
  O2-  O248  1  0.95681883  0.41833835  0.93215786  1
  O2-  O249  1  0.95144465  0.91424036  0.27393004  1
  O2-  O250  1  0.95479035  0.91207051  0.60636898  1
  O2-  O251  1  0.95398975  0.92216949  0.93458735  1
  O2-  O252  1  0.33849803  0.29095556  0.26797252  1
  O2-  O253  1  0.33578940  0.28706085  0.59626445  1
  O2-  O254  1  0.34001910  0.29129841  0.93845696  1
  O2-  O255  1  0.32672777  0.79402253  0.26628133  1
  O2-  O256  1  0.33608313  0.79158367  0.60372993  1
  O2-  O257  1  0.33825003  0.79838019  0.93395074  1
  O2-  O258  1  0.83273122  0.29011141  0.26549819  1
  O2-  O259  1  0.82795499  0.29798640  0.60118997  1
  O2-  O260  1  0.83313847  0.28701666  0.93239025  1
  O2-  O261  1  0.83473295  0.79545312  0.27653822  1
  O2-  O262  1  0.83580899  0.79186464  0.60421902  1
  O2-  O263  1  0.82693120  0.79667321  0.93255036  1
  O2-  O264  1  0.41619794  0.04305734  0.06436180  1
  O2-  O265  1  0.41709597  0.04152642  0.40067721  1
  O2-  O266  1  0.41665778  0.04083345  0.73351683  1
  O2-  O267  1  0.41813485  0.54107631  0.06802463  1
  O2-  O268  1  0.42453876  0.54753679  0.39682423  1
  O2-  O269  1  0.41986572  0.54922746  0.72387181  1
  O2-  O270  1  0.91646211  0.05180370  0.06448018  1
  O2-  O271  1  0.90857676  0.04225357  0.39685229  1
  O2-  O272  1  0.91131938  0.03728887  0.73902808  1
  O2-  O273  1  0.92154590  0.54703287  0.06502289  1
  O2-  O274  1  0.91568298  0.54329400  0.40438827  1
  O2-  O275  1  0.91959923  0.54743288  0.73479195  1
  O2-  O276  1  0.30416595  0.16631606  0.06255064  1
  O2-  O277  1  0.30524654  0.16629801  0.39551367  1
  O2-  O278  1  0.30453096  0.16580696  0.72847698  1
  O2-  O279  1  0.30168695  0.67312937  0.06166017  1
  O2-  O280  1  0.29201237  0.66799916  0.40264593  1
  O2-  O281  1  0.29696879  0.66395262  0.72754204  1
  O2-  O282  1  0.78931215  0.16293943  0.06718441  1
  O2-  O283  1  0.78741249  0.16242998  0.39599647  1
  O2-  O284  1  0.78883080  0.16934156  0.73589088  1
  O2-  O285  1  0.78936827  0.66801585  0.06601575  1
  O2-  O286  1  0.78591646  0.66740032  0.40320742  1
  O2-  O287  1  0.78516238  0.66606698  0.73702171  1
