# generated using pymatgen
data_Ca2Al2SiO7
_symmetry_space_group_name_H-M   'P 1'
_cell_length_a   15.46086311
_cell_length_b   15.45978064
_cell_length_c   15.28577830
_cell_angle_alpha   90.00818992
_cell_angle_beta   90.00031079
_cell_angle_gamma   89.98373291
_symmetry_Int_Tables_number   1
_chemical_formula_structural   Ca2Al2SiO7
_chemical_formula_sum   'Ca48 Al48 Si24 O168'
_cell_volume   3653.63027145
_cell_formula_units_Z   24
loop_
 _symmetry_equiv_pos_site_id
 _symmetry_equiv_pos_as_xyz
  1  'x, y, z'
loop_
 _atom_type_symbol
 _atom_type_oxidation_number
  Ca2+  2.0
  Al0+  0.0
  Si0+  0.0
  O2-  -2.0
loop_
 _atom_site_type_symbol
 _atom_site_label
 _atom_site_symmetry_multiplicity
 _atom_site_fract_x
 _atom_site_fract_y
 _atom_site_fract_z
 _atom_site_occupancy
  Ca2+  Ca0  1  0.16396806  0.08178688  0.17696627  1
  Ca2+  Ca1  1  0.16861093  0.07822175  0.49231182  1
  Ca2+  Ca2  1  0.16302429  0.08066965  0.83815347  1
  Ca2+  Ca3  1  0.16527102  0.57402411  0.16797474  1
  Ca2+  Ca4  1  0.16060858  0.57265872  0.50705646  1
  Ca2+  Ca5  1  0.16432588  0.57881961  0.84344505  1
  Ca2+  Ca6  1  0.67627088  0.08439462  0.16842260  1
  Ca2+  Ca7  1  0.66919814  0.07417333  0.50825824  1
  Ca2+  Ca8  1  0.67425040  0.07251667  0.83966247  1
  Ca2+  Ca9  1  0.67220062  0.58162054  0.17229455  1
  Ca2+  Ca10  1  0.66036202  0.58636008  0.49964689  1
  Ca2+  Ca11  1  0.67347858  0.58929963  0.83923138  1
  Ca2+  Ca12  1  0.09054395  0.32510324  0.15964544  1
  Ca2+  Ca13  1  0.09088534  0.32998358  0.49326917  1
  Ca2+  Ca14  1  0.08421417  0.33601503  0.83572607  1
  Ca2+  Ca15  1  0.07687500  0.83342438  0.16015336  1
  Ca2+  Ca16  1  0.07460988  0.83548234  0.49311257  1
  Ca2+  Ca17  1  0.07363331  0.81887185  0.82932306  1
  Ca2+  Ca18  1  0.57240316  0.34270642  0.16532935  1
  Ca2+  Ca19  1  0.57609610  0.33407520  0.48717836  1
  Ca2+  Ca20  1  0.57572721  0.33561712  0.83352099  1
  Ca2+  Ca21  1  0.57575841  0.83091717  0.16933237  1
  Ca2+  Ca22  1  0.57843021  0.82684465  0.49618232  1
  Ca2+  Ca23  1  0.57892702  0.82770889  0.82087400  1
  Ca2+  Ca24  1  0.32829653  0.41714948  0.16981120  1
  Ca2+  Ca25  1  0.32465034  0.41587752  0.50085173  1
  Ca2+  Ca26  1  0.32355855  0.42496655  0.84327435  1
  Ca2+  Ca27  1  0.32454613  0.92437649  0.17963703  1
  Ca2+  Ca28  1  0.33987886  0.91898024  0.50102306  1
  Ca2+  Ca29  1  0.33378876  0.91494644  0.83696938  1
  Ca2+  Ca30  1  0.83591725  0.42269387  0.16953398  1
  Ca2+  Ca31  1  0.82483188  0.41782066  0.50252648  1
  Ca2+  Ca32  1  0.83312077  0.42383829  0.84576276  1
  Ca2+  Ca33  1  0.84455909  0.91982810  0.16942080  1
  Ca2+  Ca34  1  0.83134365  0.90983530  0.50529943  1
  Ca2+  Ca35  1  0.83256047  0.91106464  0.83911679  1
  Ca2+  Ca36  1  0.40866395  0.17889983  0.16543709  1
  Ca2+  Ca37  1  0.41411864  0.17133226  0.49002261  1
  Ca2+  Ca38  1  0.41355117  0.17487647  0.83361090  1
  Ca2+  Ca39  1  0.42035491  0.66135875  0.16421325  1
  Ca2+  Ca40  1  0.42546885  0.67598487  0.49403686  1
  Ca2+  Ca41  1  0.42030256  0.66860351  0.82649536  1
  Ca2+  Ca42  1  0.92800251  0.17136558  0.15654372  1
  Ca2+  Ca43  1  0.92516525  0.16908572  0.49202692  1
  Ca2+  Ca44  1  0.91777875  0.16877259  0.83962467  1
  Ca2+  Ca45  1  0.92232550  0.67500819  0.15829093  1
  Ca2+  Ca46  1  0.92116315  0.67682060  0.49946053  1
  Ca2+  Ca47  1  0.92391591  0.66650570  0.83091146  1
  Al0+  Al48  1  -0.00179343  0.00051955  -0.00514294  1
  Al0+  Al49  1  0.00139018  0.00222699  0.33182506  1
  Al0+  Al50  1  0.00199489  0.00327312  0.66446784  1
  Al0+  Al51  1  -0.00074644  0.49850344  0.00440234  1
  Al0+  Al52  1  -0.00180505  0.50222336  0.34057876  1
  Al0+  Al53  1  -0.00334821  0.49755090  0.66668950  1
  Al0+  Al54  1  0.50025362  -0.00027150  0.00126148  1
  Al0+  Al55  1  0.50261543  0.00024505  0.33257311  1
  Al0+  Al56  1  0.50197552  0.00224488  0.67052282  1
  Al0+  Al57  1  0.49882923  0.50047443  -0.00347389  1
  Al0+  Al58  1  0.50119976  0.49969052  0.33072341  1
  Al0+  Al59  1  0.49749912  0.49853436  0.66316972  1
  Al0+  Al60  1  0.25165710  0.24954952  -0.00804162  1
  Al0+  Al61  1  0.25097265  0.24964003  0.33402579  1
  Al0+  Al62  1  0.24894029  0.25023635  0.67152840  1
  Al0+  Al63  1  0.25067445  0.75038427  0.00094500  1
  Al0+  Al64  1  0.24875242  0.74955501  0.33498855  1
  Al0+  Al65  1  0.25041617  0.74927528  0.65984301  1
  Al0+  Al66  1  0.74867328  0.24600805  0.00042876  1
  Al0+  Al67  1  0.75055247  0.25143968  0.33848020  1
  Al0+  Al68  1  0.74985506  0.24945163  0.66857472  1
  Al0+  Al69  1  0.74669236  0.74923420  0.00426095  1
  Al0+  Al70  1  0.75153881  0.75124786  0.32539403  1
  Al0+  Al71  1  0.74976047  0.74913232  0.66453682  1
  Al0+  Al72  1  0.07231465  0.67805821  0.98789247  1
  Al0+  Al73  1  0.17929941  0.42787050  0.01574731  1
  Al0+  Al74  1  0.17966178  0.43015250  0.34734207  1
  Al0+  Al75  1  0.17805976  0.42945818  0.68261358  1
  Al0+  Al76  1  0.07223540  0.17906148  0.98312922  1
  Al0+  Al77  1  0.07116767  0.67504351  0.65114705  1
  Al0+  Al78  1  0.82131861  0.57118814  0.01443516  1
  Al0+  Al79  1  0.56983407  0.67965667  0.31510450  1
  Al0+  Al80  1  0.17747962  0.92725871  0.34779167  1
  Al0+  Al81  1  0.93091107  0.82191589  0.65200392  1
  Al0+  Al82  1  0.93203801  0.82081661  0.31870566  1
  Al0+  Al83  1  0.32220502  0.57316246  0.01502589  1
  Al0+  Al84  1  0.92706733  0.82051096  0.98507585  1
  Al0+  Al85  1  0.43017960  0.32161305  0.98429860  1
  Al0+  Al86  1  0.67946636  0.43052410  0.34643060  1
  Al0+  Al87  1  0.42992056  0.31932322  0.32034589  1
  Al0+  Al88  1  0.42842435  0.82471422  0.65231306  1
  Al0+  Al89  1  0.57122030  0.67745879  0.65218297  1
  Al0+  Al90  1  0.68125481  0.92866369  0.67958956  1
  Al0+  Al91  1  0.82080941  0.06869791  0.01473610  1
  Al0+  Al92  1  0.06980148  0.18315299  0.32106254  1
  Al0+  Al93  1  0.32247767  0.07022678  0.34709354  1
  Al0+  Al94  1  0.42675983  0.82335170  0.31688185  1
  Al0+  Al95  1  0.92664231  0.32119851  0.98693145  1
  Si0+  Si96  1  0.42870721  0.31831411  0.65074175  1
  Si0+  Si97  1  0.17823236  0.92818790  0.68152098  1
  Si0+  Si98  1  0.56915067  0.67933022  0.98475827  1
  Si0+  Si99  1  0.92581470  0.32390884  0.31930064  1
  Si0+  Si100  1  0.82405465  0.07360273  0.68426798  1
  Si0+  Si101  1  0.68097923  0.92927173  0.34792452  1
  Si0+  Si102  1  0.32127450  0.07049833  0.68335995  1
  Si0+  Si103  1  0.81735817  0.56861004  0.68136829  1
  Si0+  Si104  1  0.67612941  0.92698252  0.01997430  1
  Si0+  Si105  1  0.17926054  0.93057421  0.01185765  1
  Si0+  Si106  1  0.57158416  0.17515841  0.98197308  1
  Si0+  Si107  1  0.32387545  0.57217446  0.35140333  1
  Si0+  Si108  1  0.32202517  0.57197858  0.68142516  1
  Si0+  Si109  1  0.07273607  0.67447999  0.31737885  1
  Si0+  Si110  1  0.82065124  0.57485178  0.35279065  1
  Si0+  Si111  1  0.67749006  0.42692409  0.01458789  1
  Si0+  Si112  1  0.92633602  0.32012117  0.65125641  1
  Si0+  Si113  1  0.82196132  0.07161875  0.34918888  1
  Si0+  Si114  1  0.67571803  0.42633953  0.68218429  1
  Si0+  Si115  1  0.42918272  0.82274312  0.98593772  1
  Si0+  Si116  1  0.07225918  0.18093101  0.64943498  1
  Si0+  Si117  1  0.57208831  0.18048487  0.65241828  1
  Si0+  Si118  1  0.32254448  0.07058772  0.01351879  1
  Si0+  Si119  1  0.57588267  0.17720886  0.31730737  1
  O2-  O120  1  0.24875033  0.00299005  0.05432726  1
  O2-  O121  1  0.25601088  -0.00683780  0.39823088  1
  O2-  O122  1  0.25395258  -0.00481369  0.72428469  1
  O2-  O123  1  0.25023332  0.50137124  0.06505624  1
  O2-  O124  1  0.25062435  0.50792495  0.39585745  1
  O2-  O125  1  0.24844293  0.50918446  0.72662374  1
  O2-  O126  1  0.74858941  -0.00773865  0.06325775  1
  O2-  O127  1  0.75048141  0.00147807  0.39137991  1
  O2-  O128  1  0.75953140  -0.00007538  0.72645603  1
  O2-  O129  1  0.74998617  0.49131647  0.05855207  1
  O2-  O130  1  0.75244288  0.50492478  0.39671209  1
  O2-  O131  1  0.74394193  0.49930994  0.72395100  1
  O2-  O132  1  -0.00213767  0.26006005  0.27509656  1
  O2-  O133  1  -0.00102029  0.25078078  0.60908940  1
  O2-  O134  1  0.00134057  0.25318830  0.93390568  1
  O2-  O135  1  0.00923678  0.74829715  0.27396454  1
  O2-  O136  1  0.00583807  0.75345035  0.60107505  1
  O2-  O137  1  -0.00349646  0.74570795  0.93668455  1
  O2-  O138  1  0.50582824  0.24469197  0.27404370  1
  O2-  O139  1  0.50256590  0.25096660  0.60780569  1
  O2-  O140  1  0.50512127  0.24617523  0.93761856  1
  O2-  O141  1  0.49398919  0.74785021  0.26476300  1
  O2-  O142  1  0.49944746  0.75079104  0.60437969  1
  O2-  O143  1  0.49859306  0.75076399  0.94298489  1
  O2-  O144  1  0.07200712  0.17782701  0.09653336  1
  O2-  O145  1  0.06767417  0.18308132  0.43488512  1
  O2-  O146  1  0.07305603  0.17939567  0.75409670  1
  O2-  O147  1  0.07352184  0.68261888  0.10135811  1
  O2-  O148  1  0.06755747  0.67133732  0.42300380  1
  O2-  O149  1  0.06753986  0.67421667  0.76458872  1
  O2-  O150  1  0.57048691  0.17167002  0.08714229  1
  O2-  O151  1  0.57736393  0.17887769  0.42349607  1
  O2-  O152  1  0.57184428  0.18197830  0.75735742  1
  O2-  O153  1  0.56884862  0.67864121  0.08931246  1
  O2-  O154  1  0.57038230  0.68169393  0.42871671  1
  O2-  O155  1  0.57055083  0.67768516  0.76635778  1
  O2-  O156  1  0.18077998  0.42847531  0.23503563  1
  O2-  O157  1  0.18227399  0.42589155  0.56925753  1
  O2-  O158  1  0.18192428  0.42943158  0.90172924  1
  O2-  O159  1  0.17463127  0.93369518  0.23392770  1
  O2-  O160  1  0.17552903  0.93305349  0.57697867  1
  O2-  O161  1  0.18286379  0.93061733  0.90613596  1
  O2-  O162  1  0.68168166  0.42959029  0.23359779  1
  O2-  O163  1  0.67803903  0.42266299  0.57727597  1
  O2-  O164  1  0.67658243  0.42997794  0.90822570  1
  O2-  O165  1  0.68101172  0.93168100  0.24297919  1
  O2-  O166  1  0.68112121  0.93293050  0.56631471  1
  O2-  O167  1  0.67300604  0.92900618  0.91412384  1
  O2-  O168  1  0.43170715  0.32017596  0.09716122  1
  O2-  O169  1  0.43100143  0.31701184  0.43420256  1
  O2-  O170  1  0.43074738  0.31683566  0.75579006  1
  O2-  O171  1  0.43126813  0.82599753  0.09019848  1
  O2-  O172  1  0.43386078  0.82481169  0.43025463  1
  O2-  O173  1  0.43086295  0.82505830  0.76668894  1
  O2-  O174  1  0.92388905  0.31787091  0.10026093  1
  O2-  O175  1  0.92308210  0.31963346  0.42559528  1
  O2-  O176  1  0.92306062  0.31950413  0.75572666  1
  O2-  O177  1  0.93179353  0.82186026  0.09857920  1
  O2-  O178  1  0.92982121  0.82018517  0.43191849  1
  O2-  O179  1  0.93002964  0.81962038  0.76510524  1
  O2-  O180  1  0.31929031  0.07274321  0.23343105  1
  O2-  O181  1  0.32156586  0.07431871  0.57876749  1
  O2-  O182  1  0.32565693  0.06702763  0.90778558  1
  O2-  O183  1  0.32508376  0.56864825  0.24599733  1
  O2-  O184  1  0.32616159  0.56637574  0.57621637  1
  O2-  O185  1  0.32452950  0.57283534  0.90106278  1
  O2-  O186  1  0.82111617  0.07243668  0.24438554  1
  O2-  O187  1  0.82100271  0.07837226  0.57848540  1
  O2-  O188  1  0.81724698  0.06849413  0.90149161  1
  O2-  O189  1  0.82105998  0.57309942  0.24737271  1
  O2-  O190  1  0.81762480  0.56595167  0.57629816  1
  O2-  O191  1  0.81653389  0.57216525  0.90068802  1
  O2-  O192  1  0.03655617  0.08830237  0.26676923  1
  O2-  O193  1  0.04590626  0.08948889  0.60078005  1
  O2-  O194  1  0.03959694  0.08275726  0.92762902  1
  O2-  O195  1  0.04018194  0.58283445  0.27076729  1
  O2-  O196  1  0.03469051  0.57867707  0.59786396  1
  O2-  O197  1  0.04611522  0.57831704  0.93792406  1
  O2-  O198  1  0.55469453  0.08335143  0.27140243  1
  O2-  O199  1  0.54395780  0.08899444  0.60543643  1
  O2-  O200  1  0.54162617  0.08299810  0.93377726  1
  O2-  O201  1  0.54506551  0.58004998  0.26340256  1
  O2-  O202  1  0.54314965  0.57842363  0.59914510  1
  O2-  O203  1  0.54326507  0.58825480  0.93503003  1
  O2-  O204  1  0.16669897  0.21063281  0.26791146  1
  O2-  O205  1  0.16371975  0.21216968  0.60342902  1
  O2-  O206  1  0.17078293  0.20251608  0.92772699  1
  O2-  O207  1  0.16917695  0.69119517  0.27544098  1
  O2-  O208  1  0.17221959  0.69365945  0.60090799  1
  O2-  O209  1  0.16957465  0.71002977  0.93302485  1
  O2-  O210  1  0.66921854  0.20540382  0.27184634  1
  O2-  O211  1  0.66465154  0.20606195  0.60476779  1
  O2-  O212  1  0.66498923  0.19829863  0.93489620  1
  O2-  O213  1  0.66692364  0.71142660  0.26168085  1
  O2-  O214  1  0.66898636  0.70454843  0.59860100  1
  O2-  O215  1  0.66073061  0.70799881  0.93772514  1
  O2-  O216  1  0.08005115  0.45014446  0.06868004  1
  O2-  O217  1  0.08129951  0.45637252  0.40260515  1
  O2-  O218  1  0.07776069  0.45342241  0.73235250  1
  O2-  O219  1  0.08694608  0.95802130  0.05698884  1
  O2-  O220  1  0.08272398  0.96684031  0.40325801  1
  O2-  O221  1  0.08881078  0.96271863  0.73022566  1
  O2-  O222  1  0.58581407  0.45888172  0.06005061  1
  O2-  O223  1  0.58254791  0.45953675  0.40142905  1
  O2-  O224  1  0.58192266  0.45066318  0.72737246  1
  O2-  O225  1  0.58433463  0.95893136  0.06699607  1
  O2-  O226  1  0.58959199  0.95610804  0.39638166  1
  O2-  O227  1  0.58679174  0.96433145  0.73640678  1
  O2-  O228  1  0.21228829  0.32797414  0.06333970  1
  O2-  O229  1  0.21441004  0.33488857  0.40226432  1
  O2-  O230  1  0.21317762  0.33420908  0.73713729  1
  O2-  O231  1  0.20811381  0.84032171  0.06057034  1
  O2-  O232  1  0.19367466  0.82558323  0.39875972  1
  O2-  O233  1  0.20216961  0.83414747  0.72640828  1
  O2-  O234  1  0.69439533  0.33056119  0.05734372  1
  O2-  O235  1  0.70953218  0.33420008  0.40430787  1
  O2-  O236  1  0.70504449  0.33523415  0.73084177  1
  O2-  O237  1  0.69544544  0.83254207  0.06556267  1
  O2-  O238  1  0.71191170  0.83763358  0.39343015  1
  O2-  O239  1  0.70770816  0.83076721  0.73334068  1
  O2-  O240  1  0.46189581  0.41450069  0.26600380  1
  O2-  O241  1  0.45297020  0.41045156  0.60324862  1
  O2-  O242  1  0.46301806  0.41662447  0.92755710  1
  O2-  O243  1  0.46075257  0.92072538  0.26354637  1
  O2-  O244  1  0.45921743  0.92395057  0.60227451  1
  O2-  O245  1  0.45858730  0.91400770  0.93703505  1
  O2-  O246  1  0.94600815  0.42064736  0.27926657  1
  O2-  O247  1  0.95057164  0.41172658  0.60268648  1
  O2-  O248  1  0.95074179  0.42089809  0.93515726  1
  O2-  O249  1  0.96140338  0.91847742  0.26667948  1
  O2-  O250  1  0.95522746  0.92300593  0.60110404  1
  O2-  O251  1  0.95583821  0.91744318  0.93066442  1
  O2-  O252  1  0.33519108  0.28638175  0.26571363  1
  O2-  O253  1  0.33753896  0.28532663  0.60575235  1
  O2-  O254  1  0.33699469  0.28812249  0.92593451  1
  O2-  O255  1  0.32444065  0.80281807  0.26924587  1
  O2-  O256  1  0.32973092  0.80145385  0.59888005  1
  O2-  O257  1  0.33720005  0.79749703  0.93803855  1
  O2-  O258  1  0.83346504  0.29523987  0.27318714  1
  O2-  O259  1  0.83478958  0.29023516  0.60268103  1
  O2-  O260  1  0.82854011  0.28953428  0.93257258  1
  O2-  O261  1  0.83662633  0.79150594  0.26277577  1
  O2-  O262  1  0.83330709  0.79027325  0.59949499  1
  O2-  O263  1  0.82518927  0.79540637  0.93785890  1
  O2-  O264  1  0.41309424  0.04156055  0.06233107  1
  O2-  O265  1  0.42387560  0.04827923  0.39898719  1
  O2-  O266  1  0.41409285  0.04831378  0.73215782  1
  O2-  O267  1  0.42071523  0.54141804  0.06664283  1
  O2-  O268  1  0.41571867  0.54095309  0.39774802  1
  O2-  O269  1  0.41383016  0.53995904  0.72961095  1
  O2-  O270  1  0.91864305  0.04008868  0.06752949  1
  O2-  O271  1  0.91278719  0.04313198  0.39757995  1
  O2-  O272  1  0.92002718  0.05411881  0.72732144  1
  O2-  O273  1  0.91698633  0.54399009  0.07101557  1
  O2-  O274  1  0.91284599  0.54964205  0.40210455  1
  O2-  O275  1  0.90736727  0.53677152  0.72962128  1
  O2-  O276  1  0.29842816  0.16452695  0.05640083  1
  O2-  O277  1  0.28884026  0.16595620  0.40308137  1
  O2-  O278  1  0.28783473  0.15992028  0.73288146  1
  O2-  O279  1  0.29819935  0.67276691  0.06797146  1
  O2-  O280  1  0.30484324  0.66804326  0.39521822  1
  O2-  O281  1  0.30493016  0.66910473  0.72382095  1
  O2-  O282  1  0.78694392  0.16413431  0.07015092  1
  O2-  O283  1  0.79493914  0.16298796  0.39889059  1
  O2-  O284  1  0.79186094  0.16479054  0.73248485  1
  O2-  O285  1  0.78541173  0.66539579  0.07035341  1
  O2-  O286  1  0.79196625  0.66852927  0.39675053  1
  O2-  O287  1  0.79112736  0.66049167  0.72875767  1
