# generated using pymatgen
data_Ca2Al2SiO7
_symmetry_space_group_name_H-M   'P 1'
_cell_length_a   15.45695002
_cell_length_b   15.45637557
_cell_length_c   15.28312434
_cell_angle_alpha   90.00261204
_cell_angle_beta   89.99625128
_cell_angle_gamma   89.98466523
_symmetry_Int_Tables_number   1
_chemical_formula_structural   Ca2Al2SiO7
_chemical_formula_sum   'Ca48 Al48 Si24 O168'
_cell_volume   3651.26701869
_cell_formula_units_Z   24
loop_
 _symmetry_equiv_pos_site_id
 _symmetry_equiv_pos_as_xyz
  1  'x, y, z'
loop_
 _atom_type_symbol
 _atom_type_oxidation_number
  Ca2+  2.0
  Al0+  0.0
  Si0+  0.0
  O2-  -2.0
loop_
 _atom_site_type_symbol
 _atom_site_label
 _atom_site_symmetry_multiplicity
 _atom_site_fract_x
 _atom_site_fract_y
 _atom_site_fract_z
 _atom_site_occupancy
  Ca2+  Ca0  1  0.17232120  0.08385478  0.17486600  1
  Ca2+  Ca1  1  0.17119256  0.07584743  0.50725432  1
  Ca2+  Ca2  1  0.17867801  0.07845315  0.83390214  1
  Ca2+  Ca3  1  0.17436039  0.58019167  0.16787509  1
  Ca2+  Ca4  1  0.16654719  0.58492092  0.50482448  1
  Ca2+  Ca5  1  0.17093094  0.58705003  0.83903023  1
  Ca2+  Ca6  1  0.66375817  0.08326901  0.17230159  1
  Ca2+  Ca7  1  0.66659407  0.07785438  0.50366491  1
  Ca2+  Ca8  1  0.66977769  0.08452643  0.83554523  1
  Ca2+  Ca9  1  0.66669782  0.57932960  0.16955891  1
  Ca2+  Ca10  1  0.65896793  0.57929671  0.50590852  1
  Ca2+  Ca11  1  0.66686579  0.57213144  0.83967634  1
  Ca2+  Ca12  1  0.07958707  0.32703594  0.16278993  1
  Ca2+  Ca13  1  0.07523929  0.32531982  0.49546566  1
  Ca2+  Ca14  1  0.06816872  0.33769161  0.82832708  1
  Ca2+  Ca15  1  0.07772446  0.84085537  0.16885150  1
  Ca2+  Ca16  1  0.07622995  0.84423061  0.49870757  1
  Ca2+  Ca17  1  0.08064023  0.82677170  0.82063365  1
  Ca2+  Ca18  1  0.57842349  0.32379892  0.16048588  1
  Ca2+  Ca19  1  0.58020248  0.32700788  0.49373680  1
  Ca2+  Ca20  1  0.58566919  0.33366862  0.83350461  1
  Ca2+  Ca21  1  0.58254873  0.83264780  0.16846546  1
  Ca2+  Ca22  1  0.57540602  0.83005779  0.49104785  1
  Ca2+  Ca23  1  0.57603235  0.82235570  0.82219915  1
  Ca2+  Ca24  1  0.34851868  0.41920485  0.16731890  1
  Ca2+  Ca25  1  0.33471875  0.41519631  0.50301522  1
  Ca2+  Ca26  1  0.33364904  0.42366380  0.84329745  1
  Ca2+  Ca27  1  0.32985184  0.92265996  0.17550125  1
  Ca2+  Ca28  1  0.32752329  0.91413555  0.50773144  1
  Ca2+  Ca29  1  0.33457761  0.92234727  0.83374868  1
  Ca2+  Ca30  1  0.83181203  0.41797554  0.16367606  1
  Ca2+  Ca31  1  0.82455551  0.41594196  0.51146452  1
  Ca2+  Ca32  1  0.82519735  0.41691065  0.84160841  1
  Ca2+  Ca33  1  0.82539962  0.91619754  0.17820692  1
  Ca2+  Ca34  1  0.83251482  0.91828163  0.50370030  1
  Ca2+  Ca35  1  0.83912709  0.92191806  0.83222805  1
  Ca2+  Ca36  1  0.42607745  0.17074479  0.15807385  1
  Ca2+  Ca37  1  0.41858877  0.17055006  0.49176637  1
  Ca2+  Ca38  1  0.41740850  0.16453925  0.83462291  1
  Ca2+  Ca39  1  0.41841258  0.67046087  0.16683933  1
  Ca2+  Ca40  1  0.42662857  0.67704194  0.49725038  1
  Ca2+  Ca41  1  0.41860267  0.66961682  0.82391402  1
  Ca2+  Ca42  1  0.92606724  0.16737111  0.16215601  1
  Ca2+  Ca43  1  0.91777998  0.16541944  0.49894097  1
  Ca2+  Ca44  1  0.90932035  0.17781349  0.82750787  1
  Ca2+  Ca45  1  0.91207452  0.67123505  0.16381606  1
  Ca2+  Ca46  1  0.92186554  0.67907732  0.49896107  1
  Ca2+  Ca47  1  0.92108493  0.66850025  0.82478979  1
  Al0+  Al48  1  -0.00024813  -0.00067090  -0.00153173  1
  Al0+  Al49  1  0.00096623  0.00114582  0.32779456  1
  Al0+  Al50  1  0.00086964  0.00120321  0.67426519  1
  Al0+  Al51  1  0.00034765  0.50107521  0.00147991  1
  Al0+  Al52  1  0.00077311  0.50197733  0.33494473  1
  Al0+  Al53  1  -0.00187469  0.49943103  0.65690985  1
  Al0+  Al54  1  0.49905566  -0.00027652  -0.00057108  1
  Al0+  Al55  1  0.50066377  0.00009978  0.33171043  1
  Al0+  Al56  1  0.50063879  0.00074017  0.66757133  1
  Al0+  Al57  1  0.50051173  0.49914162  0.00582632  1
  Al0+  Al58  1  0.50152475  0.50176284  0.32977432  1
  Al0+  Al59  1  0.49911889  0.49772399  0.66784856  1
  Al0+  Al60  1  0.25079404  0.24817666  -0.00049937  1
  Al0+  Al61  1  0.24765674  0.25291598  0.32691853  1
  Al0+  Al62  1  0.24898169  0.25046755  0.67249070  1
  Al0+  Al63  1  0.24836330  0.74941464  0.00577096  1
  Al0+  Al64  1  0.24946918  0.74911677  0.33483371  1
  Al0+  Al65  1  0.25064768  0.74870448  0.66398491  1
  Al0+  Al66  1  0.75090522  0.24840746  -0.00091482  1
  Al0+  Al67  1  0.75034789  0.25285481  0.33083589  1
  Al0+  Al68  1  0.74800633  0.25017093  0.66960050  1
  Al0+  Al69  1  0.74979546  0.75024681  0.00021846  1
  Al0+  Al70  1  0.75113254  0.75066009  0.33149933  1
  Al0+  Al71  1  0.75170043  0.74773599  0.66028450  1
  Al0+  Al72  1  0.17907586  0.93015371  0.34741580  1
  Al0+  Al73  1  0.32121825  0.57112964  0.01438020  1
  Al0+  Al74  1  0.06881464  0.17976227  0.32097737  1
  Al0+  Al75  1  0.93187987  0.32019648  0.98685647  1
  Al0+  Al76  1  0.93137683  0.82048862  0.31869867  1
  Al0+  Al77  1  0.57210835  0.68005714  0.31602189  1
  Al0+  Al78  1  0.67832454  0.92953948  0.34713660  1
  Al0+  Al79  1  0.43023827  0.82317483  0.65253046  1
  Al0+  Al80  1  0.57257499  0.17805795  0.31993918  1
  Al0+  Al81  1  0.81976407  0.06982519  0.67974495  1
  Al0+  Al82  1  0.42640071  0.82143014  0.31728286  1
  Al0+  Al83  1  0.82201384  0.57235977  0.01484196  1
  Al0+  Al84  1  0.32105548  0.07013350  0.01647240  1
  Al0+  Al85  1  0.32373443  0.07339570  0.68166554  1
  Al0+  Al86  1  0.57108649  0.67552094  0.65371170  1
  Al0+  Al87  1  0.67811608  0.42988005  0.68028653  1
  Al0+  Al88  1  0.92598825  0.31949016  0.65245163  1
  Al0+  Al89  1  0.42953616  0.32205017  0.98232018  1
  Al0+  Al90  1  0.67976140  0.42696997  0.01850632  1
  Al0+  Al91  1  0.07241253  0.67805532  0.65126966  1
  Al0+  Al92  1  0.57119211  0.17697159  0.98152460  1
  Al0+  Al93  1  0.42834216  0.32131693  0.31943839  1
  Al0+  Al94  1  0.92982333  0.82467196  0.65196198  1
  Al0+  Al95  1  0.17985856  0.92694454  0.68280743  1
  Si0+  Si96  1  0.67820845  0.92507658  0.68255628  1
  Si0+  Si97  1  0.42713121  0.81928993  0.98591205  1
  Si0+  Si98  1  0.07091856  0.68083090  0.98725914  1
  Si0+  Si99  1  0.07284068  0.18022964  0.65270336  1
  Si0+  Si100  1  0.42673504  0.32039402  0.65384413  1
  Si0+  Si101  1  0.32186115  0.56966564  0.35055881  1
  Si0+  Si102  1  0.92747653  0.32522472  0.31652464  1
  Si0+  Si103  1  0.92714783  0.82135715  0.98467038  1
  Si0+  Si104  1  0.07304029  0.17497982  0.98018984  1
  Si0+  Si105  1  0.82292339  0.57224629  0.35104350  1
  Si0+  Si106  1  0.17727011  0.42788238  0.01587846  1
  Si0+  Si107  1  0.17622651  0.42846676  0.68044946  1
  Si0+  Si108  1  0.32132507  0.07402555  0.34832818  1
  Si0+  Si109  1  0.82329906  0.57169824  0.68080166  1
  Si0+  Si110  1  0.07237240  0.67565021  0.31376226  1
  Si0+  Si111  1  0.82232806  0.07336995  0.34746048  1
  Si0+  Si112  1  0.68024025  0.43072001  0.34923506  1
  Si0+  Si113  1  0.17736163  0.92808989  0.01842142  1
  Si0+  Si114  1  0.57152603  0.67959138  0.98564754  1
  Si0+  Si115  1  0.82192055  0.07017092  0.01588936  1
  Si0+  Si116  1  0.17713121  0.42878333  0.34965010  1
  Si0+  Si117  1  0.57094084  0.17974020  0.65239169  1
  Si0+  Si118  1  0.67959259  0.92865766  0.01327720  1
  Si0+  Si119  1  0.31950023  0.56806966  0.67962236  1
  O2-  O120  1  0.24368139  -0.00184453  0.06300158  1
  O2-  O121  1  0.25663466  0.00227987  0.39369680  1
  O2-  O122  1  0.25471209  -0.00272948  0.73081711  1
  O2-  O123  1  0.25144928  0.49069326  0.06061816  1
  O2-  O124  1  0.25035285  0.49780826  0.39185934  1
  O2-  O125  1  0.24473348  0.50147017  0.72284140  1
  O2-  O126  1  0.75061997  -0.00054950  0.05679721  1
  O2-  O127  1  0.75066294  0.00802971  0.39177219  1
  O2-  O128  1  0.74884627  -0.00859500  0.72792759  1
  O2-  O129  1  0.75103684  0.50100945  0.06758401  1
  O2-  O130  1  0.75211457  0.50051934  0.39246396  1
  O2-  O131  1  0.75215122  0.50621969  0.72547386  1
  O2-  O132  1  -0.00573453  0.25463050  0.27349182  1
  O2-  O133  1  0.00119828  0.24506442  0.60681158  1
  O2-  O134  1  0.00612279  0.24602905  0.93743306  1
  O2-  O135  1  0.00564462  0.74597258  0.26968865  1
  O2-  O136  1  0.00427692  0.75441765  0.60251201  1
  O2-  O137  1  -0.00124490  0.75023088  0.94471099  1
  O2-  O138  1  0.49727274  0.24651743  0.27031083  1
  O2-  O139  1  0.49450420  0.24630022  0.61239816  1
  O2-  O140  1  0.50093273  0.25062655  0.93049706  1
  O2-  O141  1  0.50056862  0.75245309  0.26543266  1
  O2-  O142  1  0.50611881  0.75408635  0.60431682  1
  O2-  O143  1  0.49695043  0.74694921  0.94350772  1
  O2-  O144  1  0.06968746  0.17324391  0.08616274  1
  O2-  O145  1  0.06788728  0.18144969  0.43415510  1
  O2-  O146  1  0.07405997  0.18536254  0.75808589  1
  O2-  O147  1  0.07235276  0.68210624  0.09218076  1
  O2-  O148  1  0.06988281  0.67137845  0.41882354  1
  O2-  O149  1  0.07049057  0.67552717  0.76571409  1
  O2-  O150  1  0.57034375  0.17524487  0.09489597  1
  O2-  O151  1  0.57446367  0.18160917  0.43410696  1
  O2-  O152  1  0.57336848  0.18083497  0.75711669  1
  O2-  O153  1  0.57367586  0.68394537  0.09034935  1
  O2-  O154  1  0.56875024  0.67746839  0.42943861  1
  O2-  O155  1  0.56610165  0.67411388  0.76801727  1
  O2-  O156  1  0.17209611  0.43115358  0.24485106  1
  O2-  O157  1  0.17962373  0.42549612  0.57521291  1
  O2-  O158  1  0.17379047  0.43382566  0.91015759  1
  O2-  O159  1  0.17837353  0.93384871  0.23392281  1
  O2-  O160  1  0.17923434  0.93146364  0.56921835  1
  O2-  O161  1  0.17772036  0.92556892  0.91326473  1
  O2-  O162  1  0.68196490  0.43012733  0.24463844  1
  O2-  O163  1  0.67773312  0.42886160  0.56661863  1
  O2-  O164  1  0.68090762  0.42969291  0.90461038  1
  O2-  O165  1  0.68222033  0.92882338  0.23339438  1
  O2-  O166  1  0.67685944  0.92871077  0.57715759  1
  O2-  O167  1  0.68237224  0.92651134  0.90819576  1
  O2-  O168  1  0.43195413  0.31974678  0.09558865  1
  O2-  O169  1  0.42899661  0.32082413  0.43409301  1
  O2-  O170  1  0.42641650  0.32412414  0.75827172  1
  O2-  O171  1  0.42750799  0.81877304  0.09075293  1
  O2-  O172  1  0.42598723  0.81849220  0.43054469  1
  O2-  O173  1  0.43045619  0.81930248  0.76716729  1
  O2-  O174  1  0.93528908  0.31784688  0.10023137  1
  O2-  O175  1  0.92749672  0.32557213  0.42215351  1
  O2-  O176  1  0.92773924  0.32075974  0.76557185  1
  O2-  O177  1  0.92719199  0.82280591  0.08975869  1
  O2-  O178  1  0.93253954  0.82130995  0.43113137  1
  O2-  O179  1  0.93013546  0.82114854  0.76630458  1
  O2-  O180  1  0.31781332  0.07354671  0.24267387  1
  O2-  O181  1  0.32046128  0.07991068  0.56822997  1
  O2-  O182  1  0.32112575  0.06591228  0.90357806  1
  O2-  O183  1  0.32019430  0.56905548  0.24526609  1
  O2-  O184  1  0.32096526  0.56357871  0.57458133  1
  O2-  O185  1  0.31676971  0.57472393  0.90090580  1
  O2-  O186  1  0.82331080  0.07156448  0.24150086  1
  O2-  O187  1  0.81673987  0.07177845  0.56654762  1
  O2-  O188  1  0.82365767  0.06860938  0.91078128  1
  O2-  O189  1  0.82475617  0.56995668  0.24593029  1
  O2-  O190  1  0.82442733  0.56811110  0.57513483  1
  O2-  O191  1  0.82124197  0.57422564  0.90131136  1
  O2-  O192  1  0.03769670  0.08650631  0.26123668  1
  O2-  O193  1  0.04928310  0.08530808  0.61032992  1
  O2-  O194  1  0.04457277  0.08198347  0.93421046  1
  O2-  O195  1  0.04438798  0.58281972  0.26626835  1
  O2-  O196  1  0.04203775  0.58195818  0.59399283  1
  O2-  O197  1  0.04606991  0.58848696  0.93988687  1
  O2-  O198  1  0.54973427  0.07901668  0.26711930  1
  O2-  O199  1  0.54862557  0.08637836  0.60598331  1
  O2-  O200  1  0.54116766  0.07811156  0.92885959  1
  O2-  O201  1  0.54136402  0.58291016  0.26235973  1
  O2-  O202  1  0.53475799  0.57983015  0.59917522  1
  O2-  O203  1  0.54685479  0.58578332  0.94252285  1
  O2-  O204  1  0.16278776  0.21275409  0.26297597  1
  O2-  O205  1  0.16473284  0.21028513  0.60508693  1
  O2-  O206  1  0.16776849  0.19744923  0.93671829  1
  O2-  O207  1  0.16722385  0.69840612  0.27018320  1
  O2-  O208  1  0.17232859  0.69893014  0.59926769  1
  O2-  O209  1  0.16217611  0.71037802  0.93883384  1
  O2-  O210  1  0.67040565  0.20886572  0.26590649  1
  O2-  O211  1  0.65957046  0.21317222  0.60329744  1
  O2-  O212  1  0.67161835  0.20264404  0.93159673  1
  O2-  O213  1  0.67104746  0.70643223  0.26399297  1
  O2-  O214  1  0.67208000  0.69293064  0.60306731  1
  O2-  O215  1  0.66173518  0.71081333  0.93645236  1
  O2-  O216  1  0.08749084  0.46003446  0.06610166  1
  O2-  O217  1  0.08638001  0.45867883  0.39946075  1
  O2-  O218  1  0.08278713  0.45584101  0.72464405  1
  O2-  O219  1  0.08188523  0.95307632  0.06240020  1
  O2-  O220  1  0.08251757  0.96529696  0.39895238  1
  O2-  O221  1  0.08310474  0.95643802  0.73896169  1
  O2-  O222  1  0.58183279  0.45513952  0.07139020  1
  O2-  O223  1  0.58818374  0.45982609  0.39592662  1
  O2-  O224  1  0.58148592  0.45943350  0.73560612  1
  O2-  O225  1  0.58752777  0.95510991  0.06001026  1
  O2-  O226  1  0.58092745  0.95740294  0.40169711  1
  O2-  O227  1  0.58597501  0.95305738  0.73033438  1
  O2-  O228  1  0.19514437  0.33125733  0.05808582  1
  O2-  O229  1  0.20317794  0.33635006  0.39686545  1
  O2-  O230  1  0.20414960  0.33916956  0.73197627  1
  O2-  O231  1  0.20279525  0.83533925  0.06637938  1
  O2-  O232  1  0.20338765  0.83055066  0.39876475  1
  O2-  O233  1  0.20623447  0.82658748  0.73424839  1
  O2-  O234  1  0.71164492  0.32856843  0.06969736  1
  O2-  O235  1  0.70755498  0.33831249  0.39705900  1
  O2-  O236  1  0.71062192  0.33496523  0.73543692  1
  O2-  O237  1  0.70845093  0.83791871  0.06229223  1
  O2-  O238  1  0.71217516  0.83336514  0.40016350  1
  O2-  O239  1  0.70113235  0.82937450  0.72617770  1
  O2-  O240  1  0.46032768  0.41828189  0.26723833  1
  O2-  O241  1  0.45712056  0.41008684  0.60409422  1
  O2-  O242  1  0.45597978  0.42332934  0.93306156  1
  O2-  O243  1  0.45236269  0.92080937  0.26614668  1
  O2-  O244  1  0.45443935  0.92287263  0.60043946  1
  O2-  O245  1  0.45685844  0.90987536  0.93849141  1
  O2-  O246  1  0.95729651  0.41791875  0.27100706  1
  O2-  O247  1  0.95676743  0.41382159  0.59503757  1
  O2-  O248  1  0.96254197  0.41782509  0.93372937  1
  O2-  O249  1  0.96162241  0.91601022  0.26187419  1
  O2-  O250  1  0.95687464  0.92484796  0.60178650  1
  O2-  O251  1  0.95511359  0.91330840  0.93729782  1
  O2-  O252  1  0.32798243  0.30300881  0.26675228  1
  O2-  O253  1  0.33332155  0.29593785  0.60718507  1
  O2-  O254  1  0.32827339  0.29687890  0.93263215  1
  O2-  O255  1  0.32865473  0.78931772  0.26421460  1
  O2-  O256  1  0.33344552  0.79131838  0.60010764  1
  O2-  O257  1  0.33417767  0.79117598  0.94072121  1
  O2-  O258  1  0.83376437  0.30307556  0.27031942  1
  O2-  O259  1  0.83016077  0.28669528  0.59846140  1
  O2-  O260  1  0.83581970  0.28823239  0.93366000  1
  O2-  O261  1  0.83588410  0.78841757  0.26381484  1
  O2-  O262  1  0.83212576  0.79641835  0.59764190  1
  O2-  O263  1  0.83578087  0.79443692  0.93647946  1
  O2-  O264  1  0.41726978  0.03650629  0.06952769  1
  O2-  O265  1  0.41700521  0.05400645  0.39156348  1
  O2-  O266  1  0.42298050  0.04763526  0.73496340  1
  O2-  O267  1  0.41786192  0.54556262  0.07002851  1
  O2-  O268  1  0.41374667  0.54099758  0.39716996  1
  O2-  O269  1  0.40853960  0.53587091  0.72974336  1
  O2-  O270  1  0.91420368  0.04115882  0.06302406  1
  O2-  O271  1  0.91463769  0.04381607  0.39313786  1
  O2-  O272  1  0.91631892  0.04549821  0.73763080  1
  O2-  O273  1  0.92080943  0.54519834  0.06896612  1
  O2-  O274  1  0.91542256  0.54506153  0.39816792  1
  O2-  O275  1  0.91675695  0.54287476  0.72617649  1
  O2-  O276  1  0.29257845  0.16831224  0.06887494  1
  O2-  O277  1  0.29160216  0.16806045  0.39201295  1
  O2-  O278  1  0.29069275  0.16967964  0.73844076  1
  O2-  O279  1  0.28430624  0.66458083  0.07183431  1
  O2-  O280  1  0.29231543  0.66049788  0.39835360  1
  O2-  O281  1  0.29623670  0.66085827  0.72683214  1
  O2-  O282  1  0.79666211  0.16159588  0.06386055  1
  O2-  O283  1  0.80190796  0.16953194  0.39138074  1
  O2-  O284  1  0.78385152  0.16406720  0.73573085  1
  O2-  O285  1  0.79280764  0.67124983  0.06784068  1
  O2-  O286  1  0.79561437  0.66420625  0.39691465  1
  O2-  O287  1  0.80375645  0.66740332  0.72528371  1
