# generated using pymatgen
data_Ca2Al2SiO7
_symmetry_space_group_name_H-M   'P 1'
_cell_length_a   15.45463739
_cell_length_b   15.45513749
_cell_length_c   15.28070047
_cell_angle_alpha   90.00214770
_cell_angle_beta   90.00666779
_cell_angle_gamma   90.00284257
_symmetry_Int_Tables_number   1
_chemical_formula_structural   Ca2Al2SiO7
_chemical_formula_sum   'Ca48 Al48 Si24 O168'
_cell_volume   3649.84945618
_cell_formula_units_Z   24
loop_
 _symmetry_equiv_pos_site_id
 _symmetry_equiv_pos_as_xyz
  1  'x, y, z'
loop_
 _atom_type_symbol
 _atom_type_oxidation_number
  Ca2+  2.0
  Al0+  0.0
  Si0+  0.0
  O2-  -2.0
loop_
 _atom_site_type_symbol
 _atom_site_label
 _atom_site_symmetry_multiplicity
 _atom_site_fract_x
 _atom_site_fract_y
 _atom_site_fract_z
 _atom_site_occupancy
  Ca2+  Ca0  1  0.16093931  0.07763434  0.16907878  1
  Ca2+  Ca1  1  0.17497191  0.09117177  0.50485217  1
  Ca2+  Ca2  1  0.17519466  0.07830093  0.83892031  1
  Ca2+  Ca3  1  0.15873554  0.57382215  0.16910881  1
  Ca2+  Ca4  1  0.16456845  0.57239800  0.50099151  1
  Ca2+  Ca5  1  0.16211317  0.57477561  0.84098699  1
  Ca2+  Ca6  1  0.67665958  0.08486256  0.16953097  1
  Ca2+  Ca7  1  0.67404307  0.08706151  0.50924368  1
  Ca2+  Ca8  1  0.67194201  0.07773634  0.83736465  1
  Ca2+  Ca9  1  0.67514872  0.57944356  0.16997435  1
  Ca2+  Ca10  1  0.65918160  0.57069206  0.50564069  1
  Ca2+  Ca11  1  0.66854288  0.58134455  0.83676860  1
  Ca2+  Ca12  1  0.08359572  0.32879250  0.15926306  1
  Ca2+  Ca13  1  0.08400619  0.33024473  0.49213127  1
  Ca2+  Ca14  1  0.07643686  0.34268309  0.83338517  1
  Ca2+  Ca15  1  0.08027564  0.82167862  0.15369167  1
  Ca2+  Ca16  1  0.08111265  0.82645167  0.49079540  1
  Ca2+  Ca17  1  0.07974002  0.83456614  0.83651370  1
  Ca2+  Ca18  1  0.57815727  0.33314574  0.16473937  1
  Ca2+  Ca19  1  0.58418973  0.32499727  0.49107143  1
  Ca2+  Ca20  1  0.57884432  0.32959176  0.82534078  1
  Ca2+  Ca21  1  0.57904241  0.83644670  0.15721403  1
  Ca2+  Ca22  1  0.58867167  0.83128750  0.50331495  1
  Ca2+  Ca23  1  0.58851793  0.83368171  0.82917616  1
  Ca2+  Ca24  1  0.32626579  0.40793130  0.16991728  1
  Ca2+  Ca25  1  0.32207898  0.40475260  0.50074733  1
  Ca2+  Ca26  1  0.32247639  0.41310833  0.84038385  1
  Ca2+  Ca27  1  0.32874834  0.91124542  0.16452595  1
  Ca2+  Ca28  1  0.33124687  0.92633065  0.50667306  1
  Ca2+  Ca29  1  0.33530676  0.92210111  0.84064098  1
  Ca2+  Ca30  1  0.83422855  0.41866643  0.16691544  1
  Ca2+  Ca31  1  0.81822138  0.41262443  0.50236682  1
  Ca2+  Ca32  1  0.82744733  0.41901882  0.84070773  1
  Ca2+  Ca33  1  0.83569677  0.92377151  0.16596608  1
  Ca2+  Ca34  1  0.82958950  0.93080500  0.50725746  1
  Ca2+  Ca35  1  0.82559946  0.92426616  0.84292305  1
  Ca2+  Ca36  1  0.42255680  0.17780805  0.16391718  1
  Ca2+  Ca37  1  0.42968291  0.16716645  0.49415011  1
  Ca2+  Ca38  1  0.42119710  0.16833595  0.82787448  1
  Ca2+  Ca39  1  0.41980315  0.67172857  0.15865741  1
  Ca2+  Ca40  1  0.42245471  0.66541478  0.50074067  1
  Ca2+  Ca41  1  0.42155892  0.67598647  0.83020673  1
  Ca2+  Ca42  1  0.91601764  0.16842226  0.16249565  1
  Ca2+  Ca43  1  0.91897152  0.16396029  0.49326861  1
  Ca2+  Ca44  1  0.91020168  0.16769984  0.83312002  1
  Ca2+  Ca45  1  0.92519998  0.66672928  0.15477800  1
  Ca2+  Ca46  1  0.92190639  0.66996559  0.49447876  1
  Ca2+  Ca47  1  0.91469546  0.66875205  0.83734226  1
  Al0+  Al48  1  0.00214281  -0.00144604  0.00303103  1
  Al0+  Al49  1  -0.00093858  -0.00055852  0.33482389  1
  Al0+  Al50  1  0.00045506  0.00101299  0.66772563  1
  Al0+  Al51  1  -0.00038163  0.49735046  0.00013450  1
  Al0+  Al52  1  0.00052352  0.50096194  0.33613568  1
  Al0+  Al53  1  -0.00095546  0.50008948  0.66655100  1
  Al0+  Al54  1  0.50063783  0.00065162  0.00102620  1
  Al0+  Al55  1  0.50031262  -0.00037717  0.32924805  1
  Al0+  Al56  1  0.49956222  0.00153715  0.66882696  1
  Al0+  Al57  1  0.49797640  0.49898214  -0.00534014  1
  Al0+  Al58  1  0.49872791  0.50206716  0.33278998  1
  Al0+  Al59  1  0.49630574  0.50176024  0.66653277  1
  Al0+  Al60  1  0.25143275  0.24938527  -0.00044503  1
  Al0+  Al61  1  0.24929237  0.24840089  0.32942369  1
  Al0+  Al62  1  0.24772890  0.24972453  0.67721792  1
  Al0+  Al63  1  0.25279296  0.74907953  -0.00641851  1
  Al0+  Al64  1  0.24972304  0.74803805  0.33188015  1
  Al0+  Al65  1  0.24905750  0.74885402  0.66311671  1
  Al0+  Al66  1  0.75047748  0.24923754  -0.00041932  1
  Al0+  Al67  1  0.75100771  0.24977276  0.33664671  1
  Al0+  Al68  1  0.74965289  0.25261536  0.67074361  1
  Al0+  Al69  1  0.75151783  0.74910994  0.00582624  1
  Al0+  Al70  1  0.74959022  0.75192986  0.33384693  1
  Al0+  Al71  1  0.75071327  0.75009172  0.66135826  1
  Al0+  Al72  1  0.82312971  0.07299865  0.68333413  1
  Al0+  Al73  1  0.42838938  0.32113176  0.98355003  1
  Al0+  Al74  1  0.82006866  0.56908672  0.01291041  1
  Al0+  Al75  1  0.42898418  0.32162306  0.31937758  1
  Al0+  Al76  1  0.07006434  0.67864056  0.31932589  1
  Al0+  Al77  1  0.07112261  0.67723102  0.98280985  1
  Al0+  Al78  1  0.92949959  0.31904819  0.98675592  1
  Al0+  Al79  1  0.17886072  0.43047007  0.68148498  1
  Al0+  Al80  1  0.57066387  0.18087289  0.65395087  1
  Al0+  Al81  1  0.67841137  0.92848836  0.01656987  1
  Al0+  Al82  1  0.68018345  0.92804151  0.68067034  1
  Al0+  Al83  1  0.43070602  0.82174708  0.98600269  1
  Al0+  Al84  1  0.82061978  0.06995567  0.34863712  1
  Al0+  Al85  1  0.32076134  0.07018398  0.67979124  1
  Al0+  Al86  1  0.57130709  0.67903699  0.65268213  1
  Al0+  Al87  1  0.67851544  0.43146280  0.34532342  1
  Al0+  Al88  1  0.57463396  0.17800325  0.31727943  1
  Al0+  Al89  1  0.17997728  0.42969576  0.01520071  1
  Al0+  Al90  1  0.82202449  0.07234632  0.01695313  1
  Al0+  Al91  1  0.18159765  0.92793311  0.01300242  1
  Al0+  Al92  1  0.67625974  0.43000237  0.68045147  1
  Al0+  Al93  1  0.17998694  0.42821033  0.34617360  1
  Al0+  Al94  1  0.92846798  0.82197961  0.98449143  1
  Al0+  Al95  1  0.07111109  0.17847475  0.32063065  1
  Si0+  Si96  1  0.42684531  0.82304350  0.64858701  1
  Si0+  Si97  1  0.07075480  0.67755769  0.64948390  1
  Si0+  Si98  1  0.57361161  0.67757703  0.98464780  1
  Si0+  Si99  1  0.92821479  0.32207971  0.31882132  1
  Si0+  Si100  1  0.32208878  0.57472736  0.35095625  1
  Si0+  Si101  1  0.92782793  0.82199447  0.31665198  1
  Si0+  Si102  1  0.82167904  0.57180127  0.68145689  1
  Si0+  Si103  1  0.57147630  0.67903411  0.31815602  1
  Si0+  Si104  1  0.32083799  0.06979989  0.34642514  1
  Si0+  Si105  1  0.67516567  0.42761041  0.01553988  1
  Si0+  Si106  1  0.57210759  0.17932978  0.98213311  1
  Si0+  Si107  1  0.42894341  0.82105549  0.31920173  1
  Si0+  Si108  1  0.17787109  0.92534081  0.68125831  1
  Si0+  Si109  1  0.32282765  0.07232248  0.01988014  1
  Si0+  Si110  1  0.07308603  0.17642048  0.98220342  1
  Si0+  Si111  1  0.82219549  0.57415957  0.35103757  1
  Si0+  Si112  1  0.42470831  0.32161526  0.65089436  1
  Si0+  Si113  1  0.07092751  0.17959893  0.65380829  1
  Si0+  Si114  1  0.32341674  0.57167104  0.01567796  1
  Si0+  Si115  1  0.67486474  0.92760373  0.35174410  1
  Si0+  Si116  1  0.17986064  0.92694067  0.34754623  1
  Si0+  Si117  1  0.93013290  0.82242738  0.65024783  1
  Si0+  Si118  1  0.32094785  0.57486953  0.68463192  1
  Si0+  Si119  1  0.92923729  0.32266860  0.65066971  1
  O2-  O120  1  0.25414755  0.00299146  0.06350678  1
  O2-  O121  1  0.24891370  -0.00047158  0.39027950  1
  O2-  O122  1  0.24889373  -0.00838998  0.72427381  1
  O2-  O123  1  0.25545756  0.50372884  0.06179485  1
  O2-  O124  1  0.25615988  0.50198784  0.39338623  1
  O2-  O125  1  0.25315848  0.50541639  0.72788028  1
  O2-  O126  1  0.75098650  -0.00072359  0.06701261  1
  O2-  O127  1  0.74257768  -0.00220883  0.39436065  1
  O2-  O128  1  0.75075653  0.00056181  0.73095315  1
  O2-  O129  1  0.74396474  0.49594315  0.05987761  1
  O2-  O130  1  0.75212991  0.50689171  0.39475527  1
  O2-  O131  1  0.74989579  0.50643849  0.72531003  1
  O2-  O132  1  -0.00195097  0.25460875  0.27484979  1
  O2-  O133  1  -0.00132670  0.24886668  0.61029487  1
  O2-  O134  1  0.00297620  0.24360843  0.93784583  1
  O2-  O135  1  -0.00652832  0.75061462  0.27300798  1
  O2-  O136  1  0.00263842  0.75194112  0.60794614  1
  O2-  O137  1  0.00036601  0.75046261  0.93228028  1
  O2-  O138  1  0.50412037  0.25275532  0.26915933  1
  O2-  O139  1  0.49692243  0.25713059  0.60633683  1
  O2-  O140  1  0.50441355  0.24861070  0.93701019  1
  O2-  O141  1  0.50227952  0.75218195  0.27721762  1
  O2-  O142  1  0.49691995  0.75500800  0.60499026  1
  O2-  O143  1  0.50817474  0.74959535  0.94066180  1
  O2-  O144  1  0.07380756  0.17840892  0.08809869  1
  O2-  O145  1  0.07267298  0.17997282  0.43451970  1
  O2-  O146  1  0.07181761  0.17906897  0.75841532  1
  O2-  O147  1  0.06960836  0.67755823  0.09663247  1
  O2-  O148  1  0.06938433  0.68124183  0.43341408  1
  O2-  O149  1  0.07084328  0.67587899  0.75381510  1
  O2-  O150  1  0.57125160  0.18094155  0.08782892  1
  O2-  O151  1  0.57245141  0.17699288  0.43128441  1
  O2-  O152  1  0.56809537  0.18179727  0.76682362  1
  O2-  O153  1  0.57029705  0.67529274  0.09070369  1
  O2-  O154  1  0.57042656  0.67874218  0.42330538  1
  O2-  O155  1  0.57020907  0.67998143  0.76546546  1
  O2-  O156  1  0.17963261  0.42881171  0.23369642  1
  O2-  O157  1  0.17863661  0.42966908  0.56792301  1
  O2-  O158  1  0.18018585  0.43166457  0.90192910  1
  O2-  O159  1  0.18209873  0.92528495  0.24286412  1
  O2-  O160  1  0.17812411  0.92510639  0.57492646  1
  O2-  O161  1  0.18404800  0.93091538  0.89956642  1
  O2-  O162  1  0.67942057  0.43496260  0.23233262  1
  O2-  O163  1  0.67838674  0.42956158  0.56696256  1
  O2-  O164  1  0.67511997  0.42945237  0.90976158  1
  O2-  O165  1  0.67418050  0.92447972  0.24670509  1
  O2-  O166  1  0.68359523  0.92836271  0.56659733  1
  O2-  O167  1  0.67792033  0.92968901  0.90310041  1
  O2-  O168  1  0.42924728  0.32039875  0.09660620  1
  O2-  O169  1  0.42710817  0.31701799  0.43329341  1
  O2-  O170  1  0.42491976  0.31901845  0.75646956  1
  O2-  O171  1  0.43000379  0.81754266  0.09983950  1
  O2-  O172  1  0.42744183  0.82131448  0.42435456  1
  O2-  O173  1  0.42335629  0.82095723  0.75361391  1
  O2-  O174  1  0.93119213  0.31964865  0.10002122  1
  O2-  O175  1  0.92900434  0.32125635  0.42505620  1
  O2-  O176  1  0.93076936  0.32627941  0.75552118  1
  O2-  O177  1  0.93133751  0.81975129  0.09832538  1
  O2-  O178  1  0.93043519  0.82143455  0.42306449  1
  O2-  O179  1  0.93045888  0.82235170  0.75467128  1
  O2-  O180  1  0.32094666  0.06705416  0.24176340  1
  O2-  O181  1  0.31841322  0.07070197  0.56586833  1
  O2-  O182  1  0.32204272  0.07156489  0.91393524  1
  O2-  O183  1  0.32201295  0.58086666  0.24595329  1
  O2-  O184  1  0.31920450  0.57765391  0.57883772  1
  O2-  O185  1  0.32409129  0.57024502  0.91006372  1
  O2-  O186  1  0.82287042  0.06778752  0.23626005  1
  O2-  O187  1  0.82561410  0.07091444  0.56935009  1
  O2-  O188  1  0.81856628  0.07280660  0.90358714  1
  O2-  O189  1  0.82192156  0.57439127  0.24567525  1
  O2-  O190  1  0.82425119  0.56944899  0.57558167  1
  O2-  O191  1  0.81717402  0.56801932  0.89945407  1
  O2-  O192  1  0.04099749  0.08091668  0.26823670  1
  O2-  O193  1  0.04772528  0.08666821  0.60489410  1
  O2-  O194  1  0.05117446  0.08174525  0.93760252  1
  O2-  O195  1  0.04089733  0.58113158  0.26715822  1
  O2-  O196  1  0.03838481  0.58736094  0.60048493  1
  O2-  O197  1  0.03843148  0.57994427  0.93082179  1
  O2-  O198  1  0.54377667  0.08021118  0.26432066  1
  O2-  O199  1  0.53884268  0.08400365  0.59995581  1
  O2-  O200  1  0.54397675  0.08606256  0.93745293  1
  O2-  O201  1  0.54231379  0.58930641  0.26841944  1
  O2-  O202  1  0.53557718  0.58381794  0.59653992  1
  O2-  O203  1  0.54512336  0.58582619  0.93620106  1
  O2-  O204  1  0.16667122  0.20561895  0.26394299  1
  O2-  O205  1  0.16274342  0.21056315  0.60713660  1
  O2-  O206  1  0.16677854  0.20272354  0.93682757  1
  O2-  O207  1  0.16661529  0.71004125  0.26642515  1
  O2-  O208  1  0.16330478  0.70260530  0.60102121  1
  O2-  O209  1  0.16999099  0.70378207  0.93029548  1
  O2-  O210  1  0.67316366  0.20692066  0.26597412  1
  O2-  O211  1  0.66836462  0.21212095  0.60146074  1
  O2-  O212  1  0.66564260  0.20390727  0.93644384  1
  O2-  O213  1  0.66474627  0.70446649  0.27212838  1
  O2-  O214  1  0.66765091  0.70688543  0.59518937  1
  O2-  O215  1  0.66811564  0.70010921  0.94069113  1
  O2-  O216  1  0.08365423  0.45966199  0.06884670  1
  O2-  O217  1  0.08391561  0.46010331  0.40237260  1
  O2-  O218  1  0.08198168  0.46354308  0.73346404  1
  O2-  O219  1  0.08581417  0.95618775  0.06934575  1
  O2-  O220  1  0.08743731  0.95185858  0.39493506  1
  O2-  O221  1  0.08583705  0.95374164  0.72757068  1
  O2-  O222  1  0.58130741  0.45437170  0.06046958  1
  O2-  O223  1  0.58181304  0.46275704  0.39978675  1
  O2-  O224  1  0.57832629  0.45902633  0.73221223  1
  O2-  O225  1  0.57956747  0.95759482  0.06943409  1
  O2-  O226  1  0.57968429  0.95007819  0.39661556  1
  O2-  O227  1  0.57992413  0.95178063  0.73051442  1
  O2-  O228  1  0.21102536  0.33169998  0.06642264  1
  O2-  O229  1  0.21058875  0.33057451  0.40005985  1
  O2-  O230  1  0.20684817  0.33531372  0.73858102  1
  O2-  O231  1  0.21518456  0.83091047  0.06526567  1
  O2-  O232  1  0.21043666  0.83635262  0.39696766  1
  O2-  O233  1  0.19981085  0.83035044  0.72548769  1
  O2-  O234  1  0.70139983  0.33438008  0.06056622  1
  O2-  O235  1  0.71072822  0.33587114  0.40067054  1
  O2-  O236  1  0.70973333  0.33644398  0.73696198  1
  O2-  O237  1  0.70303964  0.82930900  0.06997955  1
  O2-  O238  1  0.70185835  0.83354176  0.39802860  1
  O2-  O239  1  0.70912217  0.82850699  0.73075063  1
  O2-  O240  1  0.45197256  0.42245917  0.26832144  1
  O2-  O241  1  0.44238613  0.41802342  0.60782231  1
  O2-  O242  1  0.45498128  0.41834833  0.92818614  1
  O2-  O243  1  0.45347155  0.91234995  0.26970035  1
  O2-  O244  1  0.45152981  0.91670743  0.60254370  1
  O2-  O245  1  0.45707273  0.92001967  0.93344137  1
  O2-  O246  1  0.95156629  0.41709564  0.27532300  1
  O2-  O247  1  0.95931273  0.41316405  0.60106543  1
  O2-  O248  1  0.96195663  0.41383352  0.93039526  1
  O2-  O249  1  0.95655711  0.91416057  0.27125019  1
  O2-  O250  1  0.95936517  0.91406030  0.60176222  1
  O2-  O251  1  0.95924419  0.92012234  0.93204621  1
  O2-  O252  1  0.33305491  0.28803653  0.26476177  1
  O2-  O253  1  0.33090812  0.29047906  0.60772726  1
  O2-  O254  1  0.33238069  0.28783622  0.92969090  1
  O2-  O255  1  0.33813753  0.79051808  0.27137773  1
  O2-  O256  1  0.33362372  0.79564753  0.60011670  1
  O2-  O257  1  0.33726484  0.78919292  0.92751934  1
  O2-  O258  1  0.83557458  0.29605937  0.27242707  1
  O2-  O259  1  0.83665001  0.29636235  0.60433289  1
  O2-  O260  1  0.83183672  0.29178551  0.93196152  1
  O2-  O261  1  0.83220087  0.80086479  0.27307106  1
  O2-  O262  1  0.84045051  0.79308208  0.59939059  1
  O2-  O263  1  0.82965789  0.79095151  0.93372142  1
  O2-  O264  1  0.41599318  0.04663228  0.06556507  1
  O2-  O265  1  0.41236664  0.03979400  0.39425285  1
  O2-  O266  1  0.41599046  0.04107120  0.73587784  1
  O2-  O267  1  0.41757806  0.54664020  0.06195701  1
  O2-  O268  1  0.41666273  0.55280155  0.39675923  1
  O2-  O269  1  0.41475478  0.55222550  0.73050819  1
  O2-  O270  1  0.92187225  0.04614675  0.06763986  1
  O2-  O271  1  0.91687230  0.03618061  0.40424301  1
  O2-  O272  1  0.92237217  0.04492986  0.73465540  1
  O2-  O273  1  0.91471263  0.53465288  0.06797310  1
  O2-  O274  1  0.91521197  0.54846849  0.39845526  1
  O2-  O275  1  0.91363058  0.54344029  0.72870022  1
  O2-  O276  1  0.29556971  0.16528298  0.06545987  1
  O2-  O277  1  0.29175550  0.16050991  0.39448490  1
  O2-  O278  1  0.28625679  0.16270011  0.73854694  1
  O2-  O279  1  0.29997585  0.66619545  0.06027305  1
  O2-  O280  1  0.29208570  0.66607528  0.40104535  1
  O2-  O281  1  0.29447435  0.66876319  0.73016652  1
  O2-  O282  1  0.79198822  0.17085693  0.06999494  1
  O2-  O283  1  0.79476170  0.16771793  0.40282681  1
  O2-  O284  1  0.79628946  0.17183447  0.73419475  1
  O2-  O285  1  0.79232250  0.66421995  0.07101083  1
  O2-  O286  1  0.79783283  0.66891405  0.39652027  1
  O2-  O287  1  0.79870513  0.66668585  0.72473170  1
