# generated using pymatgen
data_Ca2Al2SiO7
_symmetry_space_group_name_H-M   'P 1'
_cell_length_a   15.45773889
_cell_length_b   15.45809099
_cell_length_c   15.28329425
_cell_angle_alpha   90.00733487
_cell_angle_beta   90.00465448
_cell_angle_gamma   89.99476486
_symmetry_Int_Tables_number   1
_chemical_formula_structural   Ca2Al2SiO7
_chemical_formula_sum   'Ca48 Al48 Si24 O168'
_cell_volume   3651.89930757
_cell_formula_units_Z   24
loop_
 _symmetry_equiv_pos_site_id
 _symmetry_equiv_pos_as_xyz
  1  'x, y, z'
loop_
 _atom_type_symbol
 _atom_type_oxidation_number
  Ca2+  2.0
  Al0+  0.0
  Si0+  0.0
  O2-  -2.0
loop_
 _atom_site_type_symbol
 _atom_site_label
 _atom_site_symmetry_multiplicity
 _atom_site_fract_x
 _atom_site_fract_y
 _atom_site_fract_z
 _atom_site_occupancy
  Ca2+  Ca0  1  0.15986017  0.07592565  0.17193494  1
  Ca2+  Ca1  1  0.15898997  0.07110181  0.50100682  1
  Ca2+  Ca2  1  0.16307112  0.07287728  0.84029046  1
  Ca2+  Ca3  1  0.17135426  0.58541850  0.16961848  1
  Ca2+  Ca4  1  0.16601479  0.59079997  0.50512219  1
  Ca2+  Ca5  1  0.17269583  0.58287824  0.83931646  1
  Ca2+  Ca6  1  0.67791959  0.07734100  0.17242760  1
  Ca2+  Ca7  1  0.66842629  0.08075970  0.50076853  1
  Ca2+  Ca8  1  0.66907724  0.08276444  0.84003938  1
  Ca2+  Ca9  1  0.67491101  0.57474529  0.17711853  1
  Ca2+  Ca10  1  0.67033313  0.57715974  0.50406279  1
  Ca2+  Ca11  1  0.65963994  0.57778938  0.83293638  1
  Ca2+  Ca12  1  0.07530137  0.31751473  0.15698414  1
  Ca2+  Ca13  1  0.07451780  0.32836608  0.49244119  1
  Ca2+  Ca14  1  0.07162505  0.32758856  0.83054769  1
  Ca2+  Ca15  1  0.08077320  0.83692325  0.16854146  1
  Ca2+  Ca16  1  0.08402284  0.82718273  0.49019233  1
  Ca2+  Ca17  1  0.08793482  0.83206483  0.82905267  1
  Ca2+  Ca18  1  0.58283948  0.33461812  0.16186886  1
  Ca2+  Ca19  1  0.58597760  0.33485546  0.50237652  1
  Ca2+  Ca20  1  0.57577036  0.33028336  0.82241423  1
  Ca2+  Ca21  1  0.57590564  0.84406650  0.16281796  1
  Ca2+  Ca22  1  0.58121392  0.83080782  0.49042719  1
  Ca2+  Ca23  1  0.57849669  0.83190136  0.82905663  1
  Ca2+  Ca24  1  0.33854402  0.42363334  0.16799230  1
  Ca2+  Ca25  1  0.33124119  0.41682825  0.50649328  1
  Ca2+  Ca26  1  0.34067390  0.42127948  0.84048242  1
  Ca2+  Ca27  1  0.32525491  0.90877660  0.17063990  1
  Ca2+  Ca28  1  0.32344864  0.91021918  0.50115395  1
  Ca2+  Ca29  1  0.32331229  0.91266327  0.84022622  1
  Ca2+  Ca30  1  0.83240571  0.41989845  0.17453057  1
  Ca2+  Ca31  1  0.82639897  0.41824703  0.50463018  1
  Ca2+  Ca32  1  0.83126059  0.40942532  0.83451565  1
  Ca2+  Ca33  1  0.82735895  0.92367708  0.17555129  1
  Ca2+  Ca34  1  0.83993645  0.92171569  0.49746986  1
  Ca2+  Ca35  1  0.82416496  0.92503767  0.84551508  1
  Ca2+  Ca36  1  0.41895923  0.17406144  0.15923683  1
  Ca2+  Ca37  1  0.42217526  0.16887952  0.49983573  1
  Ca2+  Ca38  1  0.42227486  0.17672080  0.82681561  1
  Ca2+  Ca39  1  0.41580578  0.67755493  0.16204353  1
  Ca2+  Ca40  1  0.42536772  0.67175252  0.49659870  1
  Ca2+  Ca41  1  0.41901927  0.67003323  0.83261136  1
  Ca2+  Ca42  1  0.92177415  0.15842830  0.16233060  1
  Ca2+  Ca43  1  0.91690908  0.16933757  0.49436056  1
  Ca2+  Ca44  1  0.91372007  0.17215120  0.83514694  1
  Ca2+  Ca45  1  0.91618947  0.66958832  0.16966986  1
  Ca2+  Ca46  1  0.92721365  0.67018495  0.48915108  1
  Ca2+  Ca47  1  0.92552177  0.67062607  0.82487596  1
  Al0+  Al48  1  -0.00035497  -0.00229156  0.00177259  1
  Al0+  Al49  1  0.00052730  -0.00160694  0.33542123  1
  Al0+  Al50  1  -0.00112879  0.00031679  0.67471742  1
  Al0+  Al51  1  0.00063832  0.49910774  -0.00316038  1
  Al0+  Al52  1  0.00188989  0.49913583  0.33161582  1
  Al0+  Al53  1  0.00073045  0.50072650  0.65964218  1
  Al0+  Al54  1  0.49612279  -0.00003746  -0.00383556  1
  Al0+  Al55  1  0.49963900  0.00261717  0.33181787  1
  Al0+  Al56  1  0.49817805  0.00210429  0.66394893  1
  Al0+  Al57  1  0.50030501  0.50177596  0.00311206  1
  Al0+  Al58  1  0.49910774  0.50133687  0.33742228  1
  Al0+  Al59  1  0.50030308  0.50192819  0.66302593  1
  Al0+  Al60  1  0.24814679  0.24953729  -0.00944670  1
  Al0+  Al61  1  0.25054498  0.25078759  0.32928630  1
  Al0+  Al62  1  0.24914569  0.24915164  0.66453088  1
  Al0+  Al63  1  0.25215283  0.74876208  0.00409672  1
  Al0+  Al64  1  0.25229757  0.74927926  0.33080892  1
  Al0+  Al65  1  0.24980477  0.74955841  0.66872334  1
  Al0+  Al66  1  0.75062615  0.24970138  0.00188496  1
  Al0+  Al67  1  0.74815465  0.24971900  0.33987821  1
  Al0+  Al68  1  0.74933835  0.25113483  0.66354920  1
  Al0+  Al69  1  0.74921879  0.74745658  0.00231990  1
  Al0+  Al70  1  0.75135102  0.74780025  0.33651354  1
  Al0+  Al71  1  0.75075630  0.75075212  0.66415673  1
  Al0+  Al72  1  0.68050016  0.43140004  0.68279032  1
  Al0+  Al73  1  0.67529371  0.92654698  0.01330006  1
  Al0+  Al74  1  0.43189831  0.82169977  0.31991322  1
  Al0+  Al75  1  0.18212686  0.92980607  0.34701318  1
  Al0+  Al76  1  0.92845433  0.82039918  0.31780454  1
  Al0+  Al77  1  0.67726017  0.42922912  0.35018809  1
  Al0+  Al78  1  0.82207280  0.06935596  0.35094626  1
  Al0+  Al79  1  0.06999432  0.17430577  0.98260348  1
  Al0+  Al80  1  0.18067798  0.92890175  0.01591800  1
  Al0+  Al81  1  0.92971980  0.32011671  0.65078397  1
  Al0+  Al82  1  0.07058295  0.17900096  0.32091006  1
  Al0+  Al83  1  0.42754442  0.32251037  0.65023874  1
  Al0+  Al84  1  0.92759327  0.32231902  0.98545187  1
  Al0+  Al85  1  0.43007536  0.32334227  0.98762863  1
  Al0+  Al86  1  0.57156942  0.17830671  0.65027083  1
  Al0+  Al87  1  0.32128365  0.56859886  0.01464932  1
  Al0+  Al88  1  0.18080258  0.92954421  0.68117602  1
  Al0+  Al89  1  0.81929774  0.07120329  0.01534432  1
  Al0+  Al90  1  0.42863591  0.82095371  0.98526654  1
  Al0+  Al91  1  0.67626403  0.92871669  0.34904377  1
  Al0+  Al92  1  0.07139646  0.68158085  0.65482314  1
  Al0+  Al93  1  0.82476518  0.57065040  0.34959591  1
  Al0+  Al94  1  0.57217929  0.68045247  0.65282907  1
  Al0+  Al95  1  0.07322276  0.67703419  0.31533137  1
  Si0+  Si96  1  0.32330598  0.07369593  0.68446712  1
  Si0+  Si97  1  0.57131109  0.17893585  0.98508508  1
  Si0+  Si98  1  0.07133985  0.67947691  0.98530997  1
  Si0+  Si99  1  0.57152639  0.18017837  0.31670090  1
  Si0+  Si100  1  0.07093086  0.17562008  0.65006366  1
  Si0+  Si101  1  0.17648579  0.42697300  0.01530680  1
  Si0+  Si102  1  0.82480539  0.57142317  0.01321904  1
  Si0+  Si103  1  0.67998561  0.43046408  0.01289454  1
  Si0+  Si104  1  0.92775366  0.82427072  0.65231538  1
  Si0+  Si105  1  0.42898651  0.32272901  0.31766113  1
  Si0+  Si106  1  0.67647930  0.92772997  0.68090632  1
  Si0+  Si107  1  0.57343122  0.67782191  0.98452735  1
  Si0+  Si108  1  0.82391163  0.57280133  0.68416640  1
  Si0+  Si109  1  0.18126965  0.42708719  0.34685884  1
  Si0+  Si110  1  0.57220686  0.67664018  0.31660301  1
  Si0+  Si111  1  0.81929411  0.07122226  0.68332647  1
  Si0+  Si112  1  0.92704606  0.81907551  0.98521949  1
  Si0+  Si113  1  0.92625505  0.32047211  0.31751417  1
  Si0+  Si114  1  0.31951031  0.57093771  0.35074393  1
  Si0+  Si115  1  0.32081267  0.07526280  0.01507159  1
  Si0+  Si116  1  0.31993261  0.56919413  0.68173196  1
  Si0+  Si117  1  0.17669186  0.42728542  0.68078959  1
  Si0+  Si118  1  0.42792049  0.82160565  0.65086700  1
  Si0+  Si119  1  0.32263995  0.07670138  0.34961843  1
  O2-  O120  1  0.25264229  0.00732967  0.06086116  1
  O2-  O121  1  0.25553945  0.00622388  0.39372918  1
  O2-  O122  1  0.25442319  0.00504876  0.72842893  1
  O2-  O123  1  0.24860068  0.49143120  0.06100596  1
  O2-  O124  1  0.24736171  0.50114101  0.39268083  1
  O2-  O125  1  0.25083718  0.49549094  0.72337899  1
  O2-  O126  1  0.74714152  -0.00171130  0.06317784  1
  O2-  O127  1  0.75043609  -0.00309438  0.40188618  1
  O2-  O128  1  0.74693105  -0.00042043  0.72311741  1
  O2-  O129  1  0.75467090  0.49827431  0.05335242  1
  O2-  O130  1  0.75151030  0.49965014  0.39896610  1
  O2-  O131  1  0.75504317  0.50585137  0.73158815  1
  O2-  O132  1  -0.00728163  0.25008765  0.27337330  1
  O2-  O133  1  0.00532291  0.24619175  0.60465523  1
  O2-  O134  1  -0.00179234  0.24858047  0.93559217  1
  O2-  O135  1  -0.00039461  0.74759872  0.26612758  1
  O2-  O136  1  -0.00328592  0.75571060  0.60918093  1
  O2-  O137  1  -0.00061522  0.74920657  0.94250255  1
  O2-  O138  1  0.50131409  0.25322997  0.27562629  1
  O2-  O139  1  0.49890588  0.25031789  0.60011673  1
  O2-  O140  1  0.50314296  0.24798394  0.94058218  1
  O2-  O141  1  0.51089559  0.75152372  0.27200940  1
  O2-  O142  1  0.50201313  0.75945012  0.60647012  1
  O2-  O143  1  0.50848234  0.75052857  0.94059287  1
  O2-  O144  1  0.06953988  0.17591613  0.09636505  1
  O2-  O145  1  0.07183132  0.18304398  0.43426963  1
  O2-  O146  1  0.06886887  0.17544307  0.75536292  1
  O2-  O147  1  0.07016544  0.67789416  0.08983313  1
  O2-  O148  1  0.07509632  0.68003855  0.42917985  1
  O2-  O149  1  0.07228493  0.68192508  0.76859640  1
  O2-  O150  1  0.57087389  0.18126137  0.09090078  1
  O2-  O151  1  0.56967339  0.17880159  0.42146058  1
  O2-  O152  1  0.57047067  0.17892529  0.76439304  1
  O2-  O153  1  0.57274996  0.67324467  0.08965196  1
  O2-  O154  1  0.56601817  0.67415398  0.42225084  1
  O2-  O155  1  0.56887091  0.68086464  0.76629288  1
  O2-  O156  1  0.18650009  0.42572498  0.24205901  1
  O2-  O157  1  0.17758249  0.42864896  0.57541892  1
  O2-  O158  1  0.17459246  0.43210118  0.90945410  1
  O2-  O159  1  0.18364350  0.93016412  0.23416551  1
  O2-  O160  1  0.18163321  0.92852965  0.56824092  1
  O2-  O161  1  0.18259773  0.92667620  0.90233426  1
  O2-  O162  1  0.67567273  0.43035733  0.23556135  1
  O2-  O163  1  0.68143800  0.43349447  0.57046504  1
  O2-  O164  1  0.67729037  0.43203963  0.90802693  1
  O2-  O165  1  0.67404053  0.93497996  0.23572958  1
  O2-  O166  1  0.67673110  0.92701789  0.57634005  1
  O2-  O167  1  0.67827220  0.92641856  0.89871962  1
  O2-  O168  1  0.43425965  0.32370616  0.10123078  1
  O2-  O169  1  0.42608784  0.32208262  0.42230928  1
  O2-  O170  1  0.43005687  0.32284590  0.76401923  1
  O2-  O171  1  0.42736066  0.81757637  0.09808216  1
  O2-  O172  1  0.43003013  0.81684180  0.43337464  1
  O2-  O173  1  0.42671224  0.81866672  0.75659548  1
  O2-  O174  1  0.92964449  0.32706208  0.09863911  1
  O2-  O175  1  0.92951996  0.32054305  0.42331513  1
  O2-  O176  1  0.93036941  0.31871913  0.76383002  1
  O2-  O177  1  0.92563811  0.81717978  0.08968310  1
  O2-  O178  1  0.93364989  0.82112793  0.43185784  1
  O2-  O179  1  0.92693951  0.82264649  0.75849040  1
  O2-  O180  1  0.32204631  0.08093918  0.24422386  1
  O2-  O181  1  0.32402407  0.07326688  0.57887999  1
  O2-  O182  1  0.32116114  0.07374784  0.90947968  1
  O2-  O183  1  0.32171165  0.56862666  0.24570530  1
  O2-  O184  1  0.31768438  0.57086973  0.57647689  1
  O2-  O185  1  0.32012023  0.56875018  0.90107234  1
  O2-  O186  1  0.82013942  0.07046453  0.23762755  1
  O2-  O187  1  0.82291205  0.06915590  0.57862483  1
  O2-  O188  1  0.81587417  0.07100720  0.90092030  1
  O2-  O189  1  0.82312588  0.56665565  0.23486888  1
  O2-  O190  1  0.82353150  0.57104393  0.57920805  1
  O2-  O191  1  0.82578557  0.57433533  0.90827434  1
  O2-  O192  1  0.04245821  0.08170215  0.26886104  1
  O2-  O193  1  0.04081898  0.08226107  0.60580258  1
  O2-  O194  1  0.04007155  0.07610329  0.92961491  1
  O2-  O195  1  0.04838366  0.57678054  0.26335108  1
  O2-  O196  1  0.04422772  0.58547491  0.59875591  1
  O2-  O197  1  0.04521909  0.58758762  0.93662828  1
  O2-  O198  1  0.54185768  0.09033551  0.26714153  1
  O2-  O199  1  0.54221987  0.08021855  0.59584299  1
  O2-  O200  1  0.54543156  0.08628399  0.93741908  1
  O2-  O201  1  0.53817082  0.58550045  0.26937076  1
  O2-  O202  1  0.53645928  0.58725057  0.59681146  1
  O2-  O203  1  0.54082796  0.58679177  0.93655933  1
  O2-  O204  1  0.16608679  0.21238503  0.26534109  1
  O2-  O205  1  0.16607640  0.19635617  0.60585898  1
  O2-  O206  1  0.16773604  0.20173910  0.92732841  1
  O2-  O207  1  0.17170789  0.70608937  0.26361608  1
  O2-  O208  1  0.16805298  0.71177906  0.60049117  1
  O2-  O209  1  0.16314398  0.70875278  0.93918849  1
  O2-  O210  1  0.66353611  0.20861390  0.27007358  1
  O2-  O211  1  0.66865387  0.20724865  0.59683188  1
  O2-  O212  1  0.66479627  0.20450281  0.93960949  1
  O2-  O213  1  0.66926870  0.69132926  0.27536623  1
  O2-  O214  1  0.67013468  0.70596288  0.59933738  1
  O2-  O215  1  0.66823698  0.69711225  0.93736905  1
  O2-  O216  1  0.08489219  0.45695745  0.06309531  1
  O2-  O217  1  0.08756603  0.44933033  0.39250185  1
  O2-  O218  1  0.08621333  0.45939443  0.72821930  1
  O2-  O219  1  0.08234852  0.95524536  0.06739795  1
  O2-  O220  1  0.08607011  0.95897660  0.40209111  1
  O2-  O221  1  0.08369752  0.95801388  0.73675731  1
  O2-  O222  1  0.59079578  0.46192688  0.06335213  1
  O2-  O223  1  0.57919999  0.45972431  0.40354031  1
  O2-  O224  1  0.58258256  0.46456872  0.73443750  1
  O2-  O225  1  0.57513737  0.95429760  0.06208554  1
  O2-  O226  1  0.57828449  0.96104992  0.40216262  1
  O2-  O227  1  0.58325335  0.95444022  0.72688128  1
  O2-  O228  1  0.19824928  0.33084877  0.05685263  1
  O2-  O229  1  0.21323812  0.33760233  0.39686769  1
  O2-  O230  1  0.19970804  0.33364526  0.72696712  1
  O2-  O231  1  0.21474326  0.83361829  0.06956854  1
  O2-  O232  1  0.21642865  0.83308364  0.39977798  1
  O2-  O233  1  0.21368584  0.83335892  0.73626427  1
  O2-  O234  1  0.70360560  0.33806129  0.06085714  1
  O2-  O235  1  0.70173910  0.33063749  0.40320010  1
  O2-  O236  1  0.71044688  0.33326106  0.73464434  1
  O2-  O237  1  0.70118509  0.82692862  0.06493743  1
  O2-  O238  1  0.69750679  0.82704536  0.39725774  1
  O2-  O239  1  0.70479625  0.83594125  0.72887201  1
  O2-  O240  1  0.45634273  0.41575710  0.27198413  1
  O2-  O241  1  0.45522311  0.42076807  0.59761887  1
  O2-  O242  1  0.46296133  0.41968530  0.93433682  1
  O2-  O243  1  0.45516690  0.92072687  0.26659671  1
  O2-  O244  1  0.44500994  0.91755190  0.60752631  1
  O2-  O245  1  0.45145533  0.91878880  0.92934265  1
  O2-  O246  1  0.95431090  0.41315422  0.27159119  1
  O2-  O247  1  0.96080010  0.41600750  0.59609797  1
  O2-  O248  1  0.95761359  0.41976780  0.92935869  1
  O2-  O249  1  0.95924107  0.91805107  0.26526309  1
  O2-  O250  1  0.95402069  0.91845319  0.60872654  1
  O2-  O251  1  0.95428588  0.91049431  0.93749456  1
  O2-  O252  1  0.33866683  0.29448188  0.26764130  1
  O2-  O253  1  0.32780678  0.29548070  0.59808783  1
  O2-  O254  1  0.33266938  0.29853231  0.93285152  1
  O2-  O255  1  0.33839213  0.78404114  0.26495612  1
  O2-  O256  1  0.33723346  0.78763473  0.60435202  1
  O2-  O257  1  0.33427500  0.78197253  0.93103938  1
  O2-  O258  1  0.83046638  0.29850756  0.27493434  1
  O2-  O259  1  0.83390658  0.28933043  0.59727757  1
  O2-  O260  1  0.82850911  0.29411627  0.93266978  1
  O2-  O261  1  0.82873474  0.79312064  0.26584499  1
  O2-  O262  1  0.83453067  0.80124464  0.60529914  1
  O2-  O263  1  0.83565773  0.78971220  0.93662900  1
  O2-  O264  1  0.41502850  0.05114019  0.06054662  1
  O2-  O265  1  0.41645531  0.05210144  0.39495510  1
  O2-  O266  1  0.41719737  0.04907520  0.73122254  1
  O2-  O267  1  0.41727105  0.53895619  0.07142354  1
  O2-  O268  1  0.41015867  0.54146376  0.39950106  1
  O2-  O269  1  0.41220478  0.54355443  0.72871768  1
  O2-  O270  1  0.91730534  0.04072232  0.06601419  1
  O2-  O271  1  0.91994801  0.04094417  0.40531707  1
  O2-  O272  1  0.90972287  0.04344601  0.73402981  1
  O2-  O273  1  0.91648381  0.54453067  0.06121065  1
  O2-  O274  1  0.92425400  0.54249539  0.40125448  1
  O2-  O275  1  0.91852904  0.54607757  0.72849545  1
  O2-  O276  1  0.29738411  0.17051727  0.05969099  1
  O2-  O277  1  0.29603231  0.16976491  0.39708615  1
  O2-  O278  1  0.29818655  0.16813595  0.72988010  1
  O2-  O279  1  0.28749376  0.66269313  0.07041110  1
  O2-  O280  1  0.29264060  0.66223863  0.39881184  1
  O2-  O281  1  0.28953894  0.65965619  0.73079502  1
  O2-  O282  1  0.79302676  0.16995863  0.06939233  1
  O2-  O283  1  0.79245951  0.16756451  0.40351396  1
  O2-  O284  1  0.79015545  0.16294218  0.72925224  1
  O2-  O285  1  0.79525643  0.66115050  0.06343220  1
  O2-  O286  1  0.79997443  0.66925460  0.40287508  1
  O2-  O287  1  0.80024981  0.66817587  0.72879408  1
