# generated using pymatgen
data_Ca2Al2SiO7
_symmetry_space_group_name_H-M   'P 1'
_cell_length_a   15.46195482
_cell_length_b   15.46099267
_cell_length_c   15.28603436
_cell_angle_alpha   89.99723854
_cell_angle_beta   89.99054207
_cell_angle_gamma   90.00437618
_symmetry_Int_Tables_number   1
_chemical_formula_structural   Ca2Al2SiO7
_chemical_formula_sum   'Ca48 Al48 Si24 O168'
_cell_volume   3654.23605119
_cell_formula_units_Z   24
loop_
 _symmetry_equiv_pos_site_id
 _symmetry_equiv_pos_as_xyz
  1  'x, y, z'
loop_
 _atom_type_symbol
 _atom_type_oxidation_number
  Ca2+  2.0
  Al0+  0.0
  Si0+  0.0
  O2-  -2.0
loop_
 _atom_site_type_symbol
 _atom_site_label
 _atom_site_symmetry_multiplicity
 _atom_site_fract_x
 _atom_site_fract_y
 _atom_site_fract_z
 _atom_site_occupancy
  Ca2+  Ca0  1  0.16082256  0.07642301  0.17079295  1
  Ca2+  Ca1  1  0.17236433  0.07131874  0.50820678  1
  Ca2+  Ca2  1  0.17261193  0.08061799  0.83559314  1
  Ca2+  Ca3  1  0.17477625  0.58397084  0.16371886  1
  Ca2+  Ca4  1  0.17930131  0.58152312  0.50429651  1
  Ca2+  Ca5  1  0.17519967  0.58062666  0.84156516  1
  Ca2+  Ca6  1  0.66841404  0.08457373  0.16787469  1
  Ca2+  Ca7  1  0.67071411  0.08950558  0.50440795  1
  Ca2+  Ca8  1  0.66087606  0.08601646  0.83796160  1
  Ca2+  Ca9  1  0.67629836  0.57999112  0.16776256  1
  Ca2+  Ca10  1  0.67484957  0.57728471  0.51144882  1
  Ca2+  Ca11  1  0.66728581  0.57738474  0.83871102  1
  Ca2+  Ca12  1  0.07905462  0.33258743  0.15732335  1
  Ca2+  Ca13  1  0.07536550  0.33317468  0.49239181  1
  Ca2+  Ca14  1  0.09000243  0.33211896  0.83512415  1
  Ca2+  Ca15  1  0.07858616  0.82694042  0.15712380  1
  Ca2+  Ca16  1  0.08926809  0.83521349  0.49786154  1
  Ca2+  Ca17  1  0.07993315  0.82789989  0.83395858  1
  Ca2+  Ca18  1  0.57477569  0.33322680  0.15900884  1
  Ca2+  Ca19  1  0.58201888  0.33329283  0.49892248  1
  Ca2+  Ca20  1  0.58937383  0.32973273  0.83116119  1
  Ca2+  Ca21  1  0.57521483  0.82994852  0.15735171  1
  Ca2+  Ca22  1  0.57723927  0.82584504  0.50300456  1
  Ca2+  Ca23  1  0.57076325  0.82355300  0.82628751  1
  Ca2+  Ca24  1  0.33529033  0.42099305  0.16733666  1
  Ca2+  Ca25  1  0.34283770  0.42517155  0.50089421  1
  Ca2+  Ca26  1  0.33452878  0.42760609  0.84427027  1
  Ca2+  Ca27  1  0.32695483  0.91616489  0.17149773  1
  Ca2+  Ca28  1  0.32393862  0.91801231  0.51159815  1
  Ca2+  Ca29  1  0.33780007  0.91672252  0.83405853  1
  Ca2+  Ca30  1  0.83186462  0.42327103  0.17014759  1
  Ca2+  Ca31  1  0.83180184  0.42429119  0.50763224  1
  Ca2+  Ca32  1  0.82070248  0.42681006  0.83881734  1
  Ca2+  Ca33  1  0.83657287  0.92177526  0.16983013  1
  Ca2+  Ca34  1  0.83226986  0.92571721  0.50174757  1
  Ca2+  Ca35  1  0.83196852  0.91514245  0.83946438  1
  Ca2+  Ca36  1  0.42006477  0.18016563  0.15567931  1
  Ca2+  Ca37  1  0.41986308  0.16978775  0.49762595  1
  Ca2+  Ca38  1  0.42553186  0.17350090  0.82770085  1
  Ca2+  Ca39  1  0.40913470  0.67070732  0.15940071  1
  Ca2+  Ca40  1  0.41694718  0.66194053  0.50055193  1
  Ca2+  Ca41  1  0.41107516  0.67172058  0.82572030  1
  Ca2+  Ca42  1  0.91949516  0.17104663  0.16295489  1
  Ca2+  Ca43  1  0.91475555  0.17446459  0.49072377  1
  Ca2+  Ca44  1  0.92586563  0.16771008  0.83247515  1
  Ca2+  Ca45  1  0.92014322  0.66715588  0.15515855  1
  Ca2+  Ca46  1  0.91576277  0.66286616  0.49504975  1
  Ca2+  Ca47  1  0.91870748  0.65835255  0.83296487  1
  Al0+  Al48  1  -0.00001004  0.00064242  -0.00771217  1
  Al0+  Al49  1  -0.00171636  -0.00123409  0.34265970  1
  Al0+  Al50  1  0.00074506  -0.00048768  0.66895302  1
  Al0+  Al51  1  0.00140890  0.50005784  0.00113082  1
  Al0+  Al52  1  0.00129835  0.50014938  0.33150659  1
  Al0+  Al53  1  -0.00007310  0.50035664  0.66827002  1
  Al0+  Al54  1  0.49991654  0.00019955  -0.00413391  1
  Al0+  Al55  1  0.49976623  -0.00244862  0.33308712  1
  Al0+  Al56  1  0.50060470  0.00088080  0.65957987  1
  Al0+  Al57  1  0.50121697  0.50122977  0.00690300  1
  Al0+  Al58  1  0.50178098  0.49989572  0.33217715  1
  Al0+  Al59  1  0.50122021  0.49922477  0.67089226  1
  Al0+  Al60  1  0.25083515  0.25006785  -0.00430072  1
  Al0+  Al61  1  0.25014638  0.24885965  0.32945784  1
  Al0+  Al62  1  0.25002104  0.24708596  0.66591007  1
  Al0+  Al63  1  0.24645549  0.75170410  -0.00439935  1
  Al0+  Al64  1  0.24958712  0.74872031  0.34091004  1
  Al0+  Al65  1  0.24562265  0.74981516  0.66970092  1
  Al0+  Al66  1  0.75114390  0.24976018  0.00131005  1
  Al0+  Al67  1  0.75062326  0.24942909  0.33161255  1
  Al0+  Al68  1  0.75113390  0.25117677  0.66631017  1
  Al0+  Al69  1  0.74764174  0.75344074  0.00169256  1
  Al0+  Al70  1  0.74959260  0.75004874  0.33649205  1
  Al0+  Al71  1  0.75183842  0.75274155  0.66414572  1
  Al0+  Al72  1  0.82279887  0.57091082  0.34733723  1
  Al0+  Al73  1  0.92923833  0.32226342  0.31908306  1
  Al0+  Al74  1  0.32113168  0.56886675  0.34771954  1
  Al0+  Al75  1  0.82016194  0.57322638  0.01528963  1
  Al0+  Al76  1  0.82245314  0.57396132  0.68208365  1
  Al0+  Al77  1  0.06914080  0.67734794  0.98409412  1
  Al0+  Al78  1  0.42629838  0.81900880  0.64956173  1
  Al0+  Al79  1  0.57199192  0.18030979  0.98585529  1
  Al0+  Al80  1  0.57225732  0.18024802  0.65099065  1
  Al0+  Al81  1  0.07145815  0.17896340  0.98630413  1
  Al0+  Al82  1  0.57201151  0.67671851  0.65195319  1
  Al0+  Al83  1  0.32032196  0.56844022  0.67990704  1
  Al0+  Al84  1  0.17789453  0.92873481  0.68677142  1
  Al0+  Al85  1  0.81797121  0.07031507  0.34605498  1
  Al0+  Al86  1  0.92684827  0.82128248  0.98579015  1
  Al0+  Al87  1  0.67906343  0.42653652  0.01866872  1
  Al0+  Al88  1  0.32379140  0.07107537  0.68267112  1
  Al0+  Al89  1  0.42961512  0.32133279  0.31913183  1
  Al0+  Al90  1  0.42963801  0.32433991  0.98372146  1
  Al0+  Al91  1  0.18021126  0.92992042  0.34579200  1
  Al0+  Al92  1  0.67958350  0.42842464  0.68139855  1
  Al0+  Al93  1  0.42698256  0.82023200  0.98810059  1
  Al0+  Al94  1  0.32069480  0.57397728  0.01490327  1
  Al0+  Al95  1  0.18017011  0.42610371  0.01517998  1
  Si0+  Si96  1  0.17779570  0.93182347  0.01466387  1
  Si0+  Si97  1  0.82056579  0.07196809  0.68271209  1
  Si0+  Si98  1  0.07169759  0.17688543  0.64934068  1
  Si0+  Si99  1  0.57189890  0.67918767  0.98647223  1
  Si0+  Si100  1  0.17636236  0.42640447  0.68056618  1
  Si0+  Si101  1  0.32369120  0.07332378  0.34799791  1
  Si0+  Si102  1  0.67485422  0.92646278  0.35160599  1
  Si0+  Si103  1  0.42627925  0.32197999  0.65010824  1
  Si0+  Si104  1  0.06977348  0.17605592  0.31915344  1
  Si0+  Si105  1  0.67711757  0.93122433  0.01424775  1
  Si0+  Si106  1  0.92886109  0.82413277  0.64800893  1
  Si0+  Si107  1  0.67974833  0.93013014  0.68097588  1
  Si0+  Si108  1  0.93182426  0.31936165  0.65268787  1
  Si0+  Si109  1  0.32276853  0.07003114  0.01474047  1
  Si0+  Si110  1  0.17807148  0.42527795  0.34889625  1
  Si0+  Si111  1  0.57235362  0.67976114  0.31785558  1
  Si0+  Si112  1  0.57204534  0.17577415  0.31632509  1
  Si0+  Si113  1  0.67939724  0.42867009  0.35020517  1
  Si0+  Si114  1  0.06811275  0.67841113  0.64927656  1
  Si0+  Si115  1  0.92841605  0.82143214  0.32064983  1
  Si0+  Si116  1  0.42751832  0.81891893  0.31925844  1
  Si0+  Si117  1  0.82349947  0.06988706  0.01364532  1
  Si0+  Si118  1  0.07203267  0.68022547  0.31960665  1
  Si0+  Si119  1  0.92816881  0.32277596  0.98218082  1
  O2-  O120  1  0.24971342  0.00120423  0.05825510  1
  O2-  O121  1  0.25498061  0.00464349  0.39179842  1
  O2-  O122  1  0.25394115  -0.00237017  0.73452268  1
  O2-  O123  1  0.25228284  0.49812763  0.06520001  1
  O2-  O124  1  0.24983528  0.49014907  0.39381227  1
  O2-  O125  1  0.24943263  0.48967149  0.72406180  1
  O2-  O126  1  0.75021242  0.00089937  0.05566519  1
  O2-  O127  1  0.74081909  -0.00113448  0.39447809  1
  O2-  O128  1  0.74923351  0.00206480  0.72505193  1
  O2-  O129  1  0.75187495  0.49895685  0.06733766  1
  O2-  O130  1  0.75056996  0.49464396  0.39465601  1
  O2-  O131  1  0.74528140  0.50706563  0.72969647  1
  O2-  O132  1  0.00540713  0.24781582  0.27379681  1
  O2-  O133  1  0.00341812  0.25018336  0.60743591  1
  O2-  O134  1  0.00030952  0.25684931  0.93841400  1
  O2-  O135  1  -0.00312774  0.74826707  0.27878644  1
  O2-  O136  1  -0.00262968  0.75020264  0.60646295  1
  O2-  O137  1  -0.00783633  0.74470602  0.93408077  1
  O2-  O138  1  0.50135583  0.24257045  0.27375392  1
  O2-  O139  1  0.49552335  0.25327916  0.60551521  1
  O2-  O140  1  0.50456667  0.25506029  0.93425344  1
  O2-  O141  1  0.49981285  0.75003476  0.27595334  1
  O2-  O142  1  0.49607380  0.74426374  0.59943486  1
  O2-  O143  1  0.49618524  0.74021941  0.94297553  1
  O2-  O144  1  0.06562740  0.17362997  0.09962666  1
  O2-  O145  1  0.06747956  0.17668048  0.42498314  1
  O2-  O146  1  0.06999170  0.17633722  0.75423785  1
  O2-  O147  1  0.07172003  0.68329158  0.09850399  1
  O2-  O148  1  0.07251190  0.68151896  0.42499721  1
  O2-  O149  1  0.06646093  0.67669034  0.75369113  1
  O2-  O150  1  0.56847263  0.17612853  0.09973810  1
  O2-  O151  1  0.57242689  0.17590510  0.42194589  1
  O2-  O152  1  0.57463662  0.18152670  0.76335892  1
  O2-  O153  1  0.57514372  0.68581275  0.09258681  1
  O2-  O154  1  0.57302464  0.68092880  0.42267835  1
  O2-  O155  1  0.57328745  0.68102020  0.76525832  1
  O2-  O156  1  0.17638664  0.42593556  0.24403095  1
  O2-  O157  1  0.17153687  0.42922947  0.57461684  1
  O2-  O158  1  0.18207939  0.42685783  0.90121257  1
  O2-  O159  1  0.17959544  0.93005549  0.23228609  1
  O2-  O160  1  0.17610860  0.93228834  0.57245813  1
  O2-  O161  1  0.17661044  0.93385266  0.91030869  1
  O2-  O162  1  0.67998818  0.43087428  0.24504673  1
  O2-  O163  1  0.68464203  0.42539441  0.56724569  1
  O2-  O164  1  0.68188885  0.42545797  0.90537909  1
  O2-  O165  1  0.67406725  0.92540243  0.24588317  1
  O2-  O166  1  0.68379259  0.93087666  0.57556240  1
  O2-  O167  1  0.67660687  0.93198728  0.90936055  1
  O2-  O168  1  0.42937262  0.31967913  0.09783345  1
  O2-  O169  1  0.43245245  0.32105381  0.43247639  1
  O2-  O170  1  0.42410137  0.32055200  0.75492817  1
  O2-  O171  1  0.42898722  0.82273777  0.10227622  1
  O2-  O172  1  0.42799663  0.81901284  0.42375239  1
  O2-  O173  1  0.42983262  0.81890165  0.76307183  1
  O2-  O174  1  0.92781094  0.31904492  0.08808024  1
  O2-  O175  1  0.93074304  0.32050405  0.43290784  1
  O2-  O176  1  0.93339909  0.31635774  0.75733877  1
  O2-  O177  1  0.93146161  0.82586031  0.10008746  1
  O2-  O178  1  0.92905555  0.82250978  0.42577596  1
  O2-  O179  1  0.92886814  0.82877997  0.75237754  1
  O2-  O180  1  0.32384399  0.07118697  0.24225097  1
  O2-  O181  1  0.31881478  0.07234918  0.56827286  1
  O2-  O182  1  0.32363889  0.06704277  0.91017003  1
  O2-  O183  1  0.31773359  0.57416420  0.23558177  1
  O2-  O184  1  0.31833875  0.56652196  0.56613609  1
  O2-  O185  1  0.31753599  0.57538223  0.90153021  1
  O2-  O186  1  0.82042137  0.06685899  0.23296535  1
  O2-  O187  1  0.82077831  0.07143441  0.57728633  1
  O2-  O188  1  0.82479052  0.06846848  0.90842685  1
  O2-  O189  1  0.82141084  0.57356708  0.23489236  1
  O2-  O190  1  0.82487363  0.56881725  0.56801337  1
  O2-  O191  1  0.81588119  0.57305379  0.90204793  1
  O2-  O192  1  0.03840234  0.08307499  0.27460224  1
  O2-  O193  1  0.03937979  0.08617571  0.60218327  1
  O2-  O194  1  0.03545742  0.08660495  0.92748108  1
  O2-  O195  1  0.04866234  0.58771284  0.27249385  1
  O2-  O196  1  0.04041582  0.58645166  0.60063972  1
  O2-  O197  1  0.04721122  0.57747162  0.93135292  1
  O2-  O198  1  0.55023682  0.07988946  0.27199580  1
  O2-  O199  1  0.54586986  0.08367705  0.59432592  1
  O2-  O200  1  0.54110718  0.08301378  0.93192104  1
  O2-  O201  1  0.54697818  0.58769545  0.27107198  1
  O2-  O202  1  0.54789845  0.57638784  0.60014009  1
  O2-  O203  1  0.55576359  0.58260467  0.94574286  1
  O2-  O204  1  0.16529215  0.19398102  0.27423051  1
  O2-  O205  1  0.16410032  0.20089156  0.60120582  1
  O2-  O206  1  0.16804350  0.20489362  0.93076192  1
  O2-  O207  1  0.16242373  0.71331849  0.27278885  1
  O2-  O208  1  0.15927799  0.70744186  0.60124466  1
  O2-  O209  1  0.16352455  0.71327475  0.92867020  1
  O2-  O210  1  0.66562893  0.20106857  0.27054166  1
  O2-  O211  1  0.66953599  0.21240874  0.59668640  1
  O2-  O212  1  0.67336443  0.20144518  0.93525490  1
  O2-  O213  1  0.66333954  0.71101141  0.27002560  1
  O2-  O214  1  0.66938481  0.71142801  0.59774970  1
  O2-  O215  1  0.66117751  0.71342543  0.93781573  1
  O2-  O216  1  0.08087430  0.45281195  0.06719528  1
  O2-  O217  1  0.08626458  0.45551397  0.39659071  1
  O2-  O218  1  0.08553801  0.45598420  0.72934868  1
  O2-  O219  1  0.08619853  0.96287281  0.06157151  1
  O2-  O220  1  0.08487325  0.95908819  0.40343240  1
  O2-  O221  1  0.08023591  0.96194490  0.73826096  1
  O2-  O222  1  0.58175175  0.45541956  0.07308344  1
  O2-  O223  1  0.58725928  0.45741849  0.39707001  1
  O2-  O224  1  0.58005703  0.44855917  0.73388869  1
  O2-  O225  1  0.58697098  0.96169506  0.06455782  1
  O2-  O226  1  0.58030366  0.94831770  0.39775568  1
  O2-  O227  1  0.58712990  0.95665173  0.72555083  1
  O2-  O228  1  0.20521774  0.32595800  0.06758986  1
  O2-  O229  1  0.19816156  0.32937295  0.39368750  1
  O2-  O230  1  0.19523064  0.32992417  0.72238018  1
  O2-  O231  1  0.20401014  0.83975157  0.06162127  1
  O2-  O232  1  0.21145607  0.83534438  0.40306707  1
  O2-  O233  1  0.19948756  0.82862766  0.73678181  1
  O2-  O234  1  0.70813966  0.32743300  0.07132505  1
  O2-  O235  1  0.70140982  0.33297946  0.39319807  1
  O2-  O236  1  0.71644780  0.33276664  0.73510835  1
  O2-  O237  1  0.70268632  0.84080842  0.06549610  1
  O2-  O238  1  0.70522575  0.83545773  0.39969914  1
  O2-  O239  1  0.70987808  0.83982703  0.72908062  1
  O2-  O240  1  0.46271102  0.41721290  0.26514546  1
  O2-  O241  1  0.45376262  0.41533252  0.60470041  1
  O2-  O242  1  0.45391469  0.42578956  0.93656562  1
  O2-  O243  1  0.45260254  0.91205998  0.27173765  1
  O2-  O244  1  0.45824237  0.91634321  0.59553459  1
  O2-  O245  1  0.46395667  0.91361440  0.93287727  1
  O2-  O246  1  0.96002265  0.41829371  0.26436560  1
  O2-  O247  1  0.95935954  0.41159395  0.60501446  1
  O2-  O248  1  0.95053654  0.41686661  0.93741697  1
  O2-  O249  1  0.95866595  0.91323963  0.27444087  1
  O2-  O250  1  0.96025515  0.91546081  0.59975942  1
  O2-  O251  1  0.95968819  0.91652381  0.92915652  1
  O2-  O252  1  0.33139432  0.29409626  0.26563887  1
  O2-  O253  1  0.33268289  0.29632932  0.60212983  1
  O2-  O254  1  0.33253058  0.29379688  0.93086139  1
  O2-  O255  1  0.33552366  0.78910601  0.27305765  1
  O2-  O256  1  0.32518793  0.79336820  0.60030266  1
  O2-  O257  1  0.32977985  0.79714970  0.93366925  1
  O2-  O258  1  0.83355746  0.28916062  0.26496029  1
  O2-  O259  1  0.84168732  0.28908239  0.60373394  1
  O2-  O260  1  0.83691778  0.29126691  0.93566396  1
  O2-  O261  1  0.83465700  0.79853813  0.27453618  1
  O2-  O262  1  0.83666926  0.80115580  0.59899990  1
  O2-  O263  1  0.82508869  0.80267943  0.93609338  1
  O2-  O264  1  0.41317550  0.03921875  0.06358091  1
  O2-  O265  1  0.41761258  0.04778493  0.39364308  1
  O2-  O266  1  0.42443874  0.04558502  0.73130519  1
  O2-  O267  1  0.42043943  0.55300126  0.06807570  1
  O2-  O268  1  0.41938730  0.53992241  0.39998211  1
  O2-  O269  1  0.41791422  0.54455358  0.73336957  1
  O2-  O270  1  0.91377911  0.03804962  0.06193020  1
  O2-  O271  1  0.91161803  0.03743045  0.40533922  1
  O2-  O272  1  0.91214256  0.04281475  0.72906363  1
  O2-  O273  1  0.92071641  0.54835679  0.06487201  1
  O2-  O274  1  0.92106194  0.54248668  0.39985034  1
  O2-  O275  1  0.91864507  0.53873667  0.73497997  1
  O2-  O276  1  0.29588983  0.16248681  0.06024772  1
  O2-  O277  1  0.29901070  0.16707104  0.39410357  1
  O2-  O278  1  0.29204112  0.16893858  0.73512109  1
  O2-  O279  1  0.28588427  0.67218579  0.06730109  1
  O2-  O280  1  0.28664145  0.66283418  0.40467648  1
  O2-  O281  1  0.28499904  0.66365980  0.73178048  1
  O2-  O282  1  0.79873556  0.16171975  0.06176343  1
  O2-  O283  1  0.79008967  0.16757940  0.40125342  1
  O2-  O284  1  0.79468880  0.16362519  0.72979953  1
  O2-  O285  1  0.79036125  0.67244012  0.06810870  1
  O2-  O286  1  0.79224129  0.66814914  0.40095186  1
  O2-  O287  1  0.80397175  0.67670363  0.72853402  1
