# generated using pymatgen
data_Ca2Al2SiO7
_symmetry_space_group_name_H-M   'P 1'
_cell_length_a   15.46490178
_cell_length_b   15.46610905
_cell_length_c   15.28874112
_cell_angle_alpha   89.99403376
_cell_angle_beta   89.99811697
_cell_angle_gamma   89.99993385
_symmetry_Int_Tables_number   1
_chemical_formula_structural   Ca2Al2SiO7
_chemical_formula_sum   'Ca48 Al48 Si24 O168'
_cell_volume   3656.78947680
_cell_formula_units_Z   24
loop_
 _symmetry_equiv_pos_site_id
 _symmetry_equiv_pos_as_xyz
  1  'x, y, z'
loop_
 _atom_type_symbol
 _atom_type_oxidation_number
  Ca2+  2.0
  Al0+  0.0
  Si0+  0.0
  O2-  -2.0
loop_
 _atom_site_type_symbol
 _atom_site_label
 _atom_site_symmetry_multiplicity
 _atom_site_fract_x
 _atom_site_fract_y
 _atom_site_fract_z
 _atom_site_occupancy
  Ca2+  Ca0  1  0.16968286  0.08326810  0.17627429  1
  Ca2+  Ca1  1  0.17795069  0.08459153  0.49678760  1
  Ca2+  Ca2  1  0.17221605  0.08836088  0.83547252  1
  Ca2+  Ca3  1  0.17473922  0.58550135  0.16844904  1
  Ca2+  Ca4  1  0.16776307  0.57525440  0.50703349  1
  Ca2+  Ca5  1  0.17287439  0.57551419  0.83851996  1
  Ca2+  Ca6  1  0.67660313  0.08177214  0.17364142  1
  Ca2+  Ca7  1  0.67508591  0.09137650  0.50639923  1
  Ca2+  Ca8  1  0.67749740  0.08154155  0.84046423  1
  Ca2+  Ca9  1  0.65991087  0.58191126  0.16321827  1
  Ca2+  Ca10  1  0.66198081  0.57879374  0.50349222  1
  Ca2+  Ca11  1  0.66450211  0.57299714  0.84461117  1
  Ca2+  Ca12  1  0.08228493  0.31822857  0.16095373  1
  Ca2+  Ca13  1  0.08297443  0.32864274  0.49514631  1
  Ca2+  Ca14  1  0.08351239  0.32962092  0.83110862  1
  Ca2+  Ca15  1  0.07121154  0.84519511  0.16371636  1
  Ca2+  Ca16  1  0.07373298  0.84484808  0.49512406  1
  Ca2+  Ca17  1  0.07037300  0.83062773  0.82915455  1
  Ca2+  Ca18  1  0.58122900  0.32675776  0.16135828  1
  Ca2+  Ca19  1  0.58352339  0.32343902  0.50195534  1
  Ca2+  Ca20  1  0.57751374  0.33627829  0.82699904  1
  Ca2+  Ca21  1  0.58632371  0.82466918  0.16147749  1
  Ca2+  Ca22  1  0.57659074  0.82691794  0.48897698  1
  Ca2+  Ca23  1  0.59568706  0.82661026  0.83543382  1
  Ca2+  Ca24  1  0.34191423  0.41974826  0.16329274  1
  Ca2+  Ca25  1  0.32859023  0.41341085  0.50836183  1
  Ca2+  Ca26  1  0.33383530  0.41330717  0.83968545  1
  Ca2+  Ca27  1  0.32374929  0.91933978  0.18090695  1
  Ca2+  Ca28  1  0.33763935  0.92730218  0.50046586  1
  Ca2+  Ca29  1  0.33514366  0.92650154  0.83605440  1
  Ca2+  Ca30  1  0.82944409  0.42182807  0.16673548  1
  Ca2+  Ca31  1  0.82451400  0.41906239  0.50891771  1
  Ca2+  Ca32  1  0.81781778  0.42095787  0.84219840  1
  Ca2+  Ca33  1  0.83269751  0.91981232  0.16723590  1
  Ca2+  Ca34  1  0.83949437  0.92593930  0.50179440  1
  Ca2+  Ca35  1  0.83286495  0.92172326  0.83974879  1
  Ca2+  Ca36  1  0.42093383  0.16763306  0.16324488  1
  Ca2+  Ca37  1  0.42474043  0.16378265  0.49671820  1
  Ca2+  Ca38  1  0.42418346  0.17731362  0.82309943  1
  Ca2+  Ca39  1  0.42370384  0.67060323  0.16141069  1
  Ca2+  Ca40  1  0.42215610  0.67387758  0.49001119  1
  Ca2+  Ca41  1  0.41988471  0.66308210  0.83561524  1
  Ca2+  Ca42  1  0.92743640  0.15096084  0.16384898  1
  Ca2+  Ca43  1  0.92058424  0.16118190  0.49202663  1
  Ca2+  Ca44  1  0.92053762  0.15632357  0.83159035  1
  Ca2+  Ca45  1  0.91178669  0.67857573  0.15880573  1
  Ca2+  Ca46  1  0.91624429  0.68162729  0.49339856  1
  Ca2+  Ca47  1  0.90147703  0.67876214  0.83277648  1
  Al0+  Al48  1  0.00225739  -0.00158349  -0.00887290  1
  Al0+  Al49  1  0.00009636  0.00098478  0.33328689  1
  Al0+  Al50  1  0.00079430  -0.00045416  0.66587189  1
  Al0+  Al51  1  0.00100220  0.49773938  0.00383699  1
  Al0+  Al52  1  -0.00183708  0.50168479  0.33478722  1
  Al0+  Al53  1  0.00158978  0.50103437  0.67193129  1
  Al0+  Al54  1  0.50012611  -0.00004825  0.00316155  1
  Al0+  Al55  1  0.50045841  0.00016322  0.32847088  1
  Al0+  Al56  1  0.50158938  -0.00126998  0.66903989  1
  Al0+  Al57  1  0.49780176  0.50065338  0.00107921  1
  Al0+  Al58  1  0.49971212  0.49944426  0.33277374  1
  Al0+  Al59  1  0.49888342  0.50017252  0.66479338  1
  Al0+  Al60  1  0.24956747  0.24925965  -0.00739484  1
  Al0+  Al61  1  0.24886370  0.25059119  0.33273810  1
  Al0+  Al62  1  0.24949702  0.25050075  0.67120893  1
  Al0+  Al63  1  0.24892762  0.74943451  0.00214149  1
  Al0+  Al64  1  0.24754422  0.74832322  0.33746183  1
  Al0+  Al65  1  0.24909153  0.74953523  0.66632574  1
  Al0+  Al66  1  0.75317882  0.24977843  0.00955266  1
  Al0+  Al67  1  0.74864447  0.25242142  0.33371692  1
  Al0+  Al68  1  0.75138808  0.25157876  0.67366123  1
  Al0+  Al69  1  0.74868989  0.74990302  -0.00239665  1
  Al0+  Al70  1  0.75071820  0.74878821  0.32686628  1
  Al0+  Al71  1  0.75073680  0.75243950  0.65724040  1
  Al0+  Al72  1  0.17843730  0.42858558  0.68141371  1
  Al0+  Al73  1  0.42610950  0.82184450  0.31896769  1
  Al0+  Al74  1  0.82167395  0.07048809  0.67997383  1
  Al0+  Al75  1  0.92985386  0.81795628  0.98459322  1
  Al0+  Al76  1  0.67774966  0.92874582  0.01552557  1
  Al0+  Al77  1  0.17773495  0.92827751  0.34822999  1
  Al0+  Al78  1  0.82150217  0.57137070  0.01489101  1
  Al0+  Al79  1  0.81877333  0.07033330  0.34752148  1
  Al0+  Al80  1  0.42797828  0.32145424  0.65079431  1
  Al0+  Al81  1  0.57353716  0.17815919  0.65427873  1
  Al0+  Al82  1  0.43220314  0.31871762  0.98685732  1
  Al0+  Al83  1  0.06870443  0.17926481  0.98382688  1
  Al0+  Al84  1  0.93191766  0.82116965  0.31765846  1
  Al0+  Al85  1  0.06921709  0.18208655  0.32159353  1
  Al0+  Al86  1  0.82433424  0.06921180  0.01586592  1
  Al0+  Al87  1  0.32286033  0.07010964  0.68155880  1
  Al0+  Al88  1  0.56996173  0.67778636  0.31660318  1
  Al0+  Al89  1  0.67651974  0.42839963  0.01772137  1
  Al0+  Al90  1  0.93033976  0.82066961  0.65014107  1
  Al0+  Al91  1  0.56800753  0.68153825  0.98446751  1
  Al0+  Al92  1  0.31905899  0.57057607  0.01446475  1
  Al0+  Al93  1  0.32378620  0.07272316  0.34699236  1
  Al0+  Al94  1  0.67862786  0.43106217  0.67982457  1
  Al0+  Al95  1  0.57297051  0.17872081  0.31946006  1
  Si0+  Si96  1  0.32167638  0.57313149  0.68285559  1
  Si0+  Si97  1  0.07123159  0.67379555  0.31671687  1
  Si0+  Si98  1  0.42438790  0.82355098  0.98263796  1
  Si0+  Si99  1  0.07420816  0.67516468  0.98350318  1
  Si0+  Si100  1  0.56966971  0.67987983  0.65195413  1
  Si0+  Si101  1  0.67862244  0.92553802  0.34940279  1
  Si0+  Si102  1  0.92960221  0.32341805  0.65416844  1
  Si0+  Si103  1  0.82103535  0.57444288  0.68052620  1
  Si0+  Si104  1  0.17750103  0.42970969  0.34708931  1
  Si0+  Si105  1  0.32141598  0.56926686  0.34954928  1
  Si0+  Si106  1  0.42701584  0.32070373  0.31740114  1
  Si0+  Si107  1  0.92624274  0.32527709  0.31791472  1
  Si0+  Si108  1  0.07045810  0.17979043  0.65038072  1
  Si0+  Si109  1  0.67796805  0.92563348  0.68085507  1
  Si0+  Si110  1  0.07364416  0.67729006  0.64977673  1
  Si0+  Si111  1  0.57565340  0.17624087  0.98496751  1
  Si0+  Si112  1  0.67775683  0.43024408  0.35072065  1
  Si0+  Si113  1  0.32029828  0.07283748  0.01351338  1
  Si0+  Si114  1  0.92705656  0.32459254  0.98286405  1
  Si0+  Si115  1  0.17852617  0.92803668  0.68464443  1
  Si0+  Si116  1  0.17899760  0.42471698  0.01879878  1
  Si0+  Si117  1  0.42616766  0.82172514  0.65273788  1
  Si0+  Si118  1  0.18144098  0.92957214  0.01209162  1
  Si0+  Si119  1  0.82126481  0.57206197  0.35006535  1
  O2-  O120  1  0.25484764  -0.00292280  0.05491371  1
  O2-  O121  1  0.25528168  -0.00395782  0.39622731  1
  O2-  O122  1  0.24846088  -0.00508494  0.72941083  1
  O2-  O123  1  0.24431458  0.49636962  0.06312977  1
  O2-  O124  1  0.24883173  0.49959911  0.39101520  1
  O2-  O125  1  0.25511467  0.50212793  0.72624261  1
  O2-  O126  1  0.74746043  0.00264737  0.06589042  1
  O2-  O127  1  0.74290560  -0.00270433  0.39580118  1
  O2-  O128  1  0.74370154  -0.00217329  0.72334608  1
  O2-  O129  1  0.75038470  0.49959496  0.06713990  1
  O2-  O130  1  0.74935474  0.50179978  0.39204037  1
  O2-  O131  1  0.75265207  0.50673620  0.72531675  1
  O2-  O132  1  -0.00728651  0.25456252  0.27417155  1
  O2-  O133  1  -0.00149634  0.25114158  0.60981452  1
  O2-  O134  1  -0.00797682  0.25255786  0.93783188  1
  O2-  O135  1  0.00796291  0.74673133  0.27241845  1
  O2-  O136  1  0.00575151  0.74571118  0.60448555  1
  O2-  O137  1  -0.00005503  0.73727598  0.93876682  1
  O2-  O138  1  0.49337958  0.24949458  0.27459787  1
  O2-  O139  1  0.49878445  0.24742947  0.60266196  1
  O2-  O140  1  0.50957259  0.24705071  0.94029783  1
  O2-  O141  1  0.49969869  0.75225407  0.26811911  1
  O2-  O142  1  0.49813001  0.75096642  0.61135956  1
  O2-  O143  1  0.49588675  0.75866802  0.93643090  1
  O2-  O144  1  0.07089158  0.17969643  0.09697751  1
  O2-  O145  1  0.07038371  0.18554235  0.43501962  1
  O2-  O146  1  0.06962024  0.17945543  0.75552686  1
  O2-  O147  1  0.07778183  0.67893843  0.08888562  1
  O2-  O148  1  0.06640722  0.66643697  0.42217819  1
  O2-  O149  1  0.07645957  0.67840426  0.75502380  1
  O2-  O150  1  0.57145815  0.17631732  0.09069579  1
  O2-  O151  1  0.57665033  0.18332000  0.43242962  1
  O2-  O152  1  0.57318269  0.17937843  0.76770756  1
  O2-  O153  1  0.56536986  0.68128637  0.09694600  1
  O2-  O154  1  0.56736039  0.67614515  0.43127705  1
  O2-  O155  1  0.57079532  0.67988305  0.75668090  1
  O2-  O156  1  0.17665126  0.43107014  0.24244890  1
  O2-  O157  1  0.17693295  0.43111003  0.56763582  1
  O2-  O158  1  0.18082236  0.42515749  0.91312191  1
  O2-  O159  1  0.17659565  0.93209929  0.23413095  1
  O2-  O160  1  0.17870614  0.92902361  0.57939279  1
  O2-  O161  1  0.18308302  0.92936690  0.90674969  1
  O2-  O162  1  0.67723300  0.43016541  0.24622060  1
  O2-  O163  1  0.68069276  0.43285030  0.56613723  1
  O2-  O164  1  0.67605809  0.43093751  0.90381725  1
  O2-  O165  1  0.68252983  0.92452238  0.24424470  1
  O2-  O166  1  0.67801520  0.92093591  0.57546581  1
  O2-  O167  1  0.67969512  0.92964968  0.90119210  1
  O2-  O168  1  0.43014984  0.31519170  0.10033348  1
  O2-  O169  1  0.42669991  0.32339107  0.42281056  1
  O2-  O170  1  0.43014625  0.32262432  0.76422236  1
  O2-  O171  1  0.42069352  0.82029133  0.08757715  1
  O2-  O172  1  0.42874189  0.81786245  0.43357933  1
  O2-  O173  1  0.42300377  0.82047083  0.75757244  1
  O2-  O174  1  0.93148602  0.32876695  0.08832380  1
  O2-  O175  1  0.92869808  0.32789294  0.42408298  1
  O2-  O176  1  0.93167699  0.32479118  0.75874210  1
  O2-  O177  1  0.93407669  0.82038526  0.09741306  1
  O2-  O178  1  0.93273772  0.81964400  0.43100660  1
  O2-  O179  1  0.92989242  0.81822559  0.76296782  1
  O2-  O180  1  0.31835205  0.07621605  0.23316997  1
  O2-  O181  1  0.32250672  0.06886814  0.56877764  1
  O2-  O182  1  0.31859759  0.07244242  0.90818611  1
  O2-  O183  1  0.32184011  0.56807456  0.24472754  1
  O2-  O184  1  0.31981952  0.57455817  0.57697623  1
  O2-  O185  1  0.31680138  0.57071646  0.90124702  1
  O2-  O186  1  0.82052549  0.06799210  0.23512842  1
  O2-  O187  1  0.82354725  0.06974163  0.56667366  1
  O2-  O188  1  0.82429059  0.06612433  0.90190010  1
  O2-  O189  1  0.82561440  0.57016719  0.24579266  1
  O2-  O190  1  0.82025851  0.57275692  0.57443497  1
  O2-  O191  1  0.81784561  0.56997665  0.90070581  1
  O2-  O192  1  0.03938033  0.08599319  0.26739134  1
  O2-  O193  1  0.04282973  0.08801623  0.60382465  1
  O2-  O194  1  0.04148331  0.08375389  0.92587247  1
  O2-  O195  1  0.04267070  0.58234713  0.26740973  1
  O2-  O196  1  0.04763091  0.58291803  0.60481950  1
  O2-  O197  1  0.05659726  0.57787914  0.94193086  1
  O2-  O198  1  0.54860349  0.08138975  0.26493091  1
  O2-  O199  1  0.54881783  0.07757309  0.60298978  1
  O2-  O200  1  0.54859952  0.08269359  0.93942353  1
  O2-  O201  1  0.53817693  0.57990452  0.26493522  1
  O2-  O202  1  0.54154594  0.58902008  0.60298726  1
  O2-  O203  1  0.53313077  0.58579466  0.93130203  1
  O2-  O204  1  0.16441334  0.21491243  0.26550167  1
  O2-  O205  1  0.16205311  0.20941944  0.60470289  1
  O2-  O206  1  0.16346606  0.21328512  0.92755994  1
  O2-  O207  1  0.16776237  0.69311688  0.27549035  1
  O2-  O208  1  0.16751279  0.70094289  0.60216154  1
  O2-  O209  1  0.16492546  0.70738321  0.93444022  1
  O2-  O210  1  0.66704507  0.21566125  0.26407436  1
  O2-  O211  1  0.67171998  0.21204966  0.60243820  1
  O2-  O212  1  0.67224307  0.19861561  0.94450203  1
  O2-  O213  1  0.66924920  0.70171013  0.26491093  1
  O2-  O214  1  0.66037109  0.70704511  0.60155675  1
  O2-  O215  1  0.66470774  0.70948014  0.92901856  1
  O2-  O216  1  0.08431848  0.44495761  0.06400758  1
  O2-  O217  1  0.08583978  0.45775311  0.39601126  1
  O2-  O218  1  0.08355936  0.46100308  0.73899142  1
  O2-  O219  1  0.09064631  0.96169306  0.05735619  1
  O2-  O220  1  0.08298282  0.96467438  0.40306917  1
  O2-  O221  1  0.08610344  0.95660799  0.73102537  1
  O2-  O222  1  0.57935555  0.46020479  0.07027037  1
  O2-  O223  1  0.58620563  0.45942550  0.39853860  1
  O2-  O224  1  0.58165926  0.46255088  0.73211879  1
  O2-  O225  1  0.57694149  0.95005993  0.06781762  1
  O2-  O226  1  0.58237577  0.94622154  0.39145863  1
  O2-  O227  1  0.58364560  0.94366863  0.72813461  1
  O2-  O228  1  0.21018466  0.33222576  0.06379413  1
  O2-  O229  1  0.20526335  0.33867791  0.39564038  1
  O2-  O230  1  0.20564116  0.33257173  0.73713875  1
  O2-  O231  1  0.20395881  0.83741089  0.06094499  1
  O2-  O232  1  0.19587950  0.82667920  0.40048848  1
  O2-  O233  1  0.20146427  0.83272153  0.72895764  1
  O2-  O234  1  0.70411219  0.33049830  0.07199550  1
  O2-  O235  1  0.70749954  0.33986438  0.39953690  1
  O2-  O236  1  0.71073886  0.33708715  0.73667840  1
  O2-  O237  1  0.70767459  0.83055886  0.06634665  1
  O2-  O238  1  0.70648037  0.83163126  0.39491292  1
  O2-  O239  1  0.70994268  0.83330233  0.72729788  1
  O2-  O240  1  0.45674914  0.41310648  0.27117112  1
  O2-  O241  1  0.45546797  0.42044486  0.59729352  1
  O2-  O242  1  0.45734793  0.41705594  0.93432314  1
  O2-  O243  1  0.44689956  0.92152027  0.26700345  1
  O2-  O244  1  0.45464798  0.91294285  0.60542973  1
  O2-  O245  1  0.44693756  0.91938251  0.93920270  1
  O2-  O246  1  0.95445351  0.41790974  0.27121152  1
  O2-  O247  1  0.95844542  0.41539432  0.60601920  1
  O2-  O248  1  0.95593342  0.41674710  0.93459806  1
  O2-  O249  1  0.96351223  0.91714545  0.26429286  1
  O2-  O250  1  0.96429884  0.91694011  0.59686818  1
  O2-  O251  1  0.96743510  0.91050974  0.92739912  1
  O2-  O252  1  0.33271338  0.29980607  0.27104688  1
  O2-  O253  1  0.32727549  0.29516745  0.60142472  1
  O2-  O254  1  0.33653299  0.28705448  0.93131073  1
  O2-  O255  1  0.32658022  0.79119118  0.26924881  1
  O2-  O256  1  0.33491173  0.79347270  0.60398408  1
  O2-  O257  1  0.33213958  0.79392853  0.93493403  1
  O2-  O258  1  0.83192055  0.30399230  0.27348771  1
  O2-  O259  1  0.83706109  0.29809580  0.60745009  1
  O2-  O260  1  0.83096303  0.30228646  0.94101541  1
  O2-  O261  1  0.83629555  0.78846097  0.26432585  1
  O2-  O262  1  0.83508544  0.79070879  0.59231024  1
  O2-  O263  1  0.83285124  0.79023739  0.92990317  1
  O2-  O264  1  0.41405467  0.05220887  0.05935272  1
  O2-  O265  1  0.42383366  0.04746462  0.39898740  1
  O2-  O266  1  0.41879415  0.03846672  0.73711125  1
  O2-  O267  1  0.41351602  0.53839135  0.07013968  1
  O2-  O268  1  0.41233622  0.53957487  0.39810226  1
  O2-  O269  1  0.41598831  0.54984574  0.72740234  1
  O2-  O270  1  0.92296795  0.03359531  0.06438006  1
  O2-  O271  1  0.91521781  0.03830761  0.40104097  1
  O2-  O272  1  0.91784668  0.03647153  0.73317347  1
  O2-  O273  1  0.92145073  0.54570965  0.06750738  1
  O2-  O274  1  0.91221698  0.54358066  0.40011708  1
  O2-  O275  1  0.91503527  0.55217206  0.72619283  1
  O2-  O276  1  0.28617977  0.16253181  0.05996464  1
  O2-  O277  1  0.28908311  0.16965388  0.40088197  1
  O2-  O278  1  0.28954038  0.16547867  0.73572151  1
  O2-  O279  1  0.28727118  0.66669161  0.06974798  1
  O2-  O280  1  0.29503611  0.66044895  0.39890049  1
  O2-  O281  1  0.29443690  0.66592032  0.73018804  1
  O2-  O282  1  0.80709979  0.16996765  0.06808720  1
  O2-  O283  1  0.79210450  0.17000533  0.39910880  1
  O2-  O284  1  0.79665818  0.16757439  0.73530491  1
  O2-  O285  1  0.79226947  0.66954811  0.06581954  1
  O2-  O286  1  0.79265941  0.66408037  0.39680013  1
  O2-  O287  1  0.79333338  0.66879089  0.72296251  1
