# generated using pymatgen
data_Ca2Al2SiO7
_symmetry_space_group_name_H-M   'P 1'
_cell_length_a   15.45986441
_cell_length_b   15.46157049
_cell_length_c   15.28555254
_cell_angle_alpha   89.99161532
_cell_angle_beta   90.00415015
_cell_angle_gamma   89.98572175
_symmetry_Int_Tables_number   1
_chemical_formula_structural   Ca2Al2SiO7
_chemical_formula_sum   'Ca48 Al48 Si24 O168'
_cell_volume   3653.76329205
_cell_formula_units_Z   24
loop_
 _symmetry_equiv_pos_site_id
 _symmetry_equiv_pos_as_xyz
  1  'x, y, z'
loop_
 _atom_type_symbol
 _atom_type_oxidation_number
  Ca2+  2.0
  Al0+  0.0
  Si0+  0.0
  O2-  -2.0
loop_
 _atom_site_type_symbol
 _atom_site_label
 _atom_site_symmetry_multiplicity
 _atom_site_fract_x
 _atom_site_fract_y
 _atom_site_fract_z
 _atom_site_occupancy
  Ca2+  Ca0  1  0.17397406  0.08888983  0.17570327  1
  Ca2+  Ca1  1  0.16754778  0.08382447  0.49839213  1
  Ca2+  Ca2  1  0.17302921  0.08928588  0.84286235  1
  Ca2+  Ca3  1  0.16428142  0.57665380  0.17267690  1
  Ca2+  Ca4  1  0.16501950  0.57137908  0.50772678  1
  Ca2+  Ca5  1  0.16059084  0.57874064  0.83399707  1
  Ca2+  Ca6  1  0.66165898  0.07840415  0.17099791  1
  Ca2+  Ca7  1  0.66862991  0.09016649  0.50801716  1
  Ca2+  Ca8  1  0.66872507  0.08391130  0.83393766  1
  Ca2+  Ca9  1  0.66893856  0.58661991  0.16819248  1
  Ca2+  Ca10  1  0.67178521  0.57591426  0.50936610  1
  Ca2+  Ca11  1  0.67743673  0.58028839  0.84113217  1
  Ca2+  Ca12  1  0.08018639  0.32818598  0.16367852  1
  Ca2+  Ca13  1  0.07384963  0.33686009  0.49464171  1
  Ca2+  Ca14  1  0.07363517  0.33222666  0.83101692  1
  Ca2+  Ca15  1  0.08679019  0.82949756  0.16271122  1
  Ca2+  Ca16  1  0.08561069  0.82897260  0.49629778  1
  Ca2+  Ca17  1  0.08633277  0.81885721  0.82874410  1
  Ca2+  Ca18  1  0.57473771  0.32549085  0.16175647  1
  Ca2+  Ca19  1  0.58726685  0.32431553  0.49902483  1
  Ca2+  Ca20  1  0.57210061  0.33424098  0.82287933  1
  Ca2+  Ca21  1  0.58147720  0.82696265  0.16239238  1
  Ca2+  Ca22  1  0.57704832  0.82594625  0.48878660  1
  Ca2+  Ca23  1  0.59136195  0.83076649  0.83620208  1
  Ca2+  Ca24  1  0.32690825  0.41345933  0.17235138  1
  Ca2+  Ca25  1  0.32022529  0.40664693  0.50457813  1
  Ca2+  Ca26  1  0.32893721  0.40608719  0.83603015  1
  Ca2+  Ca27  1  0.32832824  0.92702925  0.17691134  1
  Ca2+  Ca28  1  0.33415497  0.91959069  0.49569836  1
  Ca2+  Ca29  1  0.33230309  0.92658922  0.84141957  1
  Ca2+  Ca30  1  0.84329297  0.41942672  0.16701625  1
  Ca2+  Ca31  1  0.83003849  0.41525551  0.51142053  1
  Ca2+  Ca32  1  0.83474417  0.41989883  0.83324485  1
  Ca2+  Ca33  1  0.82675202  0.91584635  0.16730301  1
  Ca2+  Ca34  1  0.83214375  0.92885895  0.50677407  1
  Ca2+  Ca35  1  0.82900162  0.92521245  0.83776358  1
  Ca2+  Ca36  1  0.41298999  0.16539197  0.16355978  1
  Ca2+  Ca37  1  0.42578132  0.16799939  0.49731459  1
  Ca2+  Ca38  1  0.41934154  0.17470496  0.83041454  1
  Ca2+  Ca39  1  0.42646183  0.67082660  0.16339398  1
  Ca2+  Ca40  1  0.42312153  0.67236511  0.49007274  1
  Ca2+  Ca41  1  0.42519126  0.66649048  0.83116929  1
  Ca2+  Ca42  1  0.92985949  0.17802100  0.16116731  1
  Ca2+  Ca43  1  0.91687496  0.17870556  0.49261573  1
  Ca2+  Ca44  1  0.91557576  0.17526931  0.82661223  1
  Ca2+  Ca45  1  0.92219336  0.66623380  0.15679145  1
  Ca2+  Ca46  1  0.92116862  0.65853951  0.50243752  1
  Ca2+  Ca47  1  0.92308119  0.65618182  0.83122335  1
  Al0+  Al48  1  0.00034061  -0.00109256  -0.00192585  1
  Al0+  Al49  1  -0.00048800  -0.00000007  0.33339455  1
  Al0+  Al50  1  -0.00004397  -0.00264707  0.67305336  1
  Al0+  Al51  1  -0.00017814  0.49994248  -0.00211031  1
  Al0+  Al52  1  -0.00042940  0.50195895  0.33456851  1
  Al0+  Al53  1  0.00215840  0.49872219  0.66616917  1
  Al0+  Al54  1  0.49904088  -0.00020884  0.00820538  1
  Al0+  Al55  1  0.49872615  -0.00142986  0.33111344  1
  Al0+  Al56  1  0.49872901  -0.00059743  0.66468765  1
  Al0+  Al57  1  0.50038805  0.50095325  -0.00706429  1
  Al0+  Al58  1  0.50251636  0.49937775  0.33079017  1
  Al0+  Al59  1  0.49648303  0.50134230  0.66338867  1
  Al0+  Al60  1  0.24978051  0.25034910  -0.00138606  1
  Al0+  Al61  1  0.24998752  0.24968662  0.34196813  1
  Al0+  Al62  1  0.24974678  0.24849470  0.66867583  1
  Al0+  Al63  1  0.25184586  0.74974292  -0.00431448  1
  Al0+  Al64  1  0.25087787  0.75090127  0.33273476  1
  Al0+  Al65  1  0.24951476  0.74869820  0.66249801  1
  Al0+  Al66  1  0.74919928  0.25073613  -0.00096946  1
  Al0+  Al67  1  0.74902526  0.25197990  0.32217434  1
  Al0+  Al68  1  0.74946964  0.25023418  0.66995742  1
  Al0+  Al69  1  0.75064078  0.74986308  0.00439239  1
  Al0+  Al70  1  0.75212848  0.74973748  0.33284541  1
  Al0+  Al71  1  0.75162536  0.75136851  0.66869113  1
  Al0+  Al72  1  0.07208725  0.68029759  0.98714298  1
  Al0+  Al73  1  0.31761112  0.07172756  0.01394844  1
  Al0+  Al74  1  0.93088778  0.31893284  0.65345029  1
  Al0+  Al75  1  0.82063180  0.56731841  0.01545911  1
  Al0+  Al76  1  0.92820025  0.32129231  0.98237101  1
  Al0+  Al77  1  0.82095553  0.57130386  0.68199551  1
  Al0+  Al78  1  0.42577348  0.32302733  0.64957711  1
  Al0+  Al79  1  0.17896289  0.43068384  0.34701505  1
  Al0+  Al80  1  0.17656414  0.92769795  0.34927124  1
  Al0+  Al81  1  0.07155418  0.17849344  0.32100630  1
  Al0+  Al82  1  0.42980151  0.32070067  0.98782665  1
  Al0+  Al83  1  0.57374292  0.67734215  0.31817108  1
  Al0+  Al84  1  0.56966868  0.17959986  0.65368829  1
  Al0+  Al85  1  0.57094381  0.17877404  0.31845309  1
  Al0+  Al86  1  0.67593680  0.42847369  0.68146943  1
  Al0+  Al87  1  0.32248925  0.07164615  0.35255250  1
  Al0+  Al88  1  0.68118355  0.93089717  0.01501960  1
  Al0+  Al89  1  0.57244197  0.68060717  0.98423221  1
  Al0+  Al90  1  0.18083418  0.42793348  0.68283780  1
  Al0+  Al91  1  0.92868429  0.32427647  0.31768035  1
  Al0+  Al92  1  0.42780003  0.82041925  0.31615931  1
  Al0+  Al93  1  0.06939970  0.67950211  0.65070922  1
  Al0+  Al94  1  0.82122503  0.07203386  0.67913164  1
  Al0+  Al95  1  0.07144856  0.17830150  0.98520546  1
  Si0+  Si96  1  0.32084488  0.06834542  0.68309888  1
  Si0+  Si97  1  0.82438691  0.07483017  0.01891000  1
  Si0+  Si98  1  0.67600383  0.92826525  0.68153838  1
  Si0+  Si99  1  0.92741961  0.82395105  0.64947520  1
  Si0+  Si100  1  0.32411302  0.57329803  0.01407863  1
  Si0+  Si101  1  0.18098157  0.43201435  0.01479660  1
  Si0+  Si102  1  0.57319090  0.68017825  0.65240041  1
  Si0+  Si103  1  0.07230583  0.17392811  0.65100238  1
  Si0+  Si104  1  0.92665890  0.82199189  0.98315135  1
  Si0+  Si105  1  0.17945473  0.92608715  0.68310464  1
  Si0+  Si106  1  0.42876989  0.82068944  0.65190749  1
  Si0+  Si107  1  0.81842799  0.07199331  0.34523191  1
  Si0+  Si108  1  0.92897882  0.82267036  0.31879370  1
  Si0+  Si109  1  0.57108001  0.17525998  0.98440590  1
  Si0+  Si110  1  0.32060344  0.57515799  0.68361814  1
  Si0+  Si111  1  0.17811975  0.92489125  0.01461169  1
  Si0+  Si112  1  0.67893736  0.42792024  0.34628499  1
  Si0+  Si113  1  0.67999086  0.92804932  0.34848772  1
  Si0+  Si114  1  0.32420588  0.57149656  0.34810198  1
  Si0+  Si115  1  0.42717499  0.32114239  0.31825936  1
  Si0+  Si116  1  0.06993802  0.67994312  0.31951986  1
  Si0+  Si117  1  0.42983839  0.82281840  0.98221236  1
  Si0+  Si118  1  0.67419713  0.42784098  0.01785489  1
  Si0+  Si119  1  0.82082396  0.57172580  0.34873285  1
  O2-  O120  1  0.24043977  -0.00154685  0.05882773  1
  O2-  O121  1  0.24782828  0.00002930  0.40053735  1
  O2-  O122  1  0.24657248  0.00030200  0.72549822  1
  O2-  O123  1  0.25259260  0.50316000  0.05698254  1
  O2-  O124  1  0.25652846  0.50319180  0.39364873  1
  O2-  O125  1  0.25798969  0.50145232  0.72877331  1
  O2-  O126  1  0.75409570  0.00719554  0.06309481  1
  O2-  O127  1  0.74593723  0.00329962  0.39074137  1
  O2-  O128  1  0.74476027  -0.00253020  0.72403748  1
  O2-  O129  1  0.74680391  0.49216453  0.06351656  1
  O2-  O130  1  0.74953212  0.50006267  0.38798255  1
  O2-  O131  1  0.74625349  0.50217502  0.73186765  1
  O2-  O132  1  0.00284326  0.25309050  0.27071091  1
  O2-  O133  1  0.00303957  0.24152488  0.60684430  1
  O2-  O134  1  -0.00524221  0.24361076  0.93348884  1
  O2-  O135  1  0.00255657  0.75404225  0.27729900  1
  O2-  O136  1  -0.00678169  0.75313886  0.60419122  1
  O2-  O137  1  -0.00094265  0.75672986  0.94014048  1
  O2-  O138  1  0.49283834  0.25039481  0.27294890  1
  O2-  O139  1  0.50165652  0.25418151  0.60129341  1
  O2-  O140  1  0.50731031  0.24850947  0.94146789  1
  O2-  O141  1  0.50095427  0.74848686  0.26808464  1
  O2-  O142  1  0.50118253  0.75046182  0.61065009  1
  O2-  O143  1  0.49829124  0.75527702  0.93580011  1
  O2-  O144  1  0.07390146  0.18177396  0.09862878  1
  O2-  O145  1  0.06582444  0.17695520  0.43463404  1
  O2-  O146  1  0.07196322  0.17428341  0.75660867  1
  O2-  O147  1  0.07141199  0.68095197  0.10086132  1
  O2-  O148  1  0.06685908  0.67844237  0.42443176  1
  O2-  O149  1  0.07091084  0.68206348  0.76375760  1
  O2-  O150  1  0.56839275  0.17493026  0.09021109  1
  O2-  O151  1  0.57539329  0.18162042  0.43115520  1
  O2-  O152  1  0.56502488  0.17415439  0.76709758  1
  O2-  O153  1  0.57051105  0.68133792  0.09696971  1
  O2-  O154  1  0.57419205  0.67976681  0.43240468  1
  O2-  O155  1  0.57342625  0.68274211  0.75738436  1
  O2-  O156  1  0.17917578  0.43379679  0.23331495  1
  O2-  O157  1  0.17974184  0.43074483  0.56957831  1
  O2-  O158  1  0.18163413  0.43287733  0.90982478  1
  O2-  O159  1  0.17706398  0.92559195  0.23573013  1
  O2-  O160  1  0.18024934  0.92481575  0.57836446  1
  O2-  O161  1  0.18294297  0.92136674  0.90882331  1
  O2-  O162  1  0.67678995  0.42854261  0.24142806  1
  O2-  O163  1  0.67884803  0.42998186  0.56693249  1
  O2-  O164  1  0.67136742  0.43179220  0.91273084  1
  O2-  O165  1  0.68382948  0.92593431  0.24359697  1
  O2-  O166  1  0.67583766  0.92648016  0.57579354  1
  O2-  O167  1  0.68269563  0.93210002  0.90149178  1
  O2-  O168  1  0.42868130  0.32053465  0.10119997  1
  O2-  O169  1  0.43017588  0.32266968  0.42338712  1
  O2-  O170  1  0.42546757  0.31753227  0.76335623  1
  O2-  O171  1  0.42921960  0.81999957  0.08716186  1
  O2-  O172  1  0.43091601  0.81788012  0.43081299  1
  O2-  O173  1  0.42806755  0.82138879  0.75704683  1
  O2-  O174  1  0.93431672  0.32319386  0.09594477  1
  O2-  O175  1  0.92623608  0.32364306  0.43138606  1
  O2-  O176  1  0.93239275  0.31889313  0.76612365  1
  O2-  O177  1  0.92665495  0.82046472  0.08934423  1
  O2-  O178  1  0.92560959  0.82201810  0.42373110  1
  O2-  O179  1  0.92915080  0.82708019  0.75467421  1
  O2-  O180  1  0.32087769  0.07113151  0.23884271  1
  O2-  O181  1  0.32311075  0.06545876  0.57859861  1
  O2-  O182  1  0.31865289  0.06905271  0.90016193  1
  O2-  O183  1  0.32276916  0.57033827  0.24212426  1
  O2-  O184  1  0.31730880  0.58103091  0.57823660  1
  O2-  O185  1  0.32366073  0.57472930  0.90918099  1
  O2-  O186  1  0.81705152  0.06748854  0.24042211  1
  O2-  O187  1  0.82148778  0.06984474  0.56540411  1
  O2-  O188  1  0.82379132  0.07261815  0.91325017  1
  O2-  O189  1  0.82286029  0.57387723  0.24377401  1
  O2-  O190  1  0.81803385  0.57186585  0.56768816  1
  O2-  O191  1  0.82039183  0.56779090  0.90292698  1
  O2-  O192  1  0.04200020  0.08056506  0.26710757  1
  O2-  O193  1  0.04902270  0.07815429  0.60839035  1
  O2-  O194  1  0.05275463  0.07580437  0.93540538  1
  O2-  O195  1  0.03792053  0.59074837  0.27017972  1
  O2-  O196  1  0.03875620  0.58354532  0.59638568  1
  O2-  O197  1  0.03888185  0.58533741  0.93286031  1
  O2-  O198  1  0.54409257  0.08060333  0.26683440  1
  O2-  O199  1  0.53963005  0.08110584  0.59931556  1
  O2-  O200  1  0.54108313  0.08265217  0.93928916  1
  O2-  O201  1  0.54735992  0.57879880  0.26443788  1
  O2-  O202  1  0.54595478  0.58898635  0.60422802  1
  O2-  O203  1  0.54043964  0.58588475  0.92844312  1
  O2-  O204  1  0.17206591  0.20568543  0.27244016  1
  O2-  O205  1  0.16633401  0.19905331  0.60696229  1
  O2-  O206  1  0.16717921  0.21245901  0.93079424  1
  O2-  O207  1  0.16330897  0.70255388  0.27332627  1
  O2-  O208  1  0.16531427  0.71233157  0.59618869  1
  O2-  O209  1  0.16869137  0.70876947  0.93090820  1
  O2-  O210  1  0.66395178  0.21134568  0.25894453  1
  O2-  O211  1  0.66922489  0.20518172  0.60201340  1
  O2-  O212  1  0.66729262  0.19429395  0.94174197  1
  O2-  O213  1  0.67187750  0.70871640  0.26611251  1
  O2-  O214  1  0.66487768  0.70875033  0.60484914  1
  O2-  O215  1  0.66883930  0.71441439  0.93219021  1
  O2-  O216  1  0.09024083  0.46229234  0.06217411  1
  O2-  O217  1  0.08380638  0.46667471  0.40141464  1
  O2-  O218  1  0.08611756  0.46346533  0.73655586  1
  O2-  O219  1  0.08084386  0.94107901  0.05656253  1
  O2-  O220  1  0.07675325  0.95324471  0.40258848  1
  O2-  O221  1  0.08657222  0.94709109  0.73120840  1
  O2-  O222  1  0.58183812  0.45861921  0.06436618  1
  O2-  O223  1  0.58722677  0.45436890  0.39524055  1
  O2-  O224  1  0.57481674  0.45515623  0.73003386  1
  O2-  O225  1  0.58457936  0.95857212  0.07074779  1
  O2-  O226  1  0.58608256  0.94986357  0.39316250  1
  O2-  O227  1  0.58254626  0.95300793  0.72875919  1
  O2-  O228  1  0.21056558  0.34083596  0.06184480  1
  O2-  O229  1  0.20599086  0.33497478  0.40361399  1
  O2-  O230  1  0.20943829  0.33047305  0.73704371  1
  O2-  O231  1  0.20890331  0.83295380  0.06217444  1
  O2-  O232  1  0.20652035  0.82866188  0.40239105  1
  O2-  O233  1  0.21250929  0.83555232  0.73026185  1
  O2-  O234  1  0.69424150  0.33135108  0.06086441  1
  O2-  O235  1  0.70871082  0.33597007  0.39234106  1
  O2-  O236  1  0.70289889  0.33091257  0.73546993  1
  O2-  O237  1  0.71410857  0.83571786  0.07092803  1
  O2-  O238  1  0.71268700  0.83790244  0.39733158  1
  O2-  O239  1  0.70353933  0.83605325  0.72961184  1
  O2-  O240  1  0.45411836  0.41417578  0.27115735  1
  O2-  O241  1  0.44375703  0.42484970  0.59897018  1
  O2-  O242  1  0.45582091  0.41725056  0.93152360  1
  O2-  O243  1  0.45618602  0.91797970  0.26372982  1
  O2-  O244  1  0.45631352  0.91154954  0.60300805  1
  O2-  O245  1  0.45709015  0.91680847  0.93779538  1
  O2-  O246  1  0.95858367  0.42309094  0.26609112  1
  O2-  O247  1  0.96364097  0.41448751  0.59899259  1
  O2-  O248  1  0.96291903  0.41753001  0.92991290  1
  O2-  O249  1  0.95328375  0.91391025  0.26916979  1
  O2-  O250  1  0.95690076  0.91629317  0.60208943  1
  O2-  O251  1  0.94690207  0.91698660  0.93768292  1
  O2-  O252  1  0.33219874  0.29785775  0.27483740  1
  O2-  O253  1  0.32870901  0.28788933  0.59801879  1
  O2-  O254  1  0.33497472  0.28738013  0.93288308  1
  O2-  O255  1  0.32943329  0.79259277  0.26306384  1
  O2-  O256  1  0.33836617  0.79156475  0.60305766  1
  O2-  O257  1  0.33708361  0.79682463  0.93417362  1
  O2-  O258  1  0.83250478  0.29612293  0.26107517  1
  O2-  O259  1  0.83274079  0.29039036  0.60173674  1
  O2-  O260  1  0.82614259  0.29987911  0.93370729  1
  O2-  O261  1  0.83918470  0.79113568  0.26941721  1
  O2-  O262  1  0.83228033  0.80230684  0.60384485  1
  O2-  O263  1  0.83474980  0.79318256  0.93705900  1
  O2-  O264  1  0.41283818  0.03989066  0.06932972  1
  O2-  O265  1  0.42077388  0.03808997  0.40447827  1
  O2-  O266  1  0.41112743  0.03576752  0.73141087  1
  O2-  O267  1  0.41591991  0.54519167  0.06097726  1
  O2-  O268  1  0.41912987  0.54838945  0.39335773  1
  O2-  O269  1  0.41694176  0.55645794  0.72656066  1
  O2-  O270  1  0.91787260  0.04608671  0.06434824  1
  O2-  O271  1  0.90876890  0.04174542  0.39370057  1
  O2-  O272  1  0.91582430  0.03842041  0.73656996  1
  O2-  O273  1  0.91840087  0.53791553  0.06961361  1
  O2-  O274  1  0.91213645  0.54456365  0.39719469  1
  O2-  O275  1  0.91931357  0.54068430  0.73233432  1
  O2-  O276  1  0.28780291  0.16846874  0.06837984  1
  O2-  O277  1  0.29736505  0.16960936  0.40748675  1
  O2-  O278  1  0.29487422  0.16036664  0.73025041  1
  O2-  O279  1  0.29678293  0.66569522  0.06110919  1
  O2-  O280  1  0.29902290  0.66535078  0.39353293  1
  O2-  O281  1  0.29005889  0.66671068  0.73235064  1
  O2-  O282  1  0.80079409  0.16938521  0.06357583  1
  O2-  O283  1  0.79099888  0.16560022  0.38887387  1
  O2-  O284  1  0.79003935  0.16578674  0.73665856  1
  O2-  O285  1  0.79079417  0.66456723  0.06926651  1
  O2-  O286  1  0.79396397  0.66367695  0.39727503  1
  O2-  O287  1  0.79741956  0.67211154  0.73345655  1
