# generated using pymatgen
data_Ca2Al2SiO7
_symmetry_space_group_name_H-M   'P 1'
_cell_length_a   15.45493473
_cell_length_b   15.45451890
_cell_length_c   15.28113958
_cell_angle_alpha   90.00644188
_cell_angle_beta   89.99669585
_cell_angle_gamma   90.00291253
_symmetry_Int_Tables_number   1
_chemical_formula_structural   Ca2Al2SiO7
_chemical_formula_sum   'Ca48 Al48 Si24 O168'
_cell_volume   3649.87846846
_cell_formula_units_Z   24
loop_
 _symmetry_equiv_pos_site_id
 _symmetry_equiv_pos_as_xyz
  1  'x, y, z'
loop_
 _atom_type_symbol
 _atom_type_oxidation_number
  Ca2+  2.0
  Al0+  0.0
  Si0+  0.0
  O2-  -2.0
loop_
 _atom_site_type_symbol
 _atom_site_label
 _atom_site_symmetry_multiplicity
 _atom_site_fract_x
 _atom_site_fract_y
 _atom_site_fract_z
 _atom_site_occupancy
  Ca2+  Ca0  1  0.16964576  0.07144633  0.17631692  1
  Ca2+  Ca1  1  0.16824907  0.07814464  0.49945443  1
  Ca2+  Ca2  1  0.16773414  0.07646363  0.84085685  1
  Ca2+  Ca3  1  0.17440558  0.59250540  0.16752225  1
  Ca2+  Ca4  1  0.17221578  0.58931229  0.50238206  1
  Ca2+  Ca5  1  0.17014518  0.59032106  0.83904942  1
  Ca2+  Ca6  1  0.67103992  0.07830949  0.17431149  1
  Ca2+  Ca7  1  0.66585909  0.07274351  0.50134999  1
  Ca2+  Ca8  1  0.66103522  0.08381959  0.83332098  1
  Ca2+  Ca9  1  0.67414499  0.57384283  0.17258040  1
  Ca2+  Ca10  1  0.68075661  0.58338642  0.51029784  1
  Ca2+  Ca11  1  0.66736985  0.57222884  0.83323559  1
  Ca2+  Ca12  1  0.07099408  0.33301778  0.16442533  1
  Ca2+  Ca13  1  0.07009201  0.33410160  0.49480001  1
  Ca2+  Ca14  1  0.06930384  0.34126311  0.82884472  1
  Ca2+  Ca15  1  0.07593545  0.83643605  0.16005283  1
  Ca2+  Ca16  1  0.07796654  0.82865588  0.49288003  1
  Ca2+  Ca17  1  0.08128588  0.82571201  0.83424237  1
  Ca2+  Ca18  1  0.58747706  0.32479308  0.15729197  1
  Ca2+  Ca19  1  0.58505474  0.33210127  0.50256685  1
  Ca2+  Ca20  1  0.58668135  0.32741615  0.82477127  1
  Ca2+  Ca21  1  0.57859121  0.83709942  0.16858429  1
  Ca2+  Ca22  1  0.58710942  0.83144091  0.49378970  1
  Ca2+  Ca23  1  0.58307501  0.82634889  0.82332449  1
  Ca2+  Ca24  1  0.33264328  0.43097077  0.17240981  1
  Ca2+  Ca25  1  0.33419283  0.41911080  0.50466033  1
  Ca2+  Ca26  1  0.33622034  0.42171901  0.83814183  1
  Ca2+  Ca27  1  0.32089251  0.91592213  0.17752077  1
  Ca2+  Ca28  1  0.33388443  0.91699284  0.49552318  1
  Ca2+  Ca29  1  0.32606954  0.91599421  0.83995779  1
  Ca2+  Ca30  1  0.83407202  0.41752495  0.17098600  1
  Ca2+  Ca31  1  0.83509735  0.42473083  0.50782713  1
  Ca2+  Ca32  1  0.82807985  0.41505635  0.83460184  1
  Ca2+  Ca33  1  0.83321182  0.92030089  0.17934935  1
  Ca2+  Ca34  1  0.82523817  0.91479176  0.50220640  1
  Ca2+  Ca35  1  0.82837163  0.91429811  0.83582872  1
  Ca2+  Ca36  1  0.42273926  0.16151325  0.16288949  1
  Ca2+  Ca37  1  0.41991261  0.16720491  0.49745806  1
  Ca2+  Ca38  1  0.42857381  0.17371988  0.82372750  1
  Ca2+  Ca39  1  0.40971382  0.66965443  0.16621083  1
  Ca2+  Ca40  1  0.42676628  0.66941128  0.49344557  1
  Ca2+  Ca41  1  0.42235917  0.66444769  0.82800550  1
  Ca2+  Ca42  1  0.90721763  0.17591920  0.16422980  1
  Ca2+  Ca43  1  0.90506884  0.17819828  0.49518486  1
  Ca2+  Ca44  1  0.91367283  0.17955826  0.83034199  1
  Ca2+  Ca45  1  0.91717158  0.67966775  0.16175531  1
  Ca2+  Ca46  1  0.91881697  0.66422250  0.49274980  1
  Ca2+  Ca47  1  0.92625166  0.66516538  0.82786365  1
  Al0+  Al48  1  -0.00207683  0.00088761  -0.00076692  1
  Al0+  Al49  1  0.00023135  0.00148745  0.34013169  1
  Al0+  Al50  1  0.00025025  -0.00038487  0.66980719  1
  Al0+  Al51  1  0.00036249  0.50134239  -0.00641084  1
  Al0+  Al52  1  0.00085968  0.49857027  0.32964100  1
  Al0+  Al53  1  0.00310628  0.50150059  0.66158095  1
  Al0+  Al54  1  0.50047355  -0.00043938  -0.00542697  1
  Al0+  Al55  1  0.49895105  -0.00158312  0.33477967  1
  Al0+  Al56  1  0.49856458  0.00115122  0.66867836  1
  Al0+  Al57  1  0.50042990  0.49983124  0.01096453  1
  Al0+  Al58  1  0.49954244  0.49884090  0.33587166  1
  Al0+  Al59  1  0.50144809  0.50178710  0.66139909  1
  Al0+  Al60  1  0.25032226  0.25158371  0.00180283  1
  Al0+  Al61  1  0.24993016  0.25040563  0.33437506  1
  Al0+  Al62  1  0.24987523  0.25026581  0.66604926  1
  Al0+  Al63  1  0.24957085  0.75195351  0.00421451  1
  Al0+  Al64  1  0.25263522  0.74926814  0.33961098  1
  Al0+  Al65  1  0.24849261  0.75067862  0.66348287  1
  Al0+  Al66  1  0.74837429  0.24882457  -0.00502690  1
  Al0+  Al67  1  0.74773210  0.24910303  0.33136680  1
  Al0+  Al68  1  0.74954725  0.24889963  0.66035933  1
  Al0+  Al69  1  0.74820649  0.74959935  -0.00278648  1
  Al0+  Al70  1  0.75124342  0.74617099  0.33387761  1
  Al0+  Al71  1  0.75115740  0.75104022  0.67351627  1
  Al0+  Al72  1  0.67946891  0.42915054  0.68045884  1
  Al0+  Al73  1  0.42800512  0.32224480  0.65123903  1
  Al0+  Al74  1  0.82554496  0.57163790  0.68375976  1
  Al0+  Al75  1  0.82153506  0.07347215  0.34788561  1
  Al0+  Al76  1  0.92956340  0.32056844  0.98535332  1
  Al0+  Al77  1  0.92879372  0.82096742  0.32241946  1
  Al0+  Al78  1  0.57275580  0.68038587  0.65416947  1
  Al0+  Al79  1  0.92803668  0.32006107  0.31851017  1
  Al0+  Al80  1  0.93039653  0.31976331  0.65182413  1
  Al0+  Al81  1  0.07187853  0.68203918  0.98594701  1
  Al0+  Al82  1  0.43101902  0.81951084  0.31947153  1
  Al0+  Al83  1  0.32154191  0.07212006  0.34837314  1
  Al0+  Al84  1  0.32021326  0.56998705  0.01309212  1
  Al0+  Al85  1  0.57110242  0.17720763  0.64729364  1
  Al0+  Al86  1  0.67994056  0.92765647  0.34618628  1
  Al0+  Al87  1  0.32130066  0.57092741  0.35061160  1
  Al0+  Al88  1  0.92554984  0.82427876  0.98384417  1
  Al0+  Al89  1  0.67797131  0.92996107  0.68212065  1
  Al0+  Al90  1  0.82176201  0.56826795  0.34427860  1
  Al0+  Al91  1  0.56888712  0.17879421  0.98584691  1
  Al0+  Al92  1  0.07118283  0.68051099  0.65050707  1
  Al0+  Al93  1  0.68148478  0.42779837  0.01395910  1
  Al0+  Al94  1  0.17718132  0.92782840  0.35097607  1
  Al0+  Al95  1  0.17865064  0.93152460  0.01353036  1
  Si0+  Si96  1  0.07388482  0.17835638  0.31708122  1
  Si0+  Si97  1  0.42787291  0.32458766  0.98675555  1
  Si0+  Si98  1  0.82361744  0.57247696  0.01624261  1
  Si0+  Si99  1  0.67754490  0.42625468  0.34992401  1
  Si0+  Si100  1  0.32048326  0.57155720  0.68043423  1
  Si0+  Si101  1  0.57312416  0.67546845  0.31471142  1
  Si0+  Si102  1  0.56784813  0.17957777  0.31706944  1
  Si0+  Si103  1  0.82239073  0.07199420  0.68500583  1
  Si0+  Si104  1  0.67682288  0.92643326  0.01453015  1
  Si0+  Si105  1  0.07268189  0.17526905  0.65069021  1
  Si0+  Si106  1  0.81809555  0.06998483  0.01309389  1
  Si0+  Si107  1  0.07325099  0.67835584  0.31640376  1
  Si0+  Si108  1  0.17922315  0.92848989  0.68375806  1
  Si0+  Si109  1  0.32367903  0.07256268  0.01441690  1
  Si0+  Si110  1  0.42712846  0.82175398  0.65113043  1
  Si0+  Si111  1  0.17465452  0.42670518  0.01669498  1
  Si0+  Si112  1  0.07381210  0.17805088  0.98500918  1
  Si0+  Si113  1  0.42656139  0.32268158  0.31599339  1
  Si0+  Si114  1  0.57041324  0.67652018  0.98685943  1
  Si0+  Si115  1  0.18016173  0.42838841  0.68114913  1
  Si0+  Si116  1  0.42962597  0.81959432  0.98560252  1
  Si0+  Si117  1  0.31990646  0.07253290  0.68397603  1
  Si0+  Si118  1  0.92836582  0.82319413  0.65020499  1
  Si0+  Si119  1  0.17857243  0.42820686  0.35026882  1
  O2-  O120  1  0.25108673  0.00916032  0.05902151  1
  O2-  O121  1  0.24902541  0.00139568  0.39971024  1
  O2-  O122  1  0.24911156  0.00097020  0.72610793  1
  O2-  O123  1  0.24437423  0.49531214  0.05938997  1
  O2-  O124  1  0.24670605  0.49622913  0.39655906  1
  O2-  O125  1  0.25265811  0.49809784  0.72362332  1
  O2-  O126  1  0.75143269  -0.00570913  0.05505911  1
  O2-  O127  1  0.75455196  -0.00351620  0.39680608  1
  O2-  O128  1  0.75264960  0.00458810  0.73007010  1
  O2-  O129  1  0.75698297  0.50164116  0.06070923  1
  O2-  O130  1  0.74712672  0.49431623  0.39201030  1
  O2-  O131  1  0.75276553  0.49909005  0.73236818  1
  O2-  O132  1  0.00084401  0.24252070  0.27238539  1
  O2-  O133  1  0.00327075  0.24236755  0.60611958  1
  O2-  O134  1  0.00918950  0.24977724  0.93963453  1
  O2-  O135  1  0.00567701  0.74886603  0.27382628  1
  O2-  O136  1  -0.00640680  0.75203257  0.60518975  1
  O2-  O137  1  -0.00351501  0.75024556  0.93514694  1
  O2-  O138  1  0.49736907  0.25136366  0.27400895  1
  O2-  O139  1  0.49961640  0.25104137  0.59909083  1
  O2-  O140  1  0.49261367  0.25329832  0.94168466  1
  O2-  O141  1  0.50432615  0.74438921  0.27005021  1
  O2-  O142  1  0.50052217  0.75791535  0.60813982  1
  O2-  O143  1  0.50079732  0.74902222  0.94365783  1
  O2-  O144  1  0.07290384  0.17754383  0.09032465  1
  O2-  O145  1  0.07820116  0.18340109  0.42247485  1
  O2-  O146  1  0.07316637  0.17520381  0.75667040  1
  O2-  O147  1  0.07320202  0.68498431  0.09940375  1
  O2-  O148  1  0.07126856  0.67758622  0.42218527  1
  O2-  O149  1  0.07654563  0.68383250  0.76335574  1
  O2-  O150  1  0.56837184  0.17725736  0.09939380  1
  O2-  O151  1  0.56745484  0.18036003  0.42158081  1
  O2-  O152  1  0.56758293  0.17736853  0.76132084  1
  O2-  O153  1  0.57068137  0.67795453  0.09180252  1
  O2-  O154  1  0.57226886  0.67570831  0.42024077  1
  O2-  O155  1  0.56691149  0.67924002  0.76812013  1
  O2-  O156  1  0.18006605  0.42798190  0.24446927  1
  O2-  O157  1  0.18065506  0.42795449  0.57622717  1
  O2-  O158  1  0.17624980  0.42473586  0.91095696  1
  O2-  O159  1  0.17817596  0.92856414  0.23696094  1
  O2-  O160  1  0.17943139  0.92869871  0.57933268  1
  O2-  O161  1  0.18296519  0.93149312  0.89975227  1
  O2-  O162  1  0.67762265  0.42590635  0.24371221  1
  O2-  O163  1  0.68088783  0.43181510  0.56695677  1
  O2-  O164  1  0.67949563  0.42839571  0.90134682  1
  O2-  O165  1  0.67855425  0.93153328  0.23181342  1
  O2-  O166  1  0.67898051  0.92942335  0.56941454  1
  O2-  O167  1  0.67420834  0.92764046  0.90958162  1
  O2-  O168  1  0.42923473  0.32383205  0.09246781  1
  O2-  O169  1  0.42681858  0.32345897  0.42070678  1
  O2-  O170  1  0.42505029  0.32024425  0.76539218  1
  O2-  O171  1  0.43021327  0.82111977  0.09044899  1
  O2-  O172  1  0.43312207  0.81806870  0.43253963  1
  O2-  O173  1  0.42394313  0.81831084  0.75756974  1
  O2-  O174  1  0.92908741  0.31818820  0.09849043  1
  O2-  O175  1  0.93014614  0.32107180  0.43134896  1
  O2-  O176  1  0.93215649  0.31857533  0.76530503  1
  O2-  O177  1  0.92528394  0.82535074  0.09765880  1
  O2-  O178  1  0.92829345  0.81689901  0.43536659  1
  O2-  O179  1  0.93263311  0.82552298  0.75583578  1
  O2-  O180  1  0.32046351  0.07084560  0.23412824  1
  O2-  O181  1  0.31898576  0.07284634  0.57934158  1
  O2-  O182  1  0.32342354  0.07000344  0.90856537  1
  O2-  O183  1  0.31967119  0.57020825  0.23720773  1
  O2-  O184  1  0.31780590  0.57202438  0.57567845  1
  O2-  O185  1  0.32237166  0.56891899  0.89955098  1
  O2-  O186  1  0.81655229  0.07553967  0.23349453  1
  O2-  O187  1  0.82477584  0.06947053  0.57989256  1
  O2-  O188  1  0.81645752  0.07159117  0.90798272  1
  O2-  O189  1  0.82004652  0.56789083  0.23076969  1
  O2-  O190  1  0.82546120  0.57001951  0.56983397  1
  O2-  O191  1  0.82211171  0.57231795  0.91098239  1
  O2-  O192  1  0.05300157  0.08246612  0.27474238  1
  O2-  O193  1  0.04926881  0.08062200  0.60576272  1
  O2-  O194  1  0.04498080  0.08643584  0.93669363  1
  O2-  O195  1  0.04918866  0.58462944  0.26988693  1
  O2-  O196  1  0.04700950  0.58324723  0.59546781  1
  O2-  O197  1  0.04993580  0.58214147  0.93232779  1
  O2-  O198  1  0.53907366  0.08796405  0.26960817  1
  O2-  O199  1  0.53768741  0.07910399  0.59665765  1
  O2-  O200  1  0.53888812  0.08276097  0.92916886  1
  O2-  O201  1  0.54537647  0.58136104  0.26973891  1
  O2-  O202  1  0.54055033  0.58689646  0.59641763  1
  O2-  O203  1  0.53870242  0.58497727  0.94148253  1
  O2-  O204  1  0.16561281  0.20791036  0.26774963  1
  O2-  O205  1  0.16586949  0.20163040  0.60494478  1
  O2-  O206  1  0.16975308  0.19861147  0.93974992  1
  O2-  O207  1  0.16858339  0.70311073  0.27451547  1
  O2-  O208  1  0.16636617  0.71497312  0.59509118  1
  O2-  O209  1  0.16986540  0.71453681  0.93248388  1
  O2-  O210  1  0.65893818  0.20792043  0.26789254  1
  O2-  O211  1  0.66982478  0.20146173  0.59465361  1
  O2-  O212  1  0.66357795  0.21024574  0.92978820  1
  O2-  O213  1  0.66618583  0.70029748  0.26766362  1
  O2-  O214  1  0.67082430  0.71003487  0.60311416  1
  O2-  O215  1  0.66161717  0.70202421  0.93779063  1
  O2-  O216  1  0.08101386  0.45297798  0.06202560  1
  O2-  O217  1  0.08493632  0.45409705  0.39544872  1
  O2-  O218  1  0.08997329  0.45974913  0.72890074  1
  O2-  O219  1  0.08070965  0.96054870  0.06581092  1
  O2-  O220  1  0.08051010  0.95606622  0.40705249  1
  O2-  O221  1  0.08744792  0.95538300  0.73223886  1
  O2-  O222  1  0.58658234  0.45838248  0.07197889  1
  O2-  O223  1  0.58364003  0.45047696  0.39509534  1
  O2-  O224  1  0.58019905  0.45974735  0.73235745  1
  O2-  O225  1  0.58527239  0.95814192  0.06101854  1
  O2-  O226  1  0.58300267  0.95865995  0.39945746  1
  O2-  O227  1  0.57997586  0.95897129  0.73637642  1
  O2-  O228  1  0.19849529  0.33265254  0.06421256  1
  O2-  O229  1  0.20403832  0.33515522  0.39695308  1
  O2-  O230  1  0.20462194  0.33602445  0.73015918  1
  O2-  O231  1  0.21339274  0.83780953  0.06915594  1
  O2-  O232  1  0.20922206  0.83132270  0.40464917  1
  O2-  O233  1  0.21136910  0.83758139  0.73103981  1
  O2-  O234  1  0.71206553  0.33020641  0.06678644  1
  O2-  O235  1  0.70121438  0.33235876  0.39447676  1
  O2-  O236  1  0.70597759  0.32810524  0.72968007  1
  O2-  O237  1  0.69845374  0.83278629  0.06097497  1
  O2-  O238  1  0.70460663  0.82785785  0.39705889  1
  O2-  O239  1  0.70820954  0.83464500  0.73930043  1
  O2-  O240  1  0.45516517  0.41483012  0.26899138  1
  O2-  O241  1  0.45427591  0.42055510  0.59765494  1
  O2-  O242  1  0.45605987  0.41802342  0.94222957  1
  O2-  O243  1  0.46058353  0.91619098  0.26389089  1
  O2-  O244  1  0.44699901  0.91757277  0.60913140  1
  O2-  O245  1  0.45649512  0.91062225  0.93548293  1
  O2-  O246  1  0.96291848  0.41467200  0.26198378  1
  O2-  O247  1  0.96588037  0.41449892  0.59798783  1
  O2-  O248  1  0.95730293  0.41724494  0.93028423  1
  O2-  O249  1  0.95558595  0.92096916  0.27204476  1
  O2-  O250  1  0.95714553  0.91648665  0.60481439  1
  O2-  O251  1  0.95451458  0.92245000  0.93017035  1
  O2-  O252  1  0.33425646  0.29653013  0.26850633  1
  O2-  O253  1  0.32901183  0.29312713  0.59856883  1
  O2-  O254  1  0.33188862  0.30493607  0.94183477  1
  O2-  O255  1  0.33353896  0.78715676  0.26710819  1
  O2-  O256  1  0.33603179  0.79217643  0.60312826  1
  O2-  O257  1  0.33835617  0.79115888  0.93798163  1
  O2-  O258  1  0.83059758  0.29011784  0.26446171  1
  O2-  O259  1  0.83449395  0.29082063  0.59691359  1
  O2-  O260  1  0.83571458  0.28383161  0.93057888  1
  O2-  O261  1  0.83330808  0.78813874  0.26610752  1
  O2-  O262  1  0.83259854  0.80179558  0.60892606  1
  O2-  O263  1  0.82580914  0.79776470  0.93196193  1
  O2-  O264  1  0.41620662  0.04199329  0.05988440  1
  O2-  O265  1  0.41798467  0.04078257  0.40245257  1
  O2-  O266  1  0.41090350  0.04455254  0.73274400  1
  O2-  O267  1  0.41418147  0.53998819  0.07301753  1
  O2-  O268  1  0.41836528  0.53958621  0.40305892  1
  O2-  O269  1  0.41341385  0.54649933  0.72639406  1
  O2-  O270  1  0.91150645  0.04859254  0.06009995  1
  O2-  O271  1  0.92172952  0.05650980  0.40023743  1
  O2-  O272  1  0.91618522  0.04659030  0.73276339  1
  O2-  O273  1  0.91859772  0.54897459  0.05996981  1
  O2-  O274  1  0.91913347  0.53829853  0.39695439  1
  O2-  O275  1  0.92527867  0.54202332  0.73380842  1
  O2-  O276  1  0.30556436  0.16893826  0.05856839  1
  O2-  O277  1  0.29513103  0.17145991  0.40080353  1
  O2-  O278  1  0.29144045  0.16400445  0.73255564  1
  O2-  O279  1  0.28925232  0.66622766  0.06802111  1
  O2-  O280  1  0.29253508  0.66597319  0.40694326  1
  O2-  O281  1  0.28963137  0.66305112  0.72779492  1
  O2-  O282  1  0.78489833  0.15969755  0.06112880  1
  O2-  O283  1  0.78560042  0.16934568  0.40125120  1
  O2-  O284  1  0.79620466  0.16619956  0.72909197  1
  O2-  O285  1  0.79394073  0.66588337  0.06155637  1
  O2-  O286  1  0.79147930  0.66332344  0.40047032  1
  O2-  O287  1  0.79882981  0.66999354  0.73687369  1
