# generated using pymatgen
data_Ca2Al2SiO7
_symmetry_space_group_name_H-M   'P 1'
_cell_length_a   15.45668169
_cell_length_b   15.45662082
_cell_length_c   15.28148331
_cell_angle_alpha   89.99257716
_cell_angle_beta   90.01170822
_cell_angle_gamma   90.00093137
_symmetry_Int_Tables_number   1
_chemical_formula_structural   Ca2Al2SiO7
_chemical_formula_sum   'Ca48 Al48 Si24 O168'
_cell_volume   3650.86954471
_cell_formula_units_Z   24
loop_
 _symmetry_equiv_pos_site_id
 _symmetry_equiv_pos_as_xyz
  1  'x, y, z'
loop_
 _atom_type_symbol
 _atom_type_oxidation_number
  Ca2+  2.0
  Al0+  0.0
  Si0+  0.0
  O2-  -2.0
loop_
 _atom_site_type_symbol
 _atom_site_label
 _atom_site_symmetry_multiplicity
 _atom_site_fract_x
 _atom_site_fract_y
 _atom_site_fract_z
 _atom_site_occupancy
  Ca2+  Ca0  1  0.16434727  0.08340617  0.16689299  1
  Ca2+  Ca1  1  0.16573774  0.07720325  0.50555403  1
  Ca2+  Ca2  1  0.16820160  0.07512957  0.84551502  1
  Ca2+  Ca3  1  0.15693927  0.57117684  0.17357182  1
  Ca2+  Ca4  1  0.15937054  0.57291590  0.50211730  1
  Ca2+  Ca5  1  0.16214796  0.57051854  0.83715904  1
  Ca2+  Ca6  1  0.67704456  0.09154607  0.17144633  1
  Ca2+  Ca7  1  0.67652484  0.09022896  0.50438549  1
  Ca2+  Ca8  1  0.67596946  0.09007834  0.83816307  1
  Ca2+  Ca9  1  0.67017786  0.58657682  0.17376687  1
  Ca2+  Ca10  1  0.67500663  0.58392218  0.50621139  1
  Ca2+  Ca11  1  0.66909247  0.58078296  0.83683524  1
  Ca2+  Ca12  1  0.08025761  0.32661007  0.15910257  1
  Ca2+  Ca13  1  0.08477755  0.33003584  0.49176906  1
  Ca2+  Ca14  1  0.08284108  0.33193021  0.83456875  1
  Ca2+  Ca15  1  0.07944997  0.82820414  0.15987195  1
  Ca2+  Ca16  1  0.07957951  0.82851326  0.49686061  1
  Ca2+  Ca17  1  0.07460814  0.84557867  0.83045887  1
  Ca2+  Ca18  1  0.58516613  0.32161905  0.16095086  1
  Ca2+  Ca19  1  0.59258223  0.32607821  0.50017891  1
  Ca2+  Ca20  1  0.58776400  0.32243580  0.82725865  1
  Ca2+  Ca21  1  0.58265008  0.82413407  0.16519609  1
  Ca2+  Ca22  1  0.57591441  0.82834375  0.48943936  1
  Ca2+  Ca23  1  0.58568168  0.82778609  0.83232949  1
  Ca2+  Ca24  1  0.31957196  0.41195454  0.16945106  1
  Ca2+  Ca25  1  0.32072287  0.41348479  0.50266169  1
  Ca2+  Ca26  1  0.32144725  0.41210336  0.83807001  1
  Ca2+  Ca27  1  0.33291198  0.91905466  0.16617787  1
  Ca2+  Ca28  1  0.32843084  0.91343185  0.50421264  1
  Ca2+  Ca29  1  0.31979105  0.92055263  0.84196407  1
  Ca2+  Ca30  1  0.83623451  0.42069270  0.17185045  1
  Ca2+  Ca31  1  0.82972543  0.43135073  0.50600837  1
  Ca2+  Ca32  1  0.83208189  0.41923815  0.83460529  1
  Ca2+  Ca33  1  0.83919711  0.92751997  0.16692827  1
  Ca2+  Ca34  1  0.83854303  0.92846689  0.50490193  1
  Ca2+  Ca35  1  0.84099995  0.92664379  0.83848714  1
  Ca2+  Ca36  1  0.42718457  0.16090043  0.16034475  1
  Ca2+  Ca37  1  0.43092469  0.16653978  0.49430569  1
  Ca2+  Ca38  1  0.42701816  0.15704826  0.83216349  1
  Ca2+  Ca39  1  0.42552482  0.66924163  0.16433540  1
  Ca2+  Ca40  1  0.42230634  0.67315157  0.48858561  1
  Ca2+  Ca41  1  0.42159697  0.66305482  0.83286488  1
  Ca2+  Ca42  1  0.92426580  0.16720873  0.15775126  1
  Ca2+  Ca43  1  0.91974269  0.16565074  0.49348261  1
  Ca2+  Ca44  1  0.91650297  0.16694844  0.83415008  1
  Ca2+  Ca45  1  0.91831582  0.66983247  0.16277540  1
  Ca2+  Ca46  1  0.91456276  0.66926674  0.49541569  1
  Ca2+  Ca47  1  0.91405590  0.68132974  0.82677520  1
  Al0+  Al48  1  0.00013769  -0.00014982  0.00237103  1
  Al0+  Al49  1  0.00097058  0.00056451  0.33494822  1
  Al0+  Al50  1  -0.00001053  0.00030047  0.66819973  1
  Al0+  Al51  1  -0.00130527  0.50046753  -0.00010096  1
  Al0+  Al52  1  -0.00231653  0.50046012  0.33970219  1
  Al0+  Al53  1  -0.00021541  0.50058668  0.67505491  1
  Al0+  Al54  1  0.49994577  -0.00332873  -0.00182301  1
  Al0+  Al55  1  0.49957054  0.00049142  0.32620394  1
  Al0+  Al56  1  0.50217283  -0.00063838  0.66017429  1
  Al0+  Al57  1  0.50047026  0.49904869  -0.00356297  1
  Al0+  Al58  1  0.49763874  0.49860484  0.33077916  1
  Al0+  Al59  1  0.49893815  0.49807027  0.66737203  1
  Al0+  Al60  1  0.25084383  0.24929074  0.00508479  1
  Al0+  Al61  1  0.25001783  0.24752193  0.33559514  1
  Al0+  Al62  1  0.25218519  0.24945715  0.66986277  1
  Al0+  Al63  1  0.25126948  0.74796687  0.00322739  1
  Al0+  Al64  1  0.24848527  0.74920655  0.32457994  1
  Al0+  Al65  1  0.24899547  0.74889167  0.67122673  1
  Al0+  Al66  1  0.75019029  0.25167453  -0.00275106  1
  Al0+  Al67  1  0.75115296  0.25167101  0.33453168  1
  Al0+  Al68  1  0.75253338  0.25168670  0.66829047  1
  Al0+  Al69  1  0.75020811  0.75019943  -0.00793759  1
  Al0+  Al70  1  0.74898920  0.75285661  0.33434305  1
  Al0+  Al71  1  0.75079243  0.75302968  0.66366099  1
  Al0+  Al72  1  0.57269342  0.18012600  0.65144738  1
  Al0+  Al73  1  0.57260363  0.67751634  0.31974791  1
  Al0+  Al74  1  0.17932651  0.42838198  0.34760463  1
  Al0+  Al75  1  0.81880714  0.57327731  0.34576706  1
  Al0+  Al76  1  0.17795919  0.43046658  0.01587128  1
  Al0+  Al77  1  0.18023498  0.92906357  0.67875625  1
  Al0+  Al78  1  0.82049883  0.57474289  0.68447455  1
  Al0+  Al79  1  0.92855799  0.32320815  0.98398646  1
  Al0+  Al80  1  0.07188225  0.17957862  0.98460966  1
  Al0+  Al81  1  0.81840266  0.07197181  0.01446089  1
  Al0+  Al82  1  0.42652550  0.82188902  0.31645737  1
  Al0+  Al83  1  0.92982198  0.82297801  0.65045709  1
  Al0+  Al84  1  0.82056179  0.07070251  0.68086477  1
  Al0+  Al85  1  0.67858331  0.43000892  0.68243168  1
  Al0+  Al86  1  0.06804991  0.67741049  0.32115889  1
  Al0+  Al87  1  0.17929867  0.42724894  0.68162011  1
  Al0+  Al88  1  0.07142533  0.17795500  0.32136723  1
  Al0+  Al89  1  0.82150868  0.07106079  0.34707810  1
  Al0+  Al90  1  0.32296211  0.07027430  0.01614386  1
  Al0+  Al91  1  0.93146056  0.82023384  0.98704378  1
  Al0+  Al92  1  0.57058169  0.17760391  0.98555838  1
  Al0+  Al93  1  0.57252491  0.18197392  0.31913964  1
  Al0+  Al94  1  0.17740856  0.92798016  0.01849437  1
  Al0+  Al95  1  0.57068676  0.67822833  0.98416876  1
  Si0+  Si96  1  0.67832353  0.42967234  0.01562582  1
  Si0+  Si97  1  0.17953388  0.92730256  0.34874836  1
  Si0+  Si98  1  0.42623694  0.32216089  0.64861439  1
  Si0+  Si99  1  0.57023979  0.67794091  0.65133041  1
  Si0+  Si100  1  0.07360896  0.67694849  0.98305761  1
  Si0+  Si101  1  0.92935474  0.32217100  0.31987256  1
  Si0+  Si102  1  0.67552840  0.42797748  0.34824214  1
  Si0+  Si103  1  0.67849400  0.92521371  0.01604586  1
  Si0+  Si104  1  0.42537100  0.32095598  0.31650404  1
  Si0+  Si105  1  0.81852610  0.57277887  0.01468587  1
  Si0+  Si106  1  0.67562000  0.92869969  0.68198927  1
  Si0+  Si107  1  0.07214557  0.18018466  0.65274695  1
  Si0+  Si108  1  0.42831277  0.32151206  0.98334883  1
  Si0+  Si109  1  0.32279729  0.06977828  0.34997078  1
  Si0+  Si110  1  0.32165256  0.57279227  0.34858403  1
  Si0+  Si111  1  0.42736143  0.81930344  0.65303199  1
  Si0+  Si112  1  0.32223736  0.57237203  0.68275122  1
  Si0+  Si113  1  0.67630379  0.92997975  0.34922039  1
  Si0+  Si114  1  0.92824753  0.82338690  0.31712138  1
  Si0+  Si115  1  0.07185036  0.67685919  0.65126151  1
  Si0+  Si116  1  0.32477152  0.57055678  0.01830954  1
  Si0+  Si117  1  0.42685131  0.82028410  0.98004899  1
  Si0+  Si118  1  0.93085766  0.32300101  0.65058454  1
  Si0+  Si119  1  0.32488896  0.07058046  0.68082758  1
  O2-  O120  1  0.24913497  0.00079849  0.06807546  1
  O2-  O121  1  0.25184285  -0.00232421  0.39135089  1
  O2-  O122  1  0.25525685  0.00345604  0.72465818  1
  O2-  O123  1  0.25231240  0.50607038  0.06246467  1
  O2-  O124  1  0.25349105  0.50435982  0.39443195  1
  O2-  O125  1  0.25430443  0.50275518  0.72640856  1
  O2-  O126  1  0.74225106  -0.00197083  0.06098699  1
  O2-  O127  1  0.74476244  -0.00156796  0.39436711  1
  O2-  O128  1  0.74391422  -0.00278503  0.72628170  1
  O2-  O129  1  0.74920988  0.50062985  0.05805179  1
  O2-  O130  1  0.73887159  0.50260793  0.39059364  1
  O2-  O131  1  0.74730278  0.50391097  0.73459198  1
  O2-  O132  1  -0.00356724  0.25238519  0.27592047  1
  O2-  O133  1  0.00388841  0.25337270  0.60901049  1
  O2-  O134  1  0.00031059  0.25113833  0.93293175  1
  O2-  O135  1  -0.00644476  0.75149102  0.27345658  1
  O2-  O136  1  0.00266564  0.74486371  0.60633608  1
  O2-  O137  1  0.01009272  0.74987004  0.93870648  1
  O2-  O138  1  0.49804560  0.25670063  0.27233431  1
  O2-  O139  1  0.49746601  0.25538677  0.60524746  1
  O2-  O140  1  0.49387725  0.25019133  0.93844579  1
  O2-  O141  1  0.49969918  0.74878230  0.26989836  1
  O2-  O142  1  0.49832255  0.74854981  0.61001671  1
  O2-  O143  1  0.49527404  0.75131223  0.93554480  1
  O2-  O144  1  0.06935289  0.18138705  0.09847461  1
  O2-  O145  1  0.07106265  0.17787665  0.43539428  1
  O2-  O146  1  0.07226026  0.18047811  0.75732860  1
  O2-  O147  1  0.06893404  0.67486956  0.08887422  1
  O2-  O148  1  0.06833147  0.67886895  0.43453660  1
  O2-  O149  1  0.07304864  0.67711406  0.75666544  1
  O2-  O150  1  0.57169354  0.18135365  0.09876797  1
  O2-  O151  1  0.57233481  0.18330088  0.43249259  1
  O2-  O152  1  0.56973166  0.17918373  0.76430449  1
  O2-  O153  1  0.57093840  0.67907815  0.09697605  1
  O2-  O154  1  0.57047253  0.67973403  0.43392336  1
  O2-  O155  1  0.56865573  0.67869540  0.75651137  1
  O2-  O156  1  0.17956638  0.42881329  0.23493030  1
  O2-  O157  1  0.17990247  0.42693589  0.56825481  1
  O2-  O158  1  0.18008014  0.43200726  0.90249978  1
  O2-  O159  1  0.17782139  0.92848081  0.24434957  1
  O2-  O160  1  0.18254861  0.92876056  0.56496070  1
  O2-  O161  1  0.17953465  0.92927119  0.90442795  1
  O2-  O162  1  0.67795828  0.42521893  0.24251649  1
  O2-  O163  1  0.68068462  0.43220532  0.56836230  1
  O2-  O164  1  0.67739492  0.43096185  0.91076274  1
  O2-  O165  1  0.67752989  0.92877868  0.24378057  1
  O2-  O166  1  0.67295340  0.92914315  0.57641145  1
  O2-  O167  1  0.68041634  0.92401881  0.91019203  1
  O2-  O168  1  0.43260437  0.32444964  0.08898853  1
  O2-  O169  1  0.42299742  0.31822611  0.42221136  1
  O2-  O170  1  0.42329237  0.32161183  0.75384453  1
  O2-  O171  1  0.42794549  0.81936967  0.08533097  1
  O2-  O172  1  0.42673855  0.82021225  0.43126486  1
  O2-  O173  1  0.42799906  0.81879506  0.75778535  1
  O2-  O174  1  0.92884884  0.32496308  0.09799303  1
  O2-  O175  1  0.93029842  0.32199430  0.42587545  1
  O2-  O176  1  0.93058551  0.32254053  0.75535049  1
  O2-  O177  1  0.92915603  0.81594402  0.10035199  1
  O2-  O178  1  0.93132126  0.82469375  0.42289031  1
  O2-  O179  1  0.93223092  0.82420058  0.76337268  1
  O2-  O180  1  0.32351316  0.07079587  0.24550298  1
  O2-  O181  1  0.32455788  0.06952443  0.57477602  1
  O2-  O182  1  0.32433198  0.06605838  0.90195687  1
  O2-  O183  1  0.32237954  0.57056189  0.24335693  1
  O2-  O184  1  0.32228448  0.57446944  0.57722164  1
  O2-  O185  1  0.32576448  0.56831211  0.91231020  1
  O2-  O186  1  0.82174436  0.07049771  0.23426762  1
  O2-  O187  1  0.82122705  0.07032975  0.56733515  1
  O2-  O188  1  0.81754837  0.07095131  0.90128461  1
  O2-  O189  1  0.81985882  0.57062394  0.23230267  1
  O2-  O190  1  0.81937323  0.57344109  0.57042499  1
  O2-  O191  1  0.81627781  0.57330315  0.90992641  1
  O2-  O192  1  0.04120658  0.08159830  0.26756851  1
  O2-  O193  1  0.04157008  0.08943838  0.60482083  1
  O2-  O194  1  0.04344840  0.08048289  0.93401875  1
  O2-  O195  1  0.03503088  0.58107642  0.26798688  1
  O2-  O196  1  0.04609741  0.58226593  0.60682276  1
  O2-  O197  1  0.04296546  0.58568265  0.93573338  1
  O2-  O198  1  0.54260137  0.08577131  0.26552919  1
  O2-  O199  1  0.54260434  0.08350858  0.59564747  1
  O2-  O200  1  0.54338106  0.07927189  0.93264627  1
  O2-  O201  1  0.54633742  0.57808834  0.26731891  1
  O2-  O202  1  0.54327266  0.58554404  0.60488057  1
  O2-  O203  1  0.53946687  0.58186443  0.92913144  1
  O2-  O204  1  0.16862004  0.20691868  0.26885873  1
  O2-  O205  1  0.16608480  0.20461100  0.60659750  1
  O2-  O206  1  0.17223974  0.20623862  0.93456544  1
  O2-  O207  1  0.16358238  0.70468776  0.26443648  1
  O2-  O208  1  0.16608474  0.70292459  0.60566936  1
  O2-  O209  1  0.17057218  0.69448837  0.94090690  1
  O2-  O210  1  0.66891261  0.21431928  0.26551985  1
  O2-  O211  1  0.66946986  0.21372671  0.59853303  1
  O2-  O212  1  0.66505078  0.21333573  0.93145667  1
  O2-  O213  1  0.67009481  0.70872507  0.26593603  1
  O2-  O214  1  0.66151193  0.70710143  0.60435965  1
  O2-  O215  1  0.66490568  0.71107255  0.92715359  1
  O2-  O216  1  0.08096947  0.46237137  0.06889213  1
  O2-  O217  1  0.08364179  0.45961953  0.40330181  1
  O2-  O218  1  0.08442618  0.45809210  0.73754892  1
  O2-  O219  1  0.07928878  0.95486640  0.07166539  1
  O2-  O220  1  0.08891392  0.95687695  0.39799763  1
  O2-  O221  1  0.08548682  0.96281044  0.73260608  1
  O2-  O222  1  0.58621003  0.45730576  0.06249357  1
  O2-  O223  1  0.57915410  0.44539056  0.39236962  1
  O2-  O224  1  0.57773024  0.45259289  0.73343161  1
  O2-  O225  1  0.58254261  0.94386325  0.05905701  1
  O2-  O226  1  0.58161481  0.95492709  0.39405721  1
  O2-  O227  1  0.58153524  0.95250214  0.72864165  1
  O2-  O228  1  0.20968931  0.33453663  0.06981630  1
  O2-  O229  1  0.21229243  0.33213317  0.40255992  1
  O2-  O230  1  0.21212834  0.33152743  0.73637795  1
  O2-  O231  1  0.20582025  0.82768362  0.06857580  1
  O2-  O232  1  0.20715363  0.83426648  0.39437084  1
  O2-  O233  1  0.20895292  0.83292914  0.73459793  1
  O2-  O234  1  0.70701168  0.33854971  0.06338797  1
  O2-  O235  1  0.70799556  0.33796530  0.39785541  1
  O2-  O236  1  0.71077696  0.33317064  0.73530030  1
  O2-  O237  1  0.70934937  0.83282368  0.06212260  1
  O2-  O238  1  0.70033379  0.83657365  0.39704798  1
  O2-  O239  1  0.70059577  0.83486242  0.72723254  1
  O2-  O240  1  0.44408851  0.41629163  0.27147136  1
  O2-  O241  1  0.44830954  0.41696486  0.60245101  1
  O2-  O242  1  0.45524785  0.41363329  0.93473420  1
  O2-  O243  1  0.45516028  0.91904619  0.26230176  1
  O2-  O244  1  0.45424137  0.91046041  0.60329355  1
  O2-  O245  1  0.45301701  0.91281425  0.93267115  1
  O2-  O246  1  0.95589971  0.41522506  0.27406157  1
  O2-  O247  1  0.95823727  0.41625606  0.60529071  1
  O2-  O248  1  0.95688354  0.42179718  0.93056339  1
  O2-  O249  1  0.95886446  0.91499462  0.27064742  1
  O2-  O250  1  0.96491950  0.91842725  0.59583256  1
  O2-  O251  1  0.96012744  0.91729409  0.93348311  1
  O2-  O252  1  0.33413589  0.29006906  0.26923770  1
  O2-  O253  1  0.33387859  0.29285750  0.60043979  1
  O2-  O254  1  0.33347467  0.29849754  0.93963326  1
  O2-  O255  1  0.32989699  0.79408217  0.26079647  1
  O2-  O256  1  0.33543923  0.79073188  0.60542249  1
  O2-  O257  1  0.33299135  0.79301627  0.93451961  1
  O2-  O258  1  0.83529992  0.29990783  0.27371765  1
  O2-  O259  1  0.83990778  0.29408186  0.60251888  1
  O2-  O260  1  0.83041546  0.29569440  0.93046496  1
  O2-  O261  1  0.83299756  0.80274843  0.27353327  1
  O2-  O262  1  0.83178658  0.79629525  0.59622257  1
  O2-  O263  1  0.83703951  0.78761650  0.92998328  1
  O2-  O264  1  0.42123131  0.03764785  0.06880456  1
  O2-  O265  1  0.41514451  0.04154020  0.39703418  1
  O2-  O266  1  0.41846385  0.04268560  0.72540388  1
  O2-  O267  1  0.41758178  0.54119719  0.06439239  1
  O2-  O268  1  0.41562964  0.54803380  0.39587919  1
  O2-  O269  1  0.41566759  0.54718839  0.72941842  1
  O2-  O270  1  0.91437771  0.03928796  0.06777912  1
  O2-  O271  1  0.91738384  0.03816538  0.40275659  1
  O2-  O272  1  0.91613162  0.03822705  0.73475962  1
  O2-  O273  1  0.91118906  0.54677434  0.06102892  1
  O2-  O274  1  0.91180467  0.53843602  0.40446591  1
  O2-  O275  1  0.91809816  0.54642471  0.73779155  1
  O2-  O276  1  0.30083369  0.16985463  0.06906153  1
  O2-  O277  1  0.29447240  0.16044126  0.39946146  1
  O2-  O278  1  0.30296923  0.16454419  0.72676840  1
  O2-  O279  1  0.30531368  0.66587346  0.06248201  1
  O2-  O280  1  0.29599814  0.66744858  0.39272711  1
  O2-  O281  1  0.29702807  0.66448962  0.73234317  1
  O2-  O282  1  0.78804679  0.16957921  0.06709841  1
  O2-  O283  1  0.79231498  0.16885294  0.40059724  1
  O2-  O284  1  0.79184250  0.16760374  0.73377364  1
  O2-  O285  1  0.78799133  0.66403498  0.06128434  1
  O2-  O286  1  0.79246843  0.67122674  0.40020667  1
  O2-  O287  1  0.79202522  0.67461795  0.73410789  1
