# generated using pymatgen
data_Ca2Al2SiO7
_symmetry_space_group_name_H-M   'P 1'
_cell_length_a   15.46218799
_cell_length_b   15.46283097
_cell_length_c   15.28769500
_cell_angle_alpha   90.00024430
_cell_angle_beta   89.99679530
_cell_angle_gamma   89.96705677
_symmetry_Int_Tables_number   1
_chemical_formula_structural   Ca2Al2SiO7
_chemical_formula_sum   'Ca48 Al48 Si24 O168'
_cell_volume   3655.12214732
_cell_formula_units_Z   24
loop_
 _symmetry_equiv_pos_site_id
 _symmetry_equiv_pos_as_xyz
  1  'x, y, z'
loop_
 _atom_type_symbol
 _atom_type_oxidation_number
  Ca2+  2.0
  Al0+  0.0
  Si0+  0.0
  O2-  -2.0
loop_
 _atom_site_type_symbol
 _atom_site_label
 _atom_site_symmetry_multiplicity
 _atom_site_fract_x
 _atom_site_fract_y
 _atom_site_fract_z
 _atom_site_occupancy
  Ca2+  Ca0  1  0.16739464  0.08457145  0.17434446  1
  Ca2+  Ca1  1  0.16143296  0.09019806  0.50453653  1
  Ca2+  Ca2  1  0.16486091  0.08381985  0.83613374  1
  Ca2+  Ca3  1  0.17379397  0.58069546  0.17018295  1
  Ca2+  Ca4  1  0.16567960  0.57611222  0.50443229  1
  Ca2+  Ca5  1  0.17006642  0.58902451  0.84135643  1
  Ca2+  Ca6  1  0.66301148  0.08355869  0.16593370  1
  Ca2+  Ca7  1  0.67215604  0.08564130  0.50680921  1
  Ca2+  Ca8  1  0.67871679  0.08064227  0.84471346  1
  Ca2+  Ca9  1  0.66573605  0.57731867  0.17545973  1
  Ca2+  Ca10  1  0.66658392  0.57445859  0.50839115  1
  Ca2+  Ca11  1  0.66718302  0.58130531  0.82892403  1
  Ca2+  Ca12  1  0.08191969  0.33472800  0.17044300  1
  Ca2+  Ca13  1  0.07207965  0.32810338  0.49363848  1
  Ca2+  Ca14  1  0.07340148  0.32661822  0.82265632  1
  Ca2+  Ca15  1  0.07693740  0.82636086  0.15586850  1
  Ca2+  Ca16  1  0.07629517  0.82813039  0.50424389  1
  Ca2+  Ca17  1  0.07398407  0.82265806  0.82990771  1
  Ca2+  Ca18  1  0.58022151  0.32767024  0.16353730  1
  Ca2+  Ca19  1  0.57731403  0.33933531  0.49212813  1
  Ca2+  Ca20  1  0.57460100  0.33763159  0.82919534  1
  Ca2+  Ca21  1  0.58151916  0.82825132  0.15900887  1
  Ca2+  Ca22  1  0.59424868  0.81725234  0.49889918  1
  Ca2+  Ca23  1  0.58322904  0.83229413  0.83239174  1
  Ca2+  Ca24  1  0.33342162  0.41502230  0.17064376  1
  Ca2+  Ca25  1  0.32938649  0.40596945  0.50208359  1
  Ca2+  Ca26  1  0.33521789  0.41977628  0.83945148  1
  Ca2+  Ca27  1  0.33581344  0.91589218  0.16834943  1
  Ca2+  Ca28  1  0.32979210  0.92157022  0.50490685  1
  Ca2+  Ca29  1  0.33272080  0.91473722  0.84177320  1
  Ca2+  Ca30  1  0.82782402  0.41664114  0.17612047  1
  Ca2+  Ca31  1  0.82330144  0.41336125  0.50928793  1
  Ca2+  Ca32  1  0.83087898  0.41746533  0.83149819  1
  Ca2+  Ca33  1  0.83248169  0.92052367  0.16334711  1
  Ca2+  Ca34  1  0.83631426  0.92445232  0.50972280  1
  Ca2+  Ca35  1  0.83651404  0.92355573  0.84071319  1
  Ca2+  Ca36  1  0.42771337  0.17777921  0.16157040  1
  Ca2+  Ca37  1  0.42533883  0.17877828  0.49256844  1
  Ca2+  Ca38  1  0.42382080  0.17681492  0.83041120  1
  Ca2+  Ca39  1  0.42152116  0.66609875  0.16029240  1
  Ca2+  Ca40  1  0.43139361  0.66326617  0.49813789  1
  Ca2+  Ca41  1  0.41975648  0.66869367  0.83150938  1
  Ca2+  Ca42  1  0.91568304  0.17094003  0.16716337  1
  Ca2+  Ca43  1  0.91745923  0.17628677  0.49844621  1
  Ca2+  Ca44  1  0.91621712  0.16580218  0.82522265  1
  Ca2+  Ca45  1  0.92387159  0.67205256  0.15578957  1
  Ca2+  Ca46  1  0.91256006  0.66538511  0.50308633  1
  Ca2+  Ca47  1  0.91884495  0.67501667  0.82376435  1
  Al0+  Al48  1  -0.00010014  -0.00000178  0.00327746  1
  Al0+  Al49  1  -0.00015154  -0.00053382  0.33137055  1
  Al0+  Al50  1  0.00180575  -0.00300898  0.66554919  1
  Al0+  Al51  1  0.00157717  0.49731926  -0.00208731  1
  Al0+  Al52  1  0.00240263  0.50188707  0.33346997  1
  Al0+  Al53  1  -0.00080203  0.49930472  0.66430305  1
  Al0+  Al54  1  0.50105960  -0.00046723  -0.00366182  1
  Al0+  Al55  1  0.49944639  -0.00093606  0.33480453  1
  Al0+  Al56  1  0.49745043  0.00164543  0.66778666  1
  Al0+  Al57  1  0.49908003  0.50025643  0.00190249  1
  Al0+  Al58  1  0.50078677  0.50289550  0.32867622  1
  Al0+  Al59  1  0.49746725  0.50106443  0.66364855  1
  Al0+  Al60  1  0.24982420  0.25042717  -0.00203690  1
  Al0+  Al61  1  0.25014131  0.24999775  0.33138983  1
  Al0+  Al62  1  0.25160845  0.24961824  0.66307150  1
  Al0+  Al63  1  0.25242285  0.74886001  -0.00015337  1
  Al0+  Al64  1  0.24896577  0.75164666  0.33809440  1
  Al0+  Al65  1  0.24875433  0.75093987  0.66263751  1
  Al0+  Al66  1  0.75150456  0.24932797  0.00172050  1
  Al0+  Al67  1  0.75046230  0.24975098  0.33102207  1
  Al0+  Al68  1  0.74813917  0.24811175  0.67464835  1
  Al0+  Al69  1  0.75063655  0.75074705  0.00057189  1
  Al0+  Al70  1  0.75018252  0.75161650  0.32771966  1
  Al0+  Al71  1  0.74871973  0.74963168  0.66287142  1
  Al0+  Al72  1  0.57109266  0.68078157  0.31812619  1
  Al0+  Al73  1  0.82298200  0.07226647  0.01914005  1
  Al0+  Al74  1  0.56908600  0.68104179  0.65451405  1
  Al0+  Al75  1  0.18038282  0.42910658  0.34845689  1
  Al0+  Al76  1  0.42910768  0.32233760  0.31729152  1
  Al0+  Al77  1  0.43088723  0.32144275  0.65197559  1
  Al0+  Al78  1  0.92831298  0.82111884  0.98492379  1
  Al0+  Al79  1  0.67563585  0.42858913  0.68280616  1
  Al0+  Al80  1  0.92863298  0.32342062  0.31813008  1
  Al0+  Al81  1  0.43050295  0.82038534  0.98789184  1
  Al0+  Al82  1  0.67782257  0.92804904  0.01600395  1
  Al0+  Al83  1  0.07104244  0.17848285  0.65382133  1
  Al0+  Al84  1  0.92791782  0.81997954  0.65114241  1
  Al0+  Al85  1  0.57300425  0.17922629  0.98298081  1
  Al0+  Al86  1  0.42893567  0.32202851  0.98364833  1
  Al0+  Al87  1  0.06970548  0.17854127  0.31737436  1
  Al0+  Al88  1  0.82170176  0.57139759  0.68170076  1
  Al0+  Al89  1  0.92507157  0.32070760  0.65328100  1
  Al0+  Al90  1  0.57290782  0.17632189  0.31926400  1
  Al0+  Al91  1  0.32060835  0.57059804  0.01362460  1
  Al0+  Al92  1  0.07255356  0.67694204  0.64984918  1
  Al0+  Al93  1  0.82127683  0.06893587  0.67952842  1
  Al0+  Al94  1  0.68016382  0.42949913  0.34532681  1
  Al0+  Al95  1  0.07164000  0.67708337  0.98678636  1
  Si0+  Si96  1  0.67573023  0.92753944  0.68193780  1
  Si0+  Si97  1  0.92973631  0.82140736  0.31684071  1
  Si0+  Si98  1  0.07278908  0.67997608  0.31806265  1
  Si0+  Si99  1  0.82339066  0.57034437  0.01378460  1
  Si0+  Si100  1  0.17690310  0.92895058  0.35037539  1
  Si0+  Si101  1  0.82140214  0.06914528  0.34923923  1
  Si0+  Si102  1  0.42585911  0.82164034  0.31867836  1
  Si0+  Si103  1  0.82281233  0.57461581  0.34745729  1
  Si0+  Si104  1  0.32104291  0.07261345  0.01497770  1
  Si0+  Si105  1  0.31874338  0.57205554  0.68058747  1
  Si0+  Si106  1  0.32045397  0.07189511  0.68346001  1
  Si0+  Si107  1  0.32072391  0.06991093  0.34868402  1
  Si0+  Si108  1  0.42664960  0.82498141  0.64914698  1
  Si0+  Si109  1  0.57355673  0.67655900  0.98309187  1
  Si0+  Si110  1  0.17706283  0.42560989  0.01661460  1
  Si0+  Si111  1  0.17951184  0.42745027  0.68107518  1
  Si0+  Si112  1  0.67813083  0.92790127  0.34908456  1
  Si0+  Si113  1  0.18112229  0.92982613  0.01529491  1
  Si0+  Si114  1  0.18065426  0.92780795  0.68384549  1
  Si0+  Si115  1  0.07131895  0.17874628  0.98651493  1
  Si0+  Si116  1  0.57125118  0.17678180  0.65158427  1
  Si0+  Si117  1  0.92858225  0.32108292  0.98500348  1
  Si0+  Si118  1  0.32183409  0.57445222  0.35212029  1
  Si0+  Si119  1  0.67968852  0.43061365  0.01540535  1
  O2-  O120  1  0.25087353  0.00127844  0.05899767  1
  O2-  O121  1  0.24721245  0.00110942  0.39193830  1
  O2-  O122  1  0.25074642  -0.00022417  0.72635226  1
  O2-  O123  1  0.24604971  0.49512383  0.05913198  1
  O2-  O124  1  0.25701187  0.50213443  0.39624500  1
  O2-  O125  1  0.24599283  0.50292262  0.72325777  1
  O2-  O126  1  0.74863240  0.00099273  0.06741080  1
  O2-  O127  1  0.74656153  0.00136526  0.39096704  1
  O2-  O128  1  0.74540486  -0.00518460  0.72548984  1
  O2-  O129  1  0.75097396  0.50184864  0.05760263  1
  O2-  O130  1  0.75686983  0.50314067  0.39070747  1
  O2-  O131  1  0.75112410  0.49801261  0.73253539  1
  O2-  O132  1  0.00036344  0.25171807  0.26596781  1
  O2-  O133  1  -0.00195329  0.24896253  0.60428436  1
  O2-  O134  1  -0.00078170  0.24830869  0.94523197  1
  O2-  O135  1  -0.00046576  0.74851565  0.27619894  1
  O2-  O136  1  -0.00439307  0.74408172  0.59983940  1
  O2-  O137  1  -0.00374819  0.74476607  0.93669699  1
  O2-  O138  1  0.50379733  0.25168707  0.27006504  1
  O2-  O139  1  0.50853975  0.24985192  0.60612014  1
  O2-  O140  1  0.50236480  0.25237849  0.93283180  1
  O2-  O141  1  0.49379949  0.75358272  0.27362472  1
  O2-  O142  1  0.49772340  0.75898201  0.60590551  1
  O2-  O143  1  0.50659589  0.74798116  0.94059741  1
  O2-  O144  1  0.07406447  0.17944280  0.09131393  1
  O2-  O145  1  0.06601871  0.17641346  0.43035892  1
  O2-  O146  1  0.07292438  0.18006409  0.76800983  1
  O2-  O147  1  0.07077627  0.67980341  0.10117600  1
  O2-  O148  1  0.07443506  0.68174456  0.42273009  1
  O2-  O149  1  0.07814148  0.68244738  0.76278654  1
  O2-  O150  1  0.57010910  0.18159932  0.09663027  1
  O2-  O151  1  0.56991075  0.17222201  0.43297095  1
  O2-  O152  1  0.56581364  0.17297660  0.75654534  1
  O2-  O153  1  0.57199748  0.67601830  0.08886498  1
  O2-  O154  1  0.57214280  0.68238138  0.43116993  1
  O2-  O155  1  0.56536584  0.68150827  0.76745290  1
  O2-  O156  1  0.17983358  0.43352182  0.23519901  1
  O2-  O157  1  0.18291660  0.42623457  0.57605481  1
  O2-  O158  1  0.17608555  0.42330258  0.91105820  1
  O2-  O159  1  0.17798634  0.92633567  0.24520345  1
  O2-  O160  1  0.18317647  0.92675477  0.57842197  1
  O2-  O161  1  0.18201361  0.93159247  0.91018368  1
  O2-  O162  1  0.68139865  0.43246390  0.23160807  1
  O2-  O163  1  0.67376060  0.43069195  0.56913792  1
  O2-  O164  1  0.67916660  0.43209663  0.91056565  1
  O2-  O165  1  0.67852710  0.92567793  0.24453180  1
  O2-  O166  1  0.67472038  0.93003237  0.57574876  1
  O2-  O167  1  0.67852498  0.92859628  0.90236332  1
  O2-  O168  1  0.42854990  0.32051439  0.09674825  1
  O2-  O169  1  0.42940276  0.31878004  0.43105536  1
  O2-  O170  1  0.42841621  0.32045318  0.76481871  1
  O2-  O171  1  0.42856139  0.81808129  0.10110970  1
  O2-  O172  1  0.42425506  0.82175548  0.42425644  1
  O2-  O173  1  0.42462192  0.82451366  0.75459296  1
  O2-  O174  1  0.92944505  0.32433787  0.08992177  1
  O2-  O175  1  0.92731077  0.32091528  0.43114611  1
  O2-  O176  1  0.92905253  0.31914879  0.76753279  1
  O2-  O177  1  0.93227206  0.81975056  0.09940181  1
  O2-  O178  1  0.92982336  0.82310492  0.42162002  1
  O2-  O179  1  0.93175351  0.82178420  0.76416430  1
  O2-  O180  1  0.32050542  0.06582507  0.24350548  1
  O2-  O181  1  0.32144197  0.06960080  0.57823387  1
  O2-  O182  1  0.31692063  0.07263492  0.90971421  1
  O2-  O183  1  0.31766887  0.57972879  0.24670204  1
  O2-  O184  1  0.31881592  0.57250207  0.57555060  1
  O2-  O185  1  0.31968475  0.57109158  0.90016028  1
  O2-  O186  1  0.82473773  0.06555321  0.24462138  1
  O2-  O187  1  0.81977640  0.06812654  0.56572927  1
  O2-  O188  1  0.82603749  0.07032673  0.90564220  1
  O2-  O189  1  0.82111695  0.57637020  0.24124765  1
  O2-  O190  1  0.81727752  0.57198273  0.56785866  1
  O2-  O191  1  0.82415337  0.56833206  0.90926665  1
  O2-  O192  1  0.04194215  0.07933738  0.26430948  1
  O2-  O193  1  0.04913965  0.07827670  0.60295616  1
  O2-  O194  1  0.04576494  0.08595678  0.94057781  1
  O2-  O195  1  0.04874318  0.58817369  0.27002438  1
  O2-  O196  1  0.04958709  0.57730203  0.59840020  1
  O2-  O197  1  0.05007614  0.57670669  0.93577941  1
  O2-  O198  1  0.54013469  0.07831220  0.26674102  1
  O2-  O199  1  0.54069203  0.08492727  0.60325482  1
  O2-  O200  1  0.54368998  0.08135179  0.93099814  1
  O2-  O201  1  0.54113831  0.58603773  0.26151727  1
  O2-  O202  1  0.53353311  0.58742369  0.59828813  1
  O2-  O203  1  0.54396954  0.58468360  0.93716912  1
  O2-  O204  1  0.16939071  0.20353644  0.26619577  1
  O2-  O205  1  0.16883971  0.20714349  0.60011316  1
  O2-  O206  1  0.16242116  0.20584429  0.93735083  1
  O2-  O207  1  0.16398249  0.71224383  0.27169998  1
  O2-  O208  1  0.16819055  0.71260846  0.59394221  1
  O2-  O209  1  0.16835849  0.71038458  0.93486785  1
  O2-  O210  1  0.67166862  0.20006912  0.26665693  1
  O2-  O211  1  0.66725971  0.19603582  0.61013040  1
  O2-  O212  1  0.67323821  0.20545259  0.93364630  1
  O2-  O213  1  0.66639981  0.71323723  0.26230601  1
  O2-  O214  1  0.66444976  0.70898683  0.59704056  1
  O2-  O215  1  0.66772185  0.69994829  0.93840839  1
  O2-  O216  1  0.08360856  0.45089159  0.06405442  1
  O2-  O217  1  0.08414964  0.46261030  0.40255759  1
  O2-  O218  1  0.08574249  0.44943873  0.72665311  1
  O2-  O219  1  0.08997478  0.95692926  0.06431752  1
  O2-  O220  1  0.08506305  0.95658938  0.39773325  1
  O2-  O221  1  0.08932164  0.95440397  0.73169973  1
  O2-  O222  1  0.58823997  0.45855967  0.06329696  1
  O2-  O223  1  0.58299813  0.46327492  0.39695177  1
  O2-  O224  1  0.57815651  0.46405474  0.73519964  1
  O2-  O225  1  0.57771359  0.95481260  0.06809915  1
  O2-  O226  1  0.58482694  0.95007477  0.39661473  1
  O2-  O227  1  0.58103138  0.95239909  0.72715633  1
  O2-  O228  1  0.20389660  0.33250445  0.06392627  1
  O2-  O229  1  0.20878631  0.33088055  0.40107806  1
  O2-  O230  1  0.21215844  0.33709864  0.72917755  1
  O2-  O231  1  0.21108811  0.83896793  0.06342857  1
  O2-  O232  1  0.20626808  0.83876115  0.40087084  1
  O2-  O233  1  0.21121664  0.83678241  0.73146374  1
  O2-  O234  1  0.70883044  0.33906789  0.06185581  1
  O2-  O235  1  0.70678456  0.33116711  0.39838210  1
  O2-  O236  1  0.69926703  0.32974907  0.73698424  1
  O2-  O237  1  0.70598217  0.82880083  0.06984997  1
  O2-  O238  1  0.71155980  0.83717383  0.39629346  1
  O2-  O239  1  0.69789074  0.83283049  0.72568865  1
  O2-  O240  1  0.45282352  0.42205708  0.26625823  1
  O2-  O241  1  0.45537147  0.41873303  0.59752648  1
  O2-  O242  1  0.45707267  0.42142501  0.93261002  1
  O2-  O243  1  0.45110138  0.91509963  0.27313162  1
  O2-  O244  1  0.44850429  0.91998308  0.60390157  1
  O2-  O245  1  0.45550389  0.91703297  0.93154401  1
  O2-  O246  1  0.95768242  0.42262794  0.26569246  1
  O2-  O247  1  0.95094134  0.41903303  0.60080491  1
  O2-  O248  1  0.95796742  0.41119990  0.93547637  1
  O2-  O249  1  0.96120395  0.91113445  0.26836986  1
  O2-  O250  1  0.96466310  0.91477870  0.59571255  1
  O2-  O251  1  0.96223448  0.91884665  0.93477944  1
  O2-  O252  1  0.33181872  0.29111520  0.26470200  1
  O2-  O253  1  0.33657078  0.28522334  0.59754065  1
  O2-  O254  1  0.33006547  0.29242090  0.93149904  1
  O2-  O255  1  0.33101257  0.79800364  0.27354348  1
  O2-  O256  1  0.33447094  0.79768060  0.60163849  1
  O2-  O257  1  0.33518701  0.78857715  0.93204686  1
  O2-  O258  1  0.83165342  0.29330712  0.26393918  1
  O2-  O259  1  0.82585572  0.29077498  0.60332641  1
  O2-  O260  1  0.83701235  0.29463121  0.93808303  1
  O2-  O261  1  0.83827803  0.79576511  0.26819330  1
  O2-  O262  1  0.82848943  0.79813989  0.59748162  1
  O2-  O263  1  0.82872814  0.79716402  0.93391915  1
  O2-  O264  1  0.41265923  0.04395133  0.06087594  1
  O2-  O265  1  0.41055950  0.03879722  0.39906665  1
  O2-  O266  1  0.41188940  0.04447586  0.73230340  1
  O2-  O267  1  0.41719954  0.54151134  0.06936966  1
  O2-  O268  1  0.41777453  0.55251081  0.39376955  1
  O2-  O269  1  0.40938388  0.54282200  0.72859243  1
  O2-  O270  1  0.92103314  0.04129031  0.07332111  1
  O2-  O271  1  0.91186441  0.03586266  0.39666825  1
  O2-  O272  1  0.91862110  0.03697698  0.73208329  1
  O2-  O273  1  0.91497275  0.54067849  0.06197872  1
  O2-  O274  1  0.91834885  0.55506644  0.39127141  1
  O2-  O275  1  0.92214314  0.54706979  0.73350604  1
  O2-  O276  1  0.29111378  0.16358066  0.06306593  1
  O2-  O277  1  0.29472318  0.16200393  0.39543202  1
  O2-  O278  1  0.29092678  0.16294907  0.73129239  1
  O2-  O279  1  0.28972936  0.66663698  0.07001093  1
  O2-  O280  1  0.29298506  0.66667874  0.40066093  1
  O2-  O281  1  0.29310572  0.66561935  0.72663450  1
  O2-  O282  1  0.79620951  0.17172597  0.07141227  1
  O2-  O283  1  0.79684777  0.16234838  0.39457680  1
  O2-  O284  1  0.79281648  0.16397741  0.73723382  1
  O2-  O285  1  0.79911188  0.66323631  0.06091523  1
  O2-  O286  1  0.79451353  0.66831400  0.39250053  1
  O2-  O287  1  0.79013660  0.67033147  0.73329440  1
