# generated using pymatgen
data_Ca2Al2SiO7
_symmetry_space_group_name_H-M   'P 1'
_cell_length_a   15.46022402
_cell_length_b   15.46038062
_cell_length_c   15.28509350
_cell_angle_alpha   89.99940244
_cell_angle_beta   90.00646391
_cell_angle_gamma   90.00429265
_symmetry_Int_Tables_number   1
_chemical_formula_structural   Ca2Al2SiO7
_chemical_formula_sum   'Ca48 Al48 Si24 O168'
_cell_volume   3653.45750201
_cell_formula_units_Z   24
loop_
 _symmetry_equiv_pos_site_id
 _symmetry_equiv_pos_as_xyz
  1  'x, y, z'
loop_
 _atom_type_symbol
 _atom_type_oxidation_number
  Ca2+  2.0
  Al0+  0.0
  Si0+  0.0
  O2-  -2.0
loop_
 _atom_site_type_symbol
 _atom_site_label
 _atom_site_symmetry_multiplicity
 _atom_site_fract_x
 _atom_site_fract_y
 _atom_site_fract_z
 _atom_site_occupancy
  Ca2+  Ca0  1  0.17642129  0.07396810  0.17162777  1
  Ca2+  Ca1  1  0.16989340  0.07618834  0.50671229  1
  Ca2+  Ca2  1  0.16681287  0.07400087  0.83768478  1
  Ca2+  Ca3  1  0.18123806  0.58616940  0.17226041  1
  Ca2+  Ca4  1  0.17162762  0.58758377  0.50472646  1
  Ca2+  Ca5  1  0.17085560  0.58846643  0.83459012  1
  Ca2+  Ca6  1  0.66598968  0.07535364  0.17533745  1
  Ca2+  Ca7  1  0.66403837  0.07822883  0.50932260  1
  Ca2+  Ca8  1  0.66825699  0.07962665  0.82746975  1
  Ca2+  Ca9  1  0.66797156  0.58114489  0.16967590  1
  Ca2+  Ca10  1  0.66957417  0.57754815  0.50735916  1
  Ca2+  Ca11  1  0.65583043  0.57453292  0.83636706  1
  Ca2+  Ca12  1  0.08345073  0.33182636  0.16419148  1
  Ca2+  Ca13  1  0.07891655  0.32762645  0.50067999  1
  Ca2+  Ca14  1  0.07619096  0.32397193  0.81987267  1
  Ca2+  Ca15  1  0.07952573  0.84109612  0.16123372  1
  Ca2+  Ca16  1  0.08192248  0.83830344  0.50313551  1
  Ca2+  Ca17  1  0.07839195  0.83677957  0.82393435  1
  Ca2+  Ca18  1  0.57964625  0.33061321  0.16637906  1
  Ca2+  Ca19  1  0.58579800  0.32085046  0.49684709  1
  Ca2+  Ca20  1  0.58696095  0.33056353  0.82485017  1
  Ca2+  Ca21  1  0.58350245  0.82699308  0.16040562  1
  Ca2+  Ca22  1  0.58102443  0.83964810  0.49832303  1
  Ca2+  Ca23  1  0.57751104  0.82192697  0.82101435  1
  Ca2+  Ca24  1  0.33999128  0.42662724  0.17247611  1
  Ca2+  Ca25  1  0.34420845  0.42198427  0.49890105  1
  Ca2+  Ca26  1  0.33247611  0.42426067  0.83930405  1
  Ca2+  Ca27  1  0.32420873  0.92441543  0.17397562  1
  Ca2+  Ca28  1  0.32661229  0.91764949  0.50604082  1
  Ca2+  Ca29  1  0.32330300  0.91475632  0.83620047  1
  Ca2+  Ca30  1  0.82568020  0.42497993  0.17212402  1
  Ca2+  Ca31  1  0.83186928  0.42096410  0.51008615  1
  Ca2+  Ca32  1  0.82212354  0.41229214  0.83350750  1
  Ca2+  Ca33  1  0.82818324  0.91303538  0.17115818  1
  Ca2+  Ca34  1  0.82063116  0.92020523  0.51050115  1
  Ca2+  Ca35  1  0.83668793  0.91519206  0.83008714  1
  Ca2+  Ca36  1  0.41525910  0.16364646  0.16813132  1
  Ca2+  Ca37  1  0.42707024  0.16715960  0.48975806  1
  Ca2+  Ca38  1  0.42032498  0.16594217  0.82724069  1
  Ca2+  Ca39  1  0.41945407  0.66297693  0.16005546  1
  Ca2+  Ca40  1  0.42040700  0.67264040  0.50170814  1
  Ca2+  Ca41  1  0.42247111  0.66902244  0.82719732  1
  Ca2+  Ca42  1  0.91918776  0.16649519  0.16269794  1
  Ca2+  Ca43  1  0.91622553  0.16364975  0.50587072  1
  Ca2+  Ca44  1  0.91964509  0.16936379  0.81911454  1
  Ca2+  Ca45  1  0.91596997  0.67318897  0.16074699  1
  Ca2+  Ca46  1  0.91869682  0.66912607  0.49859055  1
  Ca2+  Ca47  1  0.92416758  0.68036318  0.82396916  1
  Al0+  Al48  1  -0.00134127  0.00136029  0.00020628  1
  Al0+  Al49  1  -0.00129543  -0.00004665  0.33397040  1
  Al0+  Al50  1  0.00056371  0.00040362  0.66529057  1
  Al0+  Al51  1  -0.00200313  0.50032675  -0.00109592  1
  Al0+  Al52  1  0.00117499  0.50184371  0.33361486  1
  Al0+  Al53  1  0.00139469  0.50048135  0.66203792  1
  Al0+  Al54  1  0.50084807  0.00022745  0.00163250  1
  Al0+  Al55  1  0.49883445  -0.00149584  0.33306392  1
  Al0+  Al56  1  0.49964200  0.00026544  0.66498831  1
  Al0+  Al57  1  0.49999366  0.49689232  0.00472990  1
  Al0+  Al58  1  0.50126378  0.49900719  0.33493156  1
  Al0+  Al59  1  0.50049481  0.50193898  0.66764119  1
  Al0+  Al60  1  0.25046344  0.24980600  0.00181701  1
  Al0+  Al61  1  0.24949619  0.25107806  0.33081449  1
  Al0+  Al62  1  0.24949228  0.25262555  0.66302044  1
  Al0+  Al63  1  0.24929336  0.74974542  0.00912515  1
  Al0+  Al64  1  0.24984201  0.74827911  0.33993060  1
  Al0+  Al65  1  0.25146397  0.75142737  0.66456059  1
  Al0+  Al66  1  0.74862712  0.24974887  0.00621166  1
  Al0+  Al67  1  0.75088197  0.24982870  0.32617860  1
  Al0+  Al68  1  0.74905549  0.25118984  0.66649776  1
  Al0+  Al69  1  0.75054966  0.74856608  -0.01034925  1
  Al0+  Al70  1  0.75105079  0.74975178  0.34028876  1
  Al0+  Al71  1  0.75077883  0.74799535  0.66430628  1
  Al0+  Al72  1  0.17704171  0.92965379  0.01525703  1
  Al0+  Al73  1  0.67949768  0.92938713  0.34463298  1
  Al0+  Al74  1  0.42998453  0.82139757  0.65209422  1
  Al0+  Al75  1  0.18101525  0.93038311  0.68117074  1
  Al0+  Al76  1  0.92766311  0.32049382  0.65219651  1
  Al0+  Al77  1  0.07248450  0.67983761  0.65124062  1
  Al0+  Al78  1  0.67935749  0.42786476  0.01621004  1
  Al0+  Al79  1  0.67611672  0.92595447  0.68381666  1
  Al0+  Al80  1  0.81922661  0.07003924  0.68096257  1
  Al0+  Al81  1  0.56903803  0.67736442  0.98728829  1
  Al0+  Al82  1  0.17729471  0.92904036  0.35132779  1
  Al0+  Al83  1  0.57175731  0.17605283  0.31545048  1
  Al0+  Al84  1  0.07292216  0.17772419  0.65119597  1
  Al0+  Al85  1  0.56920259  0.18040496  0.65558427  1
  Al0+  Al86  1  0.42922394  0.32134134  0.31681349  1
  Al0+  Al87  1  0.82185570  0.57065595  0.34676211  1
  Al0+  Al88  1  0.92996833  0.82171556  0.98604792  1
  Al0+  Al89  1  0.57165761  0.67661966  0.65035411  1
  Al0+  Al90  1  0.32048930  0.07237710  0.35024363  1
  Al0+  Al91  1  0.92858964  0.82243481  0.64861599  1
  Al0+  Al92  1  0.32331866  0.56951868  0.34998816  1
  Al0+  Al93  1  0.32355232  0.07251927  0.01501959  1
  Al0+  Al94  1  0.31948411  0.56922472  0.01250069  1
  Al0+  Al95  1  0.68022188  0.43139263  0.67933025  1
  Si0+  Si96  1  0.68020571  0.42737059  0.35039232  1
  Si0+  Si97  1  0.31996407  0.57015644  0.68211634  1
  Si0+  Si98  1  0.93003519  0.32412244  0.31554176  1
  Si0+  Si99  1  0.68026146  0.92663420  0.01230429  1
  Si0+  Si100  1  0.82200509  0.57286733  0.01466088  1
  Si0+  Si101  1  0.42950541  0.31977841  0.98483781  1
  Si0+  Si102  1  0.57261438  0.17779873  0.98426484  1
  Si0+  Si103  1  0.82593050  0.57215835  0.68520956  1
  Si0+  Si104  1  0.92688336  0.32125397  0.98640147  1
  Si0+  Si105  1  0.32245416  0.07572822  0.68214256  1
  Si0+  Si106  1  0.42698817  0.82272965  0.98641087  1
  Si0+  Si107  1  0.06965496  0.17858360  0.31599360  1
  Si0+  Si108  1  0.82189410  0.07428643  0.34817094  1
  Si0+  Si109  1  0.07205467  0.67819290  0.31624778  1
  Si0+  Si110  1  0.57225755  0.68025009  0.31911375  1
  Si0+  Si111  1  0.81988447  0.07102214  0.01528221  1
  Si0+  Si112  1  0.92912354  0.81945182  0.31834928  1
  Si0+  Si113  1  0.07393508  0.67708473  0.98596242  1
  Si0+  Si114  1  0.17752363  0.42834305  0.68131566  1
  Si0+  Si115  1  0.17706280  0.42851155  0.35039573  1
  Si0+  Si116  1  0.42671426  0.32413451  0.65202163  1
  Si0+  Si117  1  0.42709342  0.81903783  0.31701548  1
  Si0+  Si118  1  0.17529613  0.42718074  0.01490039  1
  Si0+  Si119  1  0.07012636  0.18147533  0.98615391  1
  O2-  O120  1  0.25266801  -0.00138119  0.06367590  1
  O2-  O121  1  0.24931847  0.00077457  0.40101455  1
  O2-  O122  1  0.25367417  0.00767525  0.72722577  1
  O2-  O123  1  0.24147030  0.49755975  0.05963333  1
  O2-  O124  1  0.24939353  0.49296103  0.39498146  1
  O2-  O125  1  0.24842630  0.49910433  0.72387493  1
  O2-  O126  1  0.75032469  -0.00185528  0.05634646  1
  O2-  O127  1  0.74831069  0.01025222  0.38907767  1
  O2-  O128  1  0.75093552  -0.00427319  0.73388060  1
  O2-  O129  1  0.75353915  0.50456693  0.06031311  1
  O2-  O130  1  0.75089836  0.49344860  0.39405018  1
  O2-  O131  1  0.75351982  0.50671755  0.72884217  1
  O2-  O132  1  -0.00094953  0.25084572  0.27281167  1
  O2-  O133  1  -0.00073694  0.24858913  0.60140305  1
  O2-  O134  1  0.00131509  0.25461967  0.94430836  1
  O2-  O135  1  0.00238539  0.75106078  0.27447589  1
  O2-  O136  1  -0.00079989  0.74873705  0.59871342  1
  O2-  O137  1  0.00776201  0.74821036  0.94293493  1
  O2-  O138  1  0.49868306  0.24744993  0.26486392  1
  O2-  O139  1  0.49143982  0.25182314  0.60936562  1
  O2-  O140  1  0.49818655  0.24634573  0.94339705  1
  O2-  O141  1  0.49958881  0.74875774  0.27486562  1
  O2-  O142  1  0.50726268  0.75526513  0.60045560  1
  O2-  O143  1  0.49416772  0.75259277  0.94236889  1
  O2-  O144  1  0.06738528  0.18262882  0.09173230  1
  O2-  O145  1  0.06824201  0.17923409  0.42031612  1
  O2-  O146  1  0.07397857  0.18164537  0.76561767  1
  O2-  O147  1  0.07148320  0.67380562  0.09170531  1
  O2-  O148  1  0.07039418  0.67485003  0.42054801  1
  O2-  O149  1  0.07288065  0.67997166  0.76555081  1
  O2-  O150  1  0.57498001  0.17808286  0.08902271  1
  O2-  O151  1  0.57420052  0.17924793  0.42869919  1
  O2-  O152  1  0.56841928  0.18301813  0.76952658  1
  O2-  O153  1  0.57059788  0.68002408  0.10128054  1
  O2-  O154  1  0.57198187  0.68112114  0.42351325  1
  O2-  O155  1  0.56307857  0.67197376  0.76412733  1
  O2-  O156  1  0.17359491  0.43260608  0.24426160  1
  O2-  O157  1  0.17782372  0.42708915  0.57655176  1
  O2-  O158  1  0.17642663  0.42521713  0.90944183  1
  O2-  O159  1  0.17618750  0.93115740  0.23728285  1
  O2-  O160  1  0.18350316  0.93062115  0.56863477  1
  O2-  O161  1  0.17614559  0.93126805  0.90191369  1
  O2-  O162  1  0.68113251  0.42978039  0.24422659  1
  O2-  O163  1  0.68130454  0.43149919  0.56639538  1
  O2-  O164  1  0.68046000  0.42544334  0.90340496  1
  O2-  O165  1  0.68427709  0.92543036  0.23034356  1
  O2-  O166  1  0.67576116  0.93112900  0.57021280  1
  O2-  O167  1  0.67943185  0.92821696  0.90816895  1
  O2-  O168  1  0.43032556  0.32178458  0.08944391  1
  O2-  O169  1  0.43398953  0.32314356  0.43025354  1
  O2-  O170  1  0.42586529  0.32518558  0.75823468  1
  O2-  O171  1  0.43003641  0.82224988  0.09238237  1
  O2-  O172  1  0.42725255  0.81830889  0.42163557  1
  O2-  O173  1  0.42637083  0.81651944  0.76637050  1
  O2-  O174  1  0.92833344  0.31991035  0.09198420  1
  O2-  O175  1  0.93043335  0.32580407  0.41977500  1
  O2-  O176  1  0.93014731  0.31963772  0.76670116  1
  O2-  O177  1  0.92742646  0.81950632  0.10006732  1
  O2-  O178  1  0.92836261  0.81853597  0.42234458  1
  O2-  O179  1  0.93286315  0.82133412  0.76275613  1
  O2-  O180  1  0.31787889  0.06917711  0.23633782  1
  O2-  O181  1  0.32088259  0.07688601  0.57693521  1
  O2-  O182  1  0.32186161  0.07546921  0.90158926  1
  O2-  O183  1  0.32178995  0.56963747  0.23643146  1
  O2-  O184  1  0.32083333  0.56771169  0.57718027  1
  O2-  O185  1  0.31885128  0.56709343  0.89933472  1
  O2-  O186  1  0.82492987  0.07154873  0.24159591  1
  O2-  O187  1  0.81571880  0.07134602  0.56726959  1
  O2-  O188  1  0.82061458  0.07520746  0.91118343  1
  O2-  O189  1  0.81954291  0.57103899  0.23285091  1
  O2-  O190  1  0.82735224  0.56780989  0.57936148  1
  O2-  O191  1  0.82555641  0.57034933  0.90998180  1
  O2-  O192  1  0.03827292  0.08786066  0.26722781  1
  O2-  O193  1  0.04490407  0.08102952  0.59723991  1
  O2-  O194  1  0.03937276  0.09092464  0.93934477  1
  O2-  O195  1  0.04323018  0.58717359  0.26671228  1
  O2-  O196  1  0.04838302  0.58045656  0.59794678  1
  O2-  O197  1  0.04789124  0.58340847  0.93863916  1
  O2-  O198  1  0.54360951  0.07676601  0.26254485  1
  O2-  O199  1  0.54257512  0.08395589  0.60109786  1
  O2-  O200  1  0.54808487  0.08479021  0.93761102  1
  O2-  O201  1  0.54630340  0.58713149  0.27301326  1
  O2-  O202  1  0.53532098  0.58141055  0.59532725  1
  O2-  O203  1  0.53670554  0.57977932  0.93628798  1
  O2-  O204  1  0.16063062  0.20697077  0.26701743  1
  O2-  O205  1  0.16919879  0.21084525  0.59626787  1
  O2-  O206  1  0.16265512  0.20727362  0.93965019  1
  O2-  O207  1  0.16538712  0.70491855  0.27091028  1
  O2-  O208  1  0.17005933  0.70847630  0.59807773  1
  O2-  O209  1  0.16936308  0.69932965  0.94251565  1
  O2-  O210  1  0.67091327  0.20433696  0.26081904  1
  O2-  O211  1  0.66329486  0.21471255  0.60058057  1
  O2-  O212  1  0.66394121  0.21018542  0.93863621  1
  O2-  O213  1  0.66406424  0.71045205  0.27196190  1
  O2-  O214  1  0.67395944  0.69199563  0.60292260  1
  O2-  O215  1  0.66478666  0.70469030  0.93098802  1
  O2-  O216  1  0.08015691  0.44926792  0.06069946  1
  O2-  O217  1  0.08544868  0.45814291  0.39755043  1
  O2-  O218  1  0.08617267  0.45593208  0.72994890  1
  O2-  O219  1  0.07971306  0.96341231  0.06905848  1
  O2-  O220  1  0.07788685  0.95842890  0.40095376  1
  O2-  O221  1  0.08381639  0.95998004  0.73376966  1
  O2-  O222  1  0.58377090  0.45793748  0.07154489  1
  O2-  O223  1  0.58785411  0.45454673  0.39590358  1
  O2-  O224  1  0.58298606  0.46142515  0.73478374  1
  O2-  O225  1  0.58860509  0.95329433  0.06104461  1
  O2-  O226  1  0.58119162  0.95333916  0.39620798  1
  O2-  O227  1  0.57804649  0.95746126  0.73678153  1
  O2-  O228  1  0.20238202  0.33491242  0.06290993  1
  O2-  O229  1  0.19684247  0.33289791  0.39306738  1
  O2-  O230  1  0.20576343  0.33714908  0.73081555  1
  O2-  O231  1  0.19953176  0.83053568  0.06965256  1
  O2-  O232  1  0.20376316  0.82983343  0.40157603  1
  O2-  O233  1  0.21440073  0.83390061  0.73498906  1
  O2-  O234  1  0.71290376  0.33337050  0.07342326  1
  O2-  O235  1  0.70545236  0.33192822  0.39171614  1
  O2-  O236  1  0.71200013  0.33613399  0.73547547  1
  O2-  O237  1  0.70996194  0.83441999  0.05842565  1
  O2-  O238  1  0.71397354  0.83642939  0.40153681  1
  O2-  O239  1  0.70147916  0.82478625  0.73282566  1
  O2-  O240  1  0.46226385  0.41968153  0.26344705  1
  O2-  O241  1  0.45650582  0.41592873  0.60595967  1
  O2-  O242  1  0.45979271  0.41028583  0.93659408  1
  O2-  O243  1  0.45384243  0.91064779  0.26899811  1
  O2-  O244  1  0.45182012  0.92101429  0.59952344  1
  O2-  O245  1  0.45271525  0.91604961  0.94017874  1
  O2-  O246  1  0.96125742  0.41475975  0.26628004  1
  O2-  O247  1  0.95831666  0.41748387  0.59853974  1
  O2-  O248  1  0.94877292  0.41483118  0.93999112  1
  O2-  O249  1  0.95388831  0.91276143  0.27059425  1
  O2-  O250  1  0.95725444  0.92020686  0.59642672  1
  O2-  O251  1  0.95750545  0.91994830  0.93383883  1
  O2-  O252  1  0.32793457  0.30009369  0.26459973  1
  O2-  O253  1  0.33234161  0.30572293  0.60514745  1
  O2-  O254  1  0.33585603  0.29597898  0.93781797  1
  O2-  O255  1  0.33528096  0.78833686  0.27070140  1
  O2-  O256  1  0.33557351  0.78576956  0.59659368  1
  O2-  O257  1  0.33162674  0.79747509  0.94408021  1
  O2-  O258  1  0.83834289  0.29817631  0.26611452  1
  O2-  O259  1  0.83064476  0.29258403  0.59790419  1
  O2-  O260  1  0.83577875  0.28876480  0.94114203  1
  O2-  O261  1  0.83804752  0.78744969  0.27049641  1
  O2-  O262  1  0.82919452  0.79593819  0.59769734  1
  O2-  O263  1  0.83608123  0.78975219  0.92847580  1
  O2-  O264  1  0.42291225  0.04635830  0.06808671  1
  O2-  O265  1  0.41982889  0.04456707  0.39949885  1
  O2-  O266  1  0.41572480  0.05023070  0.72804342  1
  O2-  O267  1  0.41348918  0.53418080  0.06878910  1
  O2-  O268  1  0.41987460  0.53895143  0.40378170  1
  O2-  O269  1  0.41028150  0.54012625  0.73106509  1
  O2-  O270  1  0.91147001  0.04456691  0.06441775  1
  O2-  O271  1  0.91349470  0.04537739  0.39470921  1
  O2-  O272  1  0.91943434  0.04578125  0.73270686  1
  O2-  O273  1  0.91554191  0.54735321  0.06320974  1
  O2-  O274  1  0.91929690  0.54195928  0.39913511  1
  O2-  O275  1  0.91900004  0.54342814  0.73128790  1
  O2-  O276  1  0.29302372  0.17061084  0.06869292  1
  O2-  O277  1  0.29416639  0.17300943  0.39869588  1
  O2-  O278  1  0.29816669  0.17089477  0.72727445  1
  O2-  O279  1  0.29354982  0.66512050  0.07082969  1
  O2-  O280  1  0.29044983  0.66415074  0.40458656  1
  O2-  O281  1  0.29109611  0.66114212  0.72947051  1
  O2-  O282  1  0.79123166  0.16099454  0.06673105  1
  O2-  O283  1  0.80294178  0.17076475  0.39008596  1
  O2-  O284  1  0.78868310  0.16794198  0.73487155  1
  O2-  O285  1  0.79454210  0.66666909  0.05975778  1
  O2-  O286  1  0.79023351  0.66458728  0.40315390  1
  O2-  O287  1  0.80503988  0.66740057  0.72844805  1
