# generated using pymatgen
data_Ca2Al2SiO7
_symmetry_space_group_name_H-M   'P 1'
_cell_length_a   15.45281078
_cell_length_b   15.45319055
_cell_length_c   15.27992083
_cell_angle_alpha   90.00702306
_cell_angle_beta   89.99823432
_cell_angle_gamma   89.99593261
_symmetry_Int_Tables_number   1
_chemical_formula_structural   Ca2Al2SiO7
_chemical_formula_sum   'Ca48 Al48 Si24 O168'
_cell_volume   3648.77216332
_cell_formula_units_Z   24
loop_
 _symmetry_equiv_pos_site_id
 _symmetry_equiv_pos_as_xyz
  1  'x, y, z'
loop_
 _atom_type_symbol
 _atom_type_oxidation_number
  Ca2+  2.0
  Al0+  0.0
  Si0+  0.0
  O2-  -2.0
loop_
 _atom_site_type_symbol
 _atom_site_label
 _atom_site_symmetry_multiplicity
 _atom_site_fract_x
 _atom_site_fract_y
 _atom_site_fract_z
 _atom_site_occupancy
  Ca2+  Ca0  1  0.16650269  0.07874040  0.17107773  1
  Ca2+  Ca1  1  0.16768993  0.06946022  0.50566722  1
  Ca2+  Ca2  1  0.16525516  0.07913337  0.83760250  1
  Ca2+  Ca3  1  0.17157726  0.57770787  0.17318666  1
  Ca2+  Ca4  1  0.17767198  0.59124354  0.50516587  1
  Ca2+  Ca5  1  0.17118763  0.57754512  0.83380607  1
  Ca2+  Ca6  1  0.66576544  0.07433427  0.16796544  1
  Ca2+  Ca7  1  0.66668557  0.08210230  0.50611074  1
  Ca2+  Ca8  1  0.67472340  0.08726478  0.83807532  1
  Ca2+  Ca9  1  0.67053335  0.57992677  0.16480401  1
  Ca2+  Ca10  1  0.66509963  0.58258919  0.50591538  1
  Ca2+  Ca11  1  0.66873403  0.57952225  0.84132565  1
  Ca2+  Ca12  1  0.08127030  0.32857643  0.15802962  1
  Ca2+  Ca13  1  0.06953513  0.33580900  0.49543772  1
  Ca2+  Ca14  1  0.08008337  0.32924598  0.83166551  1
  Ca2+  Ca15  1  0.09022153  0.82643026  0.16643286  1
  Ca2+  Ca16  1  0.09442152  0.82528724  0.49743397  1
  Ca2+  Ca17  1  0.08241543  0.82696670  0.82380530  1
  Ca2+  Ca18  1  0.57181329  0.33970373  0.16148015  1
  Ca2+  Ca19  1  0.57392973  0.32821709  0.50013109  1
  Ca2+  Ca20  1  0.57740052  0.33520281  0.82658475  1
  Ca2+  Ca21  1  0.57643792  0.84058186  0.16064609  1
  Ca2+  Ca22  1  0.57410467  0.83140740  0.49450411  1
  Ca2+  Ca23  1  0.57559744  0.83245851  0.82729795  1
  Ca2+  Ca24  1  0.33034594  0.41680931  0.17313120  1
  Ca2+  Ca25  1  0.34132016  0.42627997  0.50490711  1
  Ca2+  Ca26  1  0.33607674  0.42024660  0.83929110  1
  Ca2+  Ca27  1  0.33340359  0.91525190  0.17483543  1
  Ca2+  Ca28  1  0.32610327  0.90373030  0.50337886  1
  Ca2+  Ca29  1  0.33193950  0.90951897  0.83328484  1
  Ca2+  Ca30  1  0.83093311  0.41714649  0.16703572  1
  Ca2+  Ca31  1  0.83563598  0.41199333  0.50595506  1
  Ca2+  Ca32  1  0.82763316  0.42063916  0.84134065  1
  Ca2+  Ca33  1  0.82103261  0.92007289  0.16995967  1
  Ca2+  Ca34  1  0.82603395  0.92353647  0.50724599  1
  Ca2+  Ca35  1  0.82502335  0.92818759  0.84242982  1
  Ca2+  Ca36  1  0.41394330  0.17829290  0.15970425  1
  Ca2+  Ca37  1  0.41733328  0.17554349  0.49872787  1
  Ca2+  Ca38  1  0.42447373  0.18006052  0.82670930  1
  Ca2+  Ca39  1  0.41124548  0.67756370  0.16481279  1
  Ca2+  Ca40  1  0.41453200  0.67096532  0.49919918  1
  Ca2+  Ca41  1  0.42209862  0.67335815  0.82395864  1
  Ca2+  Ca42  1  0.92180693  0.16666004  0.16151814  1
  Ca2+  Ca43  1  0.90961221  0.17559786  0.49955406  1
  Ca2+  Ca44  1  0.91604387  0.16601848  0.82823454  1
  Ca2+  Ca45  1  0.92066712  0.66473867  0.16350892  1
  Ca2+  Ca46  1  0.93381660  0.66548990  0.49424149  1
  Ca2+  Ca47  1  0.92039340  0.66421435  0.82804982  1
  Al0+  Al48  1  0.00047222  -0.00148792  0.00056110  1
  Al0+  Al49  1  -0.00126967  -0.00051667  0.33919583  1
  Al0+  Al50  1  -0.00066213  -0.00042047  0.67497172  1
  Al0+  Al51  1  0.00230344  0.49883646  0.00672531  1
  Al0+  Al52  1  -0.00001864  0.49947331  0.32409715  1
  Al0+  Al53  1  0.00143732  0.49961656  0.65938559  1
  Al0+  Al54  1  0.49760464  0.00224999  -0.00272275  1
  Al0+  Al55  1  0.50049671  0.00046358  0.33518627  1
  Al0+  Al56  1  0.49737330  0.00064718  0.65975119  1
  Al0+  Al57  1  0.49979898  0.50425097  0.00129279  1
  Al0+  Al58  1  0.50166574  0.50001514  0.33333691  1
  Al0+  Al59  1  0.50039109  0.50202561  0.66531803  1
  Al0+  Al60  1  0.24863713  0.24945847  -0.00567682  1
  Al0+  Al61  1  0.24821203  0.24992441  0.33263417  1
  Al0+  Al62  1  0.24767124  0.24876551  0.66202018  1
  Al0+  Al63  1  0.24986243  0.74915038  -0.00539315  1
  Al0+  Al64  1  0.25144645  0.74815101  0.33066068  1
  Al0+  Al65  1  0.24970879  0.74755132  0.67170917  1
  Al0+  Al66  1  0.75003625  0.25096494  0.01076004  1
  Al0+  Al67  1  0.74970972  0.25065180  0.32756871  1
  Al0+  Al68  1  0.74960499  0.25002148  0.66413614  1
  Al0+  Al69  1  0.75101836  0.75035173  0.00750006  1
  Al0+  Al70  1  0.75116249  0.74919556  0.33923726  1
  Al0+  Al71  1  0.75055331  0.75060996  0.66434469  1
  Al0+  Al72  1  0.42620862  0.32294745  0.65192713  1
  Al0+  Al73  1  0.42840583  0.81980433  0.65090723  1
  Al0+  Al74  1  0.43139380  0.81915521  0.31894888  1
  Al0+  Al75  1  0.67624234  0.93048962  0.01339425  1
  Al0+  Al76  1  0.07201323  0.68150803  0.31726669  1
  Al0+  Al77  1  0.42919484  0.32142949  0.31898197  1
  Al0+  Al78  1  0.18160644  0.92896430  0.68269302  1
  Al0+  Al79  1  0.57416230  0.67896485  0.65213499  1
  Al0+  Al80  1  0.42939068  0.32360157  0.98656248  1
  Al0+  Al81  1  0.67621586  0.42919947  0.01531658  1
  Al0+  Al82  1  0.32053198  0.56847968  0.34650155  1
  Al0+  Al83  1  0.82336398  0.57136057  0.01512176  1
  Al0+  Al84  1  0.81808625  0.07187860  0.68061800  1
  Al0+  Al85  1  0.57177775  0.17961396  0.65270503  1
  Al0+  Al86  1  0.18178900  0.42725936  0.01281702  1
  Al0+  Al87  1  0.18062835  0.92916923  0.34554021  1
  Al0+  Al88  1  0.32139836  0.56843639  0.68212836  1
  Al0+  Al89  1  0.06907356  0.68001170  0.65423459  1
  Al0+  Al90  1  0.92825457  0.32038309  0.31579637  1
  Al0+  Al91  1  0.82371715  0.07188902  0.01745752  1
  Al0+  Al92  1  0.93075445  0.31903567  0.65608794  1
  Al0+  Al93  1  0.67752964  0.92846996  0.34993567  1
  Al0+  Al94  1  0.42869892  0.82261811  0.98504538  1
  Al0+  Al95  1  0.06959398  0.17712815  0.98579209  1
  Si0+  Si96  1  0.57239129  0.17931300  0.98545180  1
  Si0+  Si97  1  0.92840045  0.81984023  0.98615273  1
  Si0+  Si98  1  0.92781920  0.82455001  0.65125713  1
  Si0+  Si99  1  0.67562462  0.92719266  0.68255170  1
  Si0+  Si100  1  0.57580062  0.67742520  0.31491755  1
  Si0+  Si101  1  0.07043624  0.67762366  0.98385694  1
  Si0+  Si102  1  0.31911259  0.07102692  0.01302321  1
  Si0+  Si103  1  0.17979534  0.92686087  0.01468048  1
  Si0+  Si104  1  0.57141521  0.17803544  0.31437250  1
  Si0+  Si105  1  0.68066185  0.43075682  0.67913666  1
  Si0+  Si106  1  0.82066558  0.07268845  0.35138582  1
  Si0+  Si107  1  0.32085376  0.57337443  0.01696083  1
  Si0+  Si108  1  0.32260903  0.07525002  0.68442467  1
  Si0+  Si109  1  0.57409119  0.68033977  0.98518847  1
  Si0+  Si110  1  0.82322340  0.56953944  0.35071308  1
  Si0+  Si111  1  0.92646901  0.82266502  0.31745832  1
  Si0+  Si112  1  0.32216913  0.07483091  0.35003256  1
  Si0+  Si113  1  0.17546972  0.42647594  0.68102087  1
  Si0+  Si114  1  0.82427380  0.57120035  0.67773189  1
  Si0+  Si115  1  0.07178141  0.17388305  0.64915098  1
  Si0+  Si116  1  0.68025402  0.42901064  0.35031718  1
  Si0+  Si117  1  0.07070581  0.17581504  0.31821425  1
  Si0+  Si118  1  0.17618865  0.42640862  0.35048425  1
  Si0+  Si119  1  0.92768942  0.32199526  0.98430974  1
  O2-  O120  1  0.25095225  -0.00253449  0.05673318  1
  O2-  O121  1  0.25508772  0.00375417  0.39300994  1
  O2-  O122  1  0.25523388  0.00508436  0.72940180  1
  O2-  O123  1  0.25727104  0.50016994  0.06115464  1
  O2-  O124  1  0.24711058  0.49232871  0.39470154  1
  O2-  O125  1  0.25028712  0.48823882  0.72583546  1
  O2-  O126  1  0.74852729  0.00184561  0.06505654  1
  O2-  O127  1  0.75240087  0.00372451  0.39555705  1
  O2-  O128  1  0.74307603  -0.00291631  0.72686103  1
  O2-  O129  1  0.75136410  0.49889832  0.06495700  1
  O2-  O130  1  0.75239473  0.49872240  0.39366106  1
  O2-  O131  1  0.74980836  0.50448744  0.72034384  1
  O2-  O132  1  0.00425948  0.24571816  0.27256326  1
  O2-  O133  1  0.00461999  0.24468801  0.60625270  1
  O2-  O134  1  -0.00799638  0.24963950  0.93957091  1
  O2-  O135  1  -0.00316685  0.75656657  0.27106561  1
  O2-  O136  1  -0.00421943  0.75568880  0.60633772  1
  O2-  O137  1  -0.00244603  0.74724760  0.94270686  1
  O2-  O138  1  0.50083092  0.24493907  0.27027298  1
  O2-  O139  1  0.49589941  0.24795201  0.60306449  1
  O2-  O140  1  0.50962408  0.25380266  0.94165293  1
  O2-  O141  1  0.50925419  0.74827284  0.27067239  1
  O2-  O142  1  0.50396520  0.75160789  0.60100428  1
  O2-  O143  1  0.50681754  0.75036124  0.94131230  1
  O2-  O144  1  0.07075575  0.17741236  0.09919313  1
  O2-  O145  1  0.06950690  0.17534618  0.42371371  1
  O2-  O146  1  0.07104392  0.17424977  0.75484293  1
  O2-  O147  1  0.07293276  0.68072701  0.08894610  1
  O2-  O148  1  0.07174614  0.68233085  0.43040754  1
  O2-  O149  1  0.06549019  0.67842348  0.76777192  1
  O2-  O150  1  0.56612394  0.17555873  0.09094613  1
  O2-  O151  1  0.57303118  0.18069275  0.41988574  1
  O2-  O152  1  0.57436739  0.18461202  0.76654210  1
  O2-  O153  1  0.57281140  0.67938749  0.09083673  1
  O2-  O154  1  0.57577052  0.67700941  0.42039814  1
  O2-  O155  1  0.57596252  0.67899039  0.76595620  1
  O2-  O156  1  0.17754479  0.42626812  0.24458139  1
  O2-  O157  1  0.17094809  0.43020843  0.57562466  1
  O2-  O158  1  0.17954815  0.43011307  0.89962089  1
  O2-  O159  1  0.18183277  0.93107240  0.23179350  1
  O2-  O160  1  0.18219639  0.92905460  0.56939046  1
  O2-  O161  1  0.17954286  0.92628639  0.90979956  1
  O2-  O162  1  0.67992179  0.43132818  0.24546202  1
  O2-  O163  1  0.68284260  0.43007418  0.57371947  1
  O2-  O164  1  0.67724750  0.43068598  0.90107762  1
  O2-  O165  1  0.67813019  0.93046182  0.23679554  1
  O2-  O166  1  0.67984956  0.92682806  0.57689549  1
  O2-  O167  1  0.67834057  0.93065047  0.89979333  1
  O2-  O168  1  0.42783768  0.32024176  0.09992992  1
  O2-  O169  1  0.43217687  0.32109177  0.43166686  1
  O2-  O170  1  0.42969539  0.32342720  0.76576370  1
  O2-  O171  1  0.42574003  0.82102881  0.09834898  1
  O2-  O172  1  0.42970750  0.81589301  0.43133964  1
  O2-  O173  1  0.43003568  0.81758016  0.76483800  1
  O2-  O174  1  0.93203570  0.32202786  0.08985563  1
  O2-  O175  1  0.92764314  0.31966998  0.42938216  1
  O2-  O176  1  0.93070418  0.32100263  0.76893711  1
  O2-  O177  1  0.93093653  0.81993925  0.09130480  1
  O2-  O178  1  0.92574324  0.82000888  0.42302045  1
  O2-  O179  1  0.92793583  0.82204202  0.75727233  1
  O2-  O180  1  0.32027282  0.07668556  0.24389378  1
  O2-  O181  1  0.31938434  0.07785583  0.57885216  1
  O2-  O182  1  0.31779588  0.07109880  0.90822959  1
  O2-  O183  1  0.31750214  0.56849238  0.23311022  1
  O2-  O184  1  0.31932858  0.56970078  0.56890299  1
  O2-  O185  1  0.31851291  0.57414635  0.91145837  1
  O2-  O186  1  0.82196405  0.07077170  0.24606247  1
  O2-  O187  1  0.81724026  0.07113265  0.56729312  1
  O2-  O188  1  0.82301365  0.07042728  0.90364258  1
  O2-  O189  1  0.82202343  0.56979689  0.24580130  1
  O2-  O190  1  0.82602877  0.56786657  0.57262332  1
  O2-  O191  1  0.82389002  0.57032828  0.90073950  1
  O2-  O192  1  0.04331152  0.08220121  0.27204000  1
  O2-  O193  1  0.04329760  0.08044265  0.60461361  1
  O2-  O194  1  0.04216377  0.07905954  0.93206208  1
  O2-  O195  1  0.04051853  0.58565308  0.26241303  1
  O2-  O196  1  0.03814673  0.58596388  0.59576946  1
  O2-  O197  1  0.04350745  0.58463469  0.93885128  1
  O2-  O198  1  0.54707553  0.08366603  0.26989956  1
  O2-  O199  1  0.54717796  0.08121224  0.59824942  1
  O2-  O200  1  0.54170799  0.08917572  0.93550798  1
  O2-  O201  1  0.54889001  0.58403950  0.26951498  1
  O2-  O202  1  0.54564968  0.58139585  0.59821009  1
  O2-  O203  1  0.54691787  0.58782466  0.93757912  1
  O2-  O204  1  0.16490142  0.19899986  0.27184342  1
  O2-  O205  1  0.16542116  0.19529120  0.60197008  1
  O2-  O206  1  0.16393380  0.20969857  0.92859726  1
  O2-  O207  1  0.16654849  0.71355655  0.26062876  1
  O2-  O208  1  0.16528240  0.71241663  0.60225677  1
  O2-  O209  1  0.16051756  0.70782073  0.93454510  1
  O2-  O210  1  0.66406523  0.20459817  0.26725058  1
  O2-  O211  1  0.66701220  0.21245397  0.59581642  1
  O2-  O212  1  0.66964930  0.19983235  0.94521248  1
  O2-  O213  1  0.67137260  0.70057864  0.27171799  1
  O2-  O214  1  0.67392820  0.70255829  0.59790811  1
  O2-  O215  1  0.66960840  0.70232804  0.94113101  1
  O2-  O216  1  0.08710187  0.45845477  0.06987835  1
  O2-  O217  1  0.08175251  0.45531631  0.39295476  1
  O2-  O218  1  0.08470038  0.46020926  0.72928009  1
  O2-  O219  1  0.08828802  0.95362356  0.06252146  1
  O2-  O220  1  0.08333065  0.95648986  0.40108729  1
  O2-  O221  1  0.08433516  0.95735207  0.73773107  1
  O2-  O222  1  0.57972214  0.46309695  0.07054161  1
  O2-  O223  1  0.58932462  0.45787507  0.39858014  1
  O2-  O224  1  0.58907605  0.45728411  0.72690912  1
  O2-  O225  1  0.57765056  0.96102432  0.06613021  1
  O2-  O226  1  0.58119614  0.95964728  0.40414582  1
  O2-  O227  1  0.57980992  0.95028033  0.72430876  1
  O2-  O228  1  0.21045876  0.32975747  0.06634374  1
  O2-  O229  1  0.19609967  0.33102091  0.39539776  1
  O2-  O230  1  0.19232499  0.32924820  0.72318959  1
  O2-  O231  1  0.20809442  0.83438558  0.06087696  1
  O2-  O232  1  0.21357300  0.83290005  0.39812671  1
  O2-  O233  1  0.21186384  0.83324833  0.73874113  1
  O2-  O234  1  0.69950719  0.33153848  0.07186559  1
  O2-  O235  1  0.70814308  0.33584429  0.39502186  1
  O2-  O236  1  0.71123337  0.34056430  0.72714562  1
  O2-  O237  1  0.70455662  0.83312104  0.06851822  1
  O2-  O238  1  0.70865640  0.83172106  0.40385873  1
  O2-  O239  1  0.70338689  0.83372707  0.72874793  1
  O2-  O240  1  0.46325736  0.41720523  0.26513082  1
  O2-  O241  1  0.46009520  0.41911579  0.59910072  1
  O2-  O242  1  0.45587801  0.42279724  0.93575804  1
  O2-  O243  1  0.45705170  0.91922145  0.26822560  1
  O2-  O244  1  0.44742351  0.92014732  0.59848566  1
  O2-  O245  1  0.45469396  0.92047476  0.93112094  1
  O2-  O246  1  0.95782344  0.41610550  0.26041716  1
  O2-  O247  1  0.96134397  0.41367397  0.59708530  1
  O2-  O248  1  0.95761109  0.41530395  0.93964749  1
  O2-  O249  1  0.94932147  0.91806425  0.27415321  1
  O2-  O250  1  0.95392456  0.91830463  0.60655906  1
  O2-  O251  1  0.95850544  0.91026999  0.93755656  1
  O2-  O252  1  0.33009643  0.29331798  0.26751901  1
  O2-  O253  1  0.32667291  0.29824537  0.59891185  1
  O2-  O254  1  0.33543944  0.28810368  0.93134072  1
  O2-  O255  1  0.33629557  0.78584903  0.26329269  1
  O2-  O256  1  0.33089616  0.78491852  0.60111100  1
  O2-  O257  1  0.33314679  0.78850307  0.93020508  1
  O2-  O258  1  0.83190949  0.29053023  0.26121047  1
  O2-  O259  1  0.83550369  0.28848835  0.59922923  1
  O2-  O260  1  0.83056513  0.30191842  0.94354105  1
  O2-  O261  1  0.83383547  0.79303901  0.27117234  1
  O2-  O262  1  0.83437097  0.80103144  0.60461997  1
  O2-  O263  1  0.83580931  0.79366772  0.93943349  1
  O2-  O264  1  0.41099833  0.04654385  0.06163865  1
  O2-  O265  1  0.41667097  0.05275834  0.39450822  1
  O2-  O266  1  0.41786606  0.05161944  0.72807021  1
  O2-  O267  1  0.41630944  0.55611256  0.06132612  1
  O2-  O268  1  0.41862082  0.54017345  0.39937916  1
  O2-  O269  1  0.41961437  0.54194362  0.73597939  1
  O2-  O270  1  0.92100432  0.03828364  0.07044127  1
  O2-  O271  1  0.91399351  0.04898997  0.39929993  1
  O2-  O272  1  0.91431605  0.04254175  0.73610910  1
  O2-  O273  1  0.92059514  0.54327207  0.07067393  1
  O2-  O274  1  0.91612501  0.53984990  0.39513687  1
  O2-  O275  1  0.91448434  0.53954288  0.72618334  1
  O2-  O276  1  0.28764860  0.16125491  0.06142670  1
  O2-  O277  1  0.29343897  0.16695426  0.39825179  1
  O2-  O278  1  0.29476140  0.16860403  0.73120378  1
  O2-  O279  1  0.28735381  0.66512186  0.06306404  1
  O2-  O280  1  0.28649274  0.66408152  0.39977342  1
  O2-  O281  1  0.28510372  0.66155041  0.73893530  1
  O2-  O282  1  0.80076250  0.17052000  0.07146191  1
  O2-  O283  1  0.79260160  0.16725658  0.39473340  1
  O2-  O284  1  0.78708922  0.16861478  0.73492794  1
  O2-  O285  1  0.79667925  0.66874384  0.07150364  1
  O2-  O286  1  0.79813487  0.66140761  0.39927907  1
  O2-  O287  1  0.80222544  0.66528919  0.72388659  1
