# generated using pymatgen
data_Ca2Al2SiO7
_symmetry_space_group_name_H-M   'P 1'
_cell_length_a   15.45146451
_cell_length_b   15.45182931
_cell_length_c   15.27971731
_cell_angle_alpha   90.00448378
_cell_angle_beta   89.99559571
_cell_angle_gamma   89.99914496
_symmetry_Int_Tables_number   1
_chemical_formula_structural   Ca2Al2SiO7
_chemical_formula_sum   'Ca48 Al48 Si24 O168'
_cell_volume   3648.08431593
_cell_formula_units_Z   24
loop_
 _symmetry_equiv_pos_site_id
 _symmetry_equiv_pos_as_xyz
  1  'x, y, z'
loop_
 _atom_type_symbol
 _atom_type_oxidation_number
  Ca2+  2.0
  Al0+  0.0
  Si0+  0.0
  O2-  -2.0
loop_
 _atom_site_type_symbol
 _atom_site_label
 _atom_site_symmetry_multiplicity
 _atom_site_fract_x
 _atom_site_fract_y
 _atom_site_fract_z
 _atom_site_occupancy
  Ca2+  Ca0  1  0.17201039  0.07815755  0.17421960  1
  Ca2+  Ca1  1  0.17781327  0.08597461  0.50595405  1
  Ca2+  Ca2  1  0.17217558  0.07342126  0.83399042  1
  Ca2+  Ca3  1  0.17452491  0.57802767  0.16978041  1
  Ca2+  Ca4  1  0.16399086  0.57280549  0.50612744  1
  Ca2+  Ca5  1  0.16727006  0.58180128  0.83532631  1
  Ca2+  Ca6  1  0.66698175  0.08140927  0.17662607  1
  Ca2+  Ca7  1  0.67132247  0.08381881  0.49890874  1
  Ca2+  Ca8  1  0.67244127  0.08744730  0.83588796  1
  Ca2+  Ca9  1  0.66563025  0.58525928  0.16321261  1
  Ca2+  Ca10  1  0.66845388  0.58149479  0.50369651  1
  Ca2+  Ca11  1  0.67052487  0.57701763  0.84737028  1
  Ca2+  Ca12  1  0.08996602  0.32686799  0.17106420  1
  Ca2+  Ca13  1  0.08244449  0.33092075  0.49360642  1
  Ca2+  Ca14  1  0.07665423  0.33651387  0.82269882  1
  Ca2+  Ca15  1  0.07572073  0.83793290  0.15615596  1
  Ca2+  Ca16  1  0.08519391  0.83610211  0.50333233  1
  Ca2+  Ca17  1  0.07844043  0.83356755  0.82560751  1
  Ca2+  Ca18  1  0.58595019  0.32196670  0.16173506  1
  Ca2+  Ca19  1  0.56743876  0.32488939  0.49202562  1
  Ca2+  Ca20  1  0.58043003  0.33199857  0.83000068  1
  Ca2+  Ca21  1  0.57136693  0.83665313  0.16044107  1
  Ca2+  Ca22  1  0.57905264  0.83720461  0.49171389  1
  Ca2+  Ca23  1  0.57944461  0.82602844  0.83530991  1
  Ca2+  Ca24  1  0.33592754  0.42194199  0.17281846  1
  Ca2+  Ca25  1  0.32213436  0.40452753  0.50422373  1
  Ca2+  Ca26  1  0.33025545  0.41957541  0.83510159  1
  Ca2+  Ca27  1  0.33368447  0.91666408  0.17248021  1
  Ca2+  Ca28  1  0.33493787  0.93102337  0.50566321  1
  Ca2+  Ca29  1  0.32095155  0.91177991  0.83825109  1
  Ca2+  Ca30  1  0.82696770  0.42142277  0.16445251  1
  Ca2+  Ca31  1  0.83291931  0.41323610  0.50659213  1
  Ca2+  Ca32  1  0.82959373  0.42264149  0.84278731  1
  Ca2+  Ca33  1  0.82463861  0.91957518  0.17522343  1
  Ca2+  Ca34  1  0.83193959  0.92816608  0.50383249  1
  Ca2+  Ca35  1  0.84246865  0.92009063  0.83606740  1
  Ca2+  Ca36  1  0.42553610  0.16562607  0.16692134  1
  Ca2+  Ca37  1  0.41201115  0.17084463  0.49000422  1
  Ca2+  Ca38  1  0.42226625  0.16850271  0.82832685  1
  Ca2+  Ca39  1  0.41765632  0.67737375  0.15649920  1
  Ca2+  Ca40  1  0.41630948  0.67730165  0.49398436  1
  Ca2+  Ca41  1  0.41470130  0.66526421  0.83696881  1
  Ca2+  Ca42  1  0.92365589  0.15818863  0.16676905  1
  Ca2+  Ca43  1  0.91973452  0.16443941  0.49662182  1
  Ca2+  Ca44  1  0.91715536  0.17317971  0.82380400  1
  Ca2+  Ca45  1  0.91645837  0.67339647  0.15689638  1
  Ca2+  Ca46  1  0.92524103  0.67127113  0.50216935  1
  Ca2+  Ca47  1  0.91808252  0.67756679  0.82570919  1
  Al0+  Al48  1  0.00222064  0.00058590  -0.00088508  1
  Al0+  Al49  1  -0.00105721  -0.00038340  0.33239351  1
  Al0+  Al50  1  -0.00093952  0.00104886  0.66990719  1
  Al0+  Al51  1  -0.00058780  0.49870512  0.00676587  1
  Al0+  Al52  1  0.00024581  0.50074116  0.33471901  1
  Al0+  Al53  1  -0.00075515  0.50111767  0.66312596  1
  Al0+  Al54  1  0.49999524  0.00192794  -0.01212859  1
  Al0+  Al55  1  0.49924378  -0.00054737  0.33391528  1
  Al0+  Al56  1  0.50358031  -0.00064755  0.67221958  1
  Al0+  Al57  1  0.49875858  0.49850002  0.00634159  1
  Al0+  Al58  1  0.50073592  0.50202929  0.33257348  1
  Al0+  Al59  1  0.49966240  0.49833534  0.66035895  1
  Al0+  Al60  1  0.25062829  0.24729096  -0.00144203  1
  Al0+  Al61  1  0.24754593  0.25017193  0.33032775  1
  Al0+  Al62  1  0.25033589  0.25099870  0.67618142  1
  Al0+  Al63  1  0.24718053  0.74894248  0.00581152  1
  Al0+  Al64  1  0.24935771  0.74741860  0.32919972  1
  Al0+  Al65  1  0.25148405  0.74872946  0.66438303  1
  Al0+  Al66  1  0.75126684  0.25023605  0.00079399  1
  Al0+  Al67  1  0.75079047  0.25294295  0.33421642  1
  Al0+  Al68  1  0.74905260  0.24920713  0.66602754  1
  Al0+  Al69  1  0.74967131  0.75218167  -0.00457205  1
  Al0+  Al70  1  0.75097110  0.74930705  0.33932008  1
  Al0+  Al71  1  0.75030117  0.75027160  0.66140060  1
  Al0+  Al72  1  0.31954804  0.56943282  0.01371670  1
  Al0+  Al73  1  0.92852109  0.82415838  0.64832415  1
  Al0+  Al74  1  0.57164723  0.17994843  0.31948489  1
  Al0+  Al75  1  0.42945064  0.82053476  0.32118917  1
  Al0+  Al76  1  0.82099770  0.57417471  0.01418996  1
  Al0+  Al77  1  0.17949335  0.93025418  0.01495953  1
  Al0+  Al78  1  0.67841009  0.42759102  0.01571580  1
  Al0+  Al79  1  0.92940007  0.82152581  0.98733002  1
  Al0+  Al80  1  0.18115730  0.43060908  0.34689006  1
  Al0+  Al81  1  0.67788143  0.92859567  0.34712465  1
  Al0+  Al82  1  0.07301079  0.67939284  0.65130204  1
  Al0+  Al83  1  0.56989192  0.67762645  0.98596258  1
  Al0+  Al84  1  0.32428404  0.07330073  0.68402699  1
  Al0+  Al85  1  0.42873387  0.31967181  0.65357085  1
  Al0+  Al86  1  0.82261115  0.07265910  0.34775886  1
  Al0+  Al87  1  0.92780176  0.32137011  0.65469886  1
  Al0+  Al88  1  0.42618837  0.32168368  0.31705259  1
  Al0+  Al89  1  0.57298905  0.18017453  0.98431399  1
  Al0+  Al90  1  0.31908425  0.06886102  0.34350904  1
  Al0+  Al91  1  0.81906056  0.07074871  0.68178892  1
  Al0+  Al92  1  0.42559277  0.82109825  0.98270673  1
  Al0+  Al93  1  0.06900882  0.17851333  0.32085708  1
  Al0+  Al94  1  0.18083495  0.92783594  0.68035961  1
  Al0+  Al95  1  0.17763176  0.43045027  0.68040490  1
  Si0+  Si96  1  0.57223530  0.17682771  0.64888778  1
  Si0+  Si97  1  0.92757478  0.32507174  0.31469240  1
  Si0+  Si98  1  0.32420852  0.57187228  0.68151014  1
  Si0+  Si99  1  0.06975717  0.67671741  0.31584745  1
  Si0+  Si100  1  0.67877116  0.92456210  0.68703983  1
  Si0+  Si101  1  0.82139844  0.07123926  0.01437346  1
  Si0+  Si102  1  0.93096658  0.32022324  0.98684261  1
  Si0+  Si103  1  0.82151921  0.57108162  0.35117113  1
  Si0+  Si104  1  0.32388234  0.07161104  0.01746642  1
  Si0+  Si105  1  0.57509312  0.67800347  0.31695770  1
  Si0+  Si106  1  0.07157126  0.17948320  0.65263611  1
  Si0+  Si107  1  0.67812377  0.43052268  0.67955725  1
  Si0+  Si108  1  0.92980193  0.81950426  0.31846871  1
  Si0+  Si109  1  0.42678166  0.32198665  0.98307996  1
  Si0+  Si110  1  0.07211996  0.17853529  0.98330030  1
  Si0+  Si111  1  0.17626758  0.92505182  0.34872461  1
  Si0+  Si112  1  0.67838206  0.42955604  0.35067503  1
  Si0+  Si113  1  0.57113820  0.67800049  0.65108503  1
  Si0+  Si114  1  0.43005712  0.82131484  0.65214168  1
  Si0+  Si115  1  0.32352760  0.57312988  0.35166909  1
  Si0+  Si116  1  0.81991883  0.57128267  0.68037529  1
  Si0+  Si117  1  0.67793275  0.93077885  0.01186809  1
  Si0+  Si118  1  0.17639480  0.42448522  0.01784454  1
  Si0+  Si119  1  0.07070074  0.67545802  0.98566670  1
  O2-  O120  1  0.25774902  0.00066355  0.06188900  1
  O2-  O121  1  0.24570247  -0.00697872  0.39149779  1
  O2-  O122  1  0.25419733  -0.00213238  0.73176491  1
  O2-  O123  1  0.24657032  0.49236629  0.06015477  1
  O2-  O124  1  0.25882395  0.50121506  0.39591573  1
  O2-  O125  1  0.25316969  0.50515807  0.72522073  1
  O2-  O126  1  0.74929473  0.00105491  0.05519170  1
  O2-  O127  1  0.74860993  0.00216736  0.39679534  1
  O2-  O128  1  0.74803706  -0.00672065  0.73053500  1
  O2-  O129  1  0.74680603  0.50434432  0.06491892  1
  O2-  O130  1  0.74998930  0.50030674  0.39342300  1
  O2-  O131  1  0.74974115  0.50003709  0.72290491  1
  O2-  O132  1  -0.00789312  0.25144930  0.27211072  1
  O2-  O133  1  0.00343848  0.24845242  0.60764108  1
  O2-  O134  1  0.00433347  0.25319562  0.94265792  1
  O2-  O135  1  0.00289020  0.75175356  0.27428415  1
  O2-  O136  1  0.00437141  0.75469891  0.60005944  1
  O2-  O137  1  0.00074716  0.74279165  0.94196419  1
  O2-  O138  1  0.50073844  0.25215740  0.26744723  1
  O2-  O139  1  0.49711243  0.23916246  0.60655712  1
  O2-  O140  1  0.49761642  0.25522223  0.93914813  1
  O2-  O141  1  0.50541847  0.74625470  0.27526056  1
  O2-  O142  1  0.50213118  0.75107803  0.60949708  1
  O2-  O143  1  0.49644039  0.74676429  0.93344987  1
  O2-  O144  1  0.07119661  0.17750621  0.08855426  1
  O2-  O145  1  0.06994702  0.18048640  0.43379988  1
  O2-  O146  1  0.06823228  0.18167313  0.75879512  1
  O2-  O147  1  0.06863961  0.67635440  0.09181465  1
  O2-  O148  1  0.06820924  0.67446984  0.42065651  1
  O2-  O149  1  0.06925658  0.67702563  0.76497269  1
  O2-  O150  1  0.57422947  0.17879535  0.09715362  1
  O2-  O151  1  0.57117228  0.18244603  0.43302930  1
  O2-  O152  1  0.57553301  0.18186918  0.75461835  1
  O2-  O153  1  0.57002009  0.68255402  0.09946561  1
  O2-  O154  1  0.57481705  0.67676011  0.42325182  1
  O2-  O155  1  0.57185883  0.67525320  0.75563308  1
  O2-  O156  1  0.17963603  0.43448224  0.23368826  1
  O2-  O157  1  0.17772188  0.42992541  0.56738922  1
  O2-  O158  1  0.17347503  0.42513662  0.91232126  1
  O2-  O159  1  0.17508522  0.92662918  0.24291987  1
  O2-  O160  1  0.18436375  0.92917075  0.56646433  1
  O2-  O161  1  0.17701914  0.93241244  0.90216410  1
  O2-  O162  1  0.67995844  0.42997135  0.24597128  1
  O2-  O163  1  0.67848824  0.43374902  0.57421339  1
  O2-  O164  1  0.68280937  0.42687819  0.90137475  1
  O2-  O165  1  0.68050887  0.92632483  0.23300226  1
  O2-  O166  1  0.67683720  0.92451880  0.58157979  1
  O2-  O167  1  0.67994013  0.93155913  0.90676732  1
  O2-  O168  1  0.42435945  0.31923679  0.08833813  1
  O2-  O169  1  0.42642788  0.31902440  0.43096966  1
  O2-  O170  1  0.43470151  0.32526535  0.76652903  1
  O2-  O171  1  0.42861292  0.82216522  0.09639527  1
  O2-  O172  1  0.43019563  0.81880873  0.43494214  1
  O2-  O173  1  0.42976385  0.81816873  0.75685341  1
  O2-  O174  1  0.93044804  0.31894423  0.09184748  1
  O2-  O175  1  0.92961039  0.32820479  0.42036475  1
  O2-  O176  1  0.92767149  0.32172743  0.76839528  1
  O2-  O177  1  0.93043622  0.82277743  0.10111151  1
  O2-  O178  1  0.93043375  0.81786213  0.42316909  1
  O2-  O179  1  0.92721674  0.82016640  0.76198911  1
  O2-  O180  1  0.31863187  0.06680372  0.23032867  1
  O2-  O181  1  0.32274532  0.07336495  0.56997982  1
  O2-  O182  1  0.32028482  0.07368698  0.91214435  1
  O2-  O183  1  0.32044974  0.57477163  0.24617491  1
  O2-  O184  1  0.32641751  0.57236428  0.57607896  1
  O2-  O185  1  0.31754555  0.56742822  0.90016657  1
  O2-  O186  1  0.82469907  0.06736197  0.23365280  1
  O2-  O187  1  0.81651199  0.07239088  0.56907477  1
  O2-  O188  1  0.82180289  0.07256834  0.90920236  1
  O2-  O189  1  0.82189605  0.57292109  0.24635839  1
  O2-  O190  1  0.81719075  0.57065844  0.57474204  1
  O2-  O191  1  0.82272444  0.57008807  0.90033458  1
  O2-  O192  1  0.03911845  0.08182391  0.26409933  1
  O2-  O193  1  0.04610967  0.08632623  0.60700530  1
  O2-  O194  1  0.03969164  0.08932159  0.93460087  1
  O2-  O195  1  0.03671115  0.58727338  0.26702966  1
  O2-  O196  1  0.03763165  0.58404668  0.59535795  1
  O2-  O197  1  0.04791229  0.57981188  0.94198091  1
  O2-  O198  1  0.54345836  0.08126920  0.26757105  1
  O2-  O199  1  0.55507216  0.07932182  0.60780855  1
  O2-  O200  1  0.54361098  0.08615460  0.92500140  1
  O2-  O201  1  0.55158388  0.58410587  0.27112742  1
  O2-  O202  1  0.54230474  0.58792712  0.60008611  1
  O2-  O203  1  0.54392384  0.57677384  0.93614384  1
  O2-  O204  1  0.16233594  0.21211496  0.26232935  1
  O2-  O205  1  0.16618230  0.20556694  0.61029362  1
  O2-  O206  1  0.16514133  0.20210803  0.93613850  1
  O2-  O207  1  0.16320829  0.69908751  0.26922811  1
  O2-  O208  1  0.17270519  0.70233453  0.59714861  1
  O2-  O209  1  0.16384913  0.70128005  0.94063044  1
  O2-  O210  1  0.67100060  0.20908153  0.26721110  1
  O2-  O211  1  0.66287698  0.20906996  0.60124878  1
  O2-  O212  1  0.67003300  0.21250053  0.93075845  1
  O2-  O213  1  0.66992708  0.70239319  0.27306331  1
  O2-  O214  1  0.66260310  0.70408098  0.60152946  1
  O2-  O215  1  0.66704513  0.70779345  0.93068465  1
  O2-  O216  1  0.08400939  0.44953808  0.06693343  1
  O2-  O217  1  0.08443350  0.46402007  0.40020160  1
  O2-  O218  1  0.08061562  0.46258890  0.73387695  1
  O2-  O219  1  0.08441270  0.96680983  0.06998474  1
  O2-  O220  1  0.08275450  0.95066150  0.39388997  1
  O2-  O221  1  0.08216419  0.95606922  0.73275042  1
  O2-  O222  1  0.57957814  0.44931895  0.06944416  1
  O2-  O223  1  0.58658492  0.45877751  0.39847029  1
  O2-  O224  1  0.58695809  0.46067895  0.72667566  1
  O2-  O225  1  0.58513803  0.96016002  0.05623092  1
  O2-  O226  1  0.58038045  0.95591430  0.40178368  1
  O2-  O227  1  0.58598724  0.94962235  0.73500762  1
  O2-  O228  1  0.20204000  0.32959453  0.06163487  1
  O2-  O229  1  0.20739559  0.33271219  0.39973877  1
  O2-  O230  1  0.20663343  0.33605960  0.73888438  1
  O2-  O231  1  0.20221628  0.83221754  0.06943977  1
  O2-  O232  1  0.19981273  0.82959027  0.39178101  1
  O2-  O233  1  0.20862564  0.82826437  0.73259691  1
  O2-  O234  1  0.71586724  0.33232112  0.07048779  1
  O2-  O235  1  0.70637795  0.33889365  0.39982393  1
  O2-  O236  1  0.70430447  0.33828944  0.72583111  1
  O2-  O237  1  0.70449814  0.83902357  0.05913360  1
  O2-  O238  1  0.70709003  0.83083120  0.40279574  1
  O2-  O239  1  0.70383218  0.82946093  0.73058117  1
  O2-  O240  1  0.45348652  0.42286303  0.26891687  1
  O2-  O241  1  0.46278612  0.41375907  0.59536752  1
  O2-  O242  1  0.45043164  0.41653622  0.93912912  1
  O2-  O243  1  0.45953952  0.91589027  0.26567736  1
  O2-  O244  1  0.45928141  0.91412263  0.60709474  1
  O2-  O245  1  0.45478313  0.91768777  0.92733553  1
  O2-  O246  1  0.95858088  0.41691416  0.26746846  1
  O2-  O247  1  0.95524151  0.41760744  0.59903924  1
  O2-  O248  1  0.95609685  0.41389591  0.94088633  1
  O2-  O249  1  0.95395997  0.91180368  0.27052170  1
  O2-  O250  1  0.95471832  0.92412415  0.59804523  1
  O2-  O251  1  0.96435931  0.91693294  0.93297045  1
  O2-  O252  1  0.32873857  0.29425874  0.26328622  1
  O2-  O253  1  0.32901078  0.29239210  0.60468310  1
  O2-  O254  1  0.33352563  0.29454089  0.93560564  1
  O2-  O255  1  0.33288243  0.78938997  0.26603442  1
  O2-  O256  1  0.33981803  0.79311097  0.60260766  1
  O2-  O257  1  0.32600680  0.78960408  0.93397654  1
  O2-  O258  1  0.83233559  0.30503502  0.27059372  1
  O2-  O259  1  0.83163130  0.29030797  0.59954677  1
  O2-  O260  1  0.84061790  0.29048188  0.93824658  1
  O2-  O261  1  0.83781374  0.78792987  0.27308922  1
  O2-  O262  1  0.83131917  0.79112026  0.59460568  1
  O2-  O263  1  0.83292246  0.79622418  0.93132015  1
  O2-  O264  1  0.42005952  0.04798994  0.05823721  1
  O2-  O265  1  0.41463445  0.03978434  0.39977477  1
  O2-  O266  1  0.42453631  0.04816280  0.73478496  1
  O2-  O267  1  0.41539917  0.54229587  0.07082827  1
  O2-  O268  1  0.41991893  0.55506924  0.39539844  1
  O2-  O269  1  0.41717968  0.54232091  0.72746153  1
  O2-  O270  1  0.91317394  0.04199876  0.06072645  1
  O2-  O271  1  0.91959208  0.04027294  0.40183340  1
  O2-  O272  1  0.91655505  0.04471202  0.73660076  1
  O2-  O273  1  0.91737464  0.54233386  0.07092414  1
  O2-  O274  1  0.91270934  0.54160769  0.39860819  1
  O2-  O275  1  0.91157185  0.54442185  0.72672402  1
  O2-  O276  1  0.29528244  0.16471259  0.06360961  1
  O2-  O277  1  0.28558549  0.16488480  0.39666290  1
  O2-  O278  1  0.29394302  0.16900020  0.74120371  1
  O2-  O279  1  0.28706418  0.66399491  0.07115670  1
  O2-  O280  1  0.29254809  0.66554609  0.39811453  1
  O2-  O281  1  0.30051097  0.66544915  0.72805294  1
  O2-  O282  1  0.79556004  0.16275276  0.06244153  1
  O2-  O283  1  0.79927689  0.17347648  0.39824406  1
  O2-  O284  1  0.78587047  0.16738300  0.73661273  1
  O2-  O285  1  0.79365913  0.67364061  0.06613754  1
  O2-  O286  1  0.79394768  0.66151076  0.40176325  1
  O2-  O287  1  0.79112827  0.66348190  0.72592756  1
