# generated using pymatgen
data_Ca2Al2SiO7
_symmetry_space_group_name_H-M   'P 1'
_cell_length_a   15.45826629
_cell_length_b   15.45850085
_cell_length_c   15.28343583
_cell_angle_alpha   90.00932907
_cell_angle_beta   90.01088398
_cell_angle_gamma   89.99374716
_symmetry_Int_Tables_number   1
_chemical_formula_structural   Ca2Al2SiO7
_chemical_formula_sum   'Ca48 Al48 Si24 O168'
_cell_volume   3652.15448863
_cell_formula_units_Z   24
loop_
 _symmetry_equiv_pos_site_id
 _symmetry_equiv_pos_as_xyz
  1  'x, y, z'
loop_
 _atom_type_symbol
 _atom_type_oxidation_number
  Ca2+  2.0
  Al0+  0.0
  Si0+  0.0
  O2-  -2.0
loop_
 _atom_site_type_symbol
 _atom_site_label
 _atom_site_symmetry_multiplicity
 _atom_site_fract_x
 _atom_site_fract_y
 _atom_site_fract_z
 _atom_site_occupancy
  Ca2+  Ca0  1  0.16978122  0.06943451  0.17460007  1
  Ca2+  Ca1  1  0.17716149  0.07200399  0.50655460  1
  Ca2+  Ca2  1  0.16799194  0.07396347  0.83830847  1
  Ca2+  Ca3  1  0.15157980  0.58099167  0.16608926  1
  Ca2+  Ca4  1  0.16584843  0.58298794  0.50412688  1
  Ca2+  Ca5  1  0.15941594  0.57434878  0.84039544  1
  Ca2+  Ca6  1  0.67134821  0.07975860  0.16908783  1
  Ca2+  Ca7  1  0.66418213  0.07566961  0.50261621  1
  Ca2+  Ca8  1  0.66996973  0.08840664  0.84053521  1
  Ca2+  Ca9  1  0.67252916  0.59447652  0.16807408  1
  Ca2+  Ca10  1  0.66491463  0.57994519  0.50724405  1
  Ca2+  Ca11  1  0.66878678  0.58008462  0.83999187  1
  Ca2+  Ca12  1  0.07394372  0.33228133  0.15927115  1
  Ca2+  Ca13  1  0.07391667  0.33866822  0.49544652  1
  Ca2+  Ca14  1  0.07371623  0.34304147  0.83029450  1
  Ca2+  Ca15  1  0.08215940  0.83038015  0.15811365  1
  Ca2+  Ca16  1  0.08314999  0.83222703  0.48943049  1
  Ca2+  Ca17  1  0.08305787  0.83721967  0.83376334  1
  Ca2+  Ca18  1  0.57964158  0.32505853  0.15892868  1
  Ca2+  Ca19  1  0.58634499  0.32722266  0.50122854  1
  Ca2+  Ca20  1  0.58850648  0.32268567  0.82652089  1
  Ca2+  Ca21  1  0.58195930  0.83074759  0.16624857  1
  Ca2+  Ca22  1  0.58036213  0.82409697  0.48838350  1
  Ca2+  Ca23  1  0.58822664  0.81922506  0.82935738  1
  Ca2+  Ca24  1  0.32653966  0.41858171  0.16821559  1
  Ca2+  Ca25  1  0.32492816  0.42017276  0.50827912  1
  Ca2+  Ca26  1  0.32021878  0.41551974  0.83788063  1
  Ca2+  Ca27  1  0.32530635  0.91522841  0.17606899  1
  Ca2+  Ca28  1  0.32869274  0.91836539  0.50233296  1
  Ca2+  Ca29  1  0.32383578  0.91800007  0.83497334  1
  Ca2+  Ca30  1  0.84011822  0.42245688  0.16615094  1
  Ca2+  Ca31  1  0.83132100  0.41621587  0.50675753  1
  Ca2+  Ca32  1  0.83232745  0.41932518  0.83972467  1
  Ca2+  Ca33  1  0.83325892  0.91504740  0.17058920  1
  Ca2+  Ca34  1  0.82823799  0.90906666  0.49872745  1
  Ca2+  Ca35  1  0.83461906  0.92515051  0.84471136  1
  Ca2+  Ca36  1  0.42155549  0.15914878  0.16375286  1
  Ca2+  Ca37  1  0.41565975  0.15760081  0.49942844  1
  Ca2+  Ca38  1  0.42669083  0.16115841  0.82759217  1
  Ca2+  Ca39  1  0.42638820  0.67225944  0.16424110  1
  Ca2+  Ca40  1  0.42656129  0.67167563  0.49213039  1
  Ca2+  Ca41  1  0.42680059  0.66463881  0.83007716  1
  Ca2+  Ca42  1  0.90924080  0.17700720  0.15977910  1
  Ca2+  Ca43  1  0.91666006  0.18036899  0.49741480  1
  Ca2+  Ca44  1  0.91248413  0.17795712  0.83016234  1
  Ca2+  Ca45  1  0.92322843  0.67959631  0.16136047  1
  Ca2+  Ca46  1  0.92581446  0.67304016  0.49008603  1
  Ca2+  Ca47  1  0.91745354  0.66880838  0.83905863  1
  Al0+  Al48  1  -0.00035379  0.00263464  0.00675525  1
  Al0+  Al49  1  -0.00039789  0.00409109  0.33720502  1
  Al0+  Al50  1  -0.00126374  0.00181770  0.66760788  1
  Al0+  Al51  1  -0.00261263  0.50082602  0.00134274  1
  Al0+  Al52  1  -0.00290300  0.50028436  0.32807743  1
  Al0+  Al53  1  -0.00139214  0.50303645  0.66511871  1
  Al0+  Al54  1  0.50004787  -0.00080005  -0.00567178  1
  Al0+  Al55  1  0.50240713  -0.00113933  0.33658239  1
  Al0+  Al56  1  0.50045344  -0.00225416  0.66716030  1
  Al0+  Al57  1  0.49768637  0.49854626  -0.00354457  1
  Al0+  Al58  1  0.50025236  0.49717250  0.33010807  1
  Al0+  Al59  1  0.50133179  0.49677562  0.66729902  1
  Al0+  Al60  1  0.24958579  0.25054795  0.00579160  1
  Al0+  Al61  1  0.24947203  0.25065376  0.33769006  1
  Al0+  Al62  1  0.25004351  0.24906985  0.67539857  1
  Al0+  Al63  1  0.25112726  0.74818842  -0.00142714  1
  Al0+  Al64  1  0.25243968  0.74598758  0.33027735  1
  Al0+  Al65  1  0.25076057  0.74994055  0.67118025  1
  Al0+  Al66  1  0.74856837  0.25028171  -0.00270349  1
  Al0+  Al67  1  0.74877183  0.25129701  0.32992480  1
  Al0+  Al68  1  0.74902705  0.25077954  0.66001176  1
  Al0+  Al69  1  0.75031702  0.74981082  -0.00404300  1
  Al0+  Al70  1  0.75405038  0.74904458  0.33325410  1
  Al0+  Al71  1  0.75154182  0.74913187  0.66297980  1
  Al0+  Al72  1  0.32326273  0.07025974  0.68477933  1
  Al0+  Al73  1  0.81969598  0.07309108  0.01312633  1
  Al0+  Al74  1  0.56874415  0.17965695  0.98686705  1
  Al0+  Al75  1  0.43041816  0.82220250  0.31876913  1
  Al0+  Al76  1  0.93068349  0.82516451  0.31970785  1
  Al0+  Al77  1  0.93121473  0.32215586  0.65262348  1
  Al0+  Al78  1  0.57186016  0.67679664  0.65199071  1
  Al0+  Al79  1  0.07115972  0.68002282  0.98288227  1
  Al0+  Al80  1  0.17802353  0.43036568  0.01600716  1
  Al0+  Al81  1  0.07285975  0.67950602  0.31927759  1
  Al0+  Al82  1  0.93015058  0.32036261  0.98511809  1
  Al0+  Al83  1  0.81847277  0.57136376  0.01481860  1
  Al0+  Al84  1  0.17807323  0.92521526  0.34780538  1
  Al0+  Al85  1  0.92992132  0.82459957  0.98434591  1
  Al0+  Al86  1  0.32179037  0.07119193  0.34856574  1
  Al0+  Al87  1  0.92811876  0.31953713  0.31752751  1
  Al0+  Al88  1  0.18001584  0.92883455  0.01527632  1
  Al0+  Al89  1  0.68318561  0.92874033  0.34640235  1
  Al0+  Al90  1  0.57119339  0.67911666  0.98527427  1
  Al0+  Al91  1  0.17690821  0.43088284  0.67920419  1
  Al0+  Al92  1  0.57274916  0.67623185  0.31820467  1
  Al0+  Al93  1  0.57012850  0.17778058  0.65041287  1
  Al0+  Al94  1  0.17681384  0.92791573  0.68319413  1
  Al0+  Al95  1  0.68006144  0.42823897  0.67989032  1
  Si0+  Si96  1  0.07384192  0.17859468  0.98470754  1
  Si0+  Si97  1  0.82023115  0.56883715  0.34903882  1
  Si0+  Si98  1  0.42806502  0.81941248  0.64996083  1
  Si0+  Si99  1  0.67646050  0.42789976  0.01679988  1
  Si0+  Si100  1  0.32504967  0.56859492  0.34809923  1
  Si0+  Si101  1  0.32421478  0.57122770  0.01805225  1
  Si0+  Si102  1  0.07101512  0.68069790  0.65318780  1
  Si0+  Si103  1  0.42733527  0.82197276  0.98077823  1
  Si0+  Si104  1  0.56962976  0.17919265  0.31879767  1
  Si0+  Si105  1  0.17785093  0.43136204  0.34795652  1
  Si0+  Si106  1  0.67727990  0.42719690  0.34785222  1
  Si0+  Si107  1  0.81835152  0.07122001  0.67959700  1
  Si0+  Si108  1  0.07409052  0.18073292  0.31784082  1
  Si0+  Si109  1  0.32418324  0.07099101  0.01686869  1
  Si0+  Si110  1  0.67778906  0.92747887  0.01449884  1
  Si0+  Si111  1  0.07299514  0.17682983  0.65081261  1
  Si0+  Si112  1  0.68025552  0.92643393  0.68136732  1
  Si0+  Si113  1  0.42633109  0.32113347  0.31931309  1
  Si0+  Si114  1  0.82114319  0.07747729  0.35190141  1
  Si0+  Si115  1  0.32313488  0.57132064  0.68314915  1
  Si0+  Si116  1  0.92963533  0.82442982  0.65169731  1
  Si0+  Si117  1  0.42551108  0.32033144  0.65045029  1
  Si0+  Si118  1  0.82139691  0.57340091  0.68364710  1
  Si0+  Si119  1  0.42506419  0.32202223  0.98247129  1
  O2-  O120  1  0.25575527  0.00302779  0.06123808  1
  O2-  O121  1  0.25088395  -0.00268552  0.39724113  1
  O2-  O122  1  0.24818710  0.00081994  0.73313394  1
  O2-  O123  1  0.25210290  0.50600643  0.06288544  1
  O2-  O124  1  0.24895473  0.50224945  0.39011263  1
  O2-  O125  1  0.25295441  0.50387208  0.72677029  1
  O2-  O126  1  0.74703995  -0.00428761  0.05845298  1
  O2-  O127  1  0.75896200  0.00231203  0.39548888  1
  O2-  O128  1  0.74929481  -0.00092802  0.72349249  1
  O2-  O129  1  0.74077141  0.49930869  0.06278658  1
  O2-  O130  1  0.74620864  0.50015377  0.39012315  1
  O2-  O131  1  0.75168372  0.50520599  0.72669243  1
  O2-  O132  1  0.00112969  0.24358562  0.27153577  1
  O2-  O133  1  0.00923956  0.25051383  0.60600086  1
  O2-  O134  1  0.00626437  0.24731184  0.93819000  1
  O2-  O135  1  0.01053826  0.76107529  0.27151937  1
  O2-  O136  1  0.00465653  0.75626836  0.61187002  1
  O2-  O137  1  0.00320727  0.75529250  0.93160016  1
  O2-  O138  1  0.49469286  0.24699982  0.27801627  1
  O2-  O139  1  0.49186852  0.24986109  0.60450159  1
  O2-  O140  1  0.49334387  0.25294374  0.93908010  1
  O2-  O141  1  0.50308799  0.75050037  0.26888425  1
  O2-  O142  1  0.49689621  0.75070352  0.60576639  1
  O2-  O143  1  0.49704683  0.75352611  0.93724320  1
  O2-  O144  1  0.07384805  0.18172149  0.09039692  1
  O2-  O145  1  0.07533786  0.18662226  0.42357201  1
  O2-  O146  1  0.06766402  0.17357327  0.75614437  1
  O2-  O147  1  0.06802168  0.68095506  0.09604587  1
  O2-  O148  1  0.06881745  0.67435459  0.43370311  1
  O2-  O149  1  0.06847279  0.67736747  0.75763824  1
  O2-  O150  1  0.56727535  0.18004123  0.10053625  1
  O2-  O151  1  0.57234155  0.18179098  0.42375169  1
  O2-  O152  1  0.57254678  0.18048508  0.76334197  1
  O2-  O153  1  0.56993896  0.68119470  0.09801976  1
  O2-  O154  1  0.56950891  0.67433362  0.43208080  1
  O2-  O155  1  0.57204453  0.67896248  0.76511654  1
  O2-  O156  1  0.17925721  0.43059860  0.24308920  1
  O2-  O157  1  0.17695884  0.43498100  0.56542513  1
  O2-  O158  1  0.17924764  0.43130944  0.90270441  1
  O2-  O159  1  0.17986092  0.92777912  0.23430152  1
  O2-  O160  1  0.17693647  0.92622251  0.56990581  1
  O2-  O161  1  0.18125402  0.93154369  0.90215525  1
  O2-  O162  1  0.67645751  0.42345324  0.24311526  1
  O2-  O163  1  0.68235327  0.42845596  0.56616477  1
  O2-  O164  1  0.67898204  0.42728266  0.91108482  1
  O2-  O165  1  0.68163732  0.93230625  0.23333910  1
  O2-  O166  1  0.68241541  0.92544154  0.57626498  1
  O2-  O167  1  0.67815590  0.92858993  0.90834177  1
  O2-  O168  1  0.42627800  0.32268345  0.08866819  1
  O2-  O169  1  0.42683446  0.32480203  0.42407527  1
  O2-  O170  1  0.42721671  0.32164581  0.75574325  1
  O2-  O171  1  0.42851965  0.82339517  0.08616027  1
  O2-  O172  1  0.43236885  0.81944965  0.43274531  1
  O2-  O173  1  0.42895082  0.81736860  0.75568991  1
  O2-  O174  1  0.93011028  0.31879928  0.09829264  1
  O2-  O175  1  0.92909517  0.32122772  0.43104660  1
  O2-  O176  1  0.93025604  0.32123489  0.76536555  1
  O2-  O177  1  0.92941588  0.82370474  0.09748324  1
  O2-  O178  1  0.92819435  0.81744398  0.43406853  1
  O2-  O179  1  0.92625495  0.82576730  0.75626625  1
  O2-  O180  1  0.31996184  0.07325739  0.23491671  1
  O2-  O181  1  0.32240217  0.06725405  0.57128609  1
  O2-  O182  1  0.32470996  0.07029349  0.91154902  1
  O2-  O183  1  0.33158336  0.56333700  0.24371924  1
  O2-  O184  1  0.32196762  0.57083928  0.57709669  1
  O2-  O185  1  0.32724280  0.56720978  0.91230568  1
  O2-  O186  1  0.81486059  0.08334451  0.24678544  1
  O2-  O187  1  0.81740145  0.07016863  0.57444435  1
  O2-  O188  1  0.81635113  0.07475451  0.89935254  1
  O2-  O189  1  0.82061785  0.56778088  0.24425762  1
  O2-  O190  1  0.82225621  0.57345345  0.57766206  1
  O2-  O191  1  0.81714504  0.56922391  0.90140068  1
  O2-  O192  1  0.05378729  0.08487275  0.27543809  1
  O2-  O193  1  0.04143122  0.08608438  0.60130282  1
  O2-  O194  1  0.04722459  0.08531004  0.94000975  1
  O2-  O195  1  0.03353873  0.58531003  0.26492269  1
  O2-  O196  1  0.03891422  0.59177251  0.60217308  1
  O2-  O197  1  0.03617426  0.58276622  0.93138575  1
  O2-  O198  1  0.54557380  0.08696459  0.27173310  1
  O2-  O199  1  0.54307732  0.07881379  0.59863303  1
  O2-  O200  1  0.54196985  0.08282035  0.93066981  1
  O2-  O201  1  0.54342238  0.57794487  0.26519305  1
  O2-  O202  1  0.54282821  0.57864835  0.60016880  1
  O2-  O203  1  0.54029557  0.58139593  0.93250697  1
  O2-  O204  1  0.16566801  0.21105992  0.27017147  1
  O2-  O205  1  0.16934401  0.19819863  0.60949666  1
  O2-  O206  1  0.16858123  0.20265157  0.94011834  1
  O2-  O207  1  0.17522254  0.69007650  0.26934819  1
  O2-  O208  1  0.16581833  0.70225309  0.60828701  1
  O2-  O209  1  0.17274807  0.69968386  0.93235979  1
  O2-  O210  1  0.65882451  0.21201979  0.26946098  1
  O2-  O211  1  0.66401771  0.21252313  0.59338806  1
  O2-  O212  1  0.66341953  0.21323331  0.93119342  1
  O2-  O213  1  0.67209137  0.70427287  0.26933855  1
  O2-  O214  1  0.66875483  0.70803393  0.59823063  1
  O2-  O215  1  0.66636639  0.70981978  0.92899614  1
  O2-  O216  1  0.08161676  0.46107024  0.06960126  1
  O2-  O217  1  0.08530217  0.46024894  0.39361759  1
  O2-  O218  1  0.08140505  0.46564482  0.73301980  1
  O2-  O219  1  0.08455903  0.96088065  0.07011228  1
  O2-  O220  1  0.07913039  0.95453258  0.40094428  1
  O2-  O221  1  0.07758845  0.95772370  0.73469779  1
  O2-  O222  1  0.57985065  0.44783769  0.05932583  1
  O2-  O223  1  0.58458132  0.45204529  0.39560357  1
  O2-  O224  1  0.58207513  0.45318547  0.73406996  1
  O2-  O225  1  0.58381748  0.95467124  0.05911569  1
  O2-  O226  1  0.58806890  0.96085485  0.40278819  1
  O2-  O227  1  0.58765517  0.95022612  0.72779062  1
  O2-  O228  1  0.20946831  0.33414747  0.07169804  1
  O2-  O229  1  0.20615104  0.34062814  0.39700524  1
  O2-  O230  1  0.20308568  0.33404299  0.73440068  1
  O2-  O231  1  0.21031779  0.83035918  0.06525877  1
  O2-  O232  1  0.20560020  0.82477105  0.39811627  1
  O2-  O233  1  0.20606561  0.82958040  0.73679431  1
  O2-  O234  1  0.70506051  0.33554560  0.06344354  1
  O2-  O235  1  0.70802573  0.33652806  0.39656359  1
  O2-  O236  1  0.71341268  0.33164664  0.73225917  1
  O2-  O237  1  0.70247733  0.83412270  0.05997795  1
  O2-  O238  1  0.71392971  0.83194972  0.40203045  1
  O2-  O239  1  0.71091790  0.83518477  0.72864922  1
  O2-  O240  1  0.45783530  0.40951264  0.26759242  1
  O2-  O241  1  0.45330199  0.41305564  0.60292621  1
  O2-  O242  1  0.44877592  0.41499134  0.93487102  1
  O2-  O243  1  0.45991079  0.92052790  0.26598183  1
  O2-  O244  1  0.45438246  0.91274333  0.60507042  1
  O2-  O245  1  0.45215709  0.91506730  0.93325772  1
  O2-  O246  1  0.96055372  0.41479116  0.26356577  1
  O2-  O247  1  0.95937187  0.41983698  0.59808907  1
  O2-  O248  1  0.96008031  0.41695063  0.93206462  1
  O2-  O249  1  0.94361755  0.92946857  0.27398070  1
  O2-  O250  1  0.95224474  0.91721326  0.60359694  1
  O2-  O251  1  0.95573837  0.92555739  0.93452422  1
  O2-  O252  1  0.33346948  0.29681600  0.27207167  1
  O2-  O253  1  0.33000608  0.29821291  0.60572183  1
  O2-  O254  1  0.33065249  0.29681739  0.93818482  1
  O2-  O255  1  0.33366812  0.79125216  0.26497445  1
  O2-  O256  1  0.33400593  0.79318413  0.60450127  1
  O2-  O257  1  0.33538344  0.79376274  0.93324848  1
  O2-  O258  1  0.83103068  0.29041286  0.26360933  1
  O2-  O259  1  0.83681763  0.28723993  0.59654878  1
  O2-  O260  1  0.83358908  0.28860971  0.93189624  1
  O2-  O261  1  0.83568773  0.78872838  0.26577539  1
  O2-  O262  1  0.83981751  0.79173221  0.60256434  1
  O2-  O263  1  0.83209500  0.79445666  0.93052853  1
  O2-  O264  1  0.41855146  0.04441379  0.06165790  1
  O2-  O265  1  0.42132578  0.04575611  0.40039103  1
  O2-  O266  1  0.42167686  0.03870323  0.73718179  1
  O2-  O267  1  0.41594071  0.54032475  0.06618730  1
  O2-  O268  1  0.41405670  0.53463113  0.39870544  1
  O2-  O269  1  0.41586837  0.54317919  0.72939483  1
  O2-  O270  1  0.91619799  0.04901444  0.06961601  1
  O2-  O271  1  0.91760933  0.06254130  0.39573119  1
  O2-  O272  1  0.91055898  0.04659489  0.72725130  1
  O2-  O273  1  0.91290199  0.53731993  0.06981007  1
  O2-  O274  1  0.91054006  0.53604519  0.39769543  1
  O2-  O275  1  0.91416924  0.54653477  0.72965758  1
  O2-  O276  1  0.30204253  0.16567878  0.06244938  1
  O2-  O277  1  0.29330616  0.17020317  0.40287183  1
  O2-  O278  1  0.30073212  0.16991212  0.73779049  1
  O2-  O279  1  0.30409987  0.66656391  0.06136784  1
  O2-  O280  1  0.30200689  0.66104818  0.39577836  1
  O2-  O281  1  0.30050831  0.66476445  0.73005507  1
  O2-  O282  1  0.78306821  0.16770410  0.06821625  1
  O2-  O283  1  0.78675982  0.16814893  0.40025052  1
  O2-  O284  1  0.78794343  0.16267693  0.72551776  1
  O2-  O285  1  0.78828653  0.66891243  0.06764276  1
  O2-  O286  1  0.79647206  0.66070283  0.39810124  1
  O2-  O287  1  0.79606750  0.66721692  0.72947684  1
