# generated using pymatgen
data_Ca2Al2SiO7
_symmetry_space_group_name_H-M   'P 1'
_cell_length_a   15.45722900
_cell_length_b   15.45793289
_cell_length_c   15.28279604
_cell_angle_alpha   90.01656789
_cell_angle_beta   89.99803695
_cell_angle_gamma   89.99438915
_symmetry_Int_Tables_number   1
_chemical_formula_structural   Ca2Al2SiO7
_chemical_formula_sum   'Ca48 Al48 Si24 O168'
_cell_volume   3651.62234024
_cell_formula_units_Z   24
loop_
 _symmetry_equiv_pos_site_id
 _symmetry_equiv_pos_as_xyz
  1  'x, y, z'
loop_
 _atom_type_symbol
 _atom_type_oxidation_number
  Ca2+  2.0
  Al0+  0.0
  Si0+  0.0
  O2-  -2.0
loop_
 _atom_site_type_symbol
 _atom_site_label
 _atom_site_symmetry_multiplicity
 _atom_site_fract_x
 _atom_site_fract_y
 _atom_site_fract_z
 _atom_site_occupancy
  Ca2+  Ca0  1  0.17618361  0.06899905  0.17180055  1
  Ca2+  Ca1  1  0.17871117  0.08148739  0.50042011  1
  Ca2+  Ca2  1  0.17916382  0.08078391  0.84312186  1
  Ca2+  Ca3  1  0.16148806  0.57568939  0.17303237  1
  Ca2+  Ca4  1  0.16192123  0.57560982  0.50024513  1
  Ca2+  Ca5  1  0.15882467  0.57135182  0.83645267  1
  Ca2+  Ca6  1  0.66964541  0.08200113  0.16808317  1
  Ca2+  Ca7  1  0.66498918  0.07431740  0.49959938  1
  Ca2+  Ca8  1  0.67361238  0.08385079  0.84385236  1
  Ca2+  Ca9  1  0.66756907  0.59192826  0.17030150  1
  Ca2+  Ca10  1  0.66246437  0.58000629  0.50721470  1
  Ca2+  Ca11  1  0.66094980  0.58145550  0.83411890  1
  Ca2+  Ca12  1  0.07588014  0.33797633  0.16206382  1
  Ca2+  Ca13  1  0.07646993  0.34117390  0.49285438  1
  Ca2+  Ca14  1  0.07535612  0.33966587  0.82948413  1
  Ca2+  Ca15  1  0.08906541  0.83273692  0.16104372  1
  Ca2+  Ca16  1  0.08058474  0.83071359  0.49171116  1
  Ca2+  Ca17  1  0.07270287  0.84736025  0.83325173  1
  Ca2+  Ca18  1  0.57176437  0.32725214  0.16162090  1
  Ca2+  Ca19  1  0.57571602  0.33358964  0.49353324  1
  Ca2+  Ca20  1  0.58488462  0.32662565  0.83021328  1
  Ca2+  Ca21  1  0.57485746  0.83364987  0.16341144  1
  Ca2+  Ca22  1  0.58015634  0.82425382  0.48957988  1
  Ca2+  Ca23  1  0.57931502  0.82361106  0.83161517  1
  Ca2+  Ca24  1  0.32158514  0.41342520  0.17424671  1
  Ca2+  Ca25  1  0.32153535  0.41134590  0.50353685  1
  Ca2+  Ca26  1  0.31993111  0.41828830  0.83958814  1
  Ca2+  Ca27  1  0.33696608  0.92113245  0.17381412  1
  Ca2+  Ca28  1  0.33633484  0.92280295  0.50005878  1
  Ca2+  Ca29  1  0.33106347  0.92385379  0.84396665  1
  Ca2+  Ca30  1  0.83444241  0.41505490  0.17126641  1
  Ca2+  Ca31  1  0.83018961  0.41615250  0.50691103  1
  Ca2+  Ca32  1  0.82992580  0.41136107  0.83690520  1
  Ca2+  Ca33  1  0.83020823  0.91988961  0.16952168  1
  Ca2+  Ca34  1  0.82698812  0.91013134  0.50275929  1
  Ca2+  Ca35  1  0.83728259  0.92094123  0.84389633  1
  Ca2+  Ca36  1  0.41540082  0.16357563  0.16385965  1
  Ca2+  Ca37  1  0.40973502  0.16930986  0.49387740  1
  Ca2+  Ca38  1  0.41947354  0.15703331  0.83370967  1
  Ca2+  Ca39  1  0.42534065  0.67794898  0.16066026  1
  Ca2+  Ca40  1  0.42772033  0.66866648  0.48884192  1
  Ca2+  Ca41  1  0.42274305  0.66972004  0.83224864  1
  Ca2+  Ca42  1  0.91449009  0.17615780  0.15862103  1
  Ca2+  Ca43  1  0.91954077  0.18010717  0.49538001  1
  Ca2+  Ca44  1  0.91714429  0.17426569  0.83066250  1
  Ca2+  Ca45  1  0.92476068  0.67425565  0.16409010  1
  Ca2+  Ca46  1  0.92269959  0.67040375  0.49695022  1
  Ca2+  Ca47  1  0.91687892  0.68104454  0.83100241  1
  Al0+  Al48  1  0.00106058  0.00347647  0.00550605  1
  Al0+  Al49  1  0.00044792  0.00295585  0.33882654  1
  Al0+  Al50  1  -0.00090875  0.00237827  0.65837569  1
  Al0+  Al51  1  -0.00403560  0.50119788  -0.00041866  1
  Al0+  Al52  1  -0.00214570  0.50256854  0.33003114  1
  Al0+  Al53  1  -0.00279091  0.50251151  0.66792416  1
  Al0+  Al54  1  0.50192507  -0.00042678  -0.00527814  1
  Al0+  Al55  1  0.50385987  -0.00006966  0.33979821  1
  Al0+  Al56  1  0.50204905  -0.00127294  0.67062308  1
  Al0+  Al57  1  0.49906951  0.49782860  -0.00318736  1
  Al0+  Al58  1  0.50035175  0.49766093  0.32368948  1
  Al0+  Al59  1  0.49959919  0.49786483  0.66854680  1
  Al0+  Al60  1  0.24843781  0.25011368  0.00884332  1
  Al0+  Al61  1  0.24725442  0.24975526  0.33685846  1
  Al0+  Al62  1  0.25003171  0.24854343  0.67725018  1
  Al0+  Al63  1  0.25075677  0.74602490  -0.00471906  1
  Al0+  Al64  1  0.25083639  0.74848312  0.33006705  1
  Al0+  Al65  1  0.24955343  0.75104138  0.66765780  1
  Al0+  Al66  1  0.74838308  0.25073018  -0.00237993  1
  Al0+  Al67  1  0.75020940  0.25146482  0.33136466  1
  Al0+  Al68  1  0.74975614  0.24961385  0.66447157  1
  Al0+  Al69  1  0.75182871  0.74836758  -0.00680399  1
  Al0+  Al70  1  0.75309422  0.74969283  0.33581925  1
  Al0+  Al71  1  0.74935225  0.74871452  0.66011436  1
  Al0+  Al72  1  0.32157719  0.06919259  0.68305687  1
  Al0+  Al73  1  0.32204799  0.06989050  0.34944555  1
  Al0+  Al74  1  0.17769354  0.43132745  0.34721391  1
  Al0+  Al75  1  0.57406833  0.67737453  0.31773910  1
  Al0+  Al76  1  0.32472091  0.06907089  0.01734267  1
  Al0+  Al77  1  0.57249718  0.67739548  0.98286960  1
  Al0+  Al78  1  0.17893426  0.92684609  0.01335008  1
  Al0+  Al79  1  0.93270958  0.82307291  0.98961348  1
  Al0+  Al80  1  0.92910409  0.32168004  0.98486608  1
  Al0+  Al81  1  0.67842635  0.42795663  0.68015912  1
  Al0+  Al82  1  0.43048325  0.82242054  0.31994266  1
  Al0+  Al83  1  0.56766614  0.67761251  0.65110908  1
  Al0+  Al84  1  0.42604445  0.31924499  0.32109766  1
  Al0+  Al85  1  0.42743432  0.82153274  0.98314351  1
  Al0+  Al86  1  0.17669734  0.43145646  0.01575249  1
  Al0+  Al87  1  0.82102585  0.07318941  0.01279796  1
  Al0+  Al88  1  0.68273198  0.92912675  0.34646190  1
  Al0+  Al89  1  0.92959722  0.82331448  0.65163249  1
  Al0+  Al90  1  0.56920680  0.17997008  0.98689692  1
  Al0+  Al91  1  0.92954949  0.32136614  0.65241953  1
  Al0+  Al92  1  0.92953434  0.32089525  0.31894012  1
  Al0+  Al93  1  0.07105810  0.68091534  0.32055580  1
  Al0+  Al94  1  0.17826284  0.92460823  0.35005478  1
  Al0+  Al95  1  0.17730312  0.43096268  0.68072742  1
  Si0+  Si96  1  0.32439812  0.57003467  0.34781412  1
  Si0+  Si97  1  0.67808074  0.42826993  0.01569177  1
  Si0+  Si98  1  0.07216292  0.67821119  0.65082430  1
  Si0+  Si99  1  0.07179359  0.67667593  0.98272962  1
  Si0+  Si100  1  0.32435508  0.57034864  0.01751829  1
  Si0+  Si101  1  0.82048063  0.07071411  0.68014085  1
  Si0+  Si102  1  0.07205511  0.17983098  0.98448277  1
  Si0+  Si103  1  0.42466838  0.32086440  0.98220286  1
  Si0+  Si104  1  0.81842581  0.57182781  0.01548272  1
  Si0+  Si105  1  0.32276322  0.57274358  0.68251103  1
  Si0+  Si106  1  0.57255240  0.17821287  0.31830214  1
  Si0+  Si107  1  0.17587263  0.92768697  0.68215630  1
  Si0+  Si108  1  0.82023439  0.57028571  0.34889297  1
  Si0+  Si109  1  0.42823081  0.31814183  0.65452696  1
  Si0+  Si110  1  0.67807678  0.42854141  0.34629648  1
  Si0+  Si111  1  0.57204319  0.17745303  0.65075837  1
  Si0+  Si112  1  0.68110273  0.92611064  0.01392230  1
  Si0+  Si113  1  0.42814619  0.82322664  0.64941346  1
  Si0+  Si114  1  0.82233643  0.07619316  0.35206975  1
  Si0+  Si115  1  0.07176705  0.17745418  0.31567860  1
  Si0+  Si116  1  0.82025956  0.57290370  0.68485117  1
  Si0+  Si117  1  0.92915032  0.82456776  0.31755970  1
  Si0+  Si118  1  0.07417843  0.17988516  0.64955410  1
  Si0+  Si119  1  0.68132641  0.92714895  0.68308261  1
  O2-  O120  1  0.25643300  -0.00783124  0.06434622  1
  O2-  O121  1  0.25200898  -0.00453192  0.39961908  1
  O2-  O122  1  0.24718158  -0.00707555  0.72682751  1
  O2-  O123  1  0.25280442  0.50476053  0.06196605  1
  O2-  O124  1  0.25534853  0.50274211  0.39479589  1
  O2-  O125  1  0.25009956  0.50794150  0.72709354  1
  O2-  O126  1  0.74889250  -0.00432461  0.05849896  1
  O2-  O127  1  0.75809287  0.00302238  0.39590344  1
  O2-  O128  1  0.75363708  -0.00300363  0.72461930  1
  O2-  O129  1  0.74544891  0.50262113  0.05787348  1
  O2-  O130  1  0.74596634  0.50180423  0.38968352  1
  O2-  O131  1  0.75306679  0.50221052  0.72842750  1
  O2-  O132  1  0.00166542  0.24498185  0.27143008  1
  O2-  O133  1  0.00849479  0.25186997  0.60503467  1
  O2-  O134  1  0.00576733  0.24976964  0.93753074  1
  O2-  O135  1  0.00444275  0.76337867  0.27407217  1
  O2-  O136  1  0.00779210  0.75126284  0.60717036  1
  O2-  O137  1  0.01150802  0.75370409  0.94006084  1
  O2-  O138  1  0.49973934  0.24293554  0.27546872  1
  O2-  O139  1  0.49849672  0.24670214  0.61029035  1
  O2-  O140  1  0.49126572  0.25024804  0.93760453  1
  O2-  O141  1  0.50245353  0.75008392  0.26990519  1
  O2-  O142  1  0.49190604  0.75051919  0.60452753  1
  O2-  O143  1  0.49936382  0.74843019  0.93370292  1
  O2-  O144  1  0.06884098  0.18101163  0.08977775  1
  O2-  O145  1  0.07043625  0.17988449  0.42178893  1
  O2-  O146  1  0.07113962  0.17770880  0.75507108  1
  O2-  O147  1  0.06680851  0.67299552  0.08812656  1
  O2-  O148  1  0.06477111  0.67704776  0.43382454  1
  O2-  O149  1  0.06912353  0.67541192  0.75623570  1
  O2-  O150  1  0.57164069  0.18376700  0.09986881  1
  O2-  O151  1  0.57591551  0.18157389  0.42437818  1
  O2-  O152  1  0.57433432  0.17831231  0.75569669  1
  O2-  O153  1  0.57360739  0.67978586  0.09597750  1
  O2-  O154  1  0.57232263  0.67626133  0.43168526  1
  O2-  O155  1  0.56743278  0.67935588  0.76382110  1
  O2-  O156  1  0.17625594  0.43332143  0.23441763  1
  O2-  O157  1  0.17791839  0.43130913  0.56765208  1
  O2-  O158  1  0.17639174  0.43332560  0.90207267  1
  O2-  O159  1  0.17691224  0.92737409  0.23700702  1
  O2-  O160  1  0.17647879  0.92761967  0.57687382  1
  O2-  O161  1  0.17599836  0.93435431  0.89931850  1
  O2-  O162  1  0.68075761  0.42616880  0.24131374  1
  O2-  O163  1  0.67852494  0.42812382  0.56665840  1
  O2-  O164  1  0.68030799  0.42694058  0.91039457  1
  O2-  O165  1  0.68454164  0.93041498  0.23340172  1
  O2-  O166  1  0.68091891  0.92886950  0.57786166  1
  O2-  O167  1  0.68442399  0.92684173  0.90776358  1
  O2-  O168  1  0.42768578  0.32265455  0.08776682  1
  O2-  O169  1  0.42889147  0.32037392  0.43506760  1
  O2-  O170  1  0.42969381  0.31771860  0.75944866  1
  O2-  O171  1  0.43057683  0.82208931  0.09647070  1
  O2-  O172  1  0.43325996  0.82035783  0.43413301  1
  O2-  O173  1  0.43099097  0.82374635  0.75470244  1
  O2-  O174  1  0.92857352  0.32173601  0.09786484  1
  O2-  O175  1  0.92860517  0.32117284  0.43238372  1
  O2-  O176  1  0.92822740  0.31804807  0.76533305  1
  O2-  O177  1  0.92909767  0.81890863  0.10225959  1
  O2-  O178  1  0.92667825  0.81914716  0.42336617  1
  O2-  O179  1  0.92953776  0.82446509  0.76498347  1
  O2-  O180  1  0.32213488  0.06951294  0.23655722  1
  O2-  O181  1  0.32159577  0.07078974  0.57029771  1
  O2-  O182  1  0.32177954  0.06928320  0.90334609  1
  O2-  O183  1  0.32359958  0.56665760  0.24248982  1
  O2-  O184  1  0.32432189  0.57012556  0.57705232  1
  O2-  O185  1  0.32523005  0.56661234  0.91142245  1
  O2-  O186  1  0.81964287  0.07887419  0.24663392  1
  O2-  O187  1  0.81683586  0.07175813  0.57512063  1
  O2-  O188  1  0.81961070  0.07261604  0.89897448  1
  O2-  O189  1  0.82115135  0.57031182  0.24366113  1
  O2-  O190  1  0.82084061  0.57199227  0.57895551  1
  O2-  O191  1  0.81992399  0.57181949  0.91049517  1
  O2-  O192  1  0.04694540  0.08300994  0.27107184  1
  O2-  O193  1  0.04548149  0.08904545  0.59933122  1
  O2-  O194  1  0.04422096  0.08756169  0.93715288  1
  O2-  O195  1  0.03028259  0.58918364  0.26351040  1
  O2-  O196  1  0.04053197  0.58716777  0.60253642  1
  O2-  O197  1  0.03354064  0.58834698  0.93360207  1
  O2-  O198  1  0.55237702  0.08316600  0.27480895  1
  O2-  O199  1  0.54635479  0.08398728  0.60535777  1
  O2-  O200  1  0.54650872  0.08293727  0.92971390  1
  O2-  O201  1  0.54854328  0.57935634  0.26328732  1
  O2-  O202  1  0.53901545  0.57888726  0.59929927  1
  O2-  O203  1  0.54425579  0.57749467  0.93142906  1
  O2-  O204  1  0.16446552  0.20423432  0.27042444  1
  O2-  O205  1  0.16950879  0.20420720  0.60709406  1
  O2-  O206  1  0.16692197  0.20450381  0.94031060  1
  O2-  O207  1  0.16938612  0.69988299  0.26588850  1
  O2-  O208  1  0.16819300  0.69735611  0.60664151  1
  O2-  O209  1  0.16817040  0.68760732  0.93817073  1
  O2-  O210  1  0.66393960  0.20819509  0.27031212  1
  O2-  O211  1  0.66194853  0.20705401  0.60110966  1
  O2-  O212  1  0.66324953  0.21581994  0.92986223  1
  O2-  O213  1  0.67424354  0.70557452  0.26887280  1
  O2-  O214  1  0.66459523  0.70758614  0.59756096  1
  O2-  O215  1  0.67025482  0.70528128  0.92781522  1
  O2-  O216  1  0.07936392  0.46463121  0.06714084  1
  O2-  O217  1  0.08145390  0.46726752  0.39987803  1
  O2-  O218  1  0.08026855  0.46256352  0.73445080  1
  O2-  O219  1  0.08336672  0.95972145  0.06944758  1
  O2-  O220  1  0.07930255  0.95508051  0.40348375  1
  O2-  O221  1  0.08164283  0.95809379  0.72501652  1
  O2-  O222  1  0.58384751  0.45096118  0.06058923  1
  O2-  O223  1  0.58468212  0.45363074  0.39220405  1
  O2-  O224  1  0.58199389  0.45677707  0.73584858  1
  O2-  O225  1  0.58759472  0.95287110  0.05772783  1
  O2-  O226  1  0.58920916  0.96079585  0.40620423  1
  O2-  O227  1  0.59064685  0.95633242  0.73134639  1
  O2-  O228  1  0.20435159  0.33478472  0.07028912  1
  O2-  O229  1  0.20482458  0.33425094  0.40180519  1
  O2-  O230  1  0.20858627  0.33586017  0.73682048  1
  O2-  O231  1  0.19689679  0.82266689  0.05764966  1
  O2-  O232  1  0.20251507  0.82402151  0.40121821  1
  O2-  O233  1  0.19479743  0.83208911  0.72778549  1
  O2-  O234  1  0.70989699  0.33878266  0.06427681  1
  O2-  O235  1  0.70756527  0.33774346  0.39550946  1
  O2-  O236  1  0.71033801  0.33091008  0.73365438  1
  O2-  O237  1  0.70863431  0.83283924  0.05888466  1
  O2-  O238  1  0.71472152  0.83318294  0.40319500  1
  O2-  O239  1  0.70839531  0.83421889  0.72771818  1
  O2-  O240  1  0.45919143  0.41206821  0.26192587  1
  O2-  O241  1  0.45592979  0.40953131  0.60676429  1
  O2-  O242  1  0.45282066  0.41287459  0.93422700  1
  O2-  O243  1  0.46364114  0.92066968  0.26960465  1
  O2-  O244  1  0.46038596  0.91533348  0.60383510  1
  O2-  O245  1  0.45797169  0.91843889  0.92857104  1
  O2-  O246  1  0.95938302  0.41724602  0.26516945  1
  O2-  O247  1  0.95456076  0.42088467  0.60149446  1
  O2-  O248  1  0.95696803  0.41930904  0.93111456  1
  O2-  O249  1  0.94426393  0.92268643  0.27804528  1
  O2-  O250  1  0.95443498  0.92012035  0.59474050  1
  O2-  O251  1  0.95939080  0.92157673  0.93599673  1
  O2-  O252  1  0.32863801  0.29123247  0.26829614  1
  O2-  O253  1  0.33548930  0.28981191  0.60904409  1
  O2-  O254  1  0.32902184  0.29802793  0.93951295  1
  O2-  O255  1  0.33206031  0.79644250  0.26744568  1
  O2-  O256  1  0.33128312  0.80416158  0.60734708  1
  O2-  O257  1  0.32946944  0.79239598  0.92776043  1
  O2-  O258  1  0.83213141  0.29157589  0.26522775  1
  O2-  O259  1  0.83400775  0.28659166  0.59776812  1
  O2-  O260  1  0.83308179  0.28890846  0.93143157  1
  O2-  O261  1  0.83898584  0.79071034  0.27037456  1
  O2-  O262  1  0.83502279  0.78778300  0.59651773  1
  O2-  O263  1  0.83908108  0.78796692  0.93174694  1
  O2-  O264  1  0.42614177  0.04531057  0.06591565  1
  O2-  O265  1  0.42190139  0.04697840  0.40306840  1
  O2-  O266  1  0.41978142  0.03977569  0.73545168  1
  O2-  O267  1  0.41725831  0.54216575  0.06368187  1
  O2-  O268  1  0.41865274  0.54224614  0.39254878  1
  O2-  O269  1  0.41338161  0.54164458  0.73142979  1
  O2-  O270  1  0.91663087  0.04661661  0.06927157  1
  O2-  O271  1  0.91719458  0.05717453  0.39784285  1
  O2-  O272  1  0.91478487  0.04692566  0.72445557  1
  O2-  O273  1  0.90861478  0.54184526  0.06472883  1
  O2-  O274  1  0.90948994  0.53806527  0.39831453  1
  O2-  O275  1  0.91388634  0.55035385  0.73172883  1
  O2-  O276  1  0.29506030  0.16742895  0.06932054  1
  O2-  O277  1  0.28850343  0.16715995  0.40364230  1
  O2-  O278  1  0.29161791  0.16435708  0.74047414  1
  O2-  O279  1  0.30252488  0.66570011  0.06036521  1
  O2-  O280  1  0.30115580  0.66400751  0.39350974  1
  O2-  O281  1  0.30181835  0.66826855  0.72766352  1
  O2-  O282  1  0.78485820  0.16803571  0.06724613  1
  O2-  O283  1  0.79052956  0.16794089  0.39988856  1
  O2-  O284  1  0.78922157  0.16112596  0.72817342  1
  O2-  O285  1  0.79173994  0.66380126  0.06364802  1
  O2-  O286  1  0.79717931  0.66221193  0.39858631  1
  O2-  O287  1  0.79139243  0.66628163  0.72991352  1
