# generated using pymatgen
data_Ca2Al2SiO7
_symmetry_space_group_name_H-M   'P 1'
_cell_length_a   15.45855215
_cell_length_b   15.45899141
_cell_length_c   15.28490099
_cell_angle_alpha   89.99044638
_cell_angle_beta   89.99626953
_cell_angle_gamma   90.00666194
_symmetry_Int_Tables_number   1
_chemical_formula_structural   Ca2Al2SiO7
_chemical_formula_sum   'Ca48 Al48 Si24 O168'
_cell_volume   3652.68811146
_cell_formula_units_Z   24
loop_
 _symmetry_equiv_pos_site_id
 _symmetry_equiv_pos_as_xyz
  1  'x, y, z'
loop_
 _atom_type_symbol
 _atom_type_oxidation_number
  Ca2+  2.0
  Al0+  0.0
  Si0+  0.0
  O2-  -2.0
loop_
 _atom_site_type_symbol
 _atom_site_label
 _atom_site_symmetry_multiplicity
 _atom_site_fract_x
 _atom_site_fract_y
 _atom_site_fract_z
 _atom_site_occupancy
  Ca2+  Ca0  1  0.17457284  0.08811678  0.17393240  1
  Ca2+  Ca1  1  0.17010500  0.08383193  0.51032512  1
  Ca2+  Ca2  1  0.16901198  0.07374721  0.83891727  1
  Ca2+  Ca3  1  0.17100909  0.58036334  0.17097137  1
  Ca2+  Ca4  1  0.16277739  0.57871135  0.50006412  1
  Ca2+  Ca5  1  0.16659003  0.58762028  0.84049121  1
  Ca2+  Ca6  1  0.66813916  0.08566982  0.16379874  1
  Ca2+  Ca7  1  0.67423987  0.08867439  0.50427339  1
  Ca2+  Ca8  1  0.67696562  0.08357032  0.84132764  1
  Ca2+  Ca9  1  0.67541714  0.57870575  0.17643725  1
  Ca2+  Ca10  1  0.67716915  0.57595865  0.50499627  1
  Ca2+  Ca11  1  0.66715127  0.57412564  0.83498573  1
  Ca2+  Ca12  1  0.07881431  0.33431099  0.16704686  1
  Ca2+  Ca13  1  0.07933521  0.32291848  0.49265530  1
  Ca2+  Ca14  1  0.07028980  0.32432588  0.82480473  1
  Ca2+  Ca15  1  0.08244834  0.82941885  0.16250129  1
  Ca2+  Ca16  1  0.08195437  0.83193035  0.49929066  1
  Ca2+  Ca17  1  0.09960596  0.82539504  0.82961621  1
  Ca2+  Ca18  1  0.58297164  0.31897552  0.16185881  1
  Ca2+  Ca19  1  0.58296258  0.32911643  0.49603483  1
  Ca2+  Ca20  1  0.58245868  0.32842009  0.82990957  1
  Ca2+  Ca21  1  0.58253018  0.83373074  0.15929437  1
  Ca2+  Ca22  1  0.57323488  0.83821773  0.49652654  1
  Ca2+  Ca23  1  0.57622800  0.83996140  0.82941481  1
  Ca2+  Ca24  1  0.32762443  0.42821320  0.17653541  1
  Ca2+  Ca25  1  0.32429730  0.41736151  0.49802236  1
  Ca2+  Ca26  1  0.32925968  0.42564422  0.84055828  1
  Ca2+  Ca27  1  0.32430775  0.92538676  0.16567662  1
  Ca2+  Ca28  1  0.32781923  0.92653904  0.50832147  1
  Ca2+  Ca29  1  0.32619243  0.92307905  0.83394899  1
  Ca2+  Ca30  1  0.84250967  0.41966458  0.17252866  1
  Ca2+  Ca31  1  0.83434862  0.41140700  0.50338777  1
  Ca2+  Ca32  1  0.83201402  0.40653751  0.83447202  1
  Ca2+  Ca33  1  0.83084821  0.91873596  0.16929398  1
  Ca2+  Ca34  1  0.83549562  0.92238634  0.50496723  1
  Ca2+  Ca35  1  0.83111059  0.93141646  0.84044546  1
  Ca2+  Ca36  1  0.42373180  0.15513435  0.16350490  1
  Ca2+  Ca37  1  0.42107032  0.15952073  0.49102845  1
  Ca2+  Ca38  1  0.42121864  0.15173910  0.83289321  1
  Ca2+  Ca39  1  0.41097997  0.66460967  0.16004624  1
  Ca2+  Ca40  1  0.41358458  0.67248076  0.49760881  1
  Ca2+  Ca41  1  0.41274679  0.67539128  0.82589207  1
  Ca2+  Ca42  1  0.91961557  0.17773954  0.16156830  1
  Ca2+  Ca43  1  0.92642423  0.17070509  0.49617246  1
  Ca2+  Ca44  1  0.91456018  0.16959959  0.82630761  1
  Ca2+  Ca45  1  0.91977850  0.67074393  0.16275389  1
  Ca2+  Ca46  1  0.91969916  0.67137251  0.49318822  1
  Ca2+  Ca47  1  0.93109472  0.67175617  0.82852755  1
  Al0+  Al48  1  -0.00175652  0.00018150  0.00890925  1
  Al0+  Al49  1  -0.00095206  -0.00061390  0.32464657  1
  Al0+  Al50  1  0.00079130  -0.00164478  0.67302334  1
  Al0+  Al51  1  -0.00090066  0.50062390  -0.00990447  1
  Al0+  Al52  1  0.00065550  0.50150167  0.33907755  1
  Al0+  Al53  1  -0.00044359  0.50138750  0.66046979  1
  Al0+  Al54  1  0.50021085  -0.00194251  0.00135586  1
  Al0+  Al55  1  0.49909258  -0.00222795  0.33116285  1
  Al0+  Al56  1  0.49967847  -0.00091283  0.66274704  1
  Al0+  Al57  1  0.50081199  0.49913278  0.00360387  1
  Al0+  Al58  1  0.50118219  0.50065452  0.33791084  1
  Al0+  Al59  1  0.50210144  0.49894532  0.66954780  1
  Al0+  Al60  1  0.24950397  0.25187120  0.00274708  1
  Al0+  Al61  1  0.25241917  0.25201497  0.33732818  1
  Al0+  Al62  1  0.25238947  0.25284969  0.67029754  1
  Al0+  Al63  1  0.25123259  0.75057218  0.00454663  1
  Al0+  Al64  1  0.25033110  0.75229021  0.33593053  1
  Al0+  Al65  1  0.25208181  0.75108892  0.65763648  1
  Al0+  Al66  1  0.74722442  0.24923124  -0.00348112  1
  Al0+  Al67  1  0.74945732  0.24887097  0.32538539  1
  Al0+  Al68  1  0.74747048  0.25060656  0.67068107  1
  Al0+  Al69  1  0.75041064  0.74863539  -0.00043802  1
  Al0+  Al70  1  0.74843022  0.74972448  0.33532102  1
  Al0+  Al71  1  0.75009706  0.74705738  0.66853275  1
  Al0+  Al72  1  0.07453779  0.17875230  0.31809190  1
  Al0+  Al73  1  0.82073380  0.07414425  0.01836476  1
  Al0+  Al74  1  0.92645721  0.82078234  0.31967538  1
  Al0+  Al75  1  0.32321527  0.07437889  0.68130396  1
  Al0+  Al76  1  0.68044854  0.42996126  0.68118607  1
  Al0+  Al77  1  0.32303980  0.57404296  0.35109417  1
  Al0+  Al78  1  0.92639718  0.31852618  0.65057521  1
  Al0+  Al79  1  0.56972123  0.17801382  0.31907972  1
  Al0+  Al80  1  0.31976625  0.07222177  0.01576909  1
  Al0+  Al81  1  0.32099187  0.06932493  0.34737321  1
  Al0+  Al82  1  0.17962625  0.92830272  0.68029156  1
  Al0+  Al83  1  0.93018012  0.31974724  0.98474202  1
  Al0+  Al84  1  0.82048852  0.06983129  0.67765820  1
  Al0+  Al85  1  0.82090212  0.57207376  0.34662361  1
  Al0+  Al86  1  0.68000547  0.92765532  0.01421952  1
  Al0+  Al87  1  0.32083023  0.57010706  0.01126319  1
  Al0+  Al88  1  0.92999684  0.32185337  0.31847008  1
  Al0+  Al89  1  0.43179923  0.82079117  0.65136029  1
  Al0+  Al90  1  0.07308106  0.17681153  0.65475684  1
  Al0+  Al91  1  0.07217375  0.68019496  0.65078189  1
  Al0+  Al92  1  0.07046684  0.68311680  0.98792615  1
  Al0+  Al93  1  0.17857342  0.42966782  0.34960974  1
  Al0+  Al94  1  0.56650394  0.17838206  0.98374689  1
  Al0+  Al95  1  0.17807521  0.92752978  0.01663517  1
  Si0+  Si96  1  0.92539783  0.82168954  0.65221014  1
  Si0+  Si97  1  0.42907505  0.32571855  0.65218448  1
  Si0+  Si98  1  0.82148554  0.56904439  0.01293237  1
  Si0+  Si99  1  0.17506548  0.42996535  0.01393531  1
  Si0+  Si100  1  0.43117893  0.81770616  0.98523039  1
  Si0+  Si101  1  0.57383143  0.67549088  0.98503676  1
  Si0+  Si102  1  0.67739360  0.92605122  0.68027207  1
  Si0+  Si103  1  0.07225723  0.67968875  0.31657956  1
  Si0+  Si104  1  0.17671474  0.42978727  0.68333374  1
  Si0+  Si105  1  0.57263390  0.67511021  0.64960343  1
  Si0+  Si106  1  0.56787968  0.18029285  0.65216676  1
  Si0+  Si107  1  0.42896939  0.81974662  0.31517623  1
  Si0+  Si108  1  0.42748720  0.32489934  0.98400283  1
  Si0+  Si109  1  0.82433469  0.57318398  0.68623739  1
  Si0+  Si110  1  0.32000836  0.56981606  0.68036024  1
  Si0+  Si111  1  0.07427323  0.17594084  0.98442154  1
  Si0+  Si112  1  0.92536953  0.82350622  0.98282990  1
  Si0+  Si113  1  0.57024082  0.67887876  0.31895759  1
  Si0+  Si114  1  0.42905606  0.32450456  0.31725534  1
  Si0+  Si115  1  0.82029119  0.07130699  0.34691953  1
  Si0+  Si116  1  0.67880128  0.92859230  0.34897696  1
  Si0+  Si117  1  0.67842841  0.42907810  0.01661856  1
  Si0+  Si118  1  0.17510614  0.92962386  0.35062737  1
  Si0+  Si119  1  0.67976661  0.42597206  0.34890551  1
  O2-  O120  1  0.24151459  0.00741141  0.06635756  1
  O2-  O121  1  0.24033474  0.00179188  0.39423822  1
  O2-  O122  1  0.24666958  0.00599391  0.72891132  1
  O2-  O123  1  0.24823977  0.49416019  0.05800430  1
  O2-  O124  1  0.25022458  0.50303084  0.40017328  1
  O2-  O125  1  0.24727059  0.50231012  0.72497577  1
  O2-  O126  1  0.75198932  -0.00246069  0.06705273  1
  O2-  O127  1  0.74991940  -0.00053786  0.39046973  1
  O2-  O128  1  0.74857433  -0.00856383  0.72356934  1
  O2-  O129  1  0.75086208  0.49883243  0.05756480  1
  O2-  O130  1  0.75034242  0.49286017  0.39272131  1
  O2-  O131  1  0.75724566  0.50210950  0.72942191  1
  O2-  O132  1  0.00266538  0.25119388  0.26799975  1
  O2-  O133  1  0.00111765  0.24835213  0.60312317  1
  O2-  O134  1  0.00281206  0.24205767  0.94017684  1
  O2-  O135  1  0.00211962  0.74694350  0.27276808  1
  O2-  O136  1  -0.00557399  0.75357573  0.60751702  1
  O2-  O137  1  0.00027716  0.76146440  0.93888611  1
  O2-  O138  1  0.49441202  0.25281852  0.27301913  1
  O2-  O139  1  0.49299036  0.24752554  0.61080629  1
  O2-  O140  1  0.48911668  0.25100131  0.93725214  1
  O2-  O141  1  0.49554683  0.74394519  0.27359434  1
  O2-  O142  1  0.50885985  0.74760013  0.60449827  1
  O2-  O143  1  0.50314396  0.74664711  0.94280021  1
  O2-  O144  1  0.07600302  0.18093390  0.08976506  1
  O2-  O145  1  0.07195542  0.17655801  0.43177165  1
  O2-  O146  1  0.07200785  0.17896126  0.76846373  1
  O2-  O147  1  0.06746868  0.68024712  0.10083334  1
  O2-  O148  1  0.07196419  0.68221753  0.42222009  1
  O2-  O149  1  0.07358648  0.68108716  0.76426322  1
  O2-  O150  1  0.56673248  0.18069163  0.09685162  1
  O2-  O151  1  0.57112844  0.17956698  0.43278923  1
  O2-  O152  1  0.56812283  0.18060549  0.75714718  1
  O2-  O153  1  0.57392044  0.67468306  0.09027828  1
  O2-  O154  1  0.57166228  0.68213577  0.42392004  1
  O2-  O155  1  0.56962611  0.67312516  0.75537552  1
  O2-  O156  1  0.17985990  0.43300526  0.23540334  1
  O2-  O157  1  0.17889711  0.42945445  0.57862474  1
  O2-  O158  1  0.17620309  0.43306468  0.90805063  1
  O2-  O159  1  0.17883621  0.92609642  0.24524971  1
  O2-  O160  1  0.18122623  0.92695360  0.56660181  1
  O2-  O161  1  0.18541536  0.92330536  0.90348967  1
  O2-  O162  1  0.67720995  0.42914156  0.24322115  1
  O2-  O163  1  0.67890873  0.43148171  0.56808323  1
  O2-  O164  1  0.67574944  0.43171736  0.91144868  1
  O2-  O165  1  0.67817140  0.92601118  0.24425750  1
  O2-  O166  1  0.67655788  0.92745298  0.57432820  1
  O2-  O167  1  0.67996019  0.92784713  0.90030779  1
  O2-  O168  1  0.43339859  0.33085904  0.08896869  1
  O2-  O169  1  0.43251295  0.32594053  0.42321349  1
  O2-  O170  1  0.43292572  0.33361369  0.75686041  1
  O2-  O171  1  0.43236623  0.81541169  0.09058072  1
  O2-  O172  1  0.43277439  0.82123393  0.42022528  1
  O2-  O173  1  0.43278365  0.81823475  0.76479422  1
  O2-  O174  1  0.93305481  0.32476658  0.09747400  1
  O2-  O175  1  0.92691901  0.31683438  0.43154741  1
  O2-  O176  1  0.92711300  0.31631085  0.76443805  1
  O2-  O177  1  0.92042993  0.81582820  0.08818393  1
  O2-  O178  1  0.92572531  0.82016559  0.43306132  1
  O2-  O179  1  0.92058606  0.81865518  0.75736997  1
  O2-  O180  1  0.32389092  0.06415212  0.23466017  1
  O2-  O181  1  0.32668582  0.07011927  0.56768834  1
  O2-  O182  1  0.32151359  0.06733102  0.90250824  1
  O2-  O183  1  0.32314741  0.57238105  0.23730718  1
  O2-  O184  1  0.32158075  0.56687425  0.57566442  1
  O2-  O185  1  0.32127938  0.57090279  0.89768911  1
  O2-  O186  1  0.81700213  0.07089488  0.24232909  1
  O2-  O187  1  0.81759765  0.06937802  0.56395292  1
  O2-  O188  1  0.81725506  0.07409317  0.90434270  1
  O2-  O189  1  0.81728306  0.57322325  0.23288879  1
  O2-  O190  1  0.82054874  0.57729279  0.58082939  1
  O2-  O191  1  0.81910512  0.56915388  0.90803007  1
  O2-  O192  1  0.04719978  0.08095776  0.26389245  1
  O2-  O193  1  0.04604436  0.07681101  0.60411058  1
  O2-  O194  1  0.05108634  0.07949954  0.94339800  1
  O2-  O195  1  0.04775591  0.58540885  0.27291396  1
  O2-  O196  1  0.04188574  0.58430187  0.59579840  1
  O2-  O197  1  0.03692720  0.58923237  0.92957343  1
  O2-  O198  1  0.53861028  0.08116894  0.26544971  1
  O2-  O199  1  0.54569779  0.08762373  0.60357271  1
  O2-  O200  1  0.53866965  0.08022017  0.93076398  1
  O2-  O201  1  0.54880093  0.58445053  0.27319176  1
  O2-  O202  1  0.54229623  0.58359746  0.60210914  1
  O2-  O203  1  0.54548581  0.58356455  0.93780962  1
  O2-  O204  1  0.17393944  0.20878227  0.26762152  1
  O2-  O205  1  0.17298256  0.20690624  0.60451561  1
  O2-  O206  1  0.16785738  0.20250861  0.93798369  1
  O2-  O207  1  0.16626457  0.70705607  0.27143293  1
  O2-  O208  1  0.16689839  0.71063296  0.59401684  1
  O2-  O209  1  0.16916277  0.71129766  0.93520928  1
  O2-  O210  1  0.66403658  0.20955385  0.26167244  1
  O2-  O211  1  0.65784911  0.21337468  0.60470821  1
  O2-  O212  1  0.66155421  0.21319840  0.92937758  1
  O2-  O213  1  0.65993874  0.71067182  0.26981354  1
  O2-  O214  1  0.66858682  0.69567822  0.60612278  1
  O2-  O215  1  0.66548763  0.70125213  0.93606210  1
  O2-  O216  1  0.08343825  0.46268136  0.05917692  1
  O2-  O217  1  0.08183341  0.45815020  0.40533826  1
  O2-  O218  1  0.08418100  0.45839257  0.72853109  1
  O2-  O219  1  0.07581363  0.94182989  0.06580417  1
  O2-  O220  1  0.07877765  0.94991722  0.39300520  1
  O2-  O221  1  0.08018211  0.94636517  0.73535347  1
  O2-  O222  1  0.58858020  0.45876127  0.06653538  1
  O2-  O223  1  0.58755607  0.45345981  0.39703848  1
  O2-  O224  1  0.58549832  0.46433703  0.73826410  1
  O2-  O225  1  0.58201677  0.95540371  0.06789809  1
  O2-  O226  1  0.58732081  0.95799504  0.39607298  1
  O2-  O227  1  0.58507191  0.95502328  0.72611543  1
  O2-  O228  1  0.19476761  0.33543979  0.05955419  1
  O2-  O229  1  0.21045198  0.33337745  0.40532172  1
  O2-  O230  1  0.20613959  0.33992209  0.73329264  1
  O2-  O231  1  0.21616386  0.83364689  0.07320786  1
  O2-  O232  1  0.20497306  0.83739252  0.39728221  1
  O2-  O233  1  0.21807729  0.83097504  0.73085357  1
  O2-  O234  1  0.70415812  0.33656914  0.06158824  1
  O2-  O235  1  0.70412347  0.33141457  0.39345774  1
  O2-  O236  1  0.70727409  0.33396600  0.73799305  1
  O2-  O237  1  0.70510409  0.82702557  0.06663668  1
  O2-  O238  1  0.70493604  0.83740399  0.39833760  1
  O2-  O239  1  0.69607358  0.83019498  0.72515964  1
  O2-  O240  1  0.45779821  0.41787840  0.27111093  1
  O2-  O241  1  0.46541652  0.41318745  0.60125668  1
  O2-  O242  1  0.46035911  0.41605088  0.93487141  1
  O2-  O243  1  0.46318663  0.90823720  0.26622438  1
  O2-  O244  1  0.46389564  0.91580304  0.59373979  1
  O2-  O245  1  0.46003668  0.90851266  0.93735683  1
  O2-  O246  1  0.95729054  0.42284462  0.26911268  1
  O2-  O247  1  0.95003339  0.41952730  0.60178002  1
  O2-  O248  1  0.96039846  0.41494021  0.92678601  1
  O2-  O249  1  0.95374528  0.91596122  0.26212287  1
  O2-  O250  1  0.95083248  0.91540065  0.60717218  1
  O2-  O251  1  0.94276752  0.92129396  0.94359258  1
  O2-  O252  1  0.33435535  0.30432314  0.27299848  1
  O2-  O253  1  0.33479878  0.30618388  0.60716395  1
  O2-  O254  1  0.33033418  0.30847879  0.94171079  1
  O2-  O255  1  0.33542988  0.79574353  0.26955194  1
  O2-  O256  1  0.33900974  0.78722251  0.59300434  1
  O2-  O257  1  0.34063905  0.78691382  0.93811769  1
  O2-  O258  1  0.83194011  0.29430295  0.26354873  1
  O2-  O259  1  0.82682792  0.28989246  0.60007554  1
  O2-  O260  1  0.83156252  0.29158150  0.93334814  1
  O2-  O261  1  0.82981647  0.78771074  0.26625671  1
  O2-  O262  1  0.83154970  0.79561638  0.60461040  1
  O2-  O263  1  0.83457454  0.79121804  0.93384587  1
  O2-  O264  1  0.41604854  0.03520752  0.06775698  1
  O2-  O265  1  0.41639493  0.03156267  0.40079056  1
  O2-  O266  1  0.42029431  0.03712219  0.73285970  1
  O2-  O267  1  0.41804452  0.54199975  0.06653454  1
  O2-  O268  1  0.42228395  0.54667560  0.40376022  1
  O2-  O269  1  0.41150289  0.54092798  0.72813772  1
  O2-  O270  1  0.91989484  0.05229418  0.07152853  1
  O2-  O271  1  0.91284713  0.04257788  0.39178876  1
  O2-  O272  1  0.91559879  0.04195502  0.73530583  1
  O2-  O273  1  0.91333044  0.53997284  0.05892028  1
  O2-  O274  1  0.91773248  0.54858814  0.40166524  1
  O2-  O275  1  0.91940447  0.54990169  0.72956692  1
  O2-  O276  1  0.30180216  0.17457581  0.06627737  1
  O2-  O277  1  0.30306471  0.16992388  0.39768338  1
  O2-  O278  1  0.30731014  0.17612307  0.73254931  1
  O2-  O279  1  0.29029685  0.66452982  0.06799119  1
  O2-  O280  1  0.29582409  0.67351111  0.40235311  1
  O2-  O281  1  0.29410554  0.66345591  0.72404285  1
  O2-  O282  1  0.78446667  0.17091059  0.06994390  1
  O2-  O283  1  0.78879038  0.16252477  0.39324148  1
  O2-  O284  1  0.78355980  0.16319582  0.73332179  1
  O2-  O285  1  0.79408137  0.66073549  0.06063423  1
  O2-  O286  1  0.78315055  0.66548640  0.40328768  1
  O2-  O287  1  0.79582034  0.66527543  0.73497066  1
