# generated using pymatgen
data_Ca2Al2SiO7
_symmetry_space_group_name_H-M   'P 1'
_cell_length_a   15.46502774
_cell_length_b   15.46339937
_cell_length_c   15.28890585
_cell_angle_alpha   90.00060434
_cell_angle_beta   90.01372729
_cell_angle_gamma   89.98852273
_symmetry_Int_Tables_number   1
_chemical_formula_structural   Ca2Al2SiO7
_chemical_formula_sum   'Ca48 Al48 Si24 O168'
_cell_volume   3656.21781831
_cell_formula_units_Z   24
loop_
 _symmetry_equiv_pos_site_id
 _symmetry_equiv_pos_as_xyz
  1  'x, y, z'
loop_
 _atom_type_symbol
 _atom_type_oxidation_number
  Ca2+  2.0
  Al0+  0.0
  Si0+  0.0
  O2-  -2.0
loop_
 _atom_site_type_symbol
 _atom_site_label
 _atom_site_symmetry_multiplicity
 _atom_site_fract_x
 _atom_site_fract_y
 _atom_site_fract_z
 _atom_site_occupancy
  Ca2+  Ca0  1  0.15669722  0.07567889  0.17271887  1
  Ca2+  Ca1  1  0.16287127  0.07887343  0.50743687  1
  Ca2+  Ca2  1  0.15549504  0.07720934  0.83403557  1
  Ca2+  Ca3  1  0.16575383  0.57761953  0.17150049  1
  Ca2+  Ca4  1  0.16706226  0.57599420  0.50067178  1
  Ca2+  Ca5  1  0.17746025  0.58424265  0.84067556  1
  Ca2+  Ca6  1  0.67081551  0.08883122  0.17720980  1
  Ca2+  Ca7  1  0.66765112  0.07955833  0.50100038  1
  Ca2+  Ca8  1  0.66546758  0.08250408  0.83835323  1
  Ca2+  Ca9  1  0.66950137  0.57395993  0.16733502  1
  Ca2+  Ca10  1  0.67002445  0.58109867  0.50551704  1
  Ca2+  Ca11  1  0.67280322  0.57336127  0.84153396  1
  Ca2+  Ca12  1  0.08280960  0.32131137  0.16074423  1
  Ca2+  Ca13  1  0.08672824  0.32056929  0.49366747  1
  Ca2+  Ca14  1  0.07653984  0.32423988  0.82432691  1
  Ca2+  Ca15  1  0.09561692  0.82507053  0.16181969  1
  Ca2+  Ca16  1  0.08557106  0.83405884  0.49562436  1
  Ca2+  Ca17  1  0.08793186  0.83186166  0.82922840  1
  Ca2+  Ca18  1  0.57780187  0.32561970  0.15928933  1
  Ca2+  Ca19  1  0.56824382  0.32609577  0.49297274  1
  Ca2+  Ca20  1  0.57666371  0.33155355  0.83482945  1
  Ca2+  Ca21  1  0.58249257  0.83536805  0.16525499  1
  Ca2+  Ca22  1  0.58589390  0.83781489  0.49586391  1
  Ca2+  Ca23  1  0.58310308  0.83136764  0.82542579  1
  Ca2+  Ca24  1  0.33449706  0.41767684  0.16970672  1
  Ca2+  Ca25  1  0.33073977  0.41459059  0.50405578  1
  Ca2+  Ca26  1  0.34250825  0.42428429  0.83743939  1
  Ca2+  Ca27  1  0.32269389  0.92155093  0.16988423  1
  Ca2+  Ca28  1  0.32146079  0.92767677  0.50773023  1
  Ca2+  Ca29  1  0.32269081  0.92920049  0.83503600  1
  Ca2+  Ca30  1  0.82923145  0.40476521  0.16613577  1
  Ca2+  Ca31  1  0.83406216  0.41447717  0.50548518  1
  Ca2+  Ca32  1  0.83012545  0.40436791  0.84132437  1
  Ca2+  Ca33  1  0.82589071  0.92758754  0.17799708  1
  Ca2+  Ca34  1  0.82804486  0.92243284  0.50422617  1
  Ca2+  Ca35  1  0.83215703  0.91410815  0.83268227  1
  Ca2+  Ca36  1  0.42527658  0.17682956  0.16180343  1
  Ca2+  Ca37  1  0.41346402  0.17310433  0.49382192  1
  Ca2+  Ca38  1  0.41532843  0.17610026  0.82753750  1
  Ca2+  Ca39  1  0.41277603  0.66790906  0.16071325  1
  Ca2+  Ca40  1  0.41258967  0.66791514  0.49949204  1
  Ca2+  Ca41  1  0.41292598  0.66383572  0.82946648  1
  Ca2+  Ca42  1  0.92462042  0.16439427  0.16300471  1
  Ca2+  Ca43  1  0.92530004  0.16447518  0.49880756  1
  Ca2+  Ca44  1  0.92566180  0.17428995  0.83224057  1
  Ca2+  Ca45  1  0.93181161  0.66906459  0.16313029  1
  Ca2+  Ca46  1  0.92285076  0.67680290  0.49530713  1
  Ca2+  Ca47  1  0.92646129  0.67200846  0.82858200  1
  Al0+  Al48  1  -0.00301106  -0.00195026  0.00199534  1
  Al0+  Al49  1  -0.00385025  -0.00021631  0.33828631  1
  Al0+  Al50  1  -0.00405605  -0.00149644  0.66444218  1
  Al0+  Al51  1  0.00090782  0.50335357  -0.00800684  1
  Al0+  Al52  1  0.00101250  0.50212360  0.33431796  1
  Al0+  Al53  1  -0.00008322  0.50182621  0.66435013  1
  Al0+  Al54  1  0.49808957  -0.00150816  -0.00226084  1
  Al0+  Al55  1  0.49890215  -0.00062523  0.33207534  1
  Al0+  Al56  1  0.49919490  -0.00199490  0.67448220  1
  Al0+  Al57  1  0.50329624  0.50108685  0.00670783  1
  Al0+  Al58  1  0.50097948  0.50303331  0.33089073  1
  Al0+  Al59  1  0.50217788  0.49884891  0.66518453  1
  Al0+  Al60  1  0.25183263  0.24967828  -0.00803357  1
  Al0+  Al61  1  0.24820243  0.25178660  0.32641371  1
  Al0+  Al62  1  0.25024436  0.25118345  0.66259899  1
  Al0+  Al63  1  0.25146663  0.75040104  0.00254263  1
  Al0+  Al64  1  0.25123329  0.75042294  0.33362157  1
  Al0+  Al65  1  0.25208679  0.74954588  0.67176149  1
  Al0+  Al66  1  0.74907913  0.24761020  -0.00105393  1
  Al0+  Al67  1  0.74910471  0.25086066  0.33949223  1
  Al0+  Al68  1  0.74897704  0.24874463  0.66391392  1
  Al0+  Al69  1  0.75026405  0.74867558  0.00232954  1
  Al0+  Al70  1  0.74989876  0.74923081  0.33412502  1
  Al0+  Al71  1  0.75131388  0.74831529  0.66707347  1
  Al0+  Al72  1  0.92802885  0.81887640  0.65245748  1
  Al0+  Al73  1  0.67697492  0.92830577  0.34775486  1
  Al0+  Al74  1  0.92702303  0.32281970  0.65033224  1
  Al0+  Al75  1  0.07222324  0.17540215  0.98552373  1
  Al0+  Al76  1  0.68313627  0.42841366  0.01442398  1
  Al0+  Al77  1  0.43051549  0.32196403  0.65222800  1
  Al0+  Al78  1  0.67994376  0.92796079  0.68211898  1
  Al0+  Al79  1  0.57046743  0.17859309  0.32030880  1
  Al0+  Al80  1  0.43028871  0.32382980  0.98390743  1
  Al0+  Al81  1  0.07009428  0.17937209  0.65050494  1
  Al0+  Al82  1  0.92988104  0.32064767  0.98814044  1
  Al0+  Al83  1  0.82041080  0.07409405  0.35134986  1
  Al0+  Al84  1  0.17888879  0.42880258  0.34499523  1
  Al0+  Al85  1  0.06885771  0.17713902  0.31939651  1
  Al0+  Al86  1  0.42732932  0.32381196  0.31657616  1
  Al0+  Al87  1  0.32070844  0.56937456  0.01485070  1
  Al0+  Al88  1  0.17609390  0.93035807  0.68173670  1
  Al0+  Al89  1  0.07184823  0.68083128  0.32006746  1
  Al0+  Al90  1  0.32182074  0.56829954  0.67908470  1
  Al0+  Al91  1  0.17900066  0.93274764  0.01445370  1
  Al0+  Al92  1  0.07352672  0.68068830  0.98498967  1
  Al0+  Al93  1  0.17906570  0.92842819  0.34683634  1
  Al0+  Al94  1  0.32073226  0.07475712  0.68120797  1
  Al0+  Al95  1  0.57091695  0.17690369  0.98427006  1
  Si0+  Si96  1  0.82452051  0.57442103  0.01772618  1
  Si0+  Si97  1  0.67643491  0.92579252  0.01493681  1
  Si0+  Si98  1  0.57056073  0.17461913  0.65013560  1
  Si0+  Si99  1  0.42948999  0.81982622  0.31859529  1
  Si0+  Si100  1  0.57257007  0.68015856  0.98540799  1
  Si0+  Si101  1  0.17587900  0.42718579  0.01335904  1
  Si0+  Si102  1  0.32058763  0.07256300  0.34622761  1
  Si0+  Si103  1  0.32423336  0.07414559  0.01762190  1
  Si0+  Si104  1  0.81983947  0.07265865  0.68699188  1
  Si0+  Si105  1  0.82174768  0.57105727  0.68170842  1
  Si0+  Si106  1  0.67798340  0.43045636  0.35041280  1
  Si0+  Si107  1  0.92812907  0.32423335  0.31883477  1
  Si0+  Si108  1  0.92596695  0.82043449  0.98461618  1
  Si0+  Si109  1  0.68113882  0.42910529  0.68080319  1
  Si0+  Si110  1  0.32343647  0.57222836  0.34995802  1
  Si0+  Si111  1  0.92656954  0.82112330  0.31604107  1
  Si0+  Si112  1  0.42932273  0.82069623  0.65226616  1
  Si0+  Si113  1  0.82122282  0.57083036  0.34888471  1
  Si0+  Si114  1  0.81773778  0.06837999  0.01470349  1
  Si0+  Si115  1  0.57385863  0.67908290  0.31698034  1
  Si0+  Si116  1  0.07579553  0.67988177  0.64894440  1
  Si0+  Si117  1  0.17665342  0.42858887  0.68296105  1
  Si0+  Si118  1  0.57096604  0.67924788  0.65230798  1
  Si0+  Si119  1  0.42921818  0.81970409  0.98364337  1
  O2-  O120  1  0.24890747  0.01213611  0.06161471  1
  O2-  O121  1  0.24848999  0.00819217  0.39182148  1
  O2-  O122  1  0.24385033  0.00700624  0.73082889  1
  O2-  O123  1  0.24730719  0.49288114  0.05928402  1
  O2-  O124  1  0.25751948  0.50043960  0.39201196  1
  O2-  O125  1  0.24686031  0.49555966  0.72753784  1
  O2-  O126  1  0.74450867  -0.00127761  0.05640460  1
  O2-  O127  1  0.74665692  0.00136935  0.39826930  1
  O2-  O128  1  0.75065701  0.00414365  0.73192723  1
  O2-  O129  1  0.76210993  0.49966330  0.06156626  1
  O2-  O130  1  0.75136798  0.49922182  0.39266085  1
  O2-  O131  1  0.75831178  0.49337389  0.72372636  1
  O2-  O132  1  -0.00591783  0.25336210  0.27484143  1
  O2-  O133  1  0.00046393  0.25381663  0.59967474  1
  O2-  O134  1  0.00712254  0.25510544  0.93767873  1
  O2-  O135  1  0.00057402  0.75844797  0.27170281  1
  O2-  O136  1  0.00796318  0.74975067  0.60552519  1
  O2-  O137  1  -0.00290413  0.75455818  0.94026187  1
  O2-  O138  1  0.50083682  0.25195652  0.26938392  1
  O2-  O139  1  0.49929102  0.24100997  0.60684661  1
  O2-  O140  1  0.49765406  0.24720395  0.93405569  1
  O2-  O141  1  0.50265910  0.75032842  0.27602579  1
  O2-  O142  1  0.50128399  0.75066050  0.60893470  1
  O2-  O143  1  0.50300320  0.75098656  0.94152743  1
  O2-  O144  1  0.06705095  0.17313559  0.09924717  1
  O2-  O145  1  0.06972653  0.17762446  0.43194459  1
  O2-  O146  1  0.06660086  0.18005006  0.76403061  1
  O2-  O147  1  0.07293406  0.68161162  0.09828721  1
  O2-  O148  1  0.06935547  0.68040431  0.43307778  1
  O2-  O149  1  0.07473385  0.67953875  0.75459243  1
  O2-  O150  1  0.57199239  0.17795943  0.09773974  1
  O2-  O151  1  0.56758949  0.17930845  0.43407311  1
  O2-  O152  1  0.57260211  0.17707544  0.75557532  1
  O2-  O153  1  0.57403664  0.68267767  0.09062512  1
  O2-  O154  1  0.57489413  0.67655255  0.42211772  1
  O2-  O155  1  0.57143402  0.67890176  0.75747538  1
  O2-  O156  1  0.17631193  0.43170446  0.23199543  1
  O2-  O157  1  0.17646289  0.43136170  0.57710163  1
  O2-  O158  1  0.17497533  0.43184818  0.90790672  1
  O2-  O159  1  0.18361117  0.92614947  0.23364444  1
  O2-  O160  1  0.18068782  0.92780424  0.56806780  1
  O2-  O161  1  0.18049109  0.93119234  0.90171571  1
  O2-  O162  1  0.67868699  0.43206862  0.24544984  1
  O2-  O163  1  0.67963741  0.43458183  0.57553822  1
  O2-  O164  1  0.68294989  0.43241658  0.90091781  1
  O2-  O165  1  0.67960643  0.92543771  0.23377087  1
  O2-  O166  1  0.68091818  0.92659882  0.56956544  1
  O2-  O167  1  0.67908367  0.92171631  0.91006615  1
  O2-  O168  1  0.43376094  0.32487935  0.09719301  1
  O2-  O169  1  0.42978836  0.32465237  0.43045009  1
  O2-  O170  1  0.43743054  0.32779262  0.76459316  1
  O2-  O171  1  0.43093424  0.81923696  0.08912764  1
  O2-  O172  1  0.42874408  0.81724032  0.42363032  1
  O2-  O173  1  0.43086974  0.81767581  0.75734089  1
  O2-  O174  1  0.92846604  0.31652052  0.10191041  1
  O2-  O175  1  0.93056419  0.32644534  0.42422891  1
  O2-  O176  1  0.92694084  0.32105044  0.76377956  1
  O2-  O177  1  0.92194817  0.81817014  0.09000868  1
  O2-  O178  1  0.92333287  0.81588119  0.42147356  1
  O2-  O179  1  0.92455411  0.81314348  0.76560324  1
  O2-  O180  1  0.32262247  0.06798265  0.24066158  1
  O2-  O181  1  0.32373612  0.06976831  0.56723179  1
  O2-  O182  1  0.32976832  0.06832948  0.91268705  1
  O2-  O183  1  0.32359559  0.57464460  0.24450526  1
  O2-  O184  1  0.32228418  0.56889887  0.56605088  1
  O2-  O185  1  0.32147910  0.57067931  0.90163340  1
  O2-  O186  1  0.81987006  0.07222786  0.23696828  1
  O2-  O187  1  0.81770454  0.07238507  0.58179232  1
  O2-  O188  1  0.81770473  0.06633360  0.90969995  1
  O2-  O189  1  0.81925601  0.57221126  0.24400744  1
  O2-  O190  1  0.81712726  0.57371912  0.57640050  1
  O2-  O191  1  0.81851362  0.58084428  0.91237446  1
  O2-  O192  1  0.03545308  0.08007108  0.26712954  1
  O2-  O193  1  0.03896237  0.08093033  0.59958794  1
  O2-  O194  1  0.03342872  0.07971113  0.93298168  1
  O2-  O195  1  0.03619127  0.58592861  0.26530972  1
  O2-  O196  1  0.04776573  0.58672298  0.60335803  1
  O2-  O197  1  0.04436072  0.58601273  0.92687662  1
  O2-  O198  1  0.54451318  0.07947786  0.26702676  1
  O2-  O199  1  0.54782629  0.07877120  0.60792693  1
  O2-  O200  1  0.54696524  0.07615562  0.93335140  1
  O2-  O201  1  0.54583963  0.58863947  0.26721882  1
  O2-  O202  1  0.54271733  0.58883431  0.60245018  1
  O2-  O203  1  0.54506442  0.58837561  0.93916646  1
  O2-  O204  1  0.16462573  0.20628673  0.26351784  1
  O2-  O205  1  0.16932566  0.20480319  0.59785089  1
  O2-  O206  1  0.17335506  0.19229756  0.93480796  1
  O2-  O207  1  0.16959547  0.70895785  0.26668050  1
  O2-  O208  1  0.16997573  0.70428788  0.60394065  1
  O2-  O209  1  0.16953931  0.71417213  0.93186920  1
  O2-  O210  1  0.67026903  0.20849321  0.27063605  1
  O2-  O211  1  0.66304643  0.20296461  0.60363009  1
  O2-  O212  1  0.66797698  0.20719654  0.93049800  1
  O2-  O213  1  0.66509475  0.70590215  0.26768498  1
  O2-  O214  1  0.66248386  0.70623728  0.60410072  1
  O2-  O215  1  0.66454333  0.70710437  0.93711605  1
  O2-  O216  1  0.08290251  0.45686175  0.05908737  1
  O2-  O217  1  0.08466230  0.46458450  0.40152885  1
  O2-  O218  1  0.08291386  0.45571938  0.72857916  1
  O2-  O219  1  0.07949330  0.95489125  0.06766846  1
  O2-  O220  1  0.07996198  0.95148517  0.39777089  1
  O2-  O221  1  0.07509996  0.95230354  0.73249865  1
  O2-  O222  1  0.59083429  0.46640837  0.07174575  1
  O2-  O223  1  0.58770463  0.46433167  0.39757980  1
  O2-  O224  1  0.59302754  0.46528136  0.72938137  1
  O2-  O225  1  0.58237382  0.94862100  0.05997776  1
  O2-  O226  1  0.57682796  0.95238971  0.39958208  1
  O2-  O227  1  0.58258362  0.95262553  0.73736628  1
  O2-  O228  1  0.19776623  0.33087961  0.05564097  1
  O2-  O229  1  0.20777975  0.33141944  0.39855715  1
  O2-  O230  1  0.19966988  0.33407030  0.72630129  1
  O2-  O231  1  0.21787005  0.83792494  0.06748766  1
  O2-  O232  1  0.21524962  0.83360365  0.40133870  1
  O2-  O233  1  0.21033658  0.83324077  0.73452620  1
  O2-  O234  1  0.71186785  0.33133503  0.06882160  1
  O2-  O235  1  0.70193200  0.33925821  0.39985905  1
  O2-  O236  1  0.70230115  0.33503460  0.72634166  1
  O2-  O237  1  0.70552888  0.83461202  0.06381059  1
  O2-  O238  1  0.70529073  0.82864053  0.39953293  1
  O2-  O239  1  0.71249016  0.83059776  0.73538242  1
  O2-  O240  1  0.45706003  0.42341099  0.26637700  1
  O2-  O241  1  0.46860603  0.41582732  0.59599166  1
  O2-  O242  1  0.46696179  0.42191969  0.93406407  1
  O2-  O243  1  0.45530988  0.91083047  0.26884747  1
  O2-  O244  1  0.45711217  0.91257255  0.60582024  1
  O2-  O245  1  0.45483034  0.91121960  0.93535515  1
  O2-  O246  1  0.95268474  0.41775961  0.27235289  1
  O2-  O247  1  0.94898425  0.42472234  0.60066031  1
  O2-  O248  1  0.94538346  0.42261707  0.93691997  1
  O2-  O249  1  0.94515868  0.91707484  0.27404488  1
  O2-  O250  1  0.95023088  0.91687585  0.59896821  1
  O2-  O251  1  0.94837227  0.91435037  0.93922794  1
  O2-  O252  1  0.32990843  0.29739580  0.26210289  1
  O2-  O253  1  0.33211777  0.29890782  0.59907869  1
  O2-  O254  1  0.33049041  0.30336450  0.93080907  1
  O2-  O255  1  0.34010146  0.78845590  0.26847244  1
  O2-  O256  1  0.33872171  0.78994050  0.60418159  1
  O2-  O257  1  0.33990104  0.78734481  0.93588589  1
  O2-  O258  1  0.83198819  0.30115677  0.27734463  1
  O2-  O259  1  0.82775051  0.29477490  0.59798304  1
  O2-  O260  1  0.83383436  0.28604870  0.93422735  1
  O2-  O261  1  0.83507727  0.78919540  0.26833615  1
  O2-  O262  1  0.83423157  0.78046062  0.59691067  1
  O2-  O263  1  0.83317077  0.79162783  0.93723516  1
  O2-  O264  1  0.41474798  0.03903156  0.06608524  1
  O2-  O265  1  0.41205020  0.04228262  0.39384731  1
  O2-  O266  1  0.41594580  0.04005161  0.73747956  1
  O2-  O267  1  0.41865313  0.54440787  0.06967063  1
  O2-  O268  1  0.41933220  0.55245806  0.39470388  1
  O2-  O269  1  0.42004259  0.53916752  0.73232158  1
  O2-  O270  1  0.90749773  0.03776395  0.06471507  1
  O2-  O271  1  0.91594351  0.04141208  0.40684035  1
  O2-  O272  1  0.91240064  0.04408164  0.73249292  1
  O2-  O273  1  0.92126187  0.55617368  0.05922286  1
  O2-  O274  1  0.91259419  0.54549444  0.39775988  1
  O2-  O275  1  0.91664622  0.55289233  0.72689237  1
  O2-  O276  1  0.30774354  0.17156580  0.05831313  1
  O2-  O277  1  0.29935486  0.16827797  0.38836591  1
  O2-  O278  1  0.29985529  0.17580269  0.73115278  1
  O2-  O279  1  0.29004611  0.66600524  0.06912560  1
  O2-  O280  1  0.29492767  0.66451762  0.39707859  1
  O2-  O281  1  0.29431001  0.66512475  0.73463994  1
  O2-  O282  1  0.79071327  0.15950664  0.06278464  1
  O2-  O283  1  0.79400331  0.17201282  0.40658714  1
  O2-  O284  1  0.79318693  0.16675472  0.73219702  1
  O2-  O285  1  0.79052652  0.66401354  0.06815068  1
  O2-  O286  1  0.79000459  0.66121276  0.39759184  1
  O2-  O287  1  0.78581741  0.65826033  0.73222888  1
