# generated using pymatgen
data_Ca2Al2SiO7
_symmetry_space_group_name_H-M   'P 1'
_cell_length_a   15.47383887
_cell_length_b   15.46961984
_cell_length_c   15.29483686
_cell_angle_alpha   89.99418911
_cell_angle_beta   89.99589509
_cell_angle_gamma   89.98690165
_symmetry_Int_Tables_number   1
_chemical_formula_structural   Ca2Al2SiO7
_chemical_formula_sum   'Ca48 Al48 Si24 O168'
_cell_volume   3661.19234388
_cell_formula_units_Z   24
loop_
 _symmetry_equiv_pos_site_id
 _symmetry_equiv_pos_as_xyz
  1  'x, y, z'
loop_
 _atom_type_symbol
 _atom_type_oxidation_number
  Ca2+  2.0
  Al0+  0.0
  Si0+  0.0
  O2-  -2.0
loop_
 _atom_site_type_symbol
 _atom_site_label
 _atom_site_symmetry_multiplicity
 _atom_site_fract_x
 _atom_site_fract_y
 _atom_site_fract_z
 _atom_site_occupancy
  Ca2+  Ca0  1  0.17798243  0.08855098  0.17314635  1
  Ca2+  Ca1  1  0.16417015  0.08218926  0.50585257  1
  Ca2+  Ca2  1  0.16336016  0.07410268  0.83515111  1
  Ca2+  Ca3  1  0.16807279  0.57630236  0.16822721  1
  Ca2+  Ca4  1  0.15768497  0.57807435  0.50332458  1
  Ca2+  Ca5  1  0.16139216  0.57652167  0.84118848  1
  Ca2+  Ca6  1  0.67609140  0.08486348  0.16641278  1
  Ca2+  Ca7  1  0.67198374  0.07831384  0.50559026  1
  Ca2+  Ca8  1  0.67608365  0.08025167  0.84259338  1
  Ca2+  Ca9  1  0.67106534  0.57889027  0.16548172  1
  Ca2+  Ca10  1  0.66856090  0.58704685  0.50655000  1
  Ca2+  Ca11  1  0.67540451  0.58303717  0.84111485  1
  Ca2+  Ca12  1  0.08868193  0.33256159  0.16028481  1
  Ca2+  Ca13  1  0.09283992  0.32763600  0.49863248  1
  Ca2+  Ca14  1  0.07575637  0.33574220  0.82710213  1
  Ca2+  Ca15  1  0.08794303  0.81777211  0.16437694  1
  Ca2+  Ca16  1  0.08274920  0.82675436  0.49615893  1
  Ca2+  Ca17  1  0.08414021  0.81948526  0.82500553  1
  Ca2+  Ca18  1  0.57455269  0.33535488  0.15543380  1
  Ca2+  Ca19  1  0.57904122  0.33126477  0.49638353  1
  Ca2+  Ca20  1  0.57556471  0.34274972  0.83548220  1
  Ca2+  Ca21  1  0.57380845  0.82999038  0.15882117  1
  Ca2+  Ca22  1  0.57698361  0.82812483  0.50213662  1
  Ca2+  Ca23  1  0.57074322  0.82777942  0.82731632  1
  Ca2+  Ca24  1  0.32447439  0.42388851  0.17013394  1
  Ca2+  Ca25  1  0.31849572  0.42425032  0.50100257  1
  Ca2+  Ca26  1  0.32054356  0.42277688  0.84242082  1
  Ca2+  Ca27  1  0.33633477  0.92600969  0.16715257  1
  Ca2+  Ca28  1  0.32665166  0.92228209  0.50741420  1
  Ca2+  Ca29  1  0.33123870  0.91524364  0.83792150  1
  Ca2+  Ca30  1  0.83618070  0.41901547  0.15989607  1
  Ca2+  Ca31  1  0.83340169  0.41541778  0.50629945  1
  Ca2+  Ca32  1  0.83246142  0.41840382  0.84591978  1
  Ca2+  Ca33  1  0.83893533  0.91959467  0.17070940  1
  Ca2+  Ca34  1  0.84305589  0.91237680  0.50668524  1
  Ca2+  Ca35  1  0.83944003  0.92179169  0.83918274  1
  Ca2+  Ca36  1  0.41239055  0.17066975  0.15653068  1
  Ca2+  Ca37  1  0.41341508  0.16669860  0.49408989  1
  Ca2+  Ca38  1  0.41040237  0.17133800  0.83676016  1
  Ca2+  Ca39  1  0.40806807  0.66724132  0.15621683  1
  Ca2+  Ca40  1  0.41515547  0.66708963  0.49878163  1
  Ca2+  Ca41  1  0.41494827  0.67409139  0.82930936  1
  Ca2+  Ca42  1  0.92548788  0.17124462  0.16016617  1
  Ca2+  Ca43  1  0.93323373  0.17176889  0.49960923  1
  Ca2+  Ca44  1  0.91858846  0.17744293  0.82870258  1
  Ca2+  Ca45  1  0.92837378  0.66335290  0.16174657  1
  Ca2+  Ca46  1  0.93097094  0.67510556  0.49777666  1
  Ca2+  Ca47  1  0.92699491  0.66368657  0.82963907  1
  Al0+  Al48  1  0.00075856  -0.00225125  0.00750906  1
  Al0+  Al49  1  0.00031784  0.00391161  0.32614547  1
  Al0+  Al50  1  0.00165652  0.00369987  0.66778140  1
  Al0+  Al51  1  -0.00132511  0.49783646  0.00086359  1
  Al0+  Al52  1  -0.00383981  0.50013180  0.33508477  1
  Al0+  Al53  1  -0.00407817  0.50087291  0.66333248  1
  Al0+  Al54  1  0.49978972  -0.00125596  -0.00136345  1
  Al0+  Al55  1  0.50327404  -0.00016767  0.33740985  1
  Al0+  Al56  1  0.50205865  0.00052225  0.66445033  1
  Al0+  Al57  1  0.50056285  0.49984522  0.00041515  1
  Al0+  Al58  1  0.50009000  0.49930582  0.33742140  1
  Al0+  Al59  1  0.49995990  0.49880561  0.66219562  1
  Al0+  Al60  1  0.25124553  0.24730875  -0.00090678  1
  Al0+  Al61  1  0.25208018  0.25202669  0.33688578  1
  Al0+  Al62  1  0.25153129  0.25251657  0.66807693  1
  Al0+  Al63  1  0.24866492  0.74967588  -0.00668148  1
  Al0+  Al64  1  0.25130253  0.75256491  0.33193532  1
  Al0+  Al65  1  0.25122624  0.75180714  0.66171305  1
  Al0+  Al66  1  0.75076253  0.24713779  0.00603347  1
  Al0+  Al67  1  0.75038192  0.24766569  0.33555420  1
  Al0+  Al68  1  0.74836670  0.24944241  0.66346351  1
  Al0+  Al69  1  0.74981959  0.75070437  0.00538816  1
  Al0+  Al70  1  0.74648905  0.75032074  0.32993821  1
  Al0+  Al71  1  0.74737553  0.74993428  0.66268798  1
  Al0+  Al72  1  0.93029160  0.31747743  0.98833026  1
  Al0+  Al73  1  0.42808605  0.32219160  0.98617737  1
  Al0+  Al74  1  0.31995892  0.57279446  0.01038161  1
  Al0+  Al75  1  0.17655484  0.43124460  0.34876647  1
  Al0+  Al76  1  0.17779294  0.42756422  0.01282051  1
  Al0+  Al77  1  0.17886955  0.92936649  0.67961867  1
  Al0+  Al78  1  0.82199528  0.57234983  0.01549777  1
  Al0+  Al79  1  0.82309264  0.06971442  0.01501780  1
  Al0+  Al80  1  0.32263107  0.07101431  0.34701307  1
  Al0+  Al81  1  0.42926375  0.82065771  0.98649053  1
  Al0+  Al82  1  0.92614304  0.32196742  0.65197222  1
  Al0+  Al83  1  0.92967946  0.82272431  0.65663933  1
  Al0+  Al84  1  0.32207020  0.57407840  0.34881129  1
  Al0+  Al85  1  0.17727761  0.43107042  0.68177220  1
  Al0+  Al86  1  0.92755546  0.82144030  0.31703740  1
  Al0+  Al87  1  0.67805291  0.42795880  0.01431805  1
  Al0+  Al88  1  0.42790551  0.82335129  0.64919693  1
  Al0+  Al89  1  0.07333230  0.18345079  0.31806110  1
  Al0+  Al90  1  0.07228402  0.67775172  0.65218140  1
  Al0+  Al91  1  0.56909720  0.67794965  0.65219092  1
  Al0+  Al92  1  0.32031718  0.06829393  0.01160090  1
  Al0+  Al93  1  0.07284539  0.18182329  0.65386610  1
  Al0+  Al94  1  0.07224811  0.67773851  0.31608696  1
  Al0+  Al95  1  0.06885960  0.67856536  0.98579229  1
  Si0+  Si96  1  0.32502692  0.07250862  0.68394103  1
  Si0+  Si97  1  0.67760121  0.42647785  0.68089482  1
  Si0+  Si98  1  0.17773430  0.93089027  0.34850834  1
  Si0+  Si99  1  0.67773428  0.92880893  0.01730288  1
  Si0+  Si100  1  0.92407358  0.32119596  0.31574481  1
  Si0+  Si101  1  0.81726761  0.57120821  0.68017076  1
  Si0+  Si102  1  0.67862767  0.92860559  0.68251135  1
  Si0+  Si103  1  0.57180991  0.17770473  0.98396048  1
  Si0+  Si104  1  0.67908045  0.42813612  0.34982565  1
  Si0+  Si105  1  0.57428501  0.67739270  0.98473716  1
  Si0+  Si106  1  0.07433104  0.17479431  0.98382417  1
  Si0+  Si107  1  0.81786222  0.57260967  0.35041198  1
  Si0+  Si108  1  0.67998485  0.92847124  0.35056888  1
  Si0+  Si109  1  0.42951602  0.32058647  0.64994238  1
  Si0+  Si110  1  0.43267725  0.31962833  0.31865227  1
  Si0+  Si111  1  0.32362059  0.57145813  0.68231585  1
  Si0+  Si112  1  0.82014104  0.07134189  0.68124660  1
  Si0+  Si113  1  0.92649695  0.82288864  0.98533173  1
  Si0+  Si114  1  0.56901377  0.67744728  0.31623711  1
  Si0+  Si115  1  0.82192551  0.07026183  0.35153393  1
  Si0+  Si116  1  0.57163783  0.17877599  0.65123604  1
  Si0+  Si117  1  0.17791073  0.92606133  0.01788765  1
  Si0+  Si118  1  0.43082801  0.82294746  0.31792373  1
  Si0+  Si119  1  0.57271684  0.17717575  0.31794182  1
  O2-  O120  1  0.24427973  -0.00255401  0.06138757  1
  O2-  O121  1  0.24655487  -0.00093173  0.39396534  1
  O2-  O122  1  0.25658414  0.00271091  0.72576016  1
  O2-  O123  1  0.25124862  0.49880509  0.06138650  1
  O2-  O124  1  0.24334072  0.50914135  0.39828249  1
  O2-  O125  1  0.24874346  0.51001179  0.72640080  1
  O2-  O126  1  0.74994333  -0.00684754  0.06242390  1
  O2-  O127  1  0.75585247  -0.00581510  0.39381324  1
  O2-  O128  1  0.75302073  -0.00369882  0.72387616  1
  O2-  O129  1  0.74870188  0.50058427  0.06526427  1
  O2-  O130  1  0.74998299  0.49799318  0.39331960  1
  O2-  O131  1  0.74898724  0.49667335  0.72175279  1
  O2-  O132  1  -0.00019744  0.26005733  0.27289459  1
  O2-  O133  1  0.00426322  0.25680908  0.60244662  1
  O2-  O134  1  0.00555795  0.24385094  0.94096398  1
  O2-  O135  1  -0.00064404  0.75008751  0.26665788  1
  O2-  O136  1  0.00435224  0.75541002  0.60482505  1
  O2-  O137  1  -0.00805186  0.75252065  0.94096711  1
  O2-  O138  1  0.50170956  0.24682100  0.27546528  1
  O2-  O139  1  0.49851338  0.24672084  0.60827925  1
  O2-  O140  1  0.50550945  0.24852052  0.93947147  1
  O2-  O141  1  0.49421794  0.74484086  0.27508891  1
  O2-  O142  1  0.49574138  0.74691024  0.59958926  1
  O2-  O143  1  0.50262410  0.74339540  0.94195582  1
  O2-  O144  1  0.07407082  0.17571078  0.08964158  1
  O2-  O145  1  0.07118147  0.18140970  0.43100910  1
  O2-  O146  1  0.06865103  0.17899385  0.76713553  1
  O2-  O147  1  0.07040675  0.67968201  0.09865311  1
  O2-  O148  1  0.07004556  0.67947600  0.42953757  1
  O2-  O149  1  0.06846539  0.67548561  0.76561804  1
  O2-  O150  1  0.56994822  0.17611219  0.08987792  1
  O2-  O151  1  0.57406313  0.17872422  0.42342478  1
  O2-  O152  1  0.57542686  0.17848220  0.75569733  1
  O2-  O153  1  0.57576474  0.68024929  0.09068626  1
  O2-  O154  1  0.57177451  0.67933546  0.42112184  1
  O2-  O155  1  0.57059843  0.67921623  0.76549485  1
  O2-  O156  1  0.18164808  0.42761067  0.23569814  1
  O2-  O157  1  0.18146685  0.42911053  0.56880104  1
  O2-  O158  1  0.17733574  0.42893036  0.89904020  1
  O2-  O159  1  0.18113279  0.93126040  0.24296112  1
  O2-  O160  1  0.17839414  0.93321491  0.56633895  1
  O2-  O161  1  0.17723494  0.92707914  0.91223652  1
  O2-  O162  1  0.67687153  0.42803697  0.24549489  1
  O2-  O163  1  0.67790061  0.42515264  0.57528865  1
  O2-  O164  1  0.67937429  0.42910893  0.90029023  1
  O2-  O165  1  0.67648682  0.93217618  0.24580959  1
  O2-  O166  1  0.67688801  0.93186879  0.57719793  1
  O2-  O167  1  0.67704395  0.93103852  0.91163585  1
  O2-  O168  1  0.42959564  0.31922480  0.09950583  1
  O2-  O169  1  0.43700060  0.31786709  0.42413013  1
  O2-  O170  1  0.43150696  0.32141520  0.75475593  1
  O2-  O171  1  0.43287931  0.82307767  0.10005538  1
  O2-  O172  1  0.43622897  0.82629001  0.42243750  1
  O2-  O173  1  0.43252308  0.82610026  0.76260388  1
  O2-  O174  1  0.93035585  0.31546143  0.10143552  1
  O2-  O175  1  0.91651805  0.31553608  0.42088113  1
  O2-  O176  1  0.92044226  0.31815231  0.76514478  1
  O2-  O177  1  0.92805638  0.82324979  0.09065392  1
  O2-  O178  1  0.92803676  0.81960864  0.43065712  1
  O2-  O179  1  0.92791421  0.82029485  0.77001747  1
  O2-  O180  1  0.32543299  0.06918328  0.23409189  1
  O2-  O181  1  0.32674961  0.07197960  0.57803993  1
  O2-  O182  1  0.32124965  0.06668371  0.89875373  1
  O2-  O183  1  0.32787705  0.56869429  0.23587290  1
  O2-  O184  1  0.32807884  0.56538377  0.57693937  1
  O2-  O185  1  0.31895290  0.57288828  0.89681059  1
  O2-  O186  1  0.81733603  0.07306591  0.24679981  1
  O2-  O187  1  0.81605474  0.07211628  0.57601454  1
  O2-  O188  1  0.82057206  0.06892739  0.90146378  1
  O2-  O189  1  0.81503112  0.57257513  0.24568849  1
  O2-  O190  1  0.81343017  0.57169860  0.57482832  1
  O2-  O191  1  0.81995744  0.57268518  0.90156233  1
  O2-  O192  1  0.04106648  0.08844867  0.26234560  1
  O2-  O193  1  0.03951111  0.08585692  0.59878866  1
  O2-  O194  1  0.04670063  0.07971465  0.94183708  1
  O2-  O195  1  0.04020720  0.57862280  0.26631874  1
  O2-  O196  1  0.03555394  0.58349258  0.59672531  1
  O2-  O197  1  0.03642631  0.58228148  0.93328711  1
  O2-  O198  1  0.54752273  0.08444884  0.27194863  1
  O2-  O199  1  0.54715424  0.08698753  0.60186127  1
  O2-  O200  1  0.54419614  0.08554571  0.93612356  1
  O2-  O201  1  0.54649842  0.58290565  0.27223053  1
  O2-  O202  1  0.54565546  0.57860494  0.59715400  1
  O2-  O203  1  0.55459408  0.58268807  0.94002717  1
  O2-  O204  1  0.17175420  0.21198648  0.26624264  1
  O2-  O205  1  0.17278280  0.20656019  0.60144170  1
  O2-  O206  1  0.16787242  0.19622567  0.93729444  1
  O2-  O207  1  0.17154982  0.70794180  0.26469758  1
  O2-  O208  1  0.17178611  0.70005514  0.60020090  1
  O2-  O209  1  0.16289871  0.71167679  0.92911841  1
  O2-  O210  1  0.66457165  0.20569424  0.27120915  1
  O2-  O211  1  0.66064656  0.20900898  0.59915771  1
  O2-  O212  1  0.66671651  0.19998964  0.94009408  1
  O2-  O213  1  0.65824192  0.70967842  0.26681666  1
  O2-  O214  1  0.66472076  0.71097932  0.59532400  1
  O2-  O215  1  0.66694797  0.70707474  0.93838965  1
  O2-  O216  1  0.08076432  0.45522546  0.06698017  1
  O2-  O217  1  0.07470750  0.45052664  0.39971402  1
  O2-  O218  1  0.07696071  0.45725401  0.73062915  1
  O2-  O219  1  0.08451173  0.94679574  0.06597222  1
  O2-  O220  1  0.08362476  0.95863000  0.39193616  1
  O2-  O221  1  0.08414230  0.96357999  0.73634713  1
  O2-  O222  1  0.58032774  0.45592507  0.06898194  1
  O2-  O223  1  0.58842800  0.45597525  0.39980100  1
  O2-  O224  1  0.58522907  0.45453539  0.72670270  1
  O2-  O225  1  0.58647767  0.95969658  0.06511449  1
  O2-  O226  1  0.59199117  0.96277559  0.40179638  1
  O2-  O227  1  0.58888747  0.96169955  0.73081620  1
  O2-  O228  1  0.20650579  0.32843909  0.06332850  1
  O2-  O229  1  0.21471256  0.33594843  0.40321883  1
  O2-  O230  1  0.21235686  0.33512614  0.73491078  1
  O2-  O231  1  0.20910450  0.83427950  0.06292603  1
  O2-  O232  1  0.20337240  0.83735396  0.39416984  1
  O2-  O233  1  0.20804389  0.83134879  0.73250345  1
  O2-  O234  1  0.70421448  0.32958861  0.06851175  1
  O2-  O235  1  0.70570045  0.33496799  0.39696208  1
  O2-  O236  1  0.70238606  0.33358431  0.72719977  1
  O2-  O237  1  0.69748610  0.83464233  0.06441288  1
  O2-  O238  1  0.70077544  0.83419225  0.39614532  1
  O2-  O239  1  0.70164916  0.83540237  0.72832925  1
  O2-  O240  1  0.46453226  0.41066428  0.27272536  1
  O2-  O241  1  0.46197997  0.40917341  0.59957501  1
  O2-  O242  1  0.45994962  0.41792731  0.93058220  1
  O2-  O243  1  0.46840416  0.91225017  0.27065095  1
  O2-  O244  1  0.46369094  0.92007064  0.59587099  1
  O2-  O245  1  0.46419883  0.91527615  0.93096100  1
  O2-  O246  1  0.93985011  0.41857123  0.27563132  1
  O2-  O247  1  0.94510004  0.42193543  0.60008721  1
  O2-  O248  1  0.95660503  0.41453832  0.93400697  1
  O2-  O249  1  0.95161453  0.92188945  0.26653074  1
  O2-  O250  1  0.95222768  0.92317194  0.60563157  1
  O2-  O251  1  0.95342871  0.91708081  0.94092252  1
  O2-  O252  1  0.34072838  0.29331455  0.27317642  1
  O2-  O253  1  0.33855325  0.29356209  0.60163214  1
  O2-  O254  1  0.33415121  0.28669575  0.92976473  1
  O2-  O255  1  0.33670903  0.80555903  0.27209257  1
  O2-  O256  1  0.32950959  0.80119977  0.59521402  1
  O2-  O257  1  0.33371875  0.79256543  0.93039351  1
  O2-  O258  1  0.83300907  0.28738292  0.26835504  1
  O2-  O259  1  0.82961939  0.28789822  0.59653423  1
  O2-  O260  1  0.83255367  0.28516660  0.93668153  1
  O2-  O261  1  0.82674026  0.79583108  0.26647184  1
  O2-  O262  1  0.83147703  0.79416207  0.60261053  1
  O2-  O263  1  0.82995866  0.80351145  0.94259794  1
  O2-  O264  1  0.41711150  0.03717804  0.06608411  1
  O2-  O265  1  0.41981680  0.04049661  0.40142369  1
  O2-  O266  1  0.41997022  0.04835940  0.72835158  1
  O2-  O267  1  0.42032259  0.55009939  0.06145057  1
  O2-  O268  1  0.41864420  0.53853175  0.40387847  1
  O2-  O269  1  0.41558005  0.53861703  0.72837994  1
  O2-  O270  1  0.91853857  0.04092218  0.07246519  1
  O2-  O271  1  0.91580071  0.04727127  0.39619384  1
  O2-  O272  1  0.91217280  0.04936039  0.72928740  1
  O2-  O273  1  0.91685486  0.53803498  0.07064187  1
  O2-  O274  1  0.90982372  0.54818936  0.39826534  1
  O2-  O275  1  0.90927210  0.54636131  0.72717306  1
  O2-  O276  1  0.29306101  0.16511141  0.06648298  1
  O2-  O277  1  0.29561397  0.16809434  0.40113059  1
  O2-  O278  1  0.30084324  0.16695545  0.72816786  1
  O2-  O279  1  0.29029075  0.67084189  0.06331282  1
  O2-  O280  1  0.30419392  0.67682112  0.39699106  1
  O2-  O281  1  0.30801260  0.66964748  0.72085464  1
  O2-  O282  1  0.78831334  0.16245853  0.07341506  1
  O2-  O283  1  0.78669269  0.15922815  0.40058852  1
  O2-  O284  1  0.78449511  0.16103345  0.72833672  1
  O2-  O285  1  0.79476531  0.67051306  0.07034197  1
  O2-  O286  1  0.78320569  0.66291061  0.39662235  1
  O2-  O287  1  0.78508707  0.66154016  0.72788071  1
