# generated using pymatgen
data_Ca2Al2SiO7
_symmetry_space_group_name_H-M   'P 1'
_cell_length_a   15.45772213
_cell_length_b   15.45770320
_cell_length_c   15.28367076
_cell_angle_alpha   90.00445866
_cell_angle_beta   89.99435536
_cell_angle_gamma   90.02398479
_symmetry_Int_Tables_number   1
_chemical_formula_structural   Ca2Al2SiO7
_chemical_formula_sum   'Ca48 Al48 Si24 O168'
_cell_volume   3651.89340346
_cell_formula_units_Z   24
loop_
 _symmetry_equiv_pos_site_id
 _symmetry_equiv_pos_as_xyz
  1  'x, y, z'
loop_
 _atom_type_symbol
 _atom_type_oxidation_number
  Ca2+  2.0
  Al0+  0.0
  Si0+  0.0
  O2-  -2.0
loop_
 _atom_site_type_symbol
 _atom_site_label
 _atom_site_symmetry_multiplicity
 _atom_site_fract_x
 _atom_site_fract_y
 _atom_site_fract_z
 _atom_site_occupancy
  Ca2+  Ca0  1  0.17441554  0.07682491  0.16834900  1
  Ca2+  Ca1  1  0.16937766  0.07341250  0.50861294  1
  Ca2+  Ca2  1  0.17350982  0.08624932  0.82995351  1
  Ca2+  Ca3  1  0.17321595  0.57881902  0.17212175  1
  Ca2+  Ca4  1  0.17483414  0.57976185  0.50459003  1
  Ca2+  Ca5  1  0.16402139  0.56882703  0.83602341  1
  Ca2+  Ca6  1  0.67515264  0.07221297  0.17340276  1
  Ca2+  Ca7  1  0.67607328  0.07939387  0.50307748  1
  Ca2+  Ca8  1  0.67972593  0.07703991  0.84218854  1
  Ca2+  Ca9  1  0.66503623  0.58282942  0.17525779  1
  Ca2+  Ca10  1  0.66987124  0.58017602  0.50149593  1
  Ca2+  Ca11  1  0.66679135  0.58275221  0.83190937  1
  Ca2+  Ca12  1  0.08127141  0.33309660  0.15963970  1
  Ca2+  Ca13  1  0.08653139  0.32709643  0.50107740  1
  Ca2+  Ca14  1  0.08674203  0.32875530  0.82339222  1
  Ca2+  Ca15  1  0.07827142  0.83374828  0.16292189  1
  Ca2+  Ca16  1  0.07892132  0.84279507  0.49720898  1
  Ca2+  Ca17  1  0.07218126  0.84036567  0.82617336  1
  Ca2+  Ca18  1  0.57882021  0.33443066  0.16111003  1
  Ca2+  Ca19  1  0.58524991  0.33781701  0.49842161  1
  Ca2+  Ca20  1  0.57090308  0.33433900  0.82488610  1
  Ca2+  Ca21  1  0.59368703  0.82454080  0.16429380  1
  Ca2+  Ca22  1  0.57632583  0.82940553  0.48745167  1
  Ca2+  Ca23  1  0.59142311  0.82893800  0.83306577  1
  Ca2+  Ca24  1  0.33284233  0.42044839  0.16674055  1
  Ca2+  Ca25  1  0.33481958  0.42328420  0.50655350  1
  Ca2+  Ca26  1  0.32445631  0.40396924  0.83602954  1
  Ca2+  Ca27  1  0.33172432  0.91691248  0.17435587  1
  Ca2+  Ca28  1  0.32332357  0.91463154  0.50625986  1
  Ca2+  Ca29  1  0.32969119  0.92920923  0.83707789  1
  Ca2+  Ca30  1  0.82409946  0.42581601  0.17970490  1
  Ca2+  Ca31  1  0.82164080  0.42805591  0.50596572  1
  Ca2+  Ca32  1  0.82926390  0.42159678  0.83321480  1
  Ca2+  Ca33  1  0.82624403  0.91988565  0.16777652  1
  Ca2+  Ca34  1  0.83037491  0.92116643  0.50434789  1
  Ca2+  Ca35  1  0.83760333  0.92275912  0.83871010  1
  Ca2+  Ca36  1  0.41800442  0.17090088  0.15760262  1
  Ca2+  Ca37  1  0.41056078  0.17350529  0.50077725  1
  Ca2+  Ca38  1  0.40925608  0.17202042  0.82687553  1
  Ca2+  Ca39  1  0.42552319  0.67040411  0.16710426  1
  Ca2+  Ca40  1  0.42107460  0.67026739  0.48632454  1
  Ca2+  Ca41  1  0.42453708  0.66707935  0.83140474  1
  Ca2+  Ca42  1  0.91407662  0.16145983  0.16410173  1
  Ca2+  Ca43  1  0.91934201  0.15783671  0.49820018  1
  Ca2+  Ca44  1  0.92190207  0.16067489  0.82326518  1
  Ca2+  Ca45  1  0.91151018  0.67333215  0.16037392  1
  Ca2+  Ca46  1  0.91258803  0.66705141  0.49916879  1
  Ca2+  Ca47  1  0.91244173  0.67950158  0.82572164  1
  Al0+  Al48  1  0.00192229  0.00080360  -0.00024402  1
  Al0+  Al49  1  0.00326571  0.00033181  0.33535103  1
  Al0+  Al50  1  -0.00038276  -0.00065433  0.66358839  1
  Al0+  Al51  1  0.00016561  0.49860811  0.00399933  1
  Al0+  Al52  1  -0.00037001  0.49849007  0.33549169  1
  Al0+  Al53  1  -0.00003190  0.50176809  0.67260089  1
  Al0+  Al54  1  0.50095007  -0.00114734  0.00749025  1
  Al0+  Al55  1  0.49920880  0.00403910  0.33291045  1
  Al0+  Al56  1  0.50049196  0.00040035  0.66873412  1
  Al0+  Al57  1  0.49841344  0.50055632  -0.00993899  1
  Al0+  Al58  1  0.49785987  0.50044267  0.33533133  1
  Al0+  Al59  1  0.50051061  0.50029281  0.66531804  1
  Al0+  Al60  1  0.24821110  0.24948176  0.00678827  1
  Al0+  Al61  1  0.24809858  0.24829959  0.32909468  1
  Al0+  Al62  1  0.24986068  0.25055005  0.66083611  1
  Al0+  Al63  1  0.25138638  0.74752290  -0.00297582  1
  Al0+  Al64  1  0.24869354  0.74913364  0.33600051  1
  Al0+  Al65  1  0.24868259  0.74921776  0.67335541  1
  Al0+  Al66  1  0.75008940  0.25123778  0.00245382  1
  Al0+  Al67  1  0.75068915  0.25075836  0.33865441  1
  Al0+  Al68  1  0.74874318  0.25083912  0.67417419  1
  Al0+  Al69  1  0.75133733  0.74978820  -0.00714207  1
  Al0+  Al70  1  0.75049061  0.75134364  0.33600674  1
  Al0+  Al71  1  0.75045812  0.74956599  0.66285877  1
  Al0+  Al72  1  0.68053126  0.92628143  0.01462797  1
  Al0+  Al73  1  0.32153537  0.07084197  0.67951586  1
  Al0+  Al74  1  0.18135024  0.43014290  0.67791153  1
  Al0+  Al75  1  0.67686892  0.92862484  0.34932686  1
  Al0+  Al76  1  0.82043782  0.57269822  0.68404195  1
  Al0+  Al77  1  0.42619233  0.82357697  0.31939237  1
  Al0+  Al78  1  0.42969658  0.31966506  0.65081206  1
  Al0+  Al79  1  0.06918021  0.18077576  0.65162524  1
  Al0+  Al80  1  0.17914224  0.42916169  0.01503049  1
  Al0+  Al81  1  0.82188738  0.06996207  0.34936346  1
  Al0+  Al82  1  0.93281494  0.81984562  0.98674773  1
  Al0+  Al83  1  0.17760909  0.92744621  0.68332151  1
  Al0+  Al84  1  0.82305843  0.57335182  0.34716689  1
  Al0+  Al85  1  0.42943516  0.31764103  0.98634779  1
  Al0+  Al86  1  0.82046623  0.06965096  0.68009314  1
  Al0+  Al87  1  0.82375810  0.07275718  0.01546013  1
  Al0+  Al88  1  0.18195608  0.92915204  0.34535998  1
  Al0+  Al89  1  0.93032483  0.82006661  0.64990021  1
  Al0+  Al90  1  0.57139972  0.68023530  0.31882028  1
  Al0+  Al91  1  0.67697976  0.42933630  0.68482455  1
  Al0+  Al92  1  0.32062010  0.07054855  0.01458311  1
  Al0+  Al93  1  0.57050647  0.68044060  0.98418737  1
  Al0+  Al94  1  0.31883968  0.56894282  0.34489581  1
  Al0+  Al95  1  0.67661745  0.42927923  0.34682021  1
  Si0+  Si96  1  0.57365917  0.18059223  0.31803806  1
  Si0+  Si97  1  0.81977234  0.56980056  0.01394711  1
  Si0+  Si98  1  0.07328747  0.67589438  0.64988832  1
  Si0+  Si99  1  0.42775460  0.32059372  0.31729863  1
  Si0+  Si100  1  0.93103875  0.82169141  0.31806417  1
  Si0+  Si101  1  0.56963001  0.68034620  0.64921658  1
  Si0+  Si102  1  0.07405412  0.67471120  0.98347624  1
  Si0+  Si103  1  0.92699419  0.32338591  0.98584314  1
  Si0+  Si104  1  0.92919129  0.32090277  0.31896792  1
  Si0+  Si105  1  0.57363108  0.17614323  0.98446122  1
  Si0+  Si106  1  0.07031308  0.17839474  0.31486562  1
  Si0+  Si107  1  0.06899877  0.18135581  0.98568557  1
  Si0+  Si108  1  0.92580684  0.32466837  0.65053931  1
  Si0+  Si109  1  0.17915487  0.92599258  0.01573918  1
  Si0+  Si110  1  0.17706562  0.42553995  0.35008204  1
  Si0+  Si111  1  0.32248465  0.07524756  0.34949844  1
  Si0+  Si112  1  0.67656629  0.43052647  0.01356783  1
  Si0+  Si113  1  0.42743931  0.82202150  0.65408051  1
  Si0+  Si114  1  0.42568340  0.82434974  0.98213817  1
  Si0+  Si115  1  0.07099181  0.67609111  0.31901253  1
  Si0+  Si116  1  0.67702117  0.92737743  0.68251332  1
  Si0+  Si117  1  0.57416131  0.17692732  0.65033114  1
  Si0+  Si118  1  0.32379123  0.57255153  0.01625867  1
  Si0+  Si119  1  0.32388171  0.57303335  0.68506773  1
  O2-  O120  1  0.25246703  -0.01081765  0.06055033  1
  O2-  O121  1  0.26066645  -0.00014120  0.39126427  1
  O2-  O122  1  0.25136071  -0.00174484  0.73147884  1
  O2-  O123  1  0.25210910  0.50618542  0.05978153  1
  O2-  O124  1  0.24624694  0.49317564  0.39340756  1
  O2-  O125  1  0.25544335  0.50355407  0.72803305  1
  O2-  O126  1  0.74957782  0.00218311  0.06326028  1
  O2-  O127  1  0.75001419  -0.00123435  0.39994680  1
  O2-  O128  1  0.74511617  -0.00373445  0.72679936  1
  O2-  O129  1  0.74902692  0.49918509  0.05685670  1
  O2-  O130  1  0.74755583  0.50359319  0.39428668  1
  O2-  O131  1  0.75017537  0.49978658  0.73536891  1
  O2-  O132  1  -0.00084809  0.24987619  0.27370985  1
  O2-  O133  1  -0.00785135  0.25415522  0.60485613  1
  O2-  O134  1  -0.00599048  0.24861931  0.94408386  1
  O2-  O135  1  -0.00240057  0.74511253  0.27672755  1
  O2-  O136  1  0.00691479  0.74594937  0.60432340  1
  O2-  O137  1  0.00932292  0.74665342  0.93947355  1
  O2-  O138  1  0.50020224  0.25040331  0.27613725  1
  O2-  O139  1  0.50578045  0.24585802  0.60467907  1
  O2-  O140  1  0.50311438  0.24216578  0.93887493  1
  O2-  O141  1  0.50288139  0.75626795  0.26865179  1
  O2-  O142  1  0.49701151  0.75083440  0.60974037  1
  O2-  O143  1  0.49685643  0.75759728  0.93833553  1
  O2-  O144  1  0.06907825  0.18250576  0.09122997  1
  O2-  O145  1  0.07281366  0.17938644  0.41953853  1
  O2-  O146  1  0.06978627  0.18326913  0.76529626  1
  O2-  O147  1  0.07279256  0.67385035  0.08951182  1
  O2-  O148  1  0.07206157  0.67485783  0.42373165  1
  O2-  O149  1  0.07222323  0.67448251  0.75552752  1
  O2-  O150  1  0.57391425  0.18106882  0.09036803  1
  O2-  O151  1  0.57405539  0.18115851  0.42295695  1
  O2-  O152  1  0.57327200  0.17652727  0.75587501  1
  O2-  O153  1  0.57029691  0.67750916  0.09687603  1
  O2-  O154  1  0.56729032  0.67878987  0.43247955  1
  O2-  O155  1  0.56957151  0.68114495  0.75474184  1
  O2-  O156  1  0.17670547  0.42633782  0.24425204  1
  O2-  O157  1  0.18344111  0.43191238  0.56471494  1
  O2-  O158  1  0.17920879  0.42752005  0.90210884  1
  O2-  O159  1  0.17947189  0.93213205  0.23181123  1
  O2-  O160  1  0.18023609  0.92801475  0.56961058  1
  O2-  O161  1  0.17771354  0.92879948  0.91066379  1
  O2-  O162  1  0.67828839  0.42852028  0.23219948  1
  O2-  O163  1  0.67675024  0.43255926  0.57143027  1
  O2-  O164  1  0.67822447  0.43095405  0.90899187  1
  O2-  O165  1  0.68133855  0.92842614  0.23586194  1
  O2-  O166  1  0.67556752  0.92853467  0.57712273  1
  O2-  O167  1  0.68369689  0.92718291  0.90075601  1
  O2-  O168  1  0.43218782  0.31901579  0.10005671  1
  O2-  O169  1  0.42442836  0.31906453  0.42211288  1
  O2-  O170  1  0.42787188  0.31701026  0.76400501  1
  O2-  O171  1  0.42038101  0.82106742  0.08711192  1
  O2-  O172  1  0.42453927  0.81864019  0.43352534  1
  O2-  O173  1  0.42988640  0.82097507  0.75925740  1
  O2-  O174  1  0.92885257  0.32639195  0.09113081  1
  O2-  O175  1  0.93202151  0.32192199  0.42351603  1
  O2-  O176  1  0.92882087  0.32422348  0.75668742  1
  O2-  O177  1  0.93342072  0.81751536  0.10044211  1
  O2-  O178  1  0.93391186  0.82384770  0.42283010  1
  O2-  O179  1  0.93052241  0.81971515  0.76331026  1
  O2-  O180  1  0.31796376  0.08033387  0.24380490  1
  O2-  O181  1  0.32074463  0.06905098  0.56587751  1
  O2-  O182  1  0.31593315  0.07345212  0.90193834  1
  O2-  O183  1  0.31778262  0.56660085  0.23158787  1
  O2-  O184  1  0.32300202  0.57359891  0.57925744  1
  O2-  O185  1  0.32351767  0.57321844  0.91080500  1
  O2-  O186  1  0.82131964  0.06923364  0.23574505  1
  O2-  O187  1  0.81927839  0.06760835  0.56727466  1
  O2-  O188  1  0.82508473  0.07184971  0.90196882  1
  O2-  O189  1  0.82552765  0.56986537  0.23273615  1
  O2-  O190  1  0.81813129  0.57212461  0.57069534  1
  O2-  O191  1  0.82065701  0.56782313  0.90931185  1
  O2-  O192  1  0.04212526  0.08700075  0.26643269  1
  O2-  O193  1  0.03909756  0.08448539  0.59695824  1
  O2-  O194  1  0.04651246  0.08846558  0.93825700  1
  O2-  O195  1  0.04655910  0.58288977  0.27098646  1
  O2-  O196  1  0.04627665  0.58270354  0.60289491  1
  O2-  O197  1  0.04415176  0.58162349  0.93815638  1
  O2-  O198  1  0.54691809  0.08929426  0.26877279  1
  O2-  O199  1  0.54898182  0.08292475  0.60397615  1
  O2-  O200  1  0.55192676  0.08022408  0.94219864  1
  O2-  O201  1  0.53843702  0.58177343  0.26652285  1
  O2-  O202  1  0.54196855  0.58840474  0.60288480  1
  O2-  O203  1  0.53683181  0.58639464  0.92605050  1
  O2-  O204  1  0.16135741  0.20717018  0.26483789  1
  O2-  O205  1  0.16344808  0.21387657  0.59439070  1
  O2-  O206  1  0.15937492  0.21448785  0.93958787  1
  O2-  O207  1  0.16091857  0.70678262  0.26954480  1
  O2-  O208  1  0.16929915  0.69885585  0.60648522  1
  O2-  O209  1  0.16947353  0.69314854  0.93811269  1
  O2-  O210  1  0.66500191  0.21022880  0.27002812  1
  O2-  O211  1  0.66788409  0.20427253  0.60478123  1
  O2-  O212  1  0.66727268  0.20373035  0.93859635  1
  O2-  O213  1  0.67215123  0.70484888  0.26693582  1
  O2-  O214  1  0.66100523  0.70788096  0.60194847  1
  O2-  O215  1  0.66619939  0.71026956  0.92746120  1
  O2-  O216  1  0.08233957  0.45864512  0.07093315  1
  O2-  O217  1  0.08404146  0.45026977  0.39620792  1
  O2-  O218  1  0.08530959  0.45866256  0.73437047  1
  O2-  O219  1  0.08830419  0.95777198  0.06371993  1
  O2-  O220  1  0.08848028  0.96552808  0.40081638  1
  O2-  O221  1  0.08045344  0.96029310  0.73413557  1
  O2-  O222  1  0.58429544  0.46038595  0.05835332  1
  O2-  O223  1  0.57802936  0.45373379  0.39953476  1
  O2-  O224  1  0.57898467  0.46135327  0.73698165  1
  O2-  O225  1  0.58081709  0.94728239  0.06773848  1
  O2-  O226  1  0.57776407  0.95847244  0.40031917  1
  O2-  O227  1  0.58365220  0.95060906  0.73014757  1
  O2-  O228  1  0.21089739  0.33515899  0.07279321  1
  O2-  O229  1  0.20255526  0.33079717  0.39304087  1
  O2-  O230  1  0.21273092  0.33368312  0.73097503  1
  O2-  O231  1  0.19839303  0.82902283  0.05818862  1
  O2-  O232  1  0.20533386  0.83196371  0.40065656  1
  O2-  O233  1  0.20144067  0.82848633  0.73746924  1
  O2-  O234  1  0.70169376  0.33810619  0.06121279  1
  O2-  O235  1  0.70751373  0.33317582  0.40196336  1
  O2-  O236  1  0.70140425  0.33077599  0.73888584  1
  O2-  O237  1  0.71519704  0.82869692  0.06596764  1
  O2-  O238  1  0.70314043  0.83027087  0.40202335  1
  O2-  O239  1  0.70393534  0.83356579  0.72619594  1
  O2-  O240  1  0.45414012  0.41257731  0.27011465  1
  O2-  O241  1  0.45927644  0.41791472  0.59848802  1
  O2-  O242  1  0.45760156  0.41345715  0.93005716  1
  O2-  O243  1  0.44569438  0.92615638  0.27076298  1
  O2-  O244  1  0.45415022  0.91398316  0.60642920  1
  O2-  O245  1  0.44943163  0.91989114  0.93923557  1
  O2-  O246  1  0.95797828  0.41226161  0.26925820  1
  O2-  O247  1  0.95439300  0.41817724  0.60591809  1
  O2-  O248  1  0.95843351  0.41387528  0.93761197  1
  O2-  O249  1  0.96594295  0.91126470  0.26999807  1
  O2-  O250  1  0.96171678  0.91556393  0.59468998  1
  O2-  O251  1  0.96372840  0.91713626  0.93324324  1
  O2-  O252  1  0.33603598  0.29155719  0.26867082  1
  O2-  O253  1  0.33505367  0.28859042  0.59330714  1
  O2-  O254  1  0.33086048  0.28545273  0.93685469  1
  O2-  O255  1  0.32894856  0.78949741  0.26585890  1
  O2-  O256  1  0.33379632  0.79495050  0.60968020  1
  O2-  O257  1  0.33333204  0.79635868  0.93302646  1
  O2-  O258  1  0.83665960  0.29427725  0.27161593  1
  O2-  O259  1  0.83013671  0.30152032  0.60831225  1
  O2-  O260  1  0.83333481  0.30111421  0.93942224  1
  O2-  O261  1  0.83792150  0.79763583  0.27194552  1
  O2-  O262  1  0.83364035  0.78860923  0.59572192  1
  O2-  O263  1  0.83862996  0.78716708  0.93008421  1
  O2-  O264  1  0.41877486  0.04776183  0.06900206  1
  O2-  O265  1  0.41874518  0.06144063  0.39250237  1
  O2-  O266  1  0.42031007  0.04550971  0.73392427  1
  O2-  O267  1  0.41614418  0.54121472  0.06112257  1
  O2-  O268  1  0.41352488  0.53884893  0.40166276  1
  O2-  O269  1  0.41742141  0.54758973  0.72973741  1
  O2-  O270  1  0.92230073  0.04322843  0.06784463  1
  O2-  O271  1  0.92101199  0.04174314  0.39949539  1
  O2-  O272  1  0.91672750  0.03754769  0.73258049  1
  O2-  O273  1  0.91159988  0.54323065  0.06226490  1
  O2-  O274  1  0.92004920  0.54136786  0.40137933  1
  O2-  O275  1  0.91930331  0.54756358  0.73743779  1
  O2-  O276  1  0.28283413  0.16287038  0.07245032  1
  O2-  O277  1  0.28802684  0.16603413  0.39665870  1
  O2-  O278  1  0.28857201  0.16864326  0.73018830  1
  O2-  O279  1  0.30044037  0.66685167  0.06240374  1
  O2-  O280  1  0.28635069  0.66333174  0.40115863  1
  O2-  O281  1  0.29919539  0.66549496  0.73354337  1
  O2-  O282  1  0.79778912  0.17292308  0.06750676  1
  O2-  O283  1  0.79585607  0.16890725  0.40138396  1
  O2-  O284  1  0.79499899  0.16710379  0.73475066  1
  O2-  O285  1  0.79153765  0.66190316  0.05904309  1
  O2-  O286  1  0.80002645  0.67206010  0.39950159  1
  O2-  O287  1  0.78782266  0.67068423  0.73566551  1
