# generated using pymatgen
data_Ca2Al2SiO7
_symmetry_space_group_name_H-M   'P 1'
_cell_length_a   15.46161600
_cell_length_b   15.46115852
_cell_length_c   15.28551128
_cell_angle_alpha   90.01377055
_cell_angle_beta   90.00932728
_cell_angle_gamma   90.02957514
_symmetry_Int_Tables_number   1
_chemical_formula_structural   Ca2Al2SiO7
_chemical_formula_sum   'Ca48 Al48 Si24 O168'
_cell_volume   3654.06955486
_cell_formula_units_Z   24
loop_
 _symmetry_equiv_pos_site_id
 _symmetry_equiv_pos_as_xyz
  1  'x, y, z'
loop_
 _atom_type_symbol
 _atom_type_oxidation_number
  Ca2+  2.0
  Al0+  0.0
  Si0+  0.0
  O2-  -2.0
loop_
 _atom_site_type_symbol
 _atom_site_label
 _atom_site_symmetry_multiplicity
 _atom_site_fract_x
 _atom_site_fract_y
 _atom_site_fract_z
 _atom_site_occupancy
  Ca2+  Ca0  1  0.16706314  0.07847001  0.17184046  1
  Ca2+  Ca1  1  0.16855324  0.08368263  0.50029906  1
  Ca2+  Ca2  1  0.16248121  0.08355448  0.84005298  1
  Ca2+  Ca3  1  0.17262834  0.56974366  0.17338446  1
  Ca2+  Ca4  1  0.17585917  0.58062850  0.50114215  1
  Ca2+  Ca5  1  0.17379758  0.57543724  0.83685529  1
  Ca2+  Ca6  1  0.66919812  0.07308049  0.17621964  1
  Ca2+  Ca7  1  0.66756660  0.07818948  0.50530705  1
  Ca2+  Ca8  1  0.65635522  0.07410490  0.83268302  1
  Ca2+  Ca9  1  0.67040846  0.57135883  0.16681788  1
  Ca2+  Ca10  1  0.66882615  0.57107622  0.51074365  1
  Ca2+  Ca11  1  0.67340781  0.57744502  0.83470970  1
  Ca2+  Ca12  1  0.08150258  0.33270213  0.15917979  1
  Ca2+  Ca13  1  0.07051322  0.33670126  0.49440623  1
  Ca2+  Ca14  1  0.08210585  0.32536480  0.82628374  1
  Ca2+  Ca15  1  0.08667204  0.83662468  0.16176289  1
  Ca2+  Ca16  1  0.08459425  0.83187558  0.49354742  1
  Ca2+  Ca17  1  0.08172058  0.83287788  0.82940501  1
  Ca2+  Ca18  1  0.57865376  0.33751494  0.16112317  1
  Ca2+  Ca19  1  0.59301411  0.33004284  0.49619885  1
  Ca2+  Ca20  1  0.58410099  0.33457688  0.82787068  1
  Ca2+  Ca21  1  0.58729622  0.83430221  0.16232067  1
  Ca2+  Ca22  1  0.58599773  0.82986190  0.50004909  1
  Ca2+  Ca23  1  0.58170366  0.82917107  0.81979374  1
  Ca2+  Ca24  1  0.32295488  0.41254474  0.17234108  1
  Ca2+  Ca25  1  0.32993152  0.42661462  0.50252597  1
  Ca2+  Ca26  1  0.33511067  0.42039013  0.83939337  1
  Ca2+  Ca27  1  0.32233669  0.92498692  0.17489141  1
  Ca2+  Ca28  1  0.33311112  0.91937874  0.50109990  1
  Ca2+  Ca29  1  0.33053772  0.91749148  0.83634008  1
  Ca2+  Ca30  1  0.82521858  0.41320916  0.17168141  1
  Ca2+  Ca31  1  0.82861427  0.41396349  0.50740389  1
  Ca2+  Ca32  1  0.82745865  0.42067352  0.83376707  1
  Ca2+  Ca33  1  0.82430780  0.92503024  0.17257487  1
  Ca2+  Ca34  1  0.82435415  0.92357373  0.50247669  1
  Ca2+  Ca35  1  0.81854520  0.91557408  0.83741178  1
  Ca2+  Ca36  1  0.41431683  0.17109025  0.16221392  1
  Ca2+  Ca37  1  0.42273619  0.16377959  0.49825426  1
  Ca2+  Ca38  1  0.42118140  0.17704441  0.82910990  1
  Ca2+  Ca39  1  0.41560080  0.66512487  0.16513698  1
  Ca2+  Ca40  1  0.41597327  0.66616692  0.49952185  1
  Ca2+  Ca41  1  0.42367732  0.67350688  0.81987578  1
  Ca2+  Ca42  1  0.91893441  0.16959589  0.16535338  1
  Ca2+  Ca43  1  0.91446613  0.17723532  0.49493463  1
  Ca2+  Ca44  1  0.92872555  0.17151908  0.82435660  1
  Ca2+  Ca45  1  0.91503183  0.66790225  0.16143413  1
  Ca2+  Ca46  1  0.91349995  0.66535932  0.49734272  1
  Ca2+  Ca47  1  0.91239531  0.66147355  0.82892392  1
  Al0+  Al48  1  -0.00099763  -0.00127792  -0.00147046  1
  Al0+  Al49  1  -0.00141298  0.00001714  0.33928658  1
  Al0+  Al50  1  0.00057292  -0.00107487  0.66257034  1
  Al0+  Al51  1  0.00192195  0.50206236  0.00500802  1
  Al0+  Al52  1  -0.00044453  0.50048844  0.32888105  1
  Al0+  Al53  1  0.00121420  0.49996871  0.66601140  1
  Al0+  Al54  1  0.49824614  -0.00023615  0.00416727  1
  Al0+  Al55  1  0.49822242  -0.00248147  0.33705573  1
  Al0+  Al56  1  0.49678327  0.00188231  0.66372640  1
  Al0+  Al57  1  0.50237643  0.50250286  -0.00210388  1
  Al0+  Al58  1  0.50147412  0.50008515  0.33813028  1
  Al0+  Al59  1  0.49905348  0.50168273  0.67080376  1
  Al0+  Al60  1  0.25158781  0.25088973  -0.00617194  1
  Al0+  Al61  1  0.24929340  0.24956418  0.34225443  1
  Al0+  Al62  1  0.25086513  0.24749738  0.66223596  1
  Al0+  Al63  1  0.24931305  0.75079228  0.00154302  1
  Al0+  Al64  1  0.25089621  0.75019407  0.33609892  1
  Al0+  Al65  1  0.24947751  0.75048905  0.66713652  1
  Al0+  Al66  1  0.75040522  0.24900145  0.00084837  1
  Al0+  Al67  1  0.75072999  0.24870637  0.33202239  1
  Al0+  Al68  1  0.75141115  0.24863521  0.66523407  1
  Al0+  Al69  1  0.75045294  0.75082643  0.00700355  1
  Al0+  Al70  1  0.74962053  0.74940319  0.33182714  1
  Al0+  Al71  1  0.74947927  0.75020015  0.66813622  1
  Al0+  Al72  1  0.67859232  0.42707618  0.01538543  1
  Al0+  Al73  1  0.82199913  0.57107618  0.01658865  1
  Al0+  Al74  1  0.42725718  0.82153370  0.65009028  1
  Al0+  Al75  1  0.17566096  0.42780710  0.34902758  1
  Al0+  Al76  1  0.06946226  0.17931603  0.98793204  1
  Al0+  Al77  1  0.07315836  0.17616799  0.64818573  1
  Al0+  Al78  1  0.57007759  0.18095748  0.65373688  1
  Al0+  Al79  1  0.57212789  0.67870620  0.65070054  1
  Al0+  Al80  1  0.67713181  0.93071294  0.01330222  1
  Al0+  Al81  1  0.32015829  0.57193986  0.68226819  1
  Al0+  Al82  1  0.32121764  0.07261011  0.34937302  1
  Al0+  Al83  1  0.17827069  0.92916232  0.34921389  1
  Al0+  Al84  1  0.32189708  0.57031704  0.34735944  1
  Al0+  Al85  1  0.67880534  0.42541275  0.68201694  1
  Al0+  Al86  1  0.92853203  0.32124715  0.31605672  1
  Al0+  Al87  1  0.93111672  0.32144980  0.65226388  1
  Al0+  Al88  1  0.82283041  0.57124245  0.67999804  1
  Al0+  Al89  1  0.68037862  0.42943740  0.34640310  1
  Al0+  Al90  1  0.81993240  0.07176754  0.34889087  1
  Al0+  Al91  1  0.43094657  0.32188472  0.98805648  1
  Al0+  Al92  1  0.17804951  0.92912558  0.01167475  1
  Al0+  Al93  1  0.67789294  0.92658397  0.35001562  1
  Al0+  Al94  1  0.67841936  0.93181243  0.67989677  1
  Al0+  Al95  1  0.18173445  0.42759180  0.01117507  1
  Si0+  Si96  1  0.57272858  0.17544410  0.98581995  1
  Si0+  Si97  1  0.57223360  0.68217627  0.98528064  1
  Si0+  Si98  1  0.32085359  0.07235805  0.01476862  1
  Si0+  Si99  1  0.07244841  0.17778986  0.31642484  1
  Si0+  Si100  1  0.42832583  0.82057692  0.31537719  1
  Si0+  Si101  1  0.42772191  0.32414463  0.64879146  1
  Si0+  Si102  1  0.07251052  0.67868014  0.98451358  1
  Si0+  Si103  1  0.92877100  0.82133524  0.31719361  1
  Si0+  Si104  1  0.42934596  0.32158074  0.32086494  1
  Si0+  Si105  1  0.32046160  0.07150411  0.68436994  1
  Si0+  Si106  1  0.82394606  0.07117937  0.68478897  1
  Si0+  Si107  1  0.82219228  0.57216370  0.34813969  1
  Si0+  Si108  1  0.07109479  0.67977272  0.65217473  1
  Si0+  Si109  1  0.42751816  0.82132233  0.98672966  1
  Si0+  Si110  1  0.92704600  0.32474902  0.98316817  1
  Si0+  Si111  1  0.17977409  0.42726782  0.68285852  1
  Si0+  Si112  1  0.92789248  0.82066668  0.65158378  1
  Si0+  Si113  1  0.92901947  0.81945786  0.98495279  1
  Si0+  Si114  1  0.56982160  0.17724770  0.31807242  1
  Si0+  Si115  1  0.82342793  0.07098130  0.01444640  1
  Si0+  Si116  1  0.57120031  0.67793019  0.31599485  1
  Si0+  Si117  1  0.17793908  0.92928814  0.68251978  1
  Si0+  Si118  1  0.32271253  0.57296889  0.01523643  1
  Si0+  Si119  1  0.07262761  0.68060340  0.31627525  1
  O2-  O120  1  0.25077895  0.00487211  0.05826510  1
  O2-  O121  1  0.24864397  0.00139211  0.40007563  1
  O2-  O122  1  0.24652756  0.00230057  0.72523352  1
  O2-  O123  1  0.25774531  0.50088393  0.05873874  1
  O2-  O124  1  0.24907848  0.49923132  0.39711476  1
  O2-  O125  1  0.25043597  0.49287417  0.72909098  1
  O2-  O126  1  0.74805993  0.00923841  0.05834763  1
  O2-  O127  1  0.74686458  0.00109529  0.39911645  1
  O2-  O128  1  0.75253459  0.00559918  0.72989927  1
  O2-  O129  1  0.75477081  0.49455764  0.06597988  1
  O2-  O130  1  0.75678423  0.50180090  0.39261892  1
  O2-  O131  1  0.75046306  0.49954393  0.72940521  1
  O2-  O132  1  0.00660716  0.24845718  0.27064360  1
  O2-  O133  1  0.00228579  0.24947885  0.60007989  1
  O2-  O134  1  -0.00406542  0.25511141  0.94057064  1
  O2-  O135  1  0.00135131  0.75194965  0.27401846  1
  O2-  O136  1  -0.00274269  0.74770149  0.60972069  1
  O2-  O137  1  -0.00067984  0.74772250  0.94208921  1
  O2-  O138  1  0.49801889  0.24837908  0.27701613  1
  O2-  O139  1  0.50138107  0.26059237  0.60510732  1
  O2-  O140  1  0.50932925  0.24971845  0.94285232  1
  O2-  O141  1  0.50059589  0.75021432  0.27314781  1
  O2-  O142  1  0.49929862  0.74974254  0.59973540  1
  O2-  O143  1  0.50033467  0.75306253  0.94393472  1
  O2-  O144  1  0.06860679  0.17804664  0.10092723  1
  O2-  O145  1  0.06983649  0.17774219  0.42151221  1
  O2-  O146  1  0.07177920  0.17573650  0.76255467  1
  O2-  O147  1  0.07504111  0.68141938  0.08945236  1
  O2-  O148  1  0.07173403  0.68135820  0.42162758  1
  O2-  O149  1  0.07276487  0.68229830  0.75756115  1
  O2-  O150  1  0.56913198  0.17142118  0.09144049  1
  O2-  O151  1  0.56991922  0.17787579  0.42303036  1
  O2-  O152  1  0.56455479  0.17821442  0.76720607  1
  O2-  O153  1  0.57045923  0.68242683  0.09082593  1
  O2-  O154  1  0.57239234  0.67785420  0.42035709  1
  O2-  O155  1  0.57181716  0.68267065  0.76508867  1
  O2-  O156  1  0.17846710  0.42772113  0.23481196  1
  O2-  O157  1  0.17958435  0.43141305  0.57755907  1
  O2-  O158  1  0.18266229  0.43000518  0.89810895  1
  O2-  O159  1  0.17976766  0.92955668  0.23514102  1
  O2-  O160  1  0.17807335  0.92746576  0.57793942  1
  O2-  O161  1  0.17991427  0.92742635  0.89855436  1
  O2-  O162  1  0.67745630  0.43142273  0.23325314  1
  O2-  O163  1  0.68147044  0.42611903  0.56830050  1
  O2-  O164  1  0.67720214  0.42949937  0.90255421  1
  O2-  O165  1  0.68020266  0.92780736  0.23575862  1
  O2-  O166  1  0.68169582  0.93220647  0.56750121  1
  O2-  O167  1  0.67657159  0.92935227  0.90024736  1
  O2-  O168  1  0.42867423  0.31881163  0.10162175  1
  O2-  O169  1  0.43220094  0.32279402  0.42560917  1
  O2-  O170  1  0.42461868  0.32018473  0.75475223  1
  O2-  O171  1  0.42626797  0.81977613  0.09181974  1
  O2-  O172  1  0.42671662  0.82000095  0.41978554  1
  O2-  O173  1  0.42697554  0.82097272  0.76482507  1
  O2-  O174  1  0.92768264  0.32279066  0.08888299  1
  O2-  O175  1  0.92818123  0.32188116  0.42863670  1
  O2-  O176  1  0.93430044  0.32128080  0.76641275  1
  O2-  O177  1  0.93020406  0.81984977  0.09015818  1
  O2-  O178  1  0.92776705  0.81793967  0.42231016  1
  O2-  O179  1  0.93032481  0.82284974  0.75702188  1
  O2-  O180  1  0.32091886  0.07149169  0.23505741  1
  O2-  O181  1  0.32177013  0.07053907  0.57974864  1
  O2-  O182  1  0.32320988  0.06975832  0.90922295  1
  O2-  O183  1  0.32088070  0.56913181  0.23314518  1
  O2-  O184  1  0.31574729  0.57284089  0.56957028  1
  O2-  O185  1  0.31940433  0.57545319  0.90984337  1
  O2-  O186  1  0.81881568  0.06927689  0.23446515  1
  O2-  O187  1  0.82415152  0.06785059  0.57950766  1
  O2-  O188  1  0.82684323  0.06638120  0.90913969  1
  O2-  O189  1  0.81952557  0.57377896  0.24252212  1
  O2-  O190  1  0.82333104  0.57161094  0.56638263  1
  O2-  O191  1  0.81936575  0.57381024  0.90354521  1
  O2-  O192  1  0.04424755  0.08320898  0.27203887  1
  O2-  O193  1  0.04584068  0.07692647  0.59654906  1
  O2-  O194  1  0.03811970  0.08242312  0.93278928  1
  O2-  O195  1  0.04489914  0.58946583  0.26728927  1
  O2-  O196  1  0.04720961  0.58774837  0.60410774  1
  O2-  O197  1  0.04718787  0.58634864  0.93677520  1
  O2-  O198  1  0.54118847  0.08462169  0.27145370  1
  O2-  O199  1  0.53318199  0.08751021  0.59776789  1
  O2-  O200  1  0.54013696  0.08380790  0.93801145  1
  O2-  O201  1  0.54043857  0.58661903  0.26813454  1
  O2-  O202  1  0.54349398  0.57925413  0.60037128  1
  O2-  O203  1  0.54623689  0.59070435  0.93703511  1
  O2-  O204  1  0.16883091  0.20000379  0.27392426  1
  O2-  O205  1  0.17311052  0.20025127  0.59720342  1
  O2-  O206  1  0.16621522  0.20743300  0.93227214  1
  O2-  O207  1  0.16446100  0.70896127  0.26872853  1
  O2-  O208  1  0.16011123  0.71268956  0.60286576  1
  O2-  O209  1  0.16321493  0.70963261  0.93549616  1
  O2-  O210  1  0.66097239  0.20451728  0.26951895  1
  O2-  O211  1  0.66881029  0.20308139  0.60055959  1
  O2-  O212  1  0.66877685  0.19287114  0.94142857  1
  O2-  O213  1  0.66288705  0.70614955  0.26711370  1
  O2-  O214  1  0.67040294  0.70847850  0.59800320  1
  O2-  O215  1  0.66413692  0.71241844  0.94021102  1
  O2-  O216  1  0.08673535  0.45950050  0.06681411  1
  O2-  O217  1  0.07825815  0.46153833  0.39987703  1
  O2-  O218  1  0.08780641  0.45658240  0.72943506  1
  O2-  O219  1  0.08072829  0.95676897  0.06526016  1
  O2-  O220  1  0.07928344  0.95206871  0.40198508  1
  O2-  O221  1  0.08473453  0.95432794  0.72936736  1
  O2-  O222  1  0.58139540  0.46221893  0.06853417  1
  O2-  O223  1  0.58567275  0.46063214  0.40197377  1
  O2-  O224  1  0.57932532  0.45202705  0.73314150  1
  O2-  O225  1  0.57991476  0.95687681  0.06894700  1
  O2-  O226  1  0.57831402  0.94998658  0.39972144  1
  O2-  O227  1  0.58072528  0.96334897  0.73197573  1
  O2-  O228  1  0.21286304  0.33123880  0.06506269  1
  O2-  O229  1  0.20078323  0.33059778  0.40334064  1
  O2-  O230  1  0.20344613  0.33142222  0.72510072  1
  O2-  O231  1  0.20958192  0.83340969  0.06714508  1
  O2-  O232  1  0.20747970  0.83117281  0.40138766  1
  O2-  O233  1  0.20689612  0.83831586  0.73103797  1
  O2-  O234  1  0.69998712  0.32574696  0.06652969  1
  O2-  O235  1  0.70838051  0.33160387  0.39676224  1
  O2-  O236  1  0.70731434  0.32692847  0.73514852  1
  O2-  O237  1  0.71208447  0.83715743  0.06959050  1
  O2-  O238  1  0.70983374  0.82855591  0.40038318  1
  O2-  O239  1  0.71080394  0.83577481  0.73394051  1
  O2-  O240  1  0.45925283  0.41263346  0.27251670  1
  O2-  O241  1  0.44588839  0.42041938  0.60700191  1
  O2-  O242  1  0.45784218  0.41989658  0.93391620  1
  O2-  O243  1  0.45499689  0.91305626  0.26767157  1
  O2-  O244  1  0.45360376  0.92012137  0.59829714  1
  O2-  O245  1  0.45176083  0.91503921  0.94107633  1
  O2-  O246  1  0.95610740  0.41934327  0.26195618  1
  O2-  O247  1  0.95995969  0.41985693  0.59824302  1
  O2-  O248  1  0.95379746  0.41943130  0.94052935  1
  O2-  O249  1  0.95530264  0.91417503  0.27094434  1
  O2-  O250  1  0.95835515  0.91034872  0.60198393  1
  O2-  O251  1  0.95751429  0.90972752  0.93522719  1
  O2-  O252  1  0.33552572  0.29447174  0.27601683  1
  O2-  O253  1  0.33662930  0.29282976  0.60124306  1
  O2-  O254  1  0.33762815  0.28886282  0.92867702  1
  O2-  O255  1  0.33657866  0.79103155  0.26719054  1
  O2-  O256  1  0.32838284  0.79218341  0.59819436  1
  O2-  O257  1  0.33625895  0.79240053  0.93802925  1
  O2-  O258  1  0.83286489  0.28610372  0.26095586  1
  O2-  O259  1  0.83289175  0.29261554  0.59984824  1
  O2-  O260  1  0.83261476  0.29999604  0.93814407  1
  O2-  O261  1  0.83777974  0.79165199  0.26766953  1
  O2-  O262  1  0.83674530  0.79433815  0.60326146  1
  O2-  O263  1  0.83641640  0.79140648  0.93881698  1
  O2-  O264  1  0.41249278  0.04554338  0.06431186  1
  O2-  O265  1  0.41802609  0.04107716  0.40281459  1
  O2-  O266  1  0.41017221  0.04098701  0.73381848  1
  O2-  O267  1  0.41811149  0.55291278  0.05855130  1
  O2-  O268  1  0.41878905  0.54219359  0.40176522  1
  O2-  O269  1  0.41721985  0.54650477  0.73723696  1
  O2-  O270  1  0.91264345  0.03695710  0.06411382  1
  O2-  O271  1  0.91654073  0.04250552  0.40313434  1
  O2-  O272  1  0.91704401  0.04063669  0.72992701  1
  O2-  O273  1  0.92308528  0.55219469  0.06790855  1
  O2-  O274  1  0.91780762  0.55215807  0.39074832  1
  O2-  O275  1  0.92233639  0.54495418  0.73344508  1
  O2-  O276  1  0.29622218  0.16615638  0.05932648  1
  O2-  O277  1  0.29751299  0.16976176  0.40575240  1
  O2-  O278  1  0.29452418  0.16436244  0.73144710  1
  O2-  O279  1  0.29289468  0.66472722  0.06300401  1
  O2-  O280  1  0.29318204  0.66811716  0.39979055  1
  O2-  O281  1  0.28459951  0.66740496  0.73661384  1
  O2-  O282  1  0.80587183  0.16681794  0.05842096  1
  O2-  O283  1  0.79120328  0.16912497  0.40138923  1
  O2-  O284  1  0.80209867  0.16545395  0.72946753  1
  O2-  O285  1  0.79009300  0.66775056  0.07194783  1
  O2-  O286  1  0.79587982  0.66545977  0.39352639  1
  O2-  O287  1  0.79626058  0.67016995  0.73335852  1
