# generated using pymatgen
data_Ca2Al2SiO7
_symmetry_space_group_name_H-M   'P 1'
_cell_length_a   15.45783076
_cell_length_b   15.45762905
_cell_length_c   15.28388950
_cell_angle_alpha   90.00250849
_cell_angle_beta   90.00803036
_cell_angle_gamma   89.99153634
_symmetry_Int_Tables_number   1
_chemical_formula_structural   Ca2Al2SiO7
_chemical_formula_sum   'Ca48 Al48 Si24 O168'
_cell_volume   3651.95408781
_cell_formula_units_Z   24
loop_
 _symmetry_equiv_pos_site_id
 _symmetry_equiv_pos_as_xyz
  1  'x, y, z'
loop_
 _atom_type_symbol
 _atom_type_oxidation_number
  Ca2+  2.0
  Al0+  0.0
  Si0+  0.0
  O2-  -2.0
loop_
 _atom_site_type_symbol
 _atom_site_label
 _atom_site_symmetry_multiplicity
 _atom_site_fract_x
 _atom_site_fract_y
 _atom_site_fract_z
 _atom_site_occupancy
  Ca2+  Ca0  1  0.16313143  0.08052991  0.16566803  1
  Ca2+  Ca1  1  0.17354376  0.08561500  0.51154379  1
  Ca2+  Ca2  1  0.16975066  0.08398586  0.83709777  1
  Ca2+  Ca3  1  0.17327745  0.57234100  0.17050600  1
  Ca2+  Ca4  1  0.16170324  0.57348712  0.50377725  1
  Ca2+  Ca5  1  0.16995334  0.57291118  0.84061094  1
  Ca2+  Ca6  1  0.66820270  0.08707107  0.17796143  1
  Ca2+  Ca7  1  0.67161795  0.08002000  0.50554725  1
  Ca2+  Ca8  1  0.66659225  0.08406172  0.83426074  1
  Ca2+  Ca9  1  0.66864872  0.57430494  0.17328834  1
  Ca2+  Ca10  1  0.66015105  0.57881827  0.50449581  1
  Ca2+  Ca11  1  0.66440204  0.58624086  0.83412230  1
  Ca2+  Ca12  1  0.08068910  0.33133947  0.15831627  1
  Ca2+  Ca13  1  0.08794382  0.32986283  0.49885660  1
  Ca2+  Ca14  1  0.08930329  0.32735575  0.82927807  1
  Ca2+  Ca15  1  0.08709201  0.82845675  0.16109502  1
  Ca2+  Ca16  1  0.08844791  0.81783971  0.49503445  1
  Ca2+  Ca17  1  0.08995948  0.82676565  0.82680588  1
  Ca2+  Ca18  1  0.58116570  0.32561622  0.16100681  1
  Ca2+  Ca19  1  0.57015064  0.33048951  0.48921237  1
  Ca2+  Ca20  1  0.56955574  0.32891805  0.83095113  1
  Ca2+  Ca21  1  0.57766060  0.83611074  0.16118828  1
  Ca2+  Ca22  1  0.58613495  0.83760342  0.50142829  1
  Ca2+  Ca23  1  0.57309034  0.82954264  0.82348751  1
  Ca2+  Ca24  1  0.32760454  0.40852726  0.16802392  1
  Ca2+  Ca25  1  0.32495378  0.40827381  0.50640639  1
  Ca2+  Ca26  1  0.32693881  0.41683501  0.84004834  1
  Ca2+  Ca27  1  0.32975563  0.91438254  0.16456821  1
  Ca2+  Ca28  1  0.33758478  0.92647470  0.50857965  1
  Ca2+  Ca29  1  0.33505181  0.91951095  0.83820490  1
  Ca2+  Ca30  1  0.82775289  0.41024109  0.17183457  1
  Ca2+  Ca31  1  0.82345077  0.41433144  0.50082982  1
  Ca2+  Ca32  1  0.83441055  0.41496296  0.83761256  1
  Ca2+  Ca33  1  0.82365280  0.92795554  0.17859981  1
  Ca2+  Ca34  1  0.82293771  0.92669086  0.50623093  1
  Ca2+  Ca35  1  0.82904949  0.92139782  0.83291788  1
  Ca2+  Ca36  1  0.42875850  0.17695622  0.16217737  1
  Ca2+  Ca37  1  0.41571456  0.17558979  0.49579031  1
  Ca2+  Ca38  1  0.41079836  0.17604571  0.82898905  1
  Ca2+  Ca39  1  0.41377255  0.67039179  0.15917531  1
  Ca2+  Ca40  1  0.41918066  0.67451642  0.50260798  1
  Ca2+  Ca41  1  0.41178326  0.67658270  0.82825787  1
  Ca2+  Ca42  1  0.91805298  0.17230981  0.15788163  1
  Ca2+  Ca43  1  0.91965640  0.15690012  0.50038744  1
  Ca2+  Ca44  1  0.92793918  0.16846386  0.83162144  1
  Ca2+  Ca45  1  0.92390674  0.66526380  0.16612875  1
  Ca2+  Ca46  1  0.92766118  0.66487831  0.49730462  1
  Ca2+  Ca47  1  0.92471608  0.66925563  0.82417091  1
  Al0+  Al48  1  -0.00136840  -0.00028693  0.00183510  1
  Al0+  Al49  1  -0.00012904  -0.00308163  0.33715607  1
  Al0+  Al50  1  -0.00133290  0.00007615  0.66625540  1
  Al0+  Al51  1  -0.00014849  0.50132583  0.00103560  1
  Al0+  Al52  1  0.00265260  0.49930591  0.33187690  1
  Al0+  Al53  1  -0.00176913  0.49822294  0.66619054  1
  Al0+  Al54  1  0.50029071  -0.00198862  -0.00578003  1
  Al0+  Al55  1  0.49883142  0.00058929  0.33252003  1
  Al0+  Al56  1  0.49990960  0.00173681  0.67291685  1
  Al0+  Al57  1  0.50274543  0.50031378  0.00135136  1
  Al0+  Al58  1  0.49706870  0.50396277  0.33316920  1
  Al0+  Al59  1  0.49732930  0.50107262  0.66015551  1
  Al0+  Al60  1  0.25093005  0.24805660  0.00031450  1
  Al0+  Al61  1  0.24879439  0.24969662  0.33155547  1
  Al0+  Al62  1  0.24776334  0.24880518  0.66725578  1
  Al0+  Al63  1  0.25054853  0.74983340  0.00380816  1
  Al0+  Al64  1  0.25047441  0.74722373  0.32865581  1
  Al0+  Al65  1  0.25119856  0.74864548  0.65488866  1
  Al0+  Al66  1  0.75167012  0.25005114  -0.00859820  1
  Al0+  Al67  1  0.75134417  0.25100842  0.34120364  1
  Al0+  Al68  1  0.75057892  0.25118866  0.67281295  1
  Al0+  Al69  1  0.75136273  0.75088069  0.00287658  1
  Al0+  Al70  1  0.75143613  0.75123456  0.33583893  1
  Al0+  Al71  1  0.74997719  0.74918729  0.66641223  1
  Al0+  Al72  1  0.07112221  0.67760587  0.31548361  1
  Al0+  Al73  1  0.57186431  0.67965402  0.65101374  1
  Al0+  Al74  1  0.07117890  0.17726815  0.98619475  1
  Al0+  Al75  1  0.92992180  0.32361844  0.98504960  1
  Al0+  Al76  1  0.17916374  0.42649181  0.01592399  1
  Al0+  Al77  1  0.82261572  0.07321802  0.34892489  1
  Al0+  Al78  1  0.18072923  0.42872635  0.34841356  1
  Al0+  Al79  1  0.42780470  0.31955729  0.65261654  1
  Al0+  Al80  1  0.42818993  0.81828744  0.98691895  1
  Al0+  Al81  1  0.42924152  0.82457923  0.65016161  1
  Al0+  Al82  1  0.67919142  0.92845030  0.68537668  1
  Al0+  Al83  1  0.32269519  0.57080292  0.01424237  1
  Al0+  Al84  1  0.17872923  0.92987454  0.01252012  1
  Al0+  Al85  1  0.17857331  0.42993801  0.68053785  1
  Al0+  Al86  1  0.67586291  0.92921201  0.34830703  1
  Al0+  Al87  1  0.06878437  0.17957543  0.65249495  1
  Al0+  Al88  1  0.42629546  0.32359266  0.31717585  1
  Al0+  Al89  1  0.07111300  0.67740509  0.65345154  1
  Al0+  Al90  1  0.57247549  0.17767997  0.98344124  1
  Al0+  Al91  1  0.57175427  0.18047109  0.32189329  1
  Al0+  Al92  1  0.82297976  0.07293132  0.68704712  1
  Al0+  Al93  1  0.31994559  0.07105280  0.68040978  1
  Al0+  Al94  1  0.67725675  0.43043147  0.34633573  1
  Al0+  Al95  1  0.42925159  0.32252781  0.98463900  1
  Si0+  Si96  1  0.92769513  0.82154325  0.64919508  1
  Si0+  Si97  1  0.32182230  0.57283801  0.68119513  1
  Si0+  Si98  1  0.82220777  0.57399648  0.01540968  1
  Si0+  Si99  1  0.93008292  0.32014324  0.32114469  1
  Si0+  Si100  1  0.17909637  0.92519414  0.67874719  1
  Si0+  Si101  1  0.32460719  0.07166541  0.01852096  1
  Si0+  Si102  1  0.92743127  0.82081715  0.98587564  1
  Si0+  Si103  1  0.82273105  0.57149606  0.34984823  1
  Si0+  Si104  1  0.82041013  0.56932636  0.68104278  1
  Si0+  Si105  1  0.57379469  0.17990325  0.65058813  1
  Si0+  Si106  1  0.07114497  0.17592865  0.31952041  1
  Si0+  Si107  1  0.67873373  0.92817861  0.01528190  1
  Si0+  Si108  1  0.31784396  0.06923854  0.34604493  1
  Si0+  Si109  1  0.07010125  0.68100709  0.98538080  1
  Si0+  Si110  1  0.68199958  0.42893189  0.01304539  1
  Si0+  Si111  1  0.92623973  0.32264249  0.64771337  1
  Si0+  Si112  1  0.92902717  0.82139284  0.31550890  1
  Si0+  Si113  1  0.67526928  0.43029459  0.68232911  1
  Si0+  Si114  1  0.42984025  0.82169198  0.31677744  1
  Si0+  Si115  1  0.17908395  0.92590023  0.34831790  1
  Si0+  Si116  1  0.57345070  0.67962602  0.31723525  1
  Si0+  Si117  1  0.81913057  0.07056054  0.01516628  1
  Si0+  Si118  1  0.32157066  0.57523286  0.35317903  1
  Si0+  Si119  1  0.57539852  0.67864130  0.98613576  1
  O2-  O120  1  0.25227683  0.00497113  0.06161671  1
  O2-  O121  1  0.24691101  -0.00121015  0.39056776  1
  O2-  O122  1  0.24737761  -0.00757873  0.72460642  1
  O2-  O123  1  0.25507379  0.49510756  0.06573221  1
  O2-  O124  1  0.25781077  0.50119608  0.39539281  1
  O2-  O125  1  0.25244670  0.50583835  0.72592861  1
  O2-  O126  1  0.74483965  0.00333440  0.05808856  1
  O2-  O127  1  0.74724448  0.00292497  0.39600672  1
  O2-  O128  1  0.74942508  0.00191590  0.73661980  1
  O2-  O129  1  0.75354092  0.50007060  0.05595699  1
  O2-  O130  1  0.75018935  0.50735482  0.39437771  1
  O2-  O131  1  0.74710115  0.50138574  0.72429480  1
  O2-  O132  1  -0.00252973  0.24525312  0.27966235  1
  O2-  O133  1  -0.00817108  0.25127688  0.60371791  1
  O2-  O134  1  0.00620036  0.25594680  0.93629949  1
  O2-  O135  1  -0.00262059  0.75369532  0.26879184  1
  O2-  O136  1  -0.00036452  0.75547458  0.60586317  1
  O2-  O137  1  -0.00044726  0.75197747  0.94208189  1
  O2-  O138  1  0.50464372  0.25633639  0.27035018  1
  O2-  O139  1  0.50516542  0.24763828  0.60556980  1
  O2-  O140  1  0.49692226  0.24641877  0.93439625  1
  O2-  O141  1  0.50389625  0.75244937  0.27584884  1
  O2-  O142  1  0.50425435  0.75528980  0.60008581  1
  O2-  O143  1  0.50350631  0.74329455  0.94249258  1
  O2-  O144  1  0.06449763  0.17405556  0.10050793  1
  O2-  O145  1  0.07312845  0.17633726  0.42455107  1
  O2-  O146  1  0.07015987  0.18062105  0.76499876  1
  O2-  O147  1  0.06713727  0.68192488  0.09048452  1
  O2-  O148  1  0.06858239  0.67817716  0.42865050  1
  O2-  O149  1  0.06894633  0.67866032  0.76700025  1
  O2-  O150  1  0.57588463  0.18033845  0.09742843  1
  O2-  O151  1  0.56789789  0.17961817  0.43524711  1
  O2-  O152  1  0.57331976  0.18388416  0.75615643  1
  O2-  O153  1  0.58017237  0.68202132  0.09189873  1
  O2-  O154  1  0.57316190  0.67876925  0.42182343  1
  O2-  O155  1  0.57080444  0.67856957  0.76488528  1
  O2-  O156  1  0.17833717  0.42898312  0.23573517  1
  O2-  O157  1  0.17832732  0.43067987  0.56714777  1
  O2-  O158  1  0.17669075  0.43118578  0.90244484  1
  O2-  O159  1  0.17940075  0.92660100  0.24304011  1
  O2-  O160  1  0.18055938  0.92660497  0.57267139  1
  O2-  O161  1  0.17919004  0.92737953  0.89963715  1
  O2-  O162  1  0.68196289  0.43065979  0.23276977  1
  O2-  O163  1  0.67697213  0.43093150  0.57708118  1
  O2-  O164  1  0.68210823  0.43228972  0.90792271  1
  O2-  O165  1  0.67753661  0.92852628  0.23392419  1
  O2-  O166  1  0.68211708  0.92905637  0.57178945  1
  O2-  O167  1  0.68341147  0.92302555  0.91106548  1
  O2-  O168  1  0.43396084  0.32220373  0.09816108  1
  O2-  O169  1  0.42440461  0.31842349  0.43083748  1
  O2-  O170  1  0.42897514  0.32070649  0.76546140  1
  O2-  O171  1  0.43075048  0.81852496  0.10075952  1
  O2-  O172  1  0.42748337  0.82196962  0.42130860  1
  O2-  O173  1  0.42572641  0.81966216  0.76357724  1
  O2-  O174  1  0.92513051  0.32002823  0.09929984  1
  O2-  O175  1  0.93136874  0.32361429  0.42593479  1
  O2-  O176  1  0.92798021  0.32616717  0.75297228  1
  O2-  O177  1  0.92570233  0.81772543  0.09086954  1
  O2-  O178  1  0.93114341  0.82000461  0.42076455  1
  O2-  O179  1  0.92757433  0.81827856  0.75545960  1
  O2-  O180  1  0.31647812  0.06677063  0.24109226  1
  O2-  O181  1  0.31748655  0.07165838  0.56639923  1
  O2-  O182  1  0.32465513  0.06982934  0.91300449  1
  O2-  O183  1  0.31905142  0.58077311  0.24785961  1
  O2-  O184  1  0.32155367  0.57245963  0.57559112  1
  O2-  O185  1  0.31754498  0.57422515  0.90070912  1
  O2-  O186  1  0.82426965  0.07200105  0.23460700  1
  O2-  O187  1  0.82211606  0.07055048  0.57355427  1
  O2-  O188  1  0.82087249  0.06707078  0.91070441  1
  O2-  O189  1  0.82202441  0.57036123  0.24379117  1
  O2-  O190  1  0.82234155  0.56680033  0.57602241  1
  O2-  O191  1  0.82094118  0.57872035  0.91043632  1
  O2-  O192  1  0.04671075  0.08180675  0.27442455  1
  O2-  O193  1  0.04182702  0.08109372  0.59851507  1
  O2-  O194  1  0.03645728  0.08050931  0.93296557  1
  O2-  O195  1  0.03689710  0.58231441  0.26115610  1
  O2-  O196  1  0.03316371  0.58325002  0.59892131  1
  O2-  O197  1  0.04094909  0.58987756  0.93835869  1
  O2-  O198  1  0.54042872  0.08299088  0.26713729  1
  O2-  O199  1  0.55006610  0.08458963  0.60931221  1
  O2-  O200  1  0.54983437  0.07757589  0.93268823  1
  O2-  O201  1  0.54414893  0.58919388  0.26770030  1
  O2-  O202  1  0.54009327  0.58348209  0.59503836  1
  O2-  O203  1  0.55664788  0.58334066  0.94197861  1
  O2-  O204  1  0.16086048  0.20530042  0.27000403  1
  O2-  O205  1  0.16350834  0.21311441  0.59679458  1
  O2-  O206  1  0.17254568  0.19618017  0.93713891  1
  O2-  O207  1  0.16717473  0.70987045  0.26155003  1
  O2-  O208  1  0.16572808  0.70465966  0.59420556  1
  O2-  O209  1  0.16131942  0.71027005  0.93953946  1
  O2-  O210  1  0.67288585  0.20638849  0.27228454  1
  O2-  O211  1  0.66849003  0.20587237  0.60689689  1
  O2-  O212  1  0.66840308  0.20926287  0.92819001  1
  O2-  O213  1  0.66746755  0.70340990  0.27110691  1
  O2-  O214  1  0.67256175  0.70159312  0.59897468  1
  O2-  O215  1  0.66797898  0.70762312  0.93852527  1
  O2-  O216  1  0.08044427  0.45936813  0.06787961  1
  O2-  O217  1  0.08431289  0.46274572  0.40160940  1
  O2-  O218  1  0.08080810  0.45984101  0.73291464  1
  O2-  O219  1  0.08124963  0.95784982  0.06889952  1
  O2-  O220  1  0.08629177  0.94800129  0.39558691  1
  O2-  O221  1  0.08422733  0.94734357  0.72316749  1
  O2-  O222  1  0.59179756  0.45654976  0.06322854  1
  O2-  O223  1  0.58022196  0.46195197  0.39896424  1
  O2-  O224  1  0.58390829  0.46073476  0.72857732  1
  O2-  O225  1  0.58446583  0.95051015  0.05981934  1
  O2-  O226  1  0.57657320  0.95471491  0.40035153  1
  O2-  O227  1  0.58035303  0.95418235  0.73789848  1
  O2-  O228  1  0.20225313  0.32597759  0.06778511  1
  O2-  O229  1  0.20850397  0.33021711  0.40100164  1
  O2-  O230  1  0.21069986  0.33416606  0.73337194  1
  O2-  O231  1  0.21121564  0.83503983  0.06988330  1
  O2-  O232  1  0.20958702  0.83395293  0.39346539  1
  O2-  O233  1  0.20377069  0.82991792  0.72213882  1
  O2-  O234  1  0.71240243  0.33715310  0.05911854  1
  O2-  O235  1  0.71028506  0.33714365  0.40447167  1
  O2-  O236  1  0.70350184  0.33978831  0.73122682  1
  O2-  O237  1  0.71113101  0.83828862  0.06551570  1
  O2-  O238  1  0.70651650  0.83074243  0.40069772  1
  O2-  O239  1  0.71016459  0.82893996  0.73634394  1
  O2-  O240  1  0.44675531  0.42594428  0.26963058  1
  O2-  O241  1  0.45551711  0.41645214  0.59801118  1
  O2-  O242  1  0.46198759  0.42052623  0.93246263  1
  O2-  O243  1  0.45485658  0.91338311  0.26796258  1
  O2-  O244  1  0.45590434  0.92490128  0.60037497  1
  O2-  O245  1  0.45747397  0.91388176  0.93203413  1
  O2-  O246  1  0.95948694  0.41036716  0.27134287  1
  O2-  O247  1  0.95296776  0.41503560  0.59982059  1
  O2-  O248  1  0.94983675  0.42541837  0.93462932  1
  O2-  O249  1  0.95544335  0.91501013  0.26897483  1
  O2-  O250  1  0.94929418  0.91589304  0.60435176  1
  O2-  O251  1  0.95266744  0.91294512  0.93953258  1
  O2-  O252  1  0.33048514  0.28714400  0.26353693  1
  O2-  O253  1  0.33276028  0.28431300  0.59899079  1
  O2-  O254  1  0.32926234  0.29705020  0.93458572  1
  O2-  O255  1  0.33912712  0.79033111  0.26855109  1
  O2-  O256  1  0.33353373  0.79397119  0.59188512  1
  O2-  O257  1  0.33152176  0.78776093  0.93335190  1
  O2-  O258  1  0.83704579  0.29549818  0.27458897  1
  O2-  O259  1  0.83023480  0.29998122  0.60479030  1
  O2-  O260  1  0.83463263  0.29272398  0.92808887  1
  O2-  O261  1  0.83494097  0.79574097  0.26922845  1
  O2-  O262  1  0.83657118  0.79067034  0.60208192  1
  O2-  O263  1  0.83706145  0.78981117  0.93701369  1
  O2-  O264  1  0.41728895  0.04035501  0.06408299  1
  O2-  O265  1  0.40897256  0.04074133  0.39378860  1
  O2-  O266  1  0.41640061  0.04630890  0.73642908  1
  O2-  O267  1  0.42474371  0.55140613  0.06527165  1
  O2-  O268  1  0.41770489  0.55807778  0.39669448  1
  O2-  O269  1  0.41571209  0.54815932  0.72682082  1
  O2-  O270  1  0.90894875  0.03948448  0.06469271  1
  O2-  O271  1  0.91976796  0.03913635  0.40290119  1
  O2-  O272  1  0.92143905  0.04076467  0.73883452  1
  O2-  O273  1  0.91410919  0.54949813  0.06383075  1
  O2-  O274  1  0.91476373  0.54088297  0.39551742  1
  O2-  O275  1  0.91013546  0.53884402  0.73149529  1
  O2-  O276  1  0.30207681  0.16530095  0.06506816  1
  O2-  O277  1  0.28889880  0.16034953  0.39361828  1
  O2-  O278  1  0.28283792  0.16416484  0.73606949  1
  O2-  O279  1  0.28934856  0.66672132  0.07040320  1
  O2-  O280  1  0.28956099  0.66686698  0.40048945  1
  O2-  O281  1  0.29581084  0.66804192  0.72402316  1
  O2-  O282  1  0.79389269  0.16479804  0.05918578  1
  O2-  O283  1  0.80074278  0.17133363  0.40442508  1
  O2-  O284  1  0.79767933  0.17291123  0.73879826  1
  O2-  O285  1  0.79206194  0.66377689  0.06699013  1
  O2-  O286  1  0.80277969  0.66674269  0.39457841  1
  O2-  O287  1  0.79672125  0.66186618  0.72908156  1
