# generated using pymatgen
data_Ca2Al2SiO7
_symmetry_space_group_name_H-M   'P 1'
_cell_length_a   15.46207164
_cell_length_b   15.46191833
_cell_length_c   15.28653643
_cell_angle_alpha   89.98722786
_cell_angle_beta   89.99426458
_cell_angle_gamma   89.99154027
_symmetry_Int_Tables_number   1
_chemical_formula_structural   Ca2Al2SiO7
_chemical_formula_sum   'Ca48 Al48 Si24 O168'
_cell_volume   3654.60239173
_cell_formula_units_Z   24
loop_
 _symmetry_equiv_pos_site_id
 _symmetry_equiv_pos_as_xyz
  1  'x, y, z'
loop_
 _atom_type_symbol
 _atom_type_oxidation_number
  Ca2+  2.0
  Al0+  0.0
  Si0+  0.0
  O2-  -2.0
loop_
 _atom_site_type_symbol
 _atom_site_label
 _atom_site_symmetry_multiplicity
 _atom_site_fract_x
 _atom_site_fract_y
 _atom_site_fract_z
 _atom_site_occupancy
  Ca2+  Ca0  1  0.16999555  0.07879981  0.17493789  1
  Ca2+  Ca1  1  0.17614669  0.07751775  0.50503675  1
  Ca2+  Ca2  1  0.16480829  0.08704036  0.83278117  1
  Ca2+  Ca3  1  0.17617331  0.58156405  0.17301385  1
  Ca2+  Ca4  1  0.17089895  0.57862238  0.51125656  1
  Ca2+  Ca5  1  0.17313707  0.58714494  0.83579535  1
  Ca2+  Ca6  1  0.67627174  0.08453349  0.16876365  1
  Ca2+  Ca7  1  0.66652291  0.07480082  0.51339941  1
  Ca2+  Ca8  1  0.66973994  0.07882549  0.83292464  1
  Ca2+  Ca9  1  0.66342253  0.58578222  0.16657847  1
  Ca2+  Ca10  1  0.67387254  0.58958514  0.51067741  1
  Ca2+  Ca11  1  0.67155224  0.59451924  0.83445146  1
  Ca2+  Ca12  1  0.09182495  0.32676193  0.16250652  1
  Ca2+  Ca13  1  0.09095267  0.33549697  0.50360411  1
  Ca2+  Ca14  1  0.08336265  0.32391792  0.82150700  1
  Ca2+  Ca15  1  0.08404383  0.83211469  0.16451148  1
  Ca2+  Ca16  1  0.07732091  0.83277462  0.49733133  1
  Ca2+  Ca17  1  0.07800503  0.82161371  0.82591866  1
  Ca2+  Ca18  1  0.57222489  0.33244786  0.15823800  1
  Ca2+  Ca19  1  0.58502523  0.32408316  0.50074206  1
  Ca2+  Ca20  1  0.57606523  0.32721421  0.82868944  1
  Ca2+  Ca21  1  0.57172851  0.82638259  0.16432634  1
  Ca2+  Ca22  1  0.57271817  0.83260766  0.50447984  1
  Ca2+  Ca23  1  0.58001785  0.82595985  0.82280398  1
  Ca2+  Ca24  1  0.33114422  0.42626995  0.17187862  1
  Ca2+  Ca25  1  0.32276370  0.42908664  0.50625704  1
  Ca2+  Ca26  1  0.33278564  0.42652654  0.83483951  1
  Ca2+  Ca27  1  0.32496723  0.92089153  0.17986852  1
  Ca2+  Ca28  1  0.33930740  0.92149164  0.50545063  1
  Ca2+  Ca29  1  0.33783641  0.92068287  0.82995130  1
  Ca2+  Ca30  1  0.82944154  0.41891247  0.16984678  1
  Ca2+  Ca31  1  0.83387217  0.42233059  0.51190890  1
  Ca2+  Ca32  1  0.83771272  0.41882034  0.82822373  1
  Ca2+  Ca33  1  0.83690645  0.92043209  0.17023341  1
  Ca2+  Ca34  1  0.82798424  0.90671523  0.50948675  1
  Ca2+  Ca35  1  0.82809659  0.91375084  0.83462555  1
  Ca2+  Ca36  1  0.40834555  0.17510324  0.16241496  1
  Ca2+  Ca37  1  0.41708343  0.15827374  0.49974136  1
  Ca2+  Ca38  1  0.41555068  0.17331187  0.82294825  1
  Ca2+  Ca39  1  0.41209925  0.66756880  0.16063649  1
  Ca2+  Ca40  1  0.40995890  0.67297519  0.49913505  1
  Ca2+  Ca41  1  0.42373282  0.66654304  0.82461908  1
  Ca2+  Ca42  1  0.92483079  0.16689384  0.15624406  1
  Ca2+  Ca43  1  0.92405640  0.17181319  0.50230749  1
  Ca2+  Ca44  1  0.92573729  0.16835701  0.82573121  1
  Ca2+  Ca45  1  0.92679968  0.67390622  0.16212290  1
  Ca2+  Ca46  1  0.91948370  0.67295357  0.50328719  1
  Ca2+  Ca47  1  0.92696143  0.66582560  0.82112855  1
  Al0+  Al48  1  -0.00101775  0.00116986  0.00002136  1
  Al0+  Al49  1  -0.00021502  0.00239101  0.33298705  1
  Al0+  Al50  1  0.00039778  0.00197534  0.65911130  1
  Al0+  Al51  1  -0.00062340  0.49928657  -0.00004728  1
  Al0+  Al52  1  -0.00266026  0.49935104  0.33367563  1
  Al0+  Al53  1  -0.00125959  0.49883218  0.66813053  1
  Al0+  Al54  1  0.50097370  0.00047656  0.00454734  1
  Al0+  Al55  1  0.50419187  -0.00277201  0.32824817  1
  Al0+  Al56  1  0.50173654  -0.00027971  0.67095239  1
  Al0+  Al57  1  0.49955860  0.50039743  -0.00402259  1
  Al0+  Al58  1  0.50190785  0.49667101  0.33779403  1
  Al0+  Al59  1  0.50101713  0.49772018  0.66514274  1
  Al0+  Al60  1  0.24948721  0.25127566  -0.00926993  1
  Al0+  Al61  1  0.25174971  0.25016490  0.33927277  1
  Al0+  Al62  1  0.25059019  0.24987822  0.66854088  1
  Al0+  Al63  1  0.24914673  0.75187608  0.00018396  1
  Al0+  Al64  1  0.24889036  0.75098950  0.33464245  1
  Al0+  Al65  1  0.24984403  0.75183920  0.66448609  1
  Al0+  Al66  1  0.74923833  0.25012441  0.00593269  1
  Al0+  Al67  1  0.75149137  0.24987535  0.33144988  1
  Al0+  Al68  1  0.75017695  0.24963077  0.66024446  1
  Al0+  Al69  1  0.74774999  0.75084620  0.00301160  1
  Al0+  Al70  1  0.75113374  0.75067834  0.32593199  1
  Al0+  Al71  1  0.74868032  0.74923278  0.67068536  1
  Al0+  Al72  1  0.32080431  0.06875954  0.68165322  1
  Al0+  Al73  1  0.17728786  0.42927618  0.34741139  1
  Al0+  Al74  1  0.92993959  0.32054559  0.65152071  1
  Al0+  Al75  1  0.07230562  0.67833835  0.65168172  1
  Al0+  Al76  1  0.32082396  0.57108458  0.01321949  1
  Al0+  Al77  1  0.57093172  0.67657926  0.65223575  1
  Al0+  Al78  1  0.92830178  0.82095634  0.65462672  1
  Al0+  Al79  1  0.32197485  0.57407449  0.68331695  1
  Al0+  Al80  1  0.68041178  0.92894879  0.68084737  1
  Al0+  Al81  1  0.07140560  0.67861893  0.98780268  1
  Al0+  Al82  1  0.56961862  0.17930765  0.65472704  1
  Al0+  Al83  1  0.32382205  0.06932204  0.34698520  1
  Al0+  Al84  1  0.17614891  0.92879218  0.34875599  1
  Al0+  Al85  1  0.07470817  0.17846414  0.64742737  1
  Al0+  Al86  1  0.92917936  0.82172526  0.31775598  1
  Al0+  Al87  1  0.81847763  0.57006833  0.68062031  1
  Al0+  Al88  1  0.81998029  0.06975972  0.01298684  1
  Al0+  Al89  1  0.56937012  0.68040526  0.98668169  1
  Al0+  Al90  1  0.17837398  0.43006342  0.68481602  1
  Al0+  Al91  1  0.42758415  0.81988424  0.31874740  1
  Al0+  Al92  1  0.06981319  0.17925640  0.98683864  1
  Al0+  Al93  1  0.42920636  0.82112729  0.65375541  1
  Al0+  Al94  1  0.32293814  0.57219816  0.34812192  1
  Al0+  Al95  1  0.42907317  0.32024289  0.98578816  1
  Si0+  Si96  1  0.17917320  0.93073091  0.01362452  1
  Si0+  Si97  1  0.57167582  0.67629472  0.31703194  1
  Si0+  Si98  1  0.42743833  0.32193546  0.64681304  1
  Si0+  Si99  1  0.82107922  0.07302816  0.34980069  1
  Si0+  Si100  1  0.82283109  0.07353975  0.68121609  1
  Si0+  Si101  1  0.07106658  0.18236886  0.31800912  1
  Si0+  Si102  1  0.92653807  0.32191819  0.31548964  1
  Si0+  Si103  1  0.17459905  0.92876273  0.68451880  1
  Si0+  Si104  1  0.81830467  0.57127148  0.34637043  1
  Si0+  Si105  1  0.57349513  0.17757593  0.98505206  1
  Si0+  Si106  1  0.92477498  0.32233398  0.98487827  1
  Si0+  Si107  1  0.42665404  0.82470351  0.98422603  1
  Si0+  Si108  1  0.57401372  0.17759429  0.31618497  1
  Si0+  Si109  1  0.67904302  0.42974712  0.01498306  1
  Si0+  Si110  1  0.92827114  0.82182745  0.98472310  1
  Si0+  Si111  1  0.67977018  0.42659806  0.34844513  1
  Si0+  Si112  1  0.43105589  0.31910655  0.31921096  1
  Si0+  Si113  1  0.67677502  0.92616276  0.02165038  1
  Si0+  Si114  1  0.68270257  0.92898329  0.34758592  1
  Si0+  Si115  1  0.07086766  0.67596996  0.31669624  1
  Si0+  Si116  1  0.32136967  0.07343175  0.01338712  1
  Si0+  Si117  1  0.17755330  0.42704219  0.01532679  1
  Si0+  Si118  1  0.67784181  0.42392795  0.68396140  1
  Si0+  Si119  1  0.82226131  0.57245113  0.01692142  1
  O2-  O120  1  0.25193858  0.00111646  0.05558644  1
  O2-  O121  1  0.25510150  -0.00561710  0.39682197  1
  O2-  O122  1  0.24390108  -0.00312536  0.72969054  1
  O2-  O123  1  0.24359105  0.49808650  0.05966865  1
  O2-  O124  1  0.24445282  0.50617736  0.39598305  1
  O2-  O125  1  0.24866067  0.50380521  0.73476625  1
  O2-  O126  1  0.74625518  -0.00433898  0.06390555  1
  O2-  O127  1  0.75268304  0.00008370  0.39141228  1
  O2-  O128  1  0.75839608  0.00141544  0.72595538  1
  O2-  O129  1  0.75042827  0.50086903  0.05824006  1
  O2-  O130  1  0.74788497  0.50011292  0.38904056  1
  O2-  O131  1  0.74238590  0.49631999  0.72828414  1
  O2-  O132  1  0.00119049  0.25457418  0.27398095  1
  O2-  O133  1  0.00402791  0.25274437  0.59861970  1
  O2-  O134  1  -0.00466024  0.25529494  0.94287772  1
  O2-  O135  1  0.00656876  0.74945112  0.27183603  1
  O2-  O136  1  0.00218467  0.75267512  0.60230965  1
  O2-  O137  1  -0.00770146  0.74916252  0.94185211  1
  O2-  O138  1  0.50000698  0.24597266  0.27478860  1
  O2-  O139  1  0.49570231  0.25189631  0.60344192  1
  O2-  O140  1  0.50045245  0.24089350  0.94136165  1
  O2-  O141  1  0.49680468  0.73849241  0.27299828  1
  O2-  O142  1  0.49421454  0.74295256  0.60254758  1
  O2-  O143  1  0.49575658  0.75613409  0.94174855  1
  O2-  O144  1  0.07052261  0.18001476  0.10082495  1
  O2-  O145  1  0.06907154  0.18252069  0.42207384  1
  O2-  O146  1  0.07024568  0.17767846  0.76143483  1
  O2-  O147  1  0.07053484  0.68087802  0.10136579  1
  O2-  O148  1  0.06548562  0.67206413  0.42135450  1
  O2-  O149  1  0.06990039  0.67996931  0.76582557  1
  O2-  O150  1  0.57482597  0.18077672  0.09122113  1
  O2-  O151  1  0.57807838  0.17912651  0.42078104  1
  O2-  O152  1  0.56956223  0.18192435  0.76811665  1
  O2-  O153  1  0.56911982  0.68072553  0.10045220  1
  O2-  O154  1  0.57797862  0.67880765  0.42152957  1
  O2-  O155  1  0.57230563  0.68112966  0.76592621  1
  O2-  O156  1  0.18061108  0.42688848  0.23295594  1
  O2-  O157  1  0.18162162  0.43155941  0.57103232  1
  O2-  O158  1  0.17754870  0.42570663  0.91077588  1
  O2-  O159  1  0.17543899  0.93403609  0.23385875  1
  O2-  O160  1  0.17341667  0.93071087  0.57914661  1
  O2-  O161  1  0.17803731  0.93073178  0.90906400  1
  O2-  O162  1  0.68001755  0.42503001  0.24278898  1
  O2-  O163  1  0.68131001  0.42146745  0.57795019  1
  O2-  O164  1  0.68082265  0.42587070  0.91089544  1
  O2-  O165  1  0.68422418  0.93159662  0.24220232  1
  O2-  O166  1  0.68024719  0.93080965  0.56714462  1
  O2-  O167  1  0.67580230  0.92490883  0.91669024  1
  O2-  O168  1  0.43022140  0.31898445  0.09992520  1
  O2-  O169  1  0.43527273  0.31905797  0.42345595  1
  O2-  O170  1  0.43000873  0.32083080  0.75285199  1
  O2-  O171  1  0.42709439  0.82487264  0.09021506  1
  O2-  O172  1  0.43444183  0.82561707  0.43053525  1
  O2-  O173  1  0.43356535  0.82373356  0.76761615  1
  O2-  O174  1  0.92350237  0.32157136  0.09115974  1
  O2-  O175  1  0.91912930  0.31968446  0.41928962  1
  O2-  O176  1  0.92655246  0.31571830  0.76543309  1
  O2-  O177  1  0.93106997  0.82237533  0.09086427  1
  O2-  O178  1  0.92361492  0.81757280  0.42971407  1
  O2-  O179  1  0.92892785  0.81919900  0.76866019  1
  O2-  O180  1  0.31916021  0.07308461  0.23231553  1
  O2-  O181  1  0.32314353  0.06549558  0.56879048  1
  O2-  O182  1  0.32301317  0.07241666  0.90889471  1
  O2-  O183  1  0.32456314  0.56769751  0.23359165  1
  O2-  O184  1  0.32147302  0.57127293  0.56977343  1
  O2-  O185  1  0.32218991  0.57033853  0.90119737  1
  O2-  O186  1  0.81895664  0.07491516  0.24420028  1
  O2-  O187  1  0.81865957  0.07514702  0.57532752  1
  O2-  O188  1  0.81806111  0.06919389  0.90059123  1
  O2-  O189  1  0.81709578  0.56898503  0.24059378  1
  O2-  O190  1  0.81648723  0.57008504  0.56681518  1
  O2-  O191  1  0.82262673  0.57323698  0.91269953  1
  O2-  O192  1  0.04074548  0.09162145  0.26936878  1
  O2-  O193  1  0.04404632  0.08222544  0.59218491  1
  O2-  O194  1  0.03711646  0.08360562  0.93272923  1
  O2-  O195  1  0.03906803  0.58441696  0.26775117  1
  O2-  O196  1  0.03990013  0.58108637  0.60071797  1
  O2-  O197  1  0.04308118  0.58062307  0.93630334  1
  O2-  O198  1  0.55232426  0.08524841  0.26751825  1
  O2-  O199  1  0.53967521  0.08316810  0.60070345  1
  O2-  O200  1  0.55415496  0.08098683  0.94362276  1
  O2-  O201  1  0.55325538  0.57877052  0.27452634  1
  O2-  O202  1  0.55448185  0.57455764  0.60183527  1
  O2-  O203  1  0.54332885  0.58358025  0.93294153  1
  O2-  O204  1  0.16414085  0.20953318  0.27160213  1
  O2-  O205  1  0.17388954  0.20582340  0.59668741  1
  O2-  O206  1  0.16502568  0.20746442  0.93050555  1
  O2-  O207  1  0.16588916  0.69777321  0.27217751  1
  O2-  O208  1  0.17027989  0.70465962  0.59876966  1
  O2-  O209  1  0.16597414  0.71367809  0.93355595  1
  O2-  O210  1  0.66419738  0.21101555  0.26689952  1
  O2-  O211  1  0.66426871  0.21008553  0.59662868  1
  O2-  O212  1  0.66537596  0.20864918  0.93960758  1
  O2-  O213  1  0.66196907  0.70838199  0.26612497  1
  O2-  O214  1  0.66723551  0.71158822  0.59978245  1
  O2-  O215  1  0.66788635  0.71014343  0.93573789  1
  O2-  O216  1  0.08188984  0.44712424  0.06130802  1
  O2-  O217  1  0.07502242  0.44924518  0.39616886  1
  O2-  O218  1  0.07782904  0.45186691  0.73543232  1
  O2-  O219  1  0.08790496  0.95966991  0.06205278  1
  O2-  O220  1  0.07971586  0.96328089  0.40141753  1
  O2-  O221  1  0.08090810  0.95669467  0.73010743  1
  O2-  O222  1  0.58823722  0.45959785  0.06374862  1
  O2-  O223  1  0.58797061  0.44813219  0.39733383  1
  O2-  O224  1  0.58238481  0.44320657  0.72761691  1
  O2-  O225  1  0.58361103  0.95346311  0.06949003  1
  O2-  O226  1  0.59092728  0.95682846  0.39345608  1
  O2-  O227  1  0.58797147  0.96497071  0.73885338  1
  O2-  O228  1  0.20792368  0.33368321  0.06094488  1
  O2-  O229  1  0.21002996  0.33338797  0.40165382  1
  O2-  O230  1  0.20831694  0.33104209  0.73546371  1
  O2-  O231  1  0.20624467  0.83982567  0.06362165  1
  O2-  O232  1  0.19371400  0.82728733  0.39683022  1
  O2-  O233  1  0.19995593  0.83519347  0.73016071  1
  O2-  O234  1  0.70603571  0.33921406  0.06737608  1
  O2-  O235  1  0.71122568  0.33560381  0.39542252  1
  O2-  O236  1  0.70857872  0.33200042  0.73113364  1
  O2-  O237  1  0.70306624  0.83353335  0.07033978  1
  O2-  O238  1  0.71184796  0.83647478  0.39191711  1
  O2-  O239  1  0.71068163  0.83422631  0.73809337  1
  O2-  O240  1  0.46282466  0.40974958  0.27021353  1
  O2-  O241  1  0.45512677  0.41400851  0.59976629  1
  O2-  O242  1  0.46553689  0.41344319  0.93088400  1
  O2-  O243  1  0.46561665  0.91375750  0.26067212  1
  O2-  O244  1  0.46744702  0.91651447  0.60113204  1
  O2-  O245  1  0.45306903  0.91959662  0.94087765  1
  O2-  O246  1  0.94857701  0.41552054  0.26824237  1
  O2-  O247  1  0.95323859  0.41978299  0.59908943  1
  O2-  O248  1  0.94634510  0.41714744  0.94065043  1
  O2-  O249  1  0.95672673  0.92090338  0.26538134  1
  O2-  O250  1  0.94954319  0.92022094  0.60062371  1
  O2-  O251  1  0.95579550  0.91415943  0.93883966  1
  O2-  O252  1  0.33877068  0.29192844  0.27186796  1
  O2-  O253  1  0.33454779  0.29535430  0.60236138  1
  O2-  O254  1  0.33436877  0.29209579  0.92873933  1
  O2-  O255  1  0.32825555  0.79730604  0.26499228  1
  O2-  O256  1  0.32894523  0.80326057  0.60151283  1
  O2-  O257  1  0.33281768  0.80188687  0.93920806  1
  O2-  O258  1  0.83648147  0.29002548  0.26461340  1
  O2-  O259  1  0.83299623  0.29041484  0.59523734  1
  O2-  O260  1  0.83116388  0.29537419  0.94059786  1
  O2-  O261  1  0.83487561  0.78799827  0.25878057  1
  O2-  O262  1  0.83127189  0.78779306  0.60239194  1
  O2-  O263  1  0.83173604  0.80068131  0.94435043  1
  O2-  O264  1  0.41472495  0.05103341  0.06187936  1
  O2-  O265  1  0.42575838  0.04429889  0.39406920  1
  O2-  O266  1  0.41612870  0.03740121  0.73814865  1
  O2-  O267  1  0.41739479  0.53725205  0.06680200  1
  O2-  O268  1  0.42007912  0.53865775  0.40072842  1
  O2-  O269  1  0.42179859  0.54169104  0.73290811  1
  O2-  O270  1  0.91633699  0.03920087  0.06965496  1
  O2-  O271  1  0.91409777  0.04994245  0.39456114  1
  O2-  O272  1  0.91851000  0.05250513  0.72402067  1
  O2-  O273  1  0.91301639  0.54313057  0.06671698  1
  O2-  O274  1  0.90957876  0.54403187  0.39337318  1
  O2-  O275  1  0.91327251  0.53720433  0.73641352  1
  O2-  O276  1  0.29087547  0.16553906  0.05920236  1
  O2-  O277  1  0.29576144  0.16668829  0.40051592  1
  O2-  O278  1  0.29300803  0.16645219  0.73449144  1
  O2-  O279  1  0.29078095  0.66912314  0.06647232  1
  O2-  O280  1  0.30252552  0.67342684  0.39590643  1
  O2-  O281  1  0.29739834  0.67462740  0.73393547  1
  O2-  O282  1  0.78915205  0.16591195  0.07106903  1
  O2-  O283  1  0.79031633  0.16433019  0.39609968  1
  O2-  O284  1  0.79132348  0.16512491  0.72775262  1
  O2-  O285  1  0.79326884  0.66379305  0.06585393  1
  O2-  O286  1  0.78885941  0.66334841  0.39114515  1
  O2-  O287  1  0.78775039  0.66467060  0.73814066  1
