# generated using pymatgen
data_Ca2Al2SiO7
_symmetry_space_group_name_H-M   'P 1'
_cell_length_a   15.45500528
_cell_length_b   15.45446864
_cell_length_c   15.28082426
_cell_angle_alpha   89.99129578
_cell_angle_beta   89.98388021
_cell_angle_gamma   90.01251529
_symmetry_Int_Tables_number   1
_chemical_formula_structural   Ca2Al2SiO7
_chemical_formula_sum   'Ca48 Al48 Si24 O168'
_cell_volume   3649.80770675
_cell_formula_units_Z   24
loop_
 _symmetry_equiv_pos_site_id
 _symmetry_equiv_pos_as_xyz
  1  'x, y, z'
loop_
 _atom_type_symbol
 _atom_type_oxidation_number
  Ca2+  2.0
  Al0+  0.0
  Si0+  0.0
  O2-  -2.0
loop_
 _atom_site_type_symbol
 _atom_site_label
 _atom_site_symmetry_multiplicity
 _atom_site_fract_x
 _atom_site_fract_y
 _atom_site_fract_z
 _atom_site_occupancy
  Ca2+  Ca0  1  0.17879686  0.08577663  0.16925567  1
  Ca2+  Ca1  1  0.17654745  0.07755186  0.50737921  1
  Ca2+  Ca2  1  0.17770318  0.07782975  0.83230184  1
  Ca2+  Ca3  1  0.16923090  0.58241060  0.16678636  1
  Ca2+  Ca4  1  0.16566691  0.57965842  0.50931582  1
  Ca2+  Ca5  1  0.18006574  0.57296128  0.83672026  1
  Ca2+  Ca6  1  0.67640604  0.08376010  0.17297006  1
  Ca2+  Ca7  1  0.67772763  0.08713840  0.50641811  1
  Ca2+  Ca8  1  0.67226463  0.08694720  0.83303477  1
  Ca2+  Ca9  1  0.66531185  0.58182852  0.17111981  1
  Ca2+  Ca10  1  0.66807850  0.58077358  0.50104405  1
  Ca2+  Ca11  1  0.67614582  0.59178905  0.83806008  1
  Ca2+  Ca12  1  0.07817806  0.33580506  0.16296083  1
  Ca2+  Ca13  1  0.07717585  0.33524837  0.49587244  1
  Ca2+  Ca14  1  0.08827634  0.33615783  0.83030952  1
  Ca2+  Ca15  1  0.07978589  0.83014534  0.16961569  1
  Ca2+  Ca16  1  0.07626897  0.83328045  0.49564712  1
  Ca2+  Ca17  1  0.07893537  0.83501841  0.82304466  1
  Ca2+  Ca18  1  0.57800801  0.33506196  0.16065521  1
  Ca2+  Ca19  1  0.58130528  0.33052420  0.50009272  1
  Ca2+  Ca20  1  0.56874496  0.32742952  0.82578458  1
  Ca2+  Ca21  1  0.58731868  0.82043115  0.16323080  1
  Ca2+  Ca22  1  0.57735100  0.82740720  0.49839666  1
  Ca2+  Ca23  1  0.57675657  0.82814867  0.82846926  1
  Ca2+  Ca24  1  0.33210882  0.41737917  0.16433682  1
  Ca2+  Ca25  1  0.32658324  0.42393262  0.51243637  1
  Ca2+  Ca26  1  0.32940437  0.41523854  0.83769379  1
  Ca2+  Ca27  1  0.33839299  0.92983152  0.17191445  1
  Ca2+  Ca28  1  0.33044788  0.92259249  0.51153362  1
  Ca2+  Ca29  1  0.33746710  0.92231853  0.83297275  1
  Ca2+  Ca30  1  0.82681364  0.42128160  0.17482354  1
  Ca2+  Ca31  1  0.82871984  0.41960826  0.50365809  1
  Ca2+  Ca32  1  0.83186851  0.43159122  0.83688606  1
  Ca2+  Ca33  1  0.83707638  0.92587341  0.17130979  1
  Ca2+  Ca34  1  0.84055436  0.92192500  0.50595386  1
  Ca2+  Ca35  1  0.83673557  0.92634619  0.83450582  1
  Ca2+  Ca36  1  0.41218817  0.17093235  0.15731254  1
  Ca2+  Ca37  1  0.41549267  0.16706019  0.50050432  1
  Ca2+  Ca38  1  0.41361607  0.17229701  0.82356517  1
  Ca2+  Ca39  1  0.42864806  0.65970954  0.15907239  1
  Ca2+  Ca40  1  0.41255973  0.67246179  0.49694193  1
  Ca2+  Ca41  1  0.41861845  0.66283183  0.82719193  1
  Ca2+  Ca42  1  0.90911179  0.17131711  0.16474351  1
  Ca2+  Ca43  1  0.91517429  0.16877535  0.49258923  1
  Ca2+  Ca44  1  0.91567683  0.16466133  0.82675605  1
  Ca2+  Ca45  1  0.91890810  0.66878766  0.16322309  1
  Ca2+  Ca46  1  0.92093712  0.67584398  0.49344075  1
  Ca2+  Ca47  1  0.91476904  0.67006444  0.82403022  1
  Al0+  Al48  1  0.00010626  0.00127779  0.00471463  1
  Al0+  Al49  1  0.00338706  0.00101467  0.33121544  1
  Al0+  Al50  1  0.00047297  0.00075907  0.66967766  1
  Al0+  Al51  1  -0.00088480  0.50092917  0.00602299  1
  Al0+  Al52  1  -0.00037257  0.49983051  0.32510187  1
  Al0+  Al53  1  -0.00139035  0.49971633  0.67389513  1
  Al0+  Al54  1  0.50198056  -0.00201416  0.00470061  1
  Al0+  Al55  1  0.50255455  0.00161452  0.33745673  1
  Al0+  Al56  1  0.50332015  -0.00140505  0.66122059  1
  Al0+  Al57  1  0.50045031  0.49892111  -0.00847087  1
  Al0+  Al58  1  0.49936475  0.49925796  0.33528422  1
  Al0+  Al59  1  0.50118411  0.49730735  0.66430366  1
  Al0+  Al60  1  0.24711520  0.24864360  0.00328950  1
  Al0+  Al61  1  0.24984767  0.25168816  0.33797613  1
  Al0+  Al62  1  0.24835564  0.24911197  0.66670845  1
  Al0+  Al63  1  0.24873518  0.74915032  0.00369139  1
  Al0+  Al64  1  0.24970175  0.75182250  0.32655688  1
  Al0+  Al65  1  0.24973006  0.74800481  0.66991658  1
  Al0+  Al66  1  0.75037511  0.25106661  0.00081624  1
  Al0+  Al67  1  0.74856349  0.25087414  0.33678622  1
  Al0+  Al68  1  0.74963021  0.25088671  0.66831828  1
  Al0+  Al69  1  0.75066007  0.75142325  -0.00060240  1
  Al0+  Al70  1  0.74930518  0.75119822  0.32554802  1
  Al0+  Al71  1  0.75040430  0.75218421  0.66458267  1
  Al0+  Al72  1  0.32364305  0.57122658  0.67962608  1
  Al0+  Al73  1  0.17938775  0.42813602  0.01813993  1
  Al0+  Al74  1  0.17743596  0.42795569  0.68048649  1
  Al0+  Al75  1  0.56799543  0.67824753  0.32029855  1
  Al0+  Al76  1  0.07218851  0.67775909  0.31695294  1
  Al0+  Al77  1  0.42790053  0.31755528  0.98646624  1
  Al0+  Al78  1  0.82002834  0.57330123  0.01549615  1
  Al0+  Al79  1  0.82124647  0.06926014  0.34765075  1
  Al0+  Al80  1  0.17851947  0.92757413  0.68029954  1
  Al0+  Al81  1  0.32400665  0.06933224  0.68073165  1
  Al0+  Al82  1  0.67751826  0.43007107  0.34750192  1
  Al0+  Al83  1  0.92961858  0.82232750  0.65419272  1
  Al0+  Al84  1  0.92885120  0.82362535  0.31618573  1
  Al0+  Al85  1  0.82079238  0.07145809  0.67964516  1
  Al0+  Al86  1  0.32115773  0.06850552  0.01240375  1
  Al0+  Al87  1  0.57252185  0.17861323  0.65040335  1
  Al0+  Al88  1  0.42606512  0.32042592  0.64879237  1
  Al0+  Al89  1  0.82063026  0.07187609  0.01450431  1
  Al0+  Al90  1  0.57093800  0.67931312  0.98428418  1
  Al0+  Al91  1  0.32358037  0.57089392  0.01601744  1
  Al0+  Al92  1  0.92724332  0.31910246  0.31997512  1
  Al0+  Al93  1  0.32242671  0.07256190  0.34912016  1
  Al0+  Al94  1  0.81818901  0.57210490  0.67712305  1
  Al0+  Al95  1  0.42768431  0.81867416  0.65414558  1
  Si0+  Si96  1  0.42835641  0.82443600  0.31598244  1
  Si0+  Si97  1  0.67882092  0.92549181  0.35143031  1
  Si0+  Si98  1  0.07403257  0.18010136  0.31641932  1
  Si0+  Si99  1  0.92913628  0.32252451  0.65382734  1
  Si0+  Si100  1  0.17733936  0.43080267  0.34820483  1
  Si0+  Si101  1  0.82266055  0.57293722  0.34845701  1
  Si0+  Si102  1  0.57114775  0.17941488  0.31775795  1
  Si0+  Si103  1  0.42693163  0.82328025  0.98531766  1
  Si0+  Si104  1  0.67803859  0.42702881  0.68499012  1
  Si0+  Si105  1  0.17610225  0.92691151  0.01880013  1
  Si0+  Si106  1  0.06889380  0.17901559  0.98437769  1
  Si0+  Si107  1  0.67858325  0.92801246  0.01782290  1
  Si0+  Si108  1  0.93145177  0.82196556  0.98372246  1
  Si0+  Si109  1  0.67833805  0.92689289  0.68321315  1
  Si0+  Si110  1  0.67890197  0.42925504  0.01458820  1
  Si0+  Si111  1  0.18051660  0.92716956  0.34989196  1
  Si0+  Si112  1  0.32070645  0.57116957  0.34639407  1
  Si0+  Si113  1  0.57366331  0.67712718  0.64956561  1
  Si0+  Si114  1  0.07002262  0.67664301  0.65363093  1
  Si0+  Si115  1  0.06955165  0.17858961  0.65209400  1
  Si0+  Si116  1  0.92779090  0.32216734  0.98392890  1
  Si0+  Si117  1  0.07095045  0.67741247  0.98252183  1
  Si0+  Si118  1  0.57382404  0.17565601  0.98514712  1
  Si0+  Si119  1  0.42819572  0.31979142  0.31838906  1
  O2-  O120  1  0.25043077  -0.00914666  0.06135303  1
  O2-  O121  1  0.25114481  -0.00599736  0.39337709  1
  O2-  O122  1  0.25479445  -0.00530840  0.73090605  1
  O2-  O123  1  0.25148680  0.50003395  0.06848060  1
  O2-  O124  1  0.24488887  0.50549335  0.38872042  1
  O2-  O125  1  0.25491921  0.49520733  0.72824220  1
  O2-  O126  1  0.74439582  -0.00020999  0.06170819  1
  O2-  O127  1  0.75075570  -0.00877935  0.39519064  1
  O2-  O128  1  0.74584982  -0.00249292  0.72673611  1
  O2-  O129  1  0.74549706  0.49844194  0.06133482  1
  O2-  O130  1  0.75341751  0.50488443  0.39279597  1
  O2-  O131  1  0.74154250  0.50134033  0.72758852  1
  O2-  O132  1  0.00119619  0.24410846  0.27134263  1
  O2-  O133  1  -0.00079058  0.25108228  0.61093612  1
  O2-  O134  1  -0.00172413  0.25066142  0.94151414  1
  O2-  O135  1  -0.00212596  0.74808974  0.26666269  1
  O2-  O136  1  0.00402793  0.74723040  0.60817153  1
  O2-  O137  1  0.00145422  0.75043115  0.94052485  1
  O2-  O138  1  0.49666846  0.24648584  0.27509233  1
  O2-  O139  1  0.49789900  0.24759853  0.59894840  1
  O2-  O140  1  0.50065616  0.23956726  0.94177270  1
  O2-  O141  1  0.49501283  0.75398600  0.27158825  1
  O2-  O142  1  0.49887666  0.74020812  0.60681711  1
  O2-  O143  1  0.49143899  0.75069985  0.94089155  1
  O2-  O144  1  0.06825945  0.17901227  0.08965864  1
  O2-  O145  1  0.07485749  0.18287264  0.42207543  1
  O2-  O146  1  0.06777362  0.17727980  0.75747449  1
  O2-  O147  1  0.06944137  0.67865613  0.08764398  1
  O2-  O148  1  0.07191400  0.67713900  0.43081301  1
  O2-  O149  1  0.06635225  0.67606655  0.75927049  1
  O2-  O150  1  0.57558407  0.17837776  0.09123089  1
  O2-  O151  1  0.57260245  0.18095745  0.42225435  1
  O2-  O152  1  0.57505389  0.18231066  0.76433740  1
  O2-  O153  1  0.57154480  0.68037030  0.09771143  1
  O2-  O154  1  0.56517402  0.67851513  0.43326748  1
  O2-  O155  1  0.57698968  0.68166338  0.75510475  1
  O2-  O156  1  0.17988565  0.42723402  0.24348281  1
  O2-  O157  1  0.17271734  0.43211257  0.56627273  1
  O2-  O158  1  0.17961506  0.42879542  0.90498195  1
  O2-  O159  1  0.18170656  0.92825570  0.24390916  1
  O2-  O160  1  0.17703697  0.93130493  0.56660176  1
  O2-  O161  1  0.17191747  0.92943395  0.91363892  1
  O2-  O162  1  0.67678599  0.43069921  0.23406903  1
  O2-  O163  1  0.68110898  0.42579040  0.57912435  1
  O2-  O164  1  0.68349112  0.42791931  0.90930404  1
  O2-  O165  1  0.67633247  0.92876631  0.24561767  1
  O2-  O166  1  0.68020621  0.92401626  0.57776880  1
  O2-  O167  1  0.67851278  0.92730443  0.91239555  1
  O2-  O168  1  0.43043085  0.31681649  0.10055556  1
  O2-  O169  1  0.42789361  0.32018435  0.42289297  1
  O2-  O170  1  0.42673252  0.31857749  0.76257851  1
  O2-  O171  1  0.43116725  0.82634643  0.09099565  1
  O2-  O172  1  0.42743076  0.82266234  0.42149681  1
  O2-  O173  1  0.43172507  0.81995538  0.76731123  1
  O2-  O174  1  0.92648516  0.31990293  0.08908283  1
  O2-  O175  1  0.92984283  0.31988545  0.43349054  1
  O2-  O176  1  0.92935676  0.32230810  0.75915372  1
  O2-  O177  1  0.93306450  0.82225028  0.08870543  1
  O2-  O178  1  0.93141308  0.82377580  0.42987027  1
  O2-  O179  1  0.93027754  0.82180262  0.76780040  1
  O2-  O180  1  0.32055179  0.07340037  0.23533258  1
  O2-  O181  1  0.31958263  0.06872184  0.56708883  1
  O2-  O182  1  0.32027201  0.06810435  0.90002905  1
  O2-  O183  1  0.32351450  0.56671373  0.24158737  1
  O2-  O184  1  0.31868821  0.57267117  0.56504950  1
  O2-  O185  1  0.32211474  0.57047487  0.90307016  1
  O2-  O186  1  0.81696521  0.07050059  0.23432638  1
  O2-  O187  1  0.82202561  0.07132297  0.56662286  1
  O2-  O188  1  0.82164478  0.07050330  0.90153317  1
  O2-  O189  1  0.82100474  0.57066337  0.24271044  1
  O2-  O190  1  0.81923370  0.56964206  0.56393655  1
  O2-  O191  1  0.81995649  0.57348900  0.90205613  1
  O2-  O192  1  0.05550736  0.08502017  0.27105898  1
  O2-  O193  1  0.03923359  0.08857955  0.60302551  1
  O2-  O194  1  0.03943478  0.08719362  0.93776543  1
  O2-  O195  1  0.04626621  0.58004316  0.26106674  1
  O2-  O196  1  0.04009254  0.58403647  0.60694528  1
  O2-  O197  1  0.04032933  0.58557178  0.93738140  1
  O2-  O198  1  0.54843770  0.08543117  0.27156291  1
  O2-  O199  1  0.55245177  0.07873185  0.59709182  1
  O2-  O200  1  0.55430196  0.07935224  0.94277119  1
  O2-  O201  1  0.53519841  0.58199765  0.26570145  1
  O2-  O202  1  0.55680025  0.58066134  0.60685357  1
  O2-  O203  1  0.54617325  0.58255609  0.92838208  1
  O2-  O204  1  0.16579014  0.21235636  0.26920232  1
  O2-  O205  1  0.16059423  0.20467166  0.60286818  1
  O2-  O206  1  0.16028349  0.20661330  0.93660445  1
  O2-  O207  1  0.16934797  0.70857842  0.26033452  1
  O2-  O208  1  0.16465106  0.69773077  0.60867008  1
  O2-  O209  1  0.16458923  0.70289996  0.93758195  1
  O2-  O210  1  0.66119648  0.21123273  0.26917124  1
  O2-  O211  1  0.67037050  0.21274898  0.59711339  1
  O2-  O212  1  0.66608602  0.20550003  0.93788583  1
  O2-  O213  1  0.66453400  0.70657677  0.26439560  1
  O2-  O214  1  0.66388857  0.70988365  0.60041340  1
  O2-  O215  1  0.66673076  0.71584741  0.93096204  1
  O2-  O216  1  0.08091384  0.45752882  0.07060023  1
  O2-  O217  1  0.08357807  0.45589991  0.39310702  1
  O2-  O218  1  0.08151665  0.45820287  0.73766273  1
  O2-  O219  1  0.08619311  0.95995044  0.06835544  1
  O2-  O220  1  0.08748852  0.95510836  0.39516504  1
  O2-  O221  1  0.08355967  0.96240886  0.73671218  1
  O2-  O222  1  0.58446017  0.45350053  0.05844387  1
  O2-  O223  1  0.58218231  0.46191318  0.40368704  1
  O2-  O224  1  0.58247431  0.44633977  0.72816411  1
  O2-  O225  1  0.58517350  0.94869784  0.06678516  1
  O2-  O226  1  0.58644239  0.95336783  0.39875032  1
  O2-  O227  1  0.58528164  0.95184373  0.73002301  1
  O2-  O228  1  0.20501955  0.32924768  0.07172548  1
  O2-  O229  1  0.20712240  0.34059877  0.39754517  1
  O2-  O230  1  0.20028548  0.32806528  0.73196308  1
  O2-  O231  1  0.19519305  0.83168148  0.06373242  1
  O2-  O232  1  0.20318621  0.83217822  0.39446190  1
  O2-  O233  1  0.19989446  0.82809738  0.73305883  1
  O2-  O234  1  0.70504364  0.33619473  0.06248546  1
  O2-  O235  1  0.70934783  0.33490995  0.40291810  1
  O2-  O236  1  0.70969492  0.33689490  0.73363194  1
  O2-  O237  1  0.70980065  0.83680544  0.06540569  1
  O2-  O238  1  0.70051879  0.83001087  0.39509497  1
  O2-  O239  1  0.70606919  0.83510973  0.73180550  1
  O2-  O240  1  0.45892707  0.41070705  0.27108576  1
  O2-  O241  1  0.45605990  0.41905185  0.59545253  1
  O2-  O242  1  0.46022337  0.41198571  0.93002249  1
  O2-  O243  1  0.45764344  0.91830660  0.27148827  1
  O2-  O244  1  0.46164555  0.91291700  0.59719569  1
  O2-  O245  1  0.45805111  0.91524377  0.93784488  1
  O2-  O246  1  0.95702471  0.41445290  0.26335060  1
  O2-  O247  1  0.95797149  0.41391780  0.60585942  1
  O2-  O248  1  0.95632217  0.41492022  0.93871277  1
  O2-  O249  1  0.96247341  0.92086834  0.26187549  1
  O2-  O250  1  0.96206714  0.91867180  0.60059129  1
  O2-  O251  1  0.96078548  0.91473926  0.93840747  1
  O2-  O252  1  0.33529869  0.29340054  0.27186508  1
  O2-  O253  1  0.32642159  0.29377593  0.59660510  1
  O2-  O254  1  0.32985293  0.28729426  0.93570746  1
  O2-  O255  1  0.33447760  0.80366221  0.26887422  1
  O2-  O256  1  0.33005280  0.79071463  0.59932344  1
  O2-  O257  1  0.33016271  0.80427569  0.94344440  1
  O2-  O258  1  0.83056966  0.28786998  0.26571002  1
  O2-  O259  1  0.83735777  0.29561272  0.60654506  1
  O2-  O260  1  0.83604643  0.29465172  0.93599133  1
  O2-  O261  1  0.82955812  0.80021974  0.26265236  1
  O2-  O262  1  0.83323798  0.79337438  0.59901907  1
  O2-  O263  1  0.83862632  0.79632313  0.93791941  1
  O2-  O264  1  0.41908589  0.04251785  0.06799763  1
  O2-  O265  1  0.42090846  0.04620074  0.40073717  1
  O2-  O266  1  0.42453865  0.04430947  0.72990898  1
  O2-  O267  1  0.42316724  0.53970648  0.06557650  1
  O2-  O268  1  0.40942383  0.53931662  0.39644165  1
  O2-  O269  1  0.42460038  0.54778467  0.72908500  1
  O2-  O270  1  0.91619828  0.04005034  0.06985440  1
  O2-  O271  1  0.92189299  0.04553360  0.39683032  1
  O2-  O272  1  0.91574440  0.03977208  0.73572681  1
  O2-  O273  1  0.91521138  0.54172204  0.07032723  1
  O2-  O274  1  0.91682551  0.54569458  0.39198178  1
  O2-  O275  1  0.91170567  0.53870993  0.73553461  1
  O2-  O276  1  0.28490382  0.16233626  0.06842571  1
  O2-  O277  1  0.28790434  0.16792260  0.40303251  1
  O2-  O278  1  0.28990368  0.16621739  0.73228558  1
  O2-  O279  1  0.29669015  0.67038301  0.06908235  1
  O2-  O280  1  0.29783064  0.66676380  0.38827772  1
  O2-  O281  1  0.29466279  0.66741328  0.73571562  1
  O2-  O282  1  0.79144581  0.16956623  0.06773708  1
  O2-  O283  1  0.78688385  0.16482406  0.40111911  1
  O2-  O284  1  0.79134276  0.16829995  0.73433156  1
  O2-  O285  1  0.79043009  0.67041825  0.06831212  1
  O2-  O286  1  0.79728622  0.66805302  0.39080754  1
  O2-  O287  1  0.78982806  0.66930390  0.73174093  1
