# generated using pymatgen
data_Ca2Al2SiO7
_symmetry_space_group_name_H-M   'P 1'
_cell_length_a   15.46191914
_cell_length_b   15.46015636
_cell_length_c   15.28575092
_cell_angle_alpha   89.99230752
_cell_angle_beta   89.99553007
_cell_angle_gamma   89.99003649
_symmetry_Int_Tables_number   1
_chemical_formula_structural   Ca2Al2SiO7
_chemical_formula_sum   'Ca48 Al48 Si24 O168'
_cell_volume   3653.96216688
_cell_formula_units_Z   24
loop_
 _symmetry_equiv_pos_site_id
 _symmetry_equiv_pos_as_xyz
  1  'x, y, z'
loop_
 _atom_type_symbol
 _atom_type_oxidation_number
  Ca2+  2.0
  Al0+  0.0
  Si0+  0.0
  O2-  -2.0
loop_
 _atom_site_type_symbol
 _atom_site_label
 _atom_site_symmetry_multiplicity
 _atom_site_fract_x
 _atom_site_fract_y
 _atom_site_fract_z
 _atom_site_occupancy
  Ca2+  Ca0  1  0.17185319  0.07511227  0.17280390  1
  Ca2+  Ca1  1  0.17807518  0.08891169  0.50703695  1
  Ca2+  Ca2  1  0.17190530  0.08288158  0.83388447  1
  Ca2+  Ca3  1  0.17413334  0.58388694  0.17751839  1
  Ca2+  Ca4  1  0.17315398  0.58636834  0.49799777  1
  Ca2+  Ca5  1  0.17170612  0.58139762  0.83666341  1
  Ca2+  Ca6  1  0.65652901  0.07769422  0.16581188  1
  Ca2+  Ca7  1  0.66904868  0.07798113  0.51345298  1
  Ca2+  Ca8  1  0.65377114  0.07455730  0.83525459  1
  Ca2+  Ca9  1  0.67508602  0.59099224  0.17188439  1
  Ca2+  Ca10  1  0.67083939  0.58376444  0.50909607  1
  Ca2+  Ca11  1  0.67025878  0.58359533  0.83553571  1
  Ca2+  Ca12  1  0.06974706  0.33854036  0.16418878  1
  Ca2+  Ca13  1  0.07565334  0.32819843  0.49683446  1
  Ca2+  Ca14  1  0.07442265  0.32867096  0.82775546  1
  Ca2+  Ca15  1  0.08608727  0.82837433  0.16460786  1
  Ca2+  Ca16  1  0.07832807  0.82683789  0.49440030  1
  Ca2+  Ca17  1  0.08201054  0.83757653  0.83043607  1
  Ca2+  Ca18  1  0.57704189  0.32778252  0.16260159  1
  Ca2+  Ca19  1  0.57925396  0.33249175  0.50168759  1
  Ca2+  Ca20  1  0.58218682  0.32364133  0.82342379  1
  Ca2+  Ca21  1  0.58241228  0.82428758  0.16432388  1
  Ca2+  Ca22  1  0.57940475  0.82842597  0.49953541  1
  Ca2+  Ca23  1  0.59129715  0.82700706  0.82692837  1
  Ca2+  Ca24  1  0.33398459  0.42160121  0.17806983  1
  Ca2+  Ca25  1  0.34368854  0.41947506  0.50287673  1
  Ca2+  Ca26  1  0.33540851  0.41304959  0.83197358  1
  Ca2+  Ca27  1  0.33328981  0.91928452  0.17457802  1
  Ca2+  Ca28  1  0.34246947  0.92384534  0.50410289  1
  Ca2+  Ca29  1  0.33532645  0.92130342  0.83433782  1
  Ca2+  Ca30  1  0.83517005  0.42230938  0.17290501  1
  Ca2+  Ca31  1  0.82701118  0.42484059  0.50545563  1
  Ca2+  Ca32  1  0.82758973  0.42303410  0.83562737  1
  Ca2+  Ca33  1  0.82423007  0.91674105  0.16764138  1
  Ca2+  Ca34  1  0.82410094  0.92078724  0.51111531  1
  Ca2+  Ca35  1  0.82056345  0.92405705  0.83249101  1
  Ca2+  Ca36  1  0.41651345  0.16892673  0.16708183  1
  Ca2+  Ca37  1  0.41625477  0.17214293  0.49874259  1
  Ca2+  Ca38  1  0.42501234  0.16848786  0.82286398  1
  Ca2+  Ca39  1  0.42867230  0.66424067  0.16512227  1
  Ca2+  Ca40  1  0.42814566  0.67547690  0.49168158  1
  Ca2+  Ca41  1  0.43160139  0.67569233  0.82327028  1
  Ca2+  Ca42  1  0.91186723  0.18240309  0.16079598  1
  Ca2+  Ca43  1  0.92028184  0.16570281  0.49615332  1
  Ca2+  Ca44  1  0.91988155  0.16691391  0.82492393  1
  Ca2+  Ca45  1  0.92037575  0.65738048  0.16450275  1
  Ca2+  Ca46  1  0.91795767  0.65994563  0.49399386  1
  Ca2+  Ca47  1  0.91173150  0.66350277  0.83065924  1
  Al0+  Al48  1  0.00091359  -0.00043190  0.00645759  1
  Al0+  Al49  1  0.00002538  -0.00145216  0.33150758  1
  Al0+  Al50  1  0.00055266  -0.00101938  0.66407379  1
  Al0+  Al51  1  0.00082700  0.50001403  -0.00278386  1
  Al0+  Al52  1  -0.00016755  0.49942919  0.33044361  1
  Al0+  Al53  1  0.00211013  0.49956965  0.67029008  1
  Al0+  Al54  1  0.49830651  0.00017819  0.00357629  1
  Al0+  Al55  1  0.49898977  -0.00155699  0.33469229  1
  Al0+  Al56  1  0.49866931  0.00042367  0.66938337  1
  Al0+  Al57  1  0.50105502  0.50067338  -0.00424875  1
  Al0+  Al58  1  0.50090102  0.49804161  0.32900280  1
  Al0+  Al59  1  0.50145965  0.50091639  0.66633236  1
  Al0+  Al60  1  0.24721428  0.25075479  0.00271423  1
  Al0+  Al61  1  0.24932439  0.24798197  0.33195587  1
  Al0+  Al62  1  0.24751208  0.24986354  0.66514222  1
  Al0+  Al63  1  0.24992543  0.74997968  0.00311484  1
  Al0+  Al64  1  0.24836911  0.74944718  0.33132153  1
  Al0+  Al65  1  0.24944698  0.74971938  0.66403963  1
  Al0+  Al66  1  0.74858678  0.25167517  -0.00919167  1
  Al0+  Al67  1  0.75054700  0.24942533  0.32906576  1
  Al0+  Al68  1  0.75143873  0.25339260  0.66880470  1
  Al0+  Al69  1  0.75226532  0.75125042  0.00520017  1
  Al0+  Al70  1  0.75087515  0.75109089  0.33532669  1
  Al0+  Al71  1  0.75307179  0.75197036  0.66958116  1
  Al0+  Al72  1  0.92935243  0.32265380  0.98309274  1
  Al0+  Al73  1  0.82012948  0.56878859  0.01581202  1
  Al0+  Al74  1  0.82278149  0.57106815  0.68224814  1
  Al0+  Al75  1  0.67606088  0.42970096  0.68249567  1
  Al0+  Al76  1  0.42928383  0.82200761  0.31729257  1
  Al0+  Al77  1  0.57371904  0.68069393  0.98500926  1
  Al0+  Al78  1  0.06863793  0.17791501  0.65316470  1
  Al0+  Al79  1  0.42849528  0.31991568  0.31953814  1
  Al0+  Al80  1  0.56752520  0.17849204  0.98654171  1
  Al0+  Al81  1  0.57320939  0.17851922  0.65162693  1
  Al0+  Al82  1  0.82386070  0.07323718  0.67939278  1
  Al0+  Al83  1  0.06876025  0.67966852  0.31977598  1
  Al0+  Al84  1  0.17839867  0.92827703  0.01472839  1
  Al0+  Al85  1  0.31992966  0.07008053  0.34887383  1
  Al0+  Al86  1  0.32287849  0.57036414  0.34711881  1
  Al0+  Al87  1  0.57468037  0.68045221  0.65205562  1
  Al0+  Al88  1  0.67859912  0.93017048  0.01609131  1
  Al0+  Al89  1  0.57325420  0.67832099  0.31826493  1
  Al0+  Al90  1  0.92942499  0.31890497  0.32065011  1
  Al0+  Al91  1  0.42650851  0.82139146  0.65232931  1
  Al0+  Al92  1  0.82041918  0.56991813  0.34675233  1
  Al0+  Al93  1  0.31952484  0.07183606  0.68073143  1
  Al0+  Al94  1  0.67789207  0.93180366  0.68138084  1
  Al0+  Al95  1  0.42773024  0.32083796  0.65216682  1
  Si0+  Si96  1  0.82138183  0.07229759  0.34564813  1
  Si0+  Si97  1  0.07201772  0.67638843  0.65243712  1
  Si0+  Si98  1  0.92737773  0.82392934  0.31497200  1
  Si0+  Si99  1  0.17907872  0.42967770  0.01515144  1
  Si0+  Si100  1  0.17623317  0.92705603  0.35208795  1
  Si0+  Si101  1  0.67982478  0.93000838  0.34912331  1
  Si0+  Si102  1  0.07218005  0.17590682  0.31463503  1
  Si0+  Si103  1  0.67795162  0.42463982  0.34826776  1
  Si0+  Si104  1  0.07230094  0.67991678  0.98396665  1
  Si0+  Si105  1  0.93113838  0.82004878  0.65279248  1
  Si0+  Si106  1  0.17783686  0.92600599  0.68149251  1
  Si0+  Si107  1  0.07100144  0.17701781  0.98441591  1
  Si0+  Si108  1  0.42665323  0.82034437  0.98417405  1
  Si0+  Si109  1  0.57246122  0.17697816  0.31758666  1
  Si0+  Si110  1  0.92888577  0.32460390  0.64957114  1
  Si0+  Si111  1  0.17786024  0.42810217  0.34985889  1
  Si0+  Si112  1  0.32163287  0.56987030  0.01384301  1
  Si0+  Si113  1  0.42495333  0.32280486  0.98423197  1
  Si0+  Si114  1  0.32064403  0.07276874  0.01811921  1
  Si0+  Si115  1  0.67656905  0.42650047  0.01775193  1
  Si0+  Si116  1  0.82232413  0.07387058  0.01671138  1
  Si0+  Si117  1  0.93025864  0.82226750  0.98533657  1
  Si0+  Si118  1  0.17945143  0.42939445  0.68201967  1
  Si0+  Si119  1  0.32088620  0.57257828  0.68106809  1
  O2-  O120  1  0.25251584  0.00296508  0.06142979  1
  O2-  O121  1  0.24474077  -0.00473371  0.39575428  1
  O2-  O122  1  0.24740891  -0.00672751  0.72597471  1
  O2-  O123  1  0.25398734  0.49592940  0.05706628  1
  O2-  O124  1  0.25032347  0.49265618  0.39443552  1
  O2-  O125  1  0.25297158  0.49829668  0.72408732  1
  O2-  O126  1  0.75099912  0.00848482  0.06242699  1
  O2-  O127  1  0.75149213  0.00164870  0.38894283  1
  O2-  O128  1  0.74486613  0.00996422  0.73074206  1
  O2-  O129  1  0.74459684  0.49518790  0.06334605  1
  O2-  O130  1  0.74255263  0.49809767  0.39118071  1
  O2-  O131  1  0.74811610  0.50243598  0.73221278  1
  O2-  O132  1  0.00261926  0.24354026  0.27080527  1
  O2-  O133  1  -0.00943212  0.24897514  0.60614874  1
  O2-  O134  1  0.00088281  0.24324283  0.93920472  1
  O2-  O135  1  -0.00535890  0.75373529  0.27084689  1
  O2-  O136  1  -0.00061195  0.74580490  0.61153791  1
  O2-  O137  1  0.00178310  0.75129233  0.94224335  1
  O2-  O138  1  0.50327199  0.24540075  0.27328732  1
  O2-  O139  1  0.50057578  0.24998067  0.60174148  1
  O2-  O140  1  0.49256300  0.25362734  0.94128218  1
  O2-  O141  1  0.49864868  0.74769691  0.26707451  1
  O2-  O142  1  0.50040127  0.75080683  0.60369933  1
  O2-  O143  1  0.49884076  0.75615029  0.93962931  1
  O2-  O144  1  0.07186094  0.17941688  0.08999573  1
  O2-  O145  1  0.07070694  0.17560497  0.42016560  1
  O2-  O146  1  0.06926465  0.18017467  0.76671629  1
  O2-  O147  1  0.07298951  0.67889264  0.08878933  1
  O2-  O148  1  0.06722134  0.68043273  0.43321207  1
  O2-  O149  1  0.07469692  0.67690622  0.75781335  1
  O2-  O150  1  0.56483494  0.17958665  0.10027568  1
  O2-  O151  1  0.57563017  0.17716873  0.42246353  1
  O2-  O152  1  0.56793548  0.17871179  0.76530814  1
  O2-  O153  1  0.57161271  0.68013993  0.09795483  1
  O2-  O154  1  0.57501464  0.68102280  0.43126550  1
  O2-  O155  1  0.57329140  0.68263506  0.76611827  1
  O2-  O156  1  0.17756153  0.43112822  0.24361607  1
  O2-  O157  1  0.17457345  0.43207256  0.57738193  1
  O2-  O158  1  0.17925635  0.43028916  0.90992517  1
  O2-  O159  1  0.17450197  0.92957186  0.24625382  1
  O2-  O160  1  0.17548748  0.92475491  0.57629485  1
  O2-  O161  1  0.17839887  0.92851365  0.90169033  1
  O2-  O162  1  0.68120579  0.41981413  0.24255500  1
  O2-  O163  1  0.67794325  0.43035859  0.56841183  1
  O2-  O164  1  0.67674961  0.42774605  0.91269186  1
  O2-  O165  1  0.68078343  0.93066880  0.24362610  1
  O2-  O166  1  0.68288085  0.92923898  0.56746504  1
  O2-  O167  1  0.68070260  0.92990960  0.90374119  1
  O2-  O168  1  0.42376409  0.32327031  0.08987296  1
  O2-  O169  1  0.42861762  0.31911900  0.43170404  1
  O2-  O170  1  0.42520480  0.31796120  0.76627829  1
  O2-  O171  1  0.42473538  0.81705484  0.08962594  1
  O2-  O172  1  0.43349529  0.82361656  0.43035335  1
  O2-  O173  1  0.42033381  0.81643711  0.76615004  1
  O2-  O174  1  0.93247789  0.32346371  0.09662925  1
  O2-  O175  1  0.93115019  0.31650310  0.43333585  1
  O2-  O176  1  0.93584072  0.32833725  0.75502411  1
  O2-  O177  1  0.93156519  0.82186807  0.09047643  1
  O2-  O178  1  0.92937842  0.82719148  0.42052093  1
  O2-  O179  1  0.93379426  0.82223009  0.75799386  1
  O2-  O180  1  0.31720450  0.06953343  0.23522383  1
  O2-  O181  1  0.31660555  0.07360557  0.56792098  1
  O2-  O182  1  0.31913938  0.07462620  0.91279222  1
  O2-  O183  1  0.32006159  0.56799953  0.23319485  1
  O2-  O184  1  0.31716627  0.57375915  0.57624827  1
  O2-  O185  1  0.31778171  0.57057463  0.90858258  1
  O2-  O186  1  0.82047585  0.07199180  0.24044058  1
  O2-  O187  1  0.82643382  0.06593423  0.56526081  1
  O2-  O188  1  0.82749118  0.06945143  0.91186356  1
  O2-  O189  1  0.82184491  0.56717313  0.23347669  1
  O2-  O190  1  0.82690840  0.56776904  0.56865137  1
  O2-  O191  1  0.82149656  0.56813009  0.90325008  1
  O2-  O192  1  0.04754053  0.08152615  0.26906325  1
  O2-  O193  1  0.04262464  0.08084767  0.59730051  1
  O2-  O194  1  0.04810361  0.08175214  0.94091322  1
  O2-  O195  1  0.03964551  0.58351312  0.26378646  1
  O2-  O196  1  0.04584502  0.58443460  0.60515955  1
  O2-  O197  1  0.04501473  0.58854813  0.93551568  1
  O2-  O198  1  0.54448679  0.08405963  0.27156682  1
  O2-  O199  1  0.54573061  0.07927244  0.60118539  1
  O2-  O200  1  0.53555153  0.08140641  0.93419918  1
  O2-  O201  1  0.54844900  0.57905609  0.26508938  1
  O2-  O202  1  0.54688234  0.58168517  0.60151639  1
  O2-  O203  1  0.54243885  0.58366689  0.93179851  1
  O2-  O204  1  0.16477912  0.20177515  0.26758965  1
  O2-  O205  1  0.16203677  0.21452248  0.59762159  1
  O2-  O206  1  0.16430771  0.20547907  0.93838717  1
  O2-  O207  1  0.16451777  0.70968999  0.26356918  1
  O2-  O208  1  0.16190663  0.70565975  0.60255897  1
  O2-  O209  1  0.16430242  0.70775928  0.93618854  1
  O2-  O210  1  0.66516267  0.20190882  0.26851172  1
  O2-  O211  1  0.67346795  0.20525573  0.60072781  1
  O2-  O212  1  0.66447688  0.20476317  0.93210454  1
  O2-  O213  1  0.67095642  0.71212163  0.26558500  1
  O2-  O214  1  0.67364221  0.70963346  0.60105555  1
  O2-  O215  1  0.67125721  0.71311923  0.93476240  1
  O2-  O216  1  0.08954149  0.46293273  0.06304872  1
  O2-  O217  1  0.08641130  0.45876071  0.39680522  1
  O2-  O218  1  0.09096843  0.46123789  0.73424869  1
  O2-  O219  1  0.08272725  0.95754761  0.07272933  1
  O2-  O220  1  0.08128501  0.95213588  0.39700298  1
  O2-  O221  1  0.08539249  0.95412116  0.72868844  1
  O2-  O222  1  0.58119091  0.45093238  0.06190762  1
  O2-  O223  1  0.58267772  0.44546130  0.39131619  1
  O2-  O224  1  0.57746565  0.45565643  0.73748522  1
  O2-  O225  1  0.58128741  0.95950300  0.07070562  1
  O2-  O226  1  0.58849549  0.95762182  0.39581786  1
  O2-  O227  1  0.57887975  0.95307798  0.73584795  1
  O2-  O228  1  0.19995616  0.33639795  0.06373186  1
  O2-  O229  1  0.19754205  0.33203847  0.39218337  1
  O2-  O230  1  0.20528500  0.33807319  0.73112034  1
  O2-  O231  1  0.20790706  0.83114369  0.06950406  1
  O2-  O232  1  0.19823409  0.83221236  0.39606504  1
  O2-  O233  1  0.20035474  0.83146693  0.72855993  1
  O2-  O234  1  0.70238127  0.33179477  0.06183895  1
  O2-  O235  1  0.70864935  0.33266622  0.39566550  1
  O2-  O236  1  0.70526908  0.33186232  0.73663921  1
  O2-  O237  1  0.71531031  0.83672890  0.07245252  1
  O2-  O238  1  0.70978201  0.83967814  0.39736771  1
  O2-  O239  1  0.71601529  0.83682568  0.73543997  1
  O2-  O240  1  0.45781901  0.41520759  0.26213703  1
  O2-  O241  1  0.45419158  0.42063023  0.60168551  1
  O2-  O242  1  0.44912398  0.41637321  0.93765889  1
  O2-  O243  1  0.45997457  0.91964767  0.26304559  1
  O2-  O244  1  0.45282660  0.92077147  0.60270786  1
  O2-  O245  1  0.44728651  0.91679018  0.94304913  1
  O2-  O246  1  0.96365520  0.41349735  0.26463634  1
  O2-  O247  1  0.96548768  0.41461908  0.60235779  1
  O2-  O248  1  0.96821734  0.41614957  0.92847917  1
  O2-  O249  1  0.95425173  0.91650519  0.26600908  1
  O2-  O250  1  0.96208535  0.90886029  0.60126071  1
  O2-  O251  1  0.95998491  0.91421580  0.93910780  1
  O2-  O252  1  0.33116614  0.28984428  0.26469379  1
  O2-  O253  1  0.32858660  0.29456724  0.60008274  1
  O2-  O254  1  0.32935495  0.29921920  0.94024883  1
  O2-  O255  1  0.32821838  0.79861559  0.26808163  1
  O2-  O256  1  0.32857604  0.79212789  0.59767235  1
  O2-  O257  1  0.33398458  0.79128270  0.93754756  1
  O2-  O258  1  0.83412434  0.28835527  0.26286603  1
  O2-  O259  1  0.83293502  0.30920870  0.60683078  1
  O2-  O260  1  0.83230564  0.29715051  0.92917600  1
  O2-  O261  1  0.83353446  0.79977821  0.27016644  1
  O2-  O262  1  0.84007104  0.79473791  0.60385987  1
  O2-  O263  1  0.83940543  0.79333319  0.93833030  1
  O2-  O264  1  0.41301044  0.04737925  0.06595088  1
  O2-  O265  1  0.41734733  0.04043240  0.40136697  1
  O2-  O266  1  0.41507611  0.04301082  0.73674837  1
  O2-  O267  1  0.41458207  0.54427399  0.05987754  1
  O2-  O268  1  0.42025460  0.54034065  0.39910683  1
  O2-  O269  1  0.41274194  0.54788480  0.72881310  1
  O2-  O270  1  0.91427645  0.04632306  0.06630518  1
  O2-  O271  1  0.91462793  0.04548765  0.39126096  1
  O2-  O272  1  0.91947301  0.03595201  0.73390668  1
  O2-  O273  1  0.91918324  0.53742883  0.06622081  1
  O2-  O274  1  0.91716029  0.53657497  0.39922572  1
  O2-  O275  1  0.92151090  0.54142357  0.73607818  1
  O2-  O276  1  0.29317457  0.16647313  0.06475027  1
  O2-  O277  1  0.28740101  0.16695346  0.40160005  1
  O2-  O278  1  0.28281197  0.16655314  0.73577514  1
  O2-  O279  1  0.29020736  0.65977679  0.06230738  1
  O2-  O280  1  0.28649899  0.66578614  0.39979077  1
  O2-  O281  1  0.28656965  0.66167970  0.73051768  1
  O2-  O282  1  0.79759761  0.16983343  0.05816288  1
  O2-  O283  1  0.79540076  0.16420796  0.39304478  1
  O2-  O284  1  0.81046363  0.17590464  0.72674629  1
  O2-  O285  1  0.79424493  0.66677722  0.06957342  1
  O2-  O286  1  0.79661334  0.66926866  0.39895526  1
  O2-  O287  1  0.80012864  0.67117720  0.73376248  1
