# generated using pymatgen
data_Ca2Al2SiO7
_symmetry_space_group_name_H-M   'P 1'
_cell_length_a   15.46245711
_cell_length_b   15.46376116
_cell_length_c   15.28704374
_cell_angle_alpha   89.99962024
_cell_angle_beta   90.00479476
_cell_angle_gamma   89.97766302
_symmetry_Int_Tables_number   1
_chemical_formula_structural   Ca2Al2SiO7
_chemical_formula_sum   'Ca48 Al48 Si24 O168'
_cell_volume   3655.25024479
_cell_formula_units_Z   24
loop_
 _symmetry_equiv_pos_site_id
 _symmetry_equiv_pos_as_xyz
  1  'x, y, z'
loop_
 _atom_type_symbol
 _atom_type_oxidation_number
  Ca2+  2.0
  Al0+  0.0
  Si0+  0.0
  O2-  -2.0
loop_
 _atom_site_type_symbol
 _atom_site_label
 _atom_site_symmetry_multiplicity
 _atom_site_fract_x
 _atom_site_fract_y
 _atom_site_fract_z
 _atom_site_occupancy
  Ca2+  Ca0  1  0.16795074  0.07722932  0.16879911  1
  Ca2+  Ca1  1  0.17500852  0.08754124  0.50986984  1
  Ca2+  Ca2  1  0.17106366  0.08290556  0.83561080  1
  Ca2+  Ca3  1  0.16715771  0.57878315  0.17203973  1
  Ca2+  Ca4  1  0.16893044  0.56969705  0.50375550  1
  Ca2+  Ca5  1  0.16285409  0.57703273  0.83998153  1
  Ca2+  Ca6  1  0.66875074  0.08114299  0.17025189  1
  Ca2+  Ca7  1  0.66470590  0.08433956  0.49919887  1
  Ca2+  Ca8  1  0.66859604  0.08484326  0.84347833  1
  Ca2+  Ca9  1  0.67003425  0.58381246  0.17080665  1
  Ca2+  Ca10  1  0.66303659  0.58547007  0.50391230  1
  Ca2+  Ca11  1  0.67250405  0.58216428  0.83919902  1
  Ca2+  Ca12  1  0.07553363  0.33441883  0.16511162  1
  Ca2+  Ca13  1  0.07948335  0.33445174  0.49808439  1
  Ca2+  Ca14  1  0.07317470  0.32946349  0.82632993  1
  Ca2+  Ca15  1  0.07855344  0.83076727  0.15806923  1
  Ca2+  Ca16  1  0.07570503  0.83300650  0.49208669  1
  Ca2+  Ca17  1  0.08832800  0.82942006  0.83629598  1
  Ca2+  Ca18  1  0.57861036  0.32178495  0.16042194  1
  Ca2+  Ca19  1  0.57802005  0.31944311  0.49030447  1
  Ca2+  Ca20  1  0.58206362  0.31987673  0.83132854  1
  Ca2+  Ca21  1  0.57798589  0.84185323  0.16529369  1
  Ca2+  Ca22  1  0.58275813  0.82418810  0.48859539  1
  Ca2+  Ca23  1  0.58302692  0.83387205  0.83231068  1
  Ca2+  Ca24  1  0.33005963  0.40964518  0.17597303  1
  Ca2+  Ca25  1  0.32216840  0.40432634  0.50285333  1
  Ca2+  Ca26  1  0.32753710  0.41251691  0.83810082  1
  Ca2+  Ca27  1  0.33054924  0.90646487  0.16855317  1
  Ca2+  Ca28  1  0.33848516  0.92219715  0.50256884  1
  Ca2+  Ca29  1  0.33237071  0.92232733  0.84118459  1
  Ca2+  Ca30  1  0.84191194  0.42095904  0.16891126  1
  Ca2+  Ca31  1  0.83583703  0.41310948  0.50174361  1
  Ca2+  Ca32  1  0.83734858  0.41766586  0.84092116  1
  Ca2+  Ca33  1  0.82335208  0.92711342  0.17626532  1
  Ca2+  Ca34  1  0.83058986  0.92141249  0.49648319  1
  Ca2+  Ca35  1  0.82365395  0.92846121  0.84755334  1
  Ca2+  Ca36  1  0.42673558  0.17350299  0.16267775  1
  Ca2+  Ca37  1  0.42481963  0.16417474  0.49453200  1
  Ca2+  Ca38  1  0.42675124  0.16182720  0.83094246  1
  Ca2+  Ca39  1  0.42353788  0.67531591  0.16467953  1
  Ca2+  Ca40  1  0.42781202  0.67110902  0.49183836  1
  Ca2+  Ca41  1  0.42191665  0.67569706  0.83045467  1
  Ca2+  Ca42  1  0.90491788  0.17464259  0.16305617  1
  Ca2+  Ca43  1  0.92036329  0.17564542  0.49376417  1
  Ca2+  Ca44  1  0.91661059  0.17526914  0.82762060  1
  Ca2+  Ca45  1  0.91921301  0.67228240  0.16159583  1
  Ca2+  Ca46  1  0.91738533  0.67554524  0.49304702  1
  Ca2+  Ca47  1  0.91964672  0.66371187  0.83599938  1
  Al0+  Al48  1  0.00096866  0.00052296  0.00728993  1
  Al0+  Al49  1  -0.00077343  0.00021115  0.33415797  1
  Al0+  Al50  1  -0.00074066  0.00060894  0.66512602  1
  Al0+  Al51  1  0.00074768  0.50014965  -0.00245247  1
  Al0+  Al52  1  0.00152920  0.49876552  0.33680661  1
  Al0+  Al53  1  -0.00003328  0.50199125  0.66724156  1
  Al0+  Al54  1  0.49896117  0.00071762  -0.00417261  1
  Al0+  Al55  1  0.49966077  -0.00216041  0.33022478  1
  Al0+  Al56  1  0.49930225  -0.00046599  0.66757323  1
  Al0+  Al57  1  0.49887553  0.50143549  -0.00356290  1
  Al0+  Al58  1  0.49995684  0.50119807  0.32811143  1
  Al0+  Al59  1  0.49995825  0.50097594  0.66555508  1
  Al0+  Al60  1  0.24807562  0.25016123  -0.00083080  1
  Al0+  Al61  1  0.24784061  0.24788146  0.33517406  1
  Al0+  Al62  1  0.24863313  0.24867406  0.67675368  1
  Al0+  Al63  1  0.25054248  0.74832261  -0.00503797  1
  Al0+  Al64  1  0.25148291  0.74660171  0.33546952  1
  Al0+  Al65  1  0.24920265  0.74923108  0.66474656  1
  Al0+  Al66  1  0.74827359  0.25257654  -0.00492309  1
  Al0+  Al67  1  0.75217805  0.25199160  0.33038231  1
  Al0+  Al68  1  0.74855741  0.25107050  0.65936096  1
  Al0+  Al69  1  0.75096270  0.75003702  0.00765470  1
  Al0+  Al70  1  0.75260628  0.75047749  0.33018913  1
  Al0+  Al71  1  0.74995359  0.74985130  0.66493533  1
  Al0+  Al72  1  0.18137430  0.92738916  0.01342907  1
  Al0+  Al73  1  0.56985633  0.17797337  0.65127857  1
  Al0+  Al74  1  0.82137228  0.07454485  0.35152647  1
  Al0+  Al75  1  0.56929299  0.18016290  0.98388220  1
  Al0+  Al76  1  0.42574669  0.32382854  0.98392596  1
  Al0+  Al77  1  0.93078792  0.31992709  0.98698180  1
  Al0+  Al78  1  0.42965722  0.81978252  0.98483694  1
  Al0+  Al79  1  0.57149541  0.67970630  0.65418193  1
  Al0+  Al80  1  0.67820613  0.92944440  0.35048287  1
  Al0+  Al81  1  0.93055820  0.82298219  0.31869351  1
  Al0+  Al82  1  0.32160629  0.06899225  0.68140574  1
  Al0+  Al83  1  0.57393056  0.67758791  0.31638116  1
  Al0+  Al84  1  0.07168966  0.17816656  0.65253353  1
  Al0+  Al85  1  0.42585883  0.31958282  0.32145545  1
  Al0+  Al86  1  0.57225508  0.17821589  0.31741203  1
  Al0+  Al87  1  0.82115955  0.07504316  0.01377718  1
  Al0+  Al88  1  0.17893894  0.43051965  0.68393939  1
  Al0+  Al89  1  0.82252920  0.56908229  0.01416881  1
  Al0+  Al90  1  0.67675792  0.92941438  0.01510565  1
  Al0+  Al91  1  0.93142158  0.32131433  0.31851369  1
  Al0+  Al92  1  0.42848580  0.82021279  0.31867366  1
  Al0+  Al93  1  0.06993185  0.68023471  0.98703274  1
  Al0+  Al94  1  0.18022641  0.42855408  0.34738010  1
  Al0+  Al95  1  0.92945496  0.32283743  0.65010680  1
  Si0+  Si96  1  0.07275589  0.17665628  0.31632728  1
  Si0+  Si97  1  0.92865441  0.82093163  0.65365436  1
  Si0+  Si98  1  0.67836034  0.42829314  0.68011784  1
  Si0+  Si99  1  0.32395487  0.57189096  0.35126225  1
  Si0+  Si100  1  0.32153755  0.57112068  0.01438533  1
  Si0+  Si101  1  0.31885259  0.06903080  0.34690381  1
  Si0+  Si102  1  0.07162624  0.67925987  0.65057699  1
  Si0+  Si103  1  0.32128423  0.07267321  0.01835486  1
  Si0+  Si104  1  0.67769090  0.43031775  0.34742238  1
  Si0+  Si105  1  0.17511943  0.92593227  0.68259119  1
  Si0+  Si106  1  0.32261149  0.57365550  0.68482747  1
  Si0+  Si107  1  0.42723324  0.32216324  0.65233770  1
  Si0+  Si108  1  0.68080765  0.92791577  0.68065363  1
  Si0+  Si109  1  0.82014433  0.07231219  0.68040269  1
  Si0+  Si110  1  0.42732805  0.82143981  0.65022049  1
  Si0+  Si111  1  0.17842191  0.92550813  0.34810000  1
  Si0+  Si112  1  0.57500640  0.67802428  0.98275039  1
  Si0+  Si113  1  0.92765284  0.82329874  0.98399809  1
  Si0+  Si114  1  0.81968444  0.57261194  0.68100912  1
  Si0+  Si115  1  0.07088581  0.67815388  0.31913217  1
  Si0+  Si116  1  0.07283346  0.17483936  0.98401174  1
  Si0+  Si117  1  0.67614919  0.42992900  0.01598685  1
  Si0+  Si118  1  0.17973901  0.42946381  0.01569822  1
  Si0+  Si119  1  0.82176662  0.57026211  0.34947935  1
  O2-  O120  1  0.25434782  0.00218847  0.06297900  1
  O2-  O121  1  0.24917510  -0.00366741  0.39011466  1
  O2-  O122  1  0.24520544  -0.00634749  0.72521212  1
  O2-  O123  1  0.25629280  0.49477739  0.05707855  1
  O2-  O124  1  0.25924462  0.49882743  0.39485635  1
  O2-  O125  1  0.25476470  0.50486182  0.73056659  1
  O2-  O126  1  0.75039310  0.00118395  0.06249817  1
  O2-  O127  1  0.74773414  0.00362819  0.40205764  1
  O2-  O128  1  0.74817835  0.00228795  0.72284607  1
  O2-  O129  1  0.74579057  0.49720245  0.06142571  1
  O2-  O130  1  0.74778122  0.50231844  0.39161749  1
  O2-  O131  1  0.75078885  0.49893706  0.72186380  1
  O2-  O132  1  0.00126694  0.24227891  0.27236504  1
  O2-  O133  1  0.00180943  0.25096214  0.60074688  1
  O2-  O134  1  0.00053303  0.24053369  0.94128791  1
  O2-  O135  1  0.00778703  0.75024955  0.27346051  1
  O2-  O136  1  0.00336932  0.75351353  0.61048988  1
  O2-  O137  1  -0.00384702  0.75520023  0.93765752  1
  O2-  O138  1  0.50084054  0.25245076  0.27037789  1
  O2-  O139  1  0.49473459  0.25334916  0.60693155  1
  O2-  O140  1  0.49608086  0.25118778  0.93330269  1
  O2-  O141  1  0.50375414  0.75196326  0.26823810  1
  O2-  O142  1  0.49519693  0.75196303  0.60717563  1
  O2-  O143  1  0.50886081  0.74921927  0.93867069  1
  O2-  O144  1  0.07828352  0.17759450  0.08945714  1
  O2-  O145  1  0.07572041  0.17817427  0.42186114  1
  O2-  O146  1  0.06724787  0.17640224  0.76606429  1
  O2-  O147  1  0.06953333  0.67993070  0.10000352  1
  O2-  O148  1  0.06805060  0.67918324  0.42537705  1
  O2-  O149  1  0.07146563  0.67812995  0.75553948  1
  O2-  O150  1  0.56923441  0.18153285  0.09698050  1
  O2-  O151  1  0.56855867  0.17927522  0.43162270  1
  O2-  O152  1  0.57196457  0.17830341  0.76391289  1
  O2-  O153  1  0.57240897  0.67397909  0.08757274  1
  O2-  O154  1  0.57138415  0.67789333  0.43065562  1
  O2-  O155  1  0.57410026  0.68258889  0.76711301  1
  O2-  O156  1  0.17868155  0.43223292  0.23412909  1
  O2-  O157  1  0.17921917  0.43271328  0.57064442  1
  O2-  O158  1  0.17798215  0.43237013  0.91062919  1
  O2-  O159  1  0.17941307  0.92435770  0.24319641  1
  O2-  O160  1  0.17436613  0.92401564  0.57677815  1
  O2-  O161  1  0.18310027  0.92764750  0.90009739  1
  O2-  O162  1  0.67879111  0.43159302  0.24257874  1
  O2-  O163  1  0.67760007  0.42976574  0.57503187  1
  O2-  O164  1  0.67696666  0.43204293  0.90978009  1
  O2-  O165  1  0.67954812  0.93019193  0.23756900  1
  O2-  O166  1  0.68325935  0.92493946  0.57605134  1
  O2-  O167  1  0.68004187  0.92841227  0.90015998  1
  O2-  O168  1  0.42642495  0.32207596  0.09737272  1
  O2-  O169  1  0.42534829  0.31522111  0.43548026  1
  O2-  O170  1  0.43113613  0.32316191  0.75764046  1
  O2-  O171  1  0.42634576  0.81488378  0.09713401  1
  O2-  O172  1  0.42624175  0.81760849  0.43269672  1
  O2-  O173  1  0.42719590  0.82041276  0.75578604  1
  O2-  O174  1  0.93530503  0.32316937  0.09988217  1
  O2-  O175  1  0.93458043  0.32421481  0.43133706  1
  O2-  O176  1  0.92909791  0.32242432  0.76378926  1
  O2-  O177  1  0.93055333  0.82086252  0.08911211  1
  O2-  O178  1  0.93233662  0.81971805  0.43295725  1
  O2-  O179  1  0.92716097  0.81884320  0.75846798  1
  O2-  O180  1  0.31512919  0.07106067  0.24216950  1
  O2-  O181  1  0.32210021  0.06632685  0.56771135  1
  O2-  O182  1  0.31897310  0.07123923  0.91255959  1
  O2-  O183  1  0.31968656  0.57574785  0.24577403  1
  O2-  O184  1  0.32031395  0.57537828  0.57945930  1
  O2-  O185  1  0.31873902  0.57229511  0.90910101  1
  O2-  O186  1  0.82192734  0.07314041  0.23843826  1
  O2-  O187  1  0.82145481  0.07021322  0.57582646  1
  O2-  O188  1  0.82082467  0.07307526  0.89892626  1
  O2-  O189  1  0.82559268  0.56766717  0.24470827  1
  O2-  O190  1  0.81912172  0.57623333  0.57594940  1
  O2-  O191  1  0.82173594  0.56781853  0.90022013  1
  O2-  O192  1  0.05200747  0.08150518  0.27240248  1
  O2-  O193  1  0.04574931  0.07889248  0.59897455  1
  O2-  O194  1  0.05200684  0.07945422  0.93980179  1
  O2-  O195  1  0.04078101  0.58639672  0.27324447  1
  O2-  O196  1  0.03980179  0.58975164  0.60186085  1
  O2-  O197  1  0.03630408  0.58573892  0.93029913  1
  O2-  O198  1  0.54203682  0.08081392  0.26624544  1
  O2-  O199  1  0.53861253  0.08076086  0.59895540  1
  O2-  O200  1  0.54126882  0.08244382  0.92915961  1
  O2-  O201  1  0.54453191  0.58066167  0.26149296  1
  O2-  O202  1  0.54304234  0.58235977  0.59985049  1
  O2-  O203  1  0.54677053  0.58603272  0.93430119  1
  O2-  O204  1  0.16414747  0.20553805  0.26818592  1
  O2-  O205  1  0.17213908  0.20608659  0.60366090  1
  O2-  O206  1  0.16423582  0.20447464  0.93571864  1
  O2-  O207  1  0.16657575  0.69764444  0.27621470  1
  O2-  O208  1  0.16400841  0.70323185  0.60205113  1
  O2-  O209  1  0.16466775  0.71012876  0.92911734  1
  O2-  O210  1  0.67017561  0.20798562  0.26639808  1
  O2-  O211  1  0.66466521  0.21003061  0.59552802  1
  O2-  O212  1  0.66603611  0.21156558  0.92826814  1
  O2-  O213  1  0.67406365  0.70013961  0.26673793  1
  O2-  O214  1  0.66747740  0.71100557  0.59875882  1
  O2-  O215  1  0.67040563  0.70169515  0.93893353  1
  O2-  O216  1  0.09054336  0.46439774  0.06314380  1
  O2-  O217  1  0.08656674  0.46525441  0.40448663  1
  O2-  O218  1  0.08254293  0.46597954  0.73667197  1
  O2-  O219  1  0.08484669  0.95499018  0.06940140  1
  O2-  O220  1  0.08673643  0.95251382  0.39585353  1
  O2-  O221  1  0.08168761  0.95137530  0.72952377  1
  O2-  O222  1  0.58250247  0.45652716  0.06150793  1
  O2-  O223  1  0.58517114  0.45673941  0.39506067  1
  O2-  O224  1  0.58717655  0.45702682  0.72860971  1
  O2-  O225  1  0.57744459  0.95776219  0.06502839  1
  O2-  O226  1  0.57719297  0.95305060  0.40178626  1
  O2-  O227  1  0.58705896  0.95124204  0.72566990  1
  O2-  O228  1  0.20089266  0.33559846  0.06217233  1
  O2-  O229  1  0.20762482  0.33092234  0.40227794  1
  O2-  O230  1  0.20597484  0.33427384  0.73980796  1
  O2-  O231  1  0.21294715  0.83005410  0.06586195  1
  O2-  O232  1  0.20478757  0.83341465  0.39695874  1
  O2-  O233  1  0.19969565  0.83103592  0.72741265  1
  O2-  O234  1  0.70101543  0.33612793  0.06010275  1
  O2-  O235  1  0.70756634  0.33950815  0.39553610  1
  O2-  O236  1  0.70669205  0.33643718  0.72744029  1
  O2-  O237  1  0.70204507  0.83067740  0.06796185  1
  O2-  O238  1  0.71224763  0.83033612  0.40141047  1
  O2-  O239  1  0.71267478  0.83764773  0.72952726  1
  O2-  O240  1  0.44654600  0.42038906  0.27167916  1
  O2-  O241  1  0.45043694  0.41639267  0.60639215  1
  O2-  O242  1  0.45161511  0.42318547  0.93088269  1
  O2-  O243  1  0.45081430  0.91881555  0.26497723  1
  O2-  O244  1  0.45403468  0.91430941  0.60468422  1
  O2-  O245  1  0.45525361  0.91726645  0.93063662  1
  O2-  O246  1  0.96728222  0.41725700  0.26580167  1
  O2-  O247  1  0.95687320  0.42293226  0.59967984  1
  O2-  O248  1  0.96633001  0.41425523  0.93144771  1
  O2-  O249  1  0.96006846  0.91929526  0.26517041  1
  O2-  O250  1  0.95322468  0.91287705  0.60536042  1
  O2-  O251  1  0.95405360  0.91748628  0.93955342  1
  O2-  O252  1  0.32853181  0.28832254  0.26794664  1
  O2-  O253  1  0.33204316  0.29602467  0.61162534  1
  O2-  O254  1  0.32571827  0.29718928  0.93323907  1
  O2-  O255  1  0.33007937  0.78763053  0.26680901  1
  O2-  O256  1  0.33258921  0.79842925  0.60459557  1
  O2-  O257  1  0.33611549  0.78395936  0.92781045  1
  O2-  O258  1  0.83351539  0.29801959  0.26491974  1
  O2-  O259  1  0.83125250  0.29551370  0.59701267  1
  O2-  O260  1  0.83263642  0.29724847  0.93262184  1
  O2-  O261  1  0.83671806  0.78911573  0.26408525  1
  O2-  O262  1  0.83994753  0.78753918  0.60368225  1
  O2-  O263  1  0.83388385  0.79576840  0.93908876  1
  O2-  O264  1  0.41565645  0.04885671  0.06133613  1
  O2-  O265  1  0.41070032  0.04137561  0.39411819  1
  O2-  O266  1  0.41703110  0.03574318  0.73738870  1
  O2-  O267  1  0.41570853  0.55051509  0.06027831  1
  O2-  O268  1  0.41962276  0.55154208  0.39509784  1
  O2-  O269  1  0.41733354  0.55003986  0.73002359  1
  O2-  O270  1  0.92042654  0.05139510  0.06665810  1
  O2-  O271  1  0.92037193  0.04255418  0.40386410  1
  O2-  O272  1  0.91180917  0.04341413  0.72788512  1
  O2-  O273  1  0.91841560  0.53574618  0.06829777  1
  O2-  O274  1  0.91204749  0.53984786  0.39949232  1
  O2-  O275  1  0.91242978  0.54781339  0.72805616  1
  O2-  O276  1  0.29270077  0.16584767  0.06402912  1
  O2-  O277  1  0.28870873  0.15870367  0.39750518  1
  O2-  O278  1  0.29239016  0.16378408  0.73915776  1
  O2-  O279  1  0.28682765  0.65982351  0.06254093  1
  O2-  O280  1  0.29341378  0.66250519  0.40224994  1
  O2-  O281  1  0.29565734  0.66776767  0.73032723  1
  O2-  O282  1  0.79092493  0.17388842  0.06421760  1
  O2-  O283  1  0.79615350  0.17507431  0.40246319  1
  O2-  O284  1  0.79208860  0.16541108  0.72509424  1
  O2-  O285  1  0.79677120  0.66615546  0.06895027  1
  O2-  O286  1  0.79751324  0.66316043  0.39651027  1
  O2-  O287  1  0.78942958  0.66300812  0.73071601  1
