# generated using pymatgen
data_Ca2Al2SiO7
_symmetry_space_group_name_H-M   'P 1'
_cell_length_a   15.46181082
_cell_length_b   15.46199407
_cell_length_c   15.28761877
_cell_angle_alpha   89.98763252
_cell_angle_beta   90.01353229
_cell_angle_gamma   90.00523838
_symmetry_Int_Tables_number   1
_chemical_formula_structural   Ca2Al2SiO7
_chemical_formula_sum   'Ca48 Al48 Si24 O168'
_cell_volume   3654.81734707
_cell_formula_units_Z   24
loop_
 _symmetry_equiv_pos_site_id
 _symmetry_equiv_pos_as_xyz
  1  'x, y, z'
loop_
 _atom_type_symbol
 _atom_type_oxidation_number
  Ca2+  2.0
  Al0+  0.0
  Si0+  0.0
  O2-  -2.0
loop_
 _atom_site_type_symbol
 _atom_site_label
 _atom_site_symmetry_multiplicity
 _atom_site_fract_x
 _atom_site_fract_y
 _atom_site_fract_z
 _atom_site_occupancy
  Ca2+  Ca0  1  0.17722650  0.08026232  0.17492772  1
  Ca2+  Ca1  1  0.17168179  0.08617533  0.50299180  1
  Ca2+  Ca2  1  0.16528684  0.08462047  0.83638653  1
  Ca2+  Ca3  1  0.17272997  0.57659713  0.17287155  1
  Ca2+  Ca4  1  0.17017956  0.58232588  0.49937366  1
  Ca2+  Ca5  1  0.16457803  0.58128950  0.84197785  1
  Ca2+  Ca6  1  0.65002794  0.07355028  0.17111983  1
  Ca2+  Ca7  1  0.66482053  0.07693067  0.50120447  1
  Ca2+  Ca8  1  0.66895437  0.07914486  0.83995167  1
  Ca2+  Ca9  1  0.67013622  0.57848516  0.17646538  1
  Ca2+  Ca10  1  0.67063253  0.57945154  0.50791009  1
  Ca2+  Ca11  1  0.67282361  0.58168767  0.84207498  1
  Ca2+  Ca12  1  0.07812702  0.34702458  0.16583924  1
  Ca2+  Ca13  1  0.07499951  0.33313994  0.49192925  1
  Ca2+  Ca14  1  0.08053550  0.33121430  0.82786423  1
  Ca2+  Ca15  1  0.07855816  0.82440607  0.15978089  1
  Ca2+  Ca16  1  0.07816723  0.82738331  0.49796981  1
  Ca2+  Ca17  1  0.08035747  0.81875808  0.82724768  1
  Ca2+  Ca18  1  0.58756990  0.32598399  0.15902008  1
  Ca2+  Ca19  1  0.59376222  0.32814659  0.49165163  1
  Ca2+  Ca20  1  0.58178444  0.34280109  0.83364173  1
  Ca2+  Ca21  1  0.58590812  0.82520572  0.16658385  1
  Ca2+  Ca22  1  0.58463531  0.82238589  0.48974651  1
  Ca2+  Ca23  1  0.59363498  0.82144093  0.83544553  1
  Ca2+  Ca24  1  0.32336327  0.41373018  0.17138732  1
  Ca2+  Ca25  1  0.33246092  0.42290295  0.49706701  1
  Ca2+  Ca26  1  0.32607104  0.41444530  0.84152141  1
  Ca2+  Ca27  1  0.34131766  0.92210270  0.17701951  1
  Ca2+  Ca28  1  0.34225691  0.92089715  0.49727803  1
  Ca2+  Ca29  1  0.33190227  0.91748625  0.83731241  1
  Ca2+  Ca30  1  0.82502042  0.42520529  0.17169836  1
  Ca2+  Ca31  1  0.82347300  0.42153235  0.49930653  1
  Ca2+  Ca32  1  0.82054983  0.42544415  0.83703502  1
  Ca2+  Ca33  1  0.81862913  0.91760709  0.16980201  1
  Ca2+  Ca34  1  0.82715445  0.92212382  0.50206731  1
  Ca2+  Ca35  1  0.83097567  0.92431766  0.83682315  1
  Ca2+  Ca36  1  0.42433153  0.17145453  0.16351775  1
  Ca2+  Ca37  1  0.42278330  0.16949202  0.48935734  1
  Ca2+  Ca38  1  0.42378882  0.17422375  0.83718317  1
  Ca2+  Ca39  1  0.42964867  0.65900779  0.16821874  1
  Ca2+  Ca40  1  0.42892222  0.66872069  0.49031711  1
  Ca2+  Ca41  1  0.43428184  0.66082184  0.83117835  1
  Ca2+  Ca42  1  0.91515503  0.17817738  0.16569248  1
  Ca2+  Ca43  1  0.91725351  0.17135377  0.49398524  1
  Ca2+  Ca44  1  0.91982366  0.16755906  0.82258058  1
  Ca2+  Ca45  1  0.91922725  0.65484381  0.16145614  1
  Ca2+  Ca46  1  0.91907962  0.65142965  0.49796923  1
  Ca2+  Ca47  1  0.92288064  0.65457630  0.83105715  1
  Al0+  Al48  1  0.00057358  -0.00043581  0.00155606  1
  Al0+  Al49  1  0.00137755  -0.00122759  0.33077715  1
  Al0+  Al50  1  0.00206192  -0.00098428  0.66580257  1
  Al0+  Al51  1  0.00048322  0.49859086  0.00036813  1
  Al0+  Al52  1  -0.00052218  0.49780050  0.33553029  1
  Al0+  Al53  1  -0.00030060  0.49782747  0.66407959  1
  Al0+  Al54  1  0.49953055  0.00165490  -0.00279001  1
  Al0+  Al55  1  0.49983622  -0.00000760  0.33765791  1
  Al0+  Al56  1  0.49819782  0.00240386  0.67061236  1
  Al0+  Al57  1  0.49865517  0.49987510  -0.00555908  1
  Al0+  Al58  1  0.49739352  0.49748097  0.33655630  1
  Al0+  Al59  1  0.49634263  0.50063274  0.66445185  1
  Al0+  Al60  1  0.25053622  0.24956762  0.00121390  1
  Al0+  Al61  1  0.24958806  0.24682299  0.34197239  1
  Al0+  Al62  1  0.25077418  0.24919792  0.66315013  1
  Al0+  Al63  1  0.24845902  0.75016772  -0.00383063  1
  Al0+  Al64  1  0.24881355  0.75112989  0.33355921  1
  Al0+  Al65  1  0.24879570  0.75106428  0.66275658  1
  Al0+  Al66  1  0.75298915  0.24995102  -0.00325496  1
  Al0+  Al67  1  0.75339985  0.25013136  0.32497141  1
  Al0+  Al68  1  0.74888393  0.24966183  0.67462373  1
  Al0+  Al69  1  0.75250351  0.75503757  0.00312869  1
  Al0+  Al70  1  0.75224969  0.75178719  0.33845739  1
  Al0+  Al71  1  0.75180380  0.75085626  0.66658312  1
  Al0+  Al72  1  0.67900640  0.93243008  0.01395848  1
  Al0+  Al73  1  0.57193795  0.68011780  0.65327346  1
  Al0+  Al74  1  0.57288312  0.68010024  0.98815100  1
  Al0+  Al75  1  0.82173414  0.07007683  0.67804673  1
  Al0+  Al76  1  0.67612271  0.42897639  0.01589358  1
  Al0+  Al77  1  0.82188723  0.57172522  0.68301566  1
  Al0+  Al78  1  0.67736418  0.42619882  0.34555999  1
  Al0+  Al79  1  0.57307451  0.67659057  0.31928020  1
  Al0+  Al80  1  0.07151510  0.17804693  0.65229876  1
  Al0+  Al81  1  0.42773328  0.32140070  0.98556801  1
  Al0+  Al82  1  0.67907042  0.93077694  0.34784845  1
  Al0+  Al83  1  0.67538625  0.42940137  0.68237094  1
  Al0+  Al84  1  0.57138192  0.18086225  0.32150926  1
  Al0+  Al85  1  0.57257864  0.17862673  0.98307574  1
  Al0+  Al86  1  0.07011609  0.67694841  0.65064011  1
  Al0+  Al87  1  0.32143790  0.57337369  0.34853075  1
  Al0+  Al88  1  0.32072431  0.06839600  0.34791003  1
  Al0+  Al89  1  0.81952360  0.57174310  0.34869452  1
  Al0+  Al90  1  0.06912225  0.67868310  0.98743566  1
  Al0+  Al91  1  0.18026470  0.42835991  0.01180750  1
  Al0+  Al92  1  0.93103951  0.32106760  0.31777496  1
  Al0+  Al93  1  0.42919590  0.82066870  0.31985036  1
  Al0+  Al94  1  0.17845891  0.42879059  0.35051853  1
  Al0+  Al95  1  0.82030185  0.57159191  0.01468172  1
  Si0+  Si96  1  0.17514785  0.92734853  0.35127728  1
  Si0+  Si97  1  0.31853372  0.57330647  0.68261802  1
  Si0+  Si98  1  0.42769027  0.82398476  0.65123181  1
  Si0+  Si99  1  0.92921085  0.82293173  0.64920975  1
  Si0+  Si100  1  0.32200416  0.57458054  0.01430695  1
  Si0+  Si101  1  0.42471750  0.32124109  0.31845026  1
  Si0+  Si102  1  0.42777079  0.32049946  0.64985491  1
  Si0+  Si103  1  0.57066801  0.17924548  0.65222321  1
  Si0+  Si104  1  0.92672262  0.31937917  0.64967045  1
  Si0+  Si105  1  0.17986412  0.92872907  0.68277329  1
  Si0+  Si106  1  0.82499127  0.07187243  0.34698176  1
  Si0+  Si107  1  0.82570465  0.07294104  0.01760822  1
  Si0+  Si108  1  0.07346324  0.17664695  0.31545145  1
  Si0+  Si109  1  0.42741755  0.82333135  0.98331544  1
  Si0+  Si110  1  0.93070971  0.32106626  0.98198527  1
  Si0+  Si111  1  0.17855740  0.92738525  0.01441967  1
  Si0+  Si112  1  0.07084067  0.17754575  0.98650087  1
  Si0+  Si113  1  0.92920596  0.82417884  0.31719417  1
  Si0+  Si114  1  0.92929868  0.82509418  0.98220032  1
  Si0+  Si115  1  0.18089766  0.42844209  0.68097307  1
  Si0+  Si116  1  0.31912008  0.06936818  0.01449003  1
  Si0+  Si117  1  0.67655898  0.92904087  0.68406152  1
  Si0+  Si118  1  0.06913531  0.67919783  0.31818516  1
  Si0+  Si119  1  0.32065468  0.07256265  0.68511215  1
  O2-  O120  1  0.25137761  -0.00459936  0.05718412  1
  O2-  O121  1  0.24570256  -0.00601619  0.39549363  1
  O2-  O122  1  0.25037829  0.00010421  0.72644341  1
  O2-  O123  1  0.25573673  0.50270291  0.05686746  1
  O2-  O124  1  0.25039980  0.50073178  0.40037590  1
  O2-  O125  1  0.24737769  0.50237498  0.72527006  1
  O2-  O126  1  0.75096430  0.01065056  0.06055030  1
  O2-  O127  1  0.75417018  0.00648615  0.39230302  1
  O2-  O128  1  0.74648355  -0.00271248  0.72691637  1
  O2-  O129  1  0.74301353  0.50596031  0.06503233  1
  O2-  O130  1  0.74132287  0.50512032  0.39655270  1
  O2-  O131  1  0.74431685  0.50503904  0.73147719  1
  O2-  O132  1  0.00773395  0.24690708  0.27033790  1
  O2-  O133  1  -0.00535814  0.24923232  0.60554760  1
  O2-  O134  1  -0.00040110  0.24626296  0.94169460  1
  O2-  O135  1  -0.00358699  0.74872069  0.27633802  1
  O2-  O136  1  -0.00883747  0.74785663  0.60467939  1
  O2-  O137  1  -0.00629523  0.75191668  0.93890774  1
  O2-  O138  1  0.49988974  0.25922141  0.27555907  1
  O2-  O139  1  0.50407550  0.25408876  0.60965897  1
  O2-  O140  1  0.50590974  0.25638017  0.93341203  1
  O2-  O141  1  0.49828865  0.74681596  0.26936104  1
  O2-  O142  1  0.49888391  0.75795668  0.60884197  1
  O2-  O143  1  0.49586551  0.75395373  0.94043297  1
  O2-  O144  1  0.07025453  0.17468988  0.09113966  1
  O2-  O145  1  0.07049376  0.17447611  0.42107415  1
  O2-  O146  1  0.07254624  0.18065144  0.76614741  1
  O2-  O147  1  0.07085177  0.68159860  0.10048537  1
  O2-  O148  1  0.06874330  0.68102654  0.42352213  1
  O2-  O149  1  0.07323240  0.67931366  0.76379418  1
  O2-  O150  1  0.56551259  0.17502493  0.09625632  1
  O2-  O151  1  0.57027291  0.17991478  0.43552924  1
  O2-  O152  1  0.56691641  0.17490709  0.75678925  1
  O2-  O153  1  0.57229929  0.68005420  0.10050164  1
  O2-  O154  1  0.57303036  0.67973476  0.43305814  1
  O2-  O155  1  0.57048118  0.68151789  0.76685548  1
  O2-  O156  1  0.17935373  0.43114353  0.23669231  1
  O2-  O157  1  0.18383391  0.42751546  0.57648563  1
  O2-  O158  1  0.18011322  0.42771195  0.89796820  1
  O2-  O159  1  0.17212264  0.92985974  0.24545434  1
  O2-  O160  1  0.18034718  0.92864871  0.57805623  1
  O2-  O161  1  0.17846212  0.92934355  0.90906578  1
  O2-  O162  1  0.68075545  0.42436439  0.23241589  1
  O2-  O163  1  0.67799064  0.42544754  0.56915692  1
  O2-  O164  1  0.67933530  0.43119411  0.90216717  1
  O2-  O165  1  0.67933409  0.93193160  0.23478853  1
  O2-  O166  1  0.67458310  0.93149393  0.57864724  1
  O2-  O167  1  0.68251504  0.93313524  0.90040382  1
  O2-  O168  1  0.41892669  0.31451238  0.09819602  1
  O2-  O169  1  0.42161797  0.31631964  0.42444653  1
  O2-  O170  1  0.42256503  0.31754904  0.75466628  1
  O2-  O171  1  0.42586635  0.82578966  0.08818401  1
  O2-  O172  1  0.43267405  0.82130817  0.43379753  1
  O2-  O173  1  0.42464285  0.82424318  0.75696586  1
  O2-  O174  1  0.93268107  0.32117176  0.08690171  1
  O2-  O175  1  0.93137140  0.31694486  0.43100455  1
  O2-  O176  1  0.93075721  0.31843794  0.75559077  1
  O2-  O177  1  0.93424392  0.83115012  0.08747062  1
  O2-  O178  1  0.93346850  0.83134254  0.42192528  1
  O2-  O179  1  0.93450587  0.82796375  0.75456650  1
  O2-  O180  1  0.31834105  0.06786655  0.23445700  1
  O2-  O181  1  0.32199870  0.07194369  0.58047210  1
  O2-  O182  1  0.31596438  0.06900467  0.90892901  1
  O2-  O183  1  0.31815281  0.57430253  0.23481649  1
  O2-  O184  1  0.31830165  0.57261070  0.57794237  1
  O2-  O185  1  0.31841801  0.57654596  0.90813002  1
  O2-  O186  1  0.82967827  0.06776186  0.24173688  1
  O2-  O187  1  0.82013668  0.06871384  0.56504117  1
  O2-  O188  1  0.83154950  0.06836881  0.91186858  1
  O2-  O189  1  0.82243641  0.56966302  0.23532920  1
  O2-  O190  1  0.82233247  0.56722590  0.56994819  1
  O2-  O191  1  0.82251815  0.56781305  0.90118586  1
  O2-  O192  1  0.04773546  0.08309526  0.26834665  1
  O2-  O193  1  0.04604956  0.07986301  0.59937611  1
  O2-  O194  1  0.04495348  0.08488094  0.93809274  1
  O2-  O195  1  0.04230415  0.58684214  0.27250175  1
  O2-  O196  1  0.04398672  0.57895397  0.59710045  1
  O2-  O197  1  0.03986139  0.58194137  0.93246389  1
  O2-  O198  1  0.53337161  0.08586903  0.26981599  1
  O2-  O199  1  0.53806039  0.08815980  0.60494887  1
  O2-  O200  1  0.53561109  0.08336882  0.92705592  1
  O2-  O201  1  0.54334418  0.57688982  0.26875547  1
  O2-  O202  1  0.53645871  0.58465241  0.60013897  1
  O2-  O203  1  0.54191080  0.58495924  0.93080683  1
  O2-  O204  1  0.16904832  0.19942115  0.27296314  1
  O2-  O205  1  0.16768119  0.20969931  0.59812049  1
  O2-  O206  1  0.16224639  0.20558648  0.93866481  1
  O2-  O207  1  0.16003209  0.70883685  0.27054891  1
  O2-  O208  1  0.16488735  0.71393321  0.59621976  1
  O2-  O209  1  0.16456770  0.71161907  0.93045557  1
  O2-  O210  1  0.66859608  0.20280982  0.26544821  1
  O2-  O211  1  0.66477823  0.20261181  0.60805403  1
  O2-  O212  1  0.67506675  0.19665625  0.93416957  1
  O2-  O213  1  0.67190794  0.70962380  0.26989388  1
  O2-  O214  1  0.66974422  0.70852373  0.60091013  1
  O2-  O215  1  0.66885206  0.71617862  0.93488449  1
  O2-  O216  1  0.08536367  0.46100292  0.06613437  1
  O2-  O217  1  0.08157244  0.45912433  0.40417908  1
  O2-  O218  1  0.08711424  0.45159341  0.72605004  1
  O2-  O219  1  0.08820103  0.95757659  0.06326409  1
  O2-  O220  1  0.08321555  0.95660120  0.39933010  1
  O2-  O221  1  0.08911618  0.95674889  0.73168696  1
  O2-  O222  1  0.57289023  0.44758104  0.06207242  1
  O2-  O223  1  0.57523845  0.44045890  0.39545374  1
  O2-  O224  1  0.57375308  0.45379943  0.73114029  1
  O2-  O225  1  0.58064755  0.96163051  0.06531432  1
  O2-  O226  1  0.58508490  0.96304919  0.40497721  1
  O2-  O227  1  0.58350481  0.95636078  0.73093556  1
  O2-  O228  1  0.20860815  0.33154214  0.06700193  1
  O2-  O229  1  0.20330893  0.32950429  0.40295405  1
  O2-  O230  1  0.21258019  0.33704549  0.72807693  1
  O2-  O231  1  0.20301847  0.83473808  0.06124298  1
  O2-  O232  1  0.19701155  0.83337803  0.39705301  1
  O2-  O233  1  0.20931737  0.83731419  0.73113602  1
  O2-  O234  1  0.70933990  0.32929138  0.06352467  1
  O2-  O235  1  0.71563942  0.32935762  0.39750159  1
  O2-  O236  1  0.70465040  0.33184983  0.73753743  1
  O2-  O237  1  0.71273067  0.83847178  0.07051462  1
  O2-  O238  1  0.71303274  0.83694192  0.40447791  1
  O2-  O239  1  0.70356179  0.83584056  0.72942182  1
  O2-  O240  1  0.43880881  0.41753614  0.27546593  1
  O2-  O241  1  0.44750153  0.41446412  0.60389161  1
  O2-  O242  1  0.44628163  0.42115433  0.93021246  1
  O2-  O243  1  0.46025988  0.91874748  0.26814162  1
  O2-  O244  1  0.45076569  0.92002632  0.60799846  1
  O2-  O245  1  0.45215850  0.91639567  0.93504038  1
  O2-  O246  1  0.96488604  0.41649881  0.26290410  1
  O2-  O247  1  0.95559338  0.41110798  0.60267490  1
  O2-  O248  1  0.96434892  0.40985345  0.93311769  1
  O2-  O249  1  0.96191815  0.91276647  0.26538472  1
  O2-  O250  1  0.96360080  0.91253080  0.59971559  1
  O2-  O251  1  0.96170243  0.91637338  0.93323689  1
  O2-  O252  1  0.33299266  0.28674368  0.27317307  1
  O2-  O253  1  0.33941688  0.28580129  0.60006488  1
  O2-  O254  1  0.33161733  0.28358457  0.92929548  1
  O2-  O255  1  0.32688358  0.80166138  0.26944603  1
  O2-  O256  1  0.33466402  0.79868639  0.60415431  1
  O2-  O257  1  0.33320217  0.79923117  0.93621892  1
  O2-  O258  1  0.83820957  0.28832287  0.25810678  1
  O2-  O259  1  0.83236260  0.29256460  0.60661332  1
  O2-  O260  1  0.83945319  0.29530659  0.93291870  1
  O2-  O261  1  0.83603211  0.80074867  0.27197798  1
  O2-  O262  1  0.83292813  0.80673464  0.60597634  1
  O2-  O263  1  0.83433917  0.80662194  0.93751073  1
  O2-  O264  1  0.41142620  0.04357531  0.06028383  1
  O2-  O265  1  0.41477863  0.03698262  0.40623558  1
  O2-  O266  1  0.41171457  0.04522662  0.73486935  1
  O2-  O267  1  0.41640943  0.55152078  0.05762482  1
  O2-  O268  1  0.41831000  0.54435916  0.40450918  1
  O2-  O269  1  0.40959080  0.54352539  0.73006560  1
  O2-  O270  1  0.91699391  0.04199558  0.06627117  1
  O2-  O271  1  0.91768985  0.04319406  0.39450931  1
  O2-  O272  1  0.91892443  0.03870388  0.73250755  1
  O2-  O273  1  0.91713987  0.53601436  0.06660480  1
  O2-  O274  1  0.91588432  0.53593277  0.40118222  1
  O2-  O275  1  0.92065725  0.53795378  0.73397350  1
  O2-  O276  1  0.28707832  0.15856994  0.06309487  1
  O2-  O277  1  0.28958594  0.16228389  0.40688323  1
  O2-  O278  1  0.28930596  0.16348141  0.73220303  1
  O2-  O279  1  0.29291435  0.66711621  0.06050976  1
  O2-  O280  1  0.29054073  0.67137833  0.40199295  1
  O2-  O281  1  0.29084331  0.66570872  0.72864264  1
  O2-  O282  1  0.80798272  0.16947693  0.05871543  1
  O2-  O283  1  0.80235774  0.16661346  0.38981782  1
  O2-  O284  1  0.79371390  0.16503548  0.73610685  1
  O2-  O285  1  0.80533356  0.67473316  0.06230289  1
  O2-  O286  1  0.80382561  0.67293829  0.40085407  1
  O2-  O287  1  0.80293048  0.67430267  0.73204471  1
