# generated using pymatgen
data_Ca2Al2SiO7
_symmetry_space_group_name_H-M   'P 1'
_cell_length_a   15.45957718
_cell_length_b   15.45980830
_cell_length_c   15.28469730
_cell_angle_alpha   90.00760197
_cell_angle_beta   89.99541261
_cell_angle_gamma   89.99116817
_symmetry_Int_Tables_number   1
_chemical_formula_structural   Ca2Al2SiO7
_chemical_formula_sum   'Ca48 Al48 Si24 O168'
_cell_volume   3653.07465696
_cell_formula_units_Z   24
loop_
 _symmetry_equiv_pos_site_id
 _symmetry_equiv_pos_as_xyz
  1  'x, y, z'
loop_
 _atom_type_symbol
 _atom_type_oxidation_number
  Ca2+  2.0
  Al0+  0.0
  Si0+  0.0
  O2-  -2.0
loop_
 _atom_site_type_symbol
 _atom_site_label
 _atom_site_symmetry_multiplicity
 _atom_site_fract_x
 _atom_site_fract_y
 _atom_site_fract_z
 _atom_site_occupancy
  Ca2+  Ca0  1  0.16646182  0.08595149  0.17181271  1
  Ca2+  Ca1  1  0.17163307  0.08864914  0.50312855  1
  Ca2+  Ca2  1  0.17507157  0.08369037  0.83305618  1
  Ca2+  Ca3  1  0.17376599  0.57471043  0.17250261  1
  Ca2+  Ca4  1  0.17322119  0.57014793  0.51011381  1
  Ca2+  Ca5  1  0.17724391  0.57581606  0.84107987  1
  Ca2+  Ca6  1  0.66830393  0.07530502  0.17467862  1
  Ca2+  Ca7  1  0.67424483  0.08345258  0.50943757  1
  Ca2+  Ca8  1  0.66534824  0.07257987  0.83470598  1
  Ca2+  Ca9  1  0.65603228  0.58041145  0.16569088  1
  Ca2+  Ca10  1  0.66221214  0.58513595  0.50176173  1
  Ca2+  Ca11  1  0.66087129  0.58262232  0.83969290  1
  Ca2+  Ca12  1  0.08594427  0.33417561  0.16788581  1
  Ca2+  Ca13  1  0.08191453  0.33064559  0.48985210  1
  Ca2+  Ca14  1  0.08671023  0.33945588  0.83184655  1
  Ca2+  Ca15  1  0.06974057  0.83775073  0.16140601  1
  Ca2+  Ca16  1  0.07021107  0.83866114  0.49557968  1
  Ca2+  Ca17  1  0.07022233  0.83608967  0.82865360  1
  Ca2+  Ca18  1  0.57436449  0.33222447  0.16070690  1
  Ca2+  Ca19  1  0.57719061  0.31831493  0.49132835  1
  Ca2+  Ca20  1  0.57766563  0.33355501  0.82944645  1
  Ca2+  Ca21  1  0.58255544  0.82295476  0.15692235  1
  Ca2+  Ca22  1  0.59064382  0.82369576  0.49933570  1
  Ca2+  Ca23  1  0.58736766  0.82542555  0.83012614  1
  Ca2+  Ca24  1  0.33139957  0.41387007  0.16880996  1
  Ca2+  Ca25  1  0.32470965  0.41269557  0.50515826  1
  Ca2+  Ca26  1  0.32969221  0.42558866  0.84175242  1
  Ca2+  Ca27  1  0.33416746  0.91357420  0.16818630  1
  Ca2+  Ca28  1  0.33092125  0.92457859  0.50823565  1
  Ca2+  Ca29  1  0.34473621  0.92345604  0.83763391  1
  Ca2+  Ca30  1  0.82768621  0.41551059  0.17133618  1
  Ca2+  Ca31  1  0.83436111  0.41576429  0.50230787  1
  Ca2+  Ca32  1  0.82312453  0.42042407  0.84122689  1
  Ca2+  Ca33  1  0.83106832  0.91702813  0.17114397  1
  Ca2+  Ca34  1  0.83274405  0.92643505  0.50679853  1
  Ca2+  Ca35  1  0.82384779  0.91322975  0.83463804  1
  Ca2+  Ca36  1  0.41873330  0.17889955  0.16560632  1
  Ca2+  Ca37  1  0.42637888  0.16480688  0.49481316  1
  Ca2+  Ca38  1  0.42149373  0.17152728  0.82672592  1
  Ca2+  Ca39  1  0.42427001  0.66813219  0.15695810  1
  Ca2+  Ca40  1  0.42557868  0.66010553  0.49937411  1
  Ca2+  Ca41  1  0.42323824  0.66147697  0.83125351  1
  Ca2+  Ca42  1  0.91871888  0.16696552  0.17142384  1
  Ca2+  Ca43  1  0.91864215  0.16843994  0.48965854  1
  Ca2+  Ca44  1  0.91659056  0.16652532  0.82763093  1
  Ca2+  Ca45  1  0.91550938  0.67860499  0.16140453  1
  Ca2+  Ca46  1  0.91397691  0.68112029  0.49499959  1
  Ca2+  Ca47  1  0.91190945  0.67939155  0.82896201  1
  Al0+  Al48  1  0.00158499  0.00187252  -0.00588560  1
  Al0+  Al49  1  -0.00139778  0.00083325  0.32904260  1
  Al0+  Al50  1  0.00012993  0.00301792  0.66564571  1
  Al0+  Al51  1  0.00046702  0.49930251  0.00346279  1
  Al0+  Al52  1  -0.00036741  0.50109172  0.33533226  1
  Al0+  Al53  1  -0.00137561  0.50109744  0.67115176  1
  Al0+  Al54  1  0.50249511  0.00036432  0.00526406  1
  Al0+  Al55  1  0.49969830  -0.00286084  0.33196229  1
  Al0+  Al56  1  0.50082603  -0.00086063  0.66995025  1
  Al0+  Al57  1  0.49940733  0.49864425  0.00008861  1
  Al0+  Al58  1  0.50004309  0.50006721  0.32839182  1
  Al0+  Al59  1  0.49821761  0.49953034  0.66337672  1
  Al0+  Al60  1  0.25074672  0.24943906  -0.00164743  1
  Al0+  Al61  1  0.25010410  0.24933141  0.33122515  1
  Al0+  Al62  1  0.24812126  0.24907238  0.67496148  1
  Al0+  Al63  1  0.24961407  0.75187610  0.00134196  1
  Al0+  Al64  1  0.24964408  0.74924263  0.33844718  1
  Al0+  Al65  1  0.24911508  0.74856384  0.66955055  1
  Al0+  Al66  1  0.75303488  0.25003055  0.00416810  1
  Al0+  Al67  1  0.75074047  0.24872561  0.33013520  1
  Al0+  Al68  1  0.75049654  0.25017901  0.66732827  1
  Al0+  Al69  1  0.75032205  0.75176221  -0.00348527  1
  Al0+  Al70  1  0.74902543  0.74876089  0.32519384  1
  Al0+  Al71  1  0.74981611  0.75062086  0.66003069  1
  Al0+  Al72  1  0.57139732  0.17788556  0.65488479  1
  Al0+  Al73  1  0.93039277  0.82076424  0.31847571  1
  Al0+  Al74  1  0.81959503  0.07014245  0.34659497  1
  Al0+  Al75  1  0.42713002  0.82367164  0.98532791  1
  Al0+  Al76  1  0.56907068  0.67836214  0.65125698  1
  Al0+  Al77  1  0.67915110  0.42846644  0.01353366  1
  Al0+  Al78  1  0.42963555  0.31890046  0.98379231  1
  Al0+  Al79  1  0.93001060  0.82173494  0.98362663  1
  Al0+  Al80  1  0.42946921  0.31921725  0.31955833  1
  Al0+  Al81  1  0.56905651  0.67947995  0.98321244  1
  Al0+  Al82  1  0.17884661  0.42764835  0.01918292  1
  Al0+  Al83  1  0.68040135  0.92733465  0.68090217  1
  Al0+  Al84  1  0.92817094  0.32452746  0.31823636  1
  Al0+  Al85  1  0.93034980  0.82154056  0.65072322  1
  Al0+  Al86  1  0.56938938  0.68017894  0.31803688  1
  Al0+  Al87  1  0.32300415  0.57112546  0.68258904  1
  Al0+  Al88  1  0.17984669  0.42910013  0.34844265  1
  Al0+  Al89  1  0.57325741  0.17499685  0.31779448  1
  Al0+  Al90  1  0.17712755  0.42854207  0.68340742  1
  Al0+  Al91  1  0.32142613  0.57263348  0.01774702  1
  Al0+  Al92  1  0.68059968  0.92944320  0.01567037  1
  Al0+  Al93  1  0.07096158  0.17992062  0.31870972  1
  Al0+  Al94  1  0.82242192  0.07355454  0.68241809  1
  Al0+  Al95  1  0.32169056  0.06927421  0.68009063  1
  Si0+  Si96  1  0.92857591  0.32218581  0.98421943  1
  Si0+  Si97  1  0.07328402  0.67827479  0.31843732  1
  Si0+  Si98  1  0.81966785  0.57185294  0.67972534  1
  Si0+  Si99  1  0.67939928  0.42886225  0.67819625  1
  Si0+  Si100  1  0.92846464  0.32279256  0.65404846  1
  Si0+  Si101  1  0.17696180  0.92785030  0.68247970  1
  Si0+  Si102  1  0.07205454  0.67675312  0.65039363  1
  Si0+  Si103  1  0.42426765  0.82204353  0.31905017  1
  Si0+  Si104  1  0.82179779  0.57264659  0.01617214  1
  Si0+  Si105  1  0.32083540  0.06963751  0.34699987  1
  Si0+  Si106  1  0.82013688  0.57223673  0.34795031  1
  Si0+  Si107  1  0.07160434  0.67671264  0.98406423  1
  Si0+  Si108  1  0.17767188  0.92833530  0.34752821  1
  Si0+  Si109  1  0.17715688  0.93102598  0.01431065  1
  Si0+  Si110  1  0.32346725  0.57289193  0.35206049  1
  Si0+  Si111  1  0.67810833  0.42920598  0.34843842  1
  Si0+  Si112  1  0.32167335  0.07060401  0.01647228  1
  Si0+  Si113  1  0.67772680  0.92568741  0.34990912  1
  Si0+  Si114  1  0.42574182  0.82304481  0.65021994  1
  Si0+  Si115  1  0.57517594  0.17815376  0.98386383  1
  Si0+  Si116  1  0.07115025  0.18016988  0.98203210  1
  Si0+  Si117  1  0.82544799  0.07188874  0.01805932  1
  Si0+  Si118  1  0.07141844  0.18105330  0.65256597  1
  Si0+  Si119  1  0.42702664  0.31987289  0.65084637  1
  O2-  O120  1  0.25304743  -0.00369869  0.05747425  1
  O2-  O121  1  0.25051730  -0.00249499  0.38940376  1
  O2-  O122  1  0.25088403  -0.00955731  0.72741355  1
  O2-  O123  1  0.25017867  0.50014024  0.06871184  1
  O2-  O124  1  0.25467930  0.50359552  0.39519489  1
  O2-  O125  1  0.24953748  0.50039989  0.73164277  1
  O2-  O126  1  0.75536910  0.00460587  0.06162513  1
  O2-  O127  1  0.74218324  -0.00160654  0.39387293  1
  O2-  O128  1  0.75123474  0.00080820  0.73143794  1
  O2-  O129  1  0.75248987  0.50481157  0.06059300  1
  O2-  O130  1  0.75137760  0.49866115  0.39097362  1
  O2-  O131  1  0.74779559  0.50192938  0.72146778  1
  O2-  O132  1  0.00097885  0.25339751  0.26778480  1
  O2-  O133  1  0.00074811  0.25306245  0.61235910  1
  O2-  O134  1  0.00084182  0.25274853  0.94123287  1
  O2-  O135  1  0.00652314  0.74736070  0.27186776  1
  O2-  O136  1  0.00723693  0.74835746  0.60426765  1
  O2-  O137  1  0.00314220  0.74479206  0.93785408  1
  O2-  O138  1  0.50359073  0.24941134  0.26874113  1
  O2-  O139  1  0.49481427  0.25021410  0.60703717  1
  O2-  O140  1  0.50739367  0.24674993  0.93781272  1
  O2-  O141  1  0.49281760  0.75390217  0.27522563  1
  O2-  O142  1  0.49269854  0.75266928  0.60546037  1
  O2-  O143  1  0.49608012  0.75049054  0.93300583  1
  O2-  O144  1  0.07076483  0.17673238  0.08667854  1
  O2-  O145  1  0.07166235  0.17971919  0.43262929  1
  O2-  O146  1  0.07139975  0.17974022  0.75787295  1
  O2-  O147  1  0.06855671  0.67870463  0.08987966  1
  O2-  O148  1  0.07140820  0.68082063  0.42414285  1
  O2-  O149  1  0.06794446  0.67681358  0.75583150  1
  O2-  O150  1  0.57276816  0.17927048  0.08937444  1
  O2-  O151  1  0.57083045  0.17533534  0.43191048  1
  O2-  O152  1  0.57075666  0.18184360  0.76800156  1
  O2-  O153  1  0.56931261  0.68174032  0.09680553  1
  O2-  O154  1  0.57039835  0.68045378  0.43150300  1
  O2-  O155  1  0.57148147  0.67670307  0.76331254  1
  O2-  O156  1  0.18115599  0.43098985  0.23598570  1
  O2-  O157  1  0.17664665  0.42725038  0.56954846  1
  O2-  O158  1  0.17876564  0.42949572  0.90571939  1
  O2-  O159  1  0.17866257  0.92742197  0.24234821  1
  O2-  O160  1  0.17589674  0.93142883  0.57647854  1
  O2-  O161  1  0.17238215  0.93588648  0.90943575  1
  O2-  O162  1  0.67805936  0.43153108  0.24351551  1
  O2-  O163  1  0.68229842  0.42802551  0.57295145  1
  O2-  O164  1  0.68267510  0.42697327  0.89965503  1
  O2-  O165  1  0.67983801  0.92551516  0.24433714  1
  O2-  O166  1  0.68319928  0.92634168  0.56706715  1
  O2-  O167  1  0.68121469  0.92917870  0.90276311  1
  O2-  O168  1  0.42865994  0.31548615  0.09668607  1
  O2-  O169  1  0.42963758  0.31628286  0.43364048  1
  O2-  O170  1  0.42977316  0.32000347  0.75642827  1
  O2-  O171  1  0.42897545  0.82323071  0.09937455  1
  O2-  O172  1  0.42170173  0.82372937  0.42465083  1
  O2-  O173  1  0.42717060  0.82405114  0.75523937  1
  O2-  O174  1  0.92693067  0.32153313  0.08866750  1
  O2-  O175  1  0.92927216  0.32422390  0.43256105  1
  O2-  O176  1  0.92733880  0.32286690  0.75934594  1
  O2-  O177  1  0.93251924  0.82255780  0.09683967  1
  O2-  O178  1  0.93100765  0.82063583  0.43159563  1
  O2-  O179  1  0.93067516  0.81921399  0.76377387  1
  O2-  O180  1  0.31940735  0.06790314  0.24182674  1
  O2-  O181  1  0.31850161  0.07001517  0.56654267  1
  O2-  O182  1  0.31953995  0.07114845  0.91120218  1
  O2-  O183  1  0.32146512  0.57698155  0.24710015  1
  O2-  O184  1  0.32288448  0.56753851  0.56859461  1
  O2-  O185  1  0.31990567  0.57083583  0.90422040  1
  O2-  O186  1  0.82176195  0.06558570  0.23350117  1
  O2-  O187  1  0.82325182  0.07415286  0.56881927  1
  O2-  O188  1  0.82620479  0.07246981  0.91248772  1
  O2-  O189  1  0.81984378  0.57370040  0.24314828  1
  O2-  O190  1  0.82152624  0.57007125  0.57438354  1
  O2-  O191  1  0.82283612  0.56992186  0.90997005  1
  O2-  O192  1  0.04157593  0.08279165  0.26317457  1
  O2-  O193  1  0.04560286  0.08971099  0.60341393  1
  O2-  O194  1  0.04209292  0.09025591  0.93136553  1
  O2-  O195  1  0.04649755  0.58558762  0.27257153  1
  O2-  O196  1  0.04161317  0.58412914  0.60415540  1
  O2-  O197  1  0.04614712  0.58257781  0.93873199  1
  O2-  O198  1  0.54282774  0.07675178  0.26571696  1
  O2-  O199  1  0.54228287  0.08062715  0.60153650  1
  O2-  O200  1  0.54721484  0.08455778  0.94008092  1
  O2-  O201  1  0.54095141  0.58354934  0.26424989  1
  O2-  O202  1  0.53948139  0.58133658  0.59531773  1
  O2-  O203  1  0.54369622  0.57951596  0.93253993  1
  O2-  O204  1  0.16918681  0.20521732  0.26459931  1
  O2-  O205  1  0.16384416  0.20814949  0.60567706  1
  O2-  O206  1  0.16304671  0.20655041  0.93416730  1
  O2-  O207  1  0.16782898  0.70259244  0.27404141  1
  O2-  O208  1  0.16744843  0.69712044  0.60571894  1
  O2-  O209  1  0.16492495  0.70343558  0.93912182  1
  O2-  O210  1  0.67175212  0.20002383  0.26559207  1
  O2-  O211  1  0.66721755  0.21211178  0.60050561  1
  O2-  O212  1  0.67043732  0.20194053  0.94071187  1
  O2-  O213  1  0.66460746  0.70958401  0.26142112  1
  O2-  O214  1  0.66520858  0.70924555  0.59535573  1
  O2-  O215  1  0.66852845  0.70736589  0.93182007  1
  O2-  O216  1  0.07848566  0.45362051  0.07003639  1
  O2-  O217  1  0.08204772  0.45919827  0.40171432  1
  O2-  O218  1  0.07832107  0.45761485  0.73669070  1
  O2-  O219  1  0.08794831  0.96611946  0.06344577  1
  O2-  O220  1  0.08700773  0.95953798  0.39478193  1
  O2-  O221  1  0.08669635  0.96153462  0.73033571  1
  O2-  O222  1  0.58306844  0.45743856  0.06800740  1
  O2-  O223  1  0.58706852  0.45960565  0.39617796  1
  O2-  O224  1  0.58657773  0.45452424  0.72361019  1
  O2-  O225  1  0.58480168  0.95954005  0.07231971  1
  O2-  O226  1  0.58142616  0.94460218  0.39367872  1
  O2-  O227  1  0.58176595  0.95280459  0.73387411  1
  O2-  O228  1  0.20767525  0.32731845  0.06778803  1
  O2-  O229  1  0.21064825  0.33114248  0.40079278  1
  O2-  O230  1  0.20264957  0.33038494  0.73745122  1
  O2-  O231  1  0.19731674  0.83793667  0.06224371  1
  O2-  O232  1  0.20209333  0.83668653  0.39785788  1
  O2-  O233  1  0.19257135  0.83169655  0.72601707  1
  O2-  O234  1  0.71277691  0.33332151  0.06922113  1
  O2-  O235  1  0.70465410  0.33642888  0.39454314  1
  O2-  O236  1  0.70988653  0.33980445  0.72867598  1
  O2-  O237  1  0.71344859  0.83267707  0.06833963  1
  O2-  O238  1  0.70848831  0.83241836  0.39385240  1
  O2-  O239  1  0.71289174  0.82919428  0.73268872  1
  O2-  O240  1  0.45589701  0.41750740  0.26656184  1
  O2-  O241  1  0.45286620  0.41222060  0.60322981  1
  O2-  O242  1  0.45989362  0.41544828  0.93094005  1
  O2-  O243  1  0.44769476  0.91527131  0.27183525  1
  O2-  O244  1  0.45197524  0.91641413  0.60366398  1
  O2-  O245  1  0.45737764  0.92351213  0.93587200  1
  O2-  O246  1  0.95334105  0.42421509  0.26649954  1
  O2-  O247  1  0.95327491  0.41596053  0.60738551  1
  O2-  O248  1  0.95412123  0.41514383  0.93709346  1
  O2-  O249  1  0.96303819  0.91521659  0.26277396  1
  O2-  O250  1  0.96275569  0.91893931  0.59857057  1
  O2-  O251  1  0.96484239  0.91695610  0.92940356  1
  O2-  O252  1  0.33353773  0.28709040  0.26493294  1
  O2-  O253  1  0.33189033  0.29300581  0.60907529  1
  O2-  O254  1  0.33401260  0.28467563  0.92964027  1
  O2-  O255  1  0.32977966  0.79772015  0.27339453  1
  O2-  O256  1  0.32976165  0.80156320  0.60573347  1
  O2-  O257  1  0.32472431  0.80529951  0.93565814  1
  O2-  O258  1  0.83071142  0.29560163  0.26463470  1
  O2-  O259  1  0.83758765  0.29517210  0.60494927  1
  O2-  O260  1  0.83747433  0.29266060  0.93533908  1
  O2-  O261  1  0.83588592  0.78707141  0.26332512  1
  O2-  O262  1  0.83632969  0.78723901  0.59481102  1
  O2-  O263  1  0.83468336  0.78981065  0.92913245  1
  O2-  O264  1  0.41352783  0.04717198  0.06513804  1
  O2-  O265  1  0.41252591  0.04151561  0.39523099  1
  O2-  O266  1  0.41772855  0.04222871  0.73626574  1
  O2-  O267  1  0.41984595  0.54299723  0.06875402  1
  O2-  O268  1  0.41792502  0.54589851  0.39567274  1
  O2-  O269  1  0.42118452  0.54015992  0.73455395  1
  O2-  O270  1  0.91932047  0.04352481  0.06215194  1
  O2-  O271  1  0.91693962  0.03745974  0.39948801  1
  O2-  O272  1  0.92218130  0.04740610  0.73391123  1
  O2-  O273  1  0.91452637  0.54646629  0.06341356  1
  O2-  O274  1  0.91225989  0.54871005  0.39730632  1
  O2-  O275  1  0.90969302  0.54461943  0.73057490  1
  O2-  O276  1  0.28745397  0.16001633  0.06385116  1
  O2-  O277  1  0.29149500  0.16006215  0.39540255  1
  O2-  O278  1  0.28639583  0.16238973  0.73788912  1
  O2-  O279  1  0.29335835  0.67257390  0.06958208  1
  O2-  O280  1  0.29814392  0.66621398  0.40059871  1
  O2-  O281  1  0.29808138  0.67110438  0.73417286  1
  O2-  O282  1  0.80376327  0.16638691  0.06365223  1
  O2-  O283  1  0.79483064  0.16934372  0.39931890  1
  O2-  O284  1  0.79455976  0.17216359  0.73608272  1
  O2-  O285  1  0.79787422  0.66701128  0.06039705  1
  O2-  O286  1  0.78778134  0.66315065  0.39552437  1
  O2-  O287  1  0.79161872  0.66351796  0.72599001  1
