# generated using pymatgen
data_Ca2Al2SiO7
_symmetry_space_group_name_H-M   'P 1'
_cell_length_a   15.45072941
_cell_length_b   15.45023691
_cell_length_c   15.27835147
_cell_angle_alpha   89.99676907
_cell_angle_beta   90.00210020
_cell_angle_gamma   89.99236188
_symmetry_Int_Tables_number   1
_chemical_formula_structural   Ca2Al2SiO7
_chemical_formula_sum   'Ca48 Al48 Si24 O168'
_cell_volume   3647.20875364
_cell_formula_units_Z   24
loop_
 _symmetry_equiv_pos_site_id
 _symmetry_equiv_pos_as_xyz
  1  'x, y, z'
loop_
 _atom_type_symbol
 _atom_type_oxidation_number
  Ca2+  2.0
  Al0+  0.0
  Si0+  0.0
  O2-  -2.0
loop_
 _atom_site_type_symbol
 _atom_site_label
 _atom_site_symmetry_multiplicity
 _atom_site_fract_x
 _atom_site_fract_y
 _atom_site_fract_z
 _atom_site_occupancy
  Ca2+  Ca0  1  0.17026169  0.08026754  0.16838274  1
  Ca2+  Ca1  1  0.16949662  0.08043093  0.50650093  1
  Ca2+  Ca2  1  0.15846901  0.07344333  0.84036064  1
  Ca2+  Ca3  1  0.17767441  0.59180866  0.16764126  1
  Ca2+  Ca4  1  0.17149498  0.58543469  0.50373750  1
  Ca2+  Ca5  1  0.17058769  0.58755106  0.84270718  1
  Ca2+  Ca6  1  0.66849074  0.08900711  0.16950110  1
  Ca2+  Ca7  1  0.66581472  0.07721221  0.50430497  1
  Ca2+  Ca8  1  0.67196602  0.08164931  0.84144421  1
  Ca2+  Ca9  1  0.66651897  0.57054254  0.17680763  1
  Ca2+  Ca10  1  0.66879265  0.58571633  0.50005607  1
  Ca2+  Ca11  1  0.66327592  0.57912786  0.83828531  1
  Ca2+  Ca12  1  0.07745741  0.32924978  0.16277301  1
  Ca2+  Ca13  1  0.07781824  0.32767072  0.49571487  1
  Ca2+  Ca14  1  0.08919595  0.31686857  0.82909207  1
  Ca2+  Ca15  1  0.07467514  0.83137246  0.15625616  1
  Ca2+  Ca16  1  0.08102629  0.83161592  0.49885044  1
  Ca2+  Ca17  1  0.08561935  0.82849074  0.83286006  1
  Ca2+  Ca18  1  0.58631519  0.32741994  0.15998003  1
  Ca2+  Ca19  1  0.58034624  0.32871287  0.49273232  1
  Ca2+  Ca20  1  0.57544584  0.33505164  0.83633859  1
  Ca2+  Ca21  1  0.57507078  0.82458371  0.16171636  1
  Ca2+  Ca22  1  0.59168337  0.82260970  0.49580899  1
  Ca2+  Ca23  1  0.57770494  0.83246815  0.82772468  1
  Ca2+  Ca24  1  0.33830426  0.42613684  0.16844789  1
  Ca2+  Ca25  1  0.33886162  0.42147253  0.50137114  1
  Ca2+  Ca26  1  0.34031092  0.42164460  0.84095758  1
  Ca2+  Ca27  1  0.32852394  0.91705333  0.16913308  1
  Ca2+  Ca28  1  0.32966335  0.92565148  0.50487301  1
  Ca2+  Ca29  1  0.32186117  0.91116588  0.84131891  1
  Ca2+  Ca30  1  0.82407672  0.41879063  0.17681944  1
  Ca2+  Ca31  1  0.83050955  0.41682437  0.49632994  1
  Ca2+  Ca32  1  0.82492384  0.41885140  0.84270605  1
  Ca2+  Ca33  1  0.84150268  0.92070599  0.16728191  1
  Ca2+  Ca34  1  0.82863287  0.91272009  0.50371748  1
  Ca2+  Ca35  1  0.82955412  0.91897032  0.83997950  1
  Ca2+  Ca36  1  0.42760909  0.16813474  0.15926553  1
  Ca2+  Ca37  1  0.41852040  0.17056695  0.49226637  1
  Ca2+  Ca38  1  0.41708939  0.17975860  0.83143462  1
  Ca2+  Ca39  1  0.41671531  0.66377598  0.16140022  1
  Ca2+  Ca40  1  0.42804325  0.66548006  0.49432485  1
  Ca2+  Ca41  1  0.41776375  0.67105503  0.83283057  1
  Ca2+  Ca42  1  0.91691417  0.17165880  0.15869301  1
  Ca2+  Ca43  1  0.92182602  0.17017730  0.49562541  1
  Ca2+  Ca44  1  0.92477028  0.15836926  0.83669081  1
  Ca2+  Ca45  1  0.91581218  0.67636031  0.16180999  1
  Ca2+  Ca46  1  0.92011994  0.67071442  0.49037865  1
  Ca2+  Ca47  1  0.92868819  0.66939847  0.83076929  1
  Al0+  Al48  1  -0.00233125  -0.00040273  0.00256124  1
  Al0+  Al49  1  0.00010249  -0.00149052  0.33230381  1
  Al0+  Al50  1  0.00070161  0.00041655  0.66476195  1
  Al0+  Al51  1  -0.00005770  0.50035830  -0.00241032  1
  Al0+  Al52  1  0.00057780  0.49932270  0.33227860  1
  Al0+  Al53  1  0.00075513  0.50051174  0.66387725  1
  Al0+  Al54  1  0.49991761  -0.00117248  -0.00899626  1
  Al0+  Al55  1  0.49907024  0.00027521  0.33481068  1
  Al0+  Al56  1  0.49962938  0.00182439  0.67293662  1
  Al0+  Al57  1  0.50055250  0.49919431  0.00588874  1
  Al0+  Al58  1  0.49961964  0.49903715  0.33901114  1
  Al0+  Al59  1  0.50045963  0.50076898  0.65922219  1
  Al0+  Al60  1  0.24993223  0.25038986  -0.00610406  1
  Al0+  Al61  1  0.25046490  0.24946462  0.33721308  1
  Al0+  Al62  1  0.24988767  0.25197806  0.65680228  1
  Al0+  Al63  1  0.25052336  0.75013788  0.00294641  1
  Al0+  Al64  1  0.24984708  0.75021606  0.34121569  1
  Al0+  Al65  1  0.25059337  0.75128048  0.66478039  1
  Al0+  Al66  1  0.74990586  0.24870692  0.00260292  1
  Al0+  Al67  1  0.75086963  0.24952595  0.33273139  1
  Al0+  Al68  1  0.74926326  0.25125980  0.66890392  1
  Al0+  Al69  1  0.74981309  0.75060091  -0.00374787  1
  Al0+  Al70  1  0.75025787  0.74897709  0.32564069  1
  Al0+  Al71  1  0.74993564  0.74982850  0.67026974  1
  Al0+  Al72  1  0.93003395  0.32046443  0.31962288  1
  Al0+  Al73  1  0.32178138  0.07082693  0.34590739  1
  Al0+  Al74  1  0.07050118  0.17987465  0.98870750  1
  Al0+  Al75  1  0.56964911  0.67793463  0.31843658  1
  Al0+  Al76  1  0.06897988  0.17775147  0.65143352  1
  Al0+  Al77  1  0.42846307  0.82061914  0.98748285  1
  Al0+  Al78  1  0.67968630  0.42681869  0.35159521  1
  Al0+  Al79  1  0.56990643  0.17787096  0.32111911  1
  Al0+  Al80  1  0.67910555  0.92773829  0.68042077  1
  Al0+  Al81  1  0.18034188  0.93030780  0.68135878  1
  Al0+  Al82  1  0.17950671  0.92978087  0.01482892  1
  Al0+  Al83  1  0.82129996  0.57267618  0.34773753  1
  Al0+  Al84  1  0.68033254  0.43082008  0.01368154  1
  Al0+  Al85  1  0.07272223  0.67842937  0.65109255  1
  Al0+  Al86  1  0.42998698  0.32243421  0.98735596  1
  Al0+  Al87  1  0.81868093  0.06795498  0.01485896  1
  Al0+  Al88  1  0.92926043  0.82039919  0.31945327  1
  Al0+  Al89  1  0.31904864  0.56963782  0.01214735  1
  Al0+  Al90  1  0.07167603  0.67914646  0.98664801  1
  Al0+  Al91  1  0.43044583  0.32109161  0.65025226  1
  Al0+  Al92  1  0.32049070  0.57131743  0.35008876  1
  Al0+  Al93  1  0.92763669  0.82225782  0.98242788  1
  Al0+  Al94  1  0.57066648  0.68147863  0.65333120  1
  Al0+  Al95  1  0.57373034  0.17815195  0.98326397  1
  Si0+  Si96  1  0.42689295  0.32162503  0.31632742  1
  Si0+  Si97  1  0.17732700  0.42686045  0.35113671  1
  Si0+  Si98  1  0.07432571  0.67787364  0.31729553  1
  Si0+  Si99  1  0.32301454  0.07387514  0.01394162  1
  Si0+  Si100  1  0.67894859  0.92918939  0.34523641  1
  Si0+  Si101  1  0.42756666  0.82437665  0.64941236  1
  Si0+  Si102  1  0.92565065  0.32323633  0.65073332  1
  Si0+  Si103  1  0.57092173  0.67726934  0.98489832  1
  Si0+  Si104  1  0.32136640  0.07582327  0.68517281  1
  Si0+  Si105  1  0.17766763  0.42900046  0.68098106  1
  Si0+  Si106  1  0.82134641  0.07324827  0.68242290  1
  Si0+  Si107  1  0.82269080  0.57110778  0.68248687  1
  Si0+  Si108  1  0.67460020  0.92590492  0.01781037  1
  Si0+  Si109  1  0.17585940  0.42467400  0.01505603  1
  Si0+  Si110  1  0.17653516  0.92936256  0.35159215  1
  Si0+  Si111  1  0.92723301  0.32233497  0.98354830  1
  Si0+  Si112  1  0.07303117  0.17754938  0.31644431  1
  Si0+  Si113  1  0.42690140  0.82175650  0.31918582  1
  Si0+  Si114  1  0.92855697  0.82043126  0.65035273  1
  Si0+  Si115  1  0.67843312  0.43000985  0.68199549  1
  Si0+  Si116  1  0.82414735  0.57359279  0.01563990  1
  Si0+  Si117  1  0.32115308  0.56905990  0.68136214  1
  Si0+  Si118  1  0.57301498  0.17764815  0.65025631  1
  Si0+  Si119  1  0.82240112  0.07069767  0.34876246  1
  O2-  O120  1  0.25498513  0.00510431  0.05959640  1
  O2-  O121  1  0.24558539  -0.00159970  0.39444186  1
  O2-  O122  1  0.25435600  0.00563355  0.72928851  1
  O2-  O123  1  0.24319865  0.49507534  0.05853462  1
  O2-  O124  1  0.24536261  0.49623012  0.39610644  1
  O2-  O125  1  0.24787991  0.50047154  0.72413261  1
  O2-  O126  1  0.74283434  -0.00550850  0.06301485  1
  O2-  O127  1  0.75082231  -0.00061586  0.38917363  1
  O2-  O128  1  0.75154291  0.00522767  0.72551264  1
  O2-  O129  1  0.75605133  0.50473908  0.05946286  1
  O2-  O130  1  0.74998274  0.50144790  0.40129768  1
  O2-  O131  1  0.75160337  0.49928402  0.72392902  1
  O2-  O132  1  0.00435540  0.24575241  0.27246817  1
  O2-  O133  1  -0.00666644  0.25283986  0.60737359  1
  O2-  O134  1  -0.00107677  0.25694371  0.93931942  1
  O2-  O135  1  0.00416733  0.74520563  0.27435386  1
  O2-  O136  1  -0.00264168  0.75257565  0.60493137  1
  O2-  O137  1  -0.00087775  0.74910658  0.93398701  1
  O2-  O138  1  0.49639131  0.25340345  0.27379225  1
  O2-  O139  1  0.50306792  0.24377834  0.60480669  1
  O2-  O140  1  0.49960376  0.24909749  0.93526894  1
  O2-  O141  1  0.49108238  0.74956509  0.27381361  1
  O2-  O142  1  0.50008423  0.75987335  0.60525434  1
  O2-  O143  1  0.50584038  0.74881894  0.94005809  1
  O2-  O144  1  0.06976752  0.18199434  0.10184576  1
  O2-  O145  1  0.07108875  0.17762422  0.42242126  1
  O2-  O146  1  0.06795147  0.17739517  0.76447640  1
  O2-  O147  1  0.07191296  0.68088885  0.10020026  1
  O2-  O148  1  0.07431947  0.68043320  0.42337941  1
  O2-  O149  1  0.07224182  0.67693175  0.76362418  1
  O2-  O150  1  0.57266567  0.17916641  0.09713422  1
  O2-  O151  1  0.56845440  0.17615466  0.43469072  1
  O2-  O152  1  0.57471159  0.18009357  0.75534039  1
  O2-  O153  1  0.56890112  0.67736944  0.09043427  1
  O2-  O154  1  0.57134388  0.68227528  0.43191528  1
  O2-  O155  1  0.56711398  0.67861184  0.76642357  1
  O2-  O156  1  0.17806665  0.42452703  0.24573964  1
  O2-  O157  1  0.17723942  0.43038538  0.57584055  1
  O2-  O158  1  0.17643402  0.42372704  0.90914276  1
  O2-  O159  1  0.17606747  0.92929591  0.24621861  1
  O2-  O160  1  0.18148574  0.93224560  0.56792286  1
  O2-  O161  1  0.18036642  0.92991970  0.90148921  1
  O2-  O162  1  0.68129718  0.42628018  0.23812451  1
  O2-  O163  1  0.67983258  0.42818095  0.57739652  1
  O2-  O164  1  0.68013118  0.43413904  0.89946374  1
  O2-  O165  1  0.67717499  0.93124339  0.24058235  1
  O2-  O166  1  0.68260333  0.92734290  0.56647133  1
  O2-  O167  1  0.67667467  0.92628880  0.91196187  1
  O2-  O168  1  0.43045993  0.32257765  0.10065089  1
  O2-  O169  1  0.42754424  0.31895647  0.42238544  1
  O2-  O170  1  0.43224530  0.32395697  0.76309620  1
  O2-  O171  1  0.42906712  0.81960116  0.10086154  1
  O2-  O172  1  0.42945069  0.82262890  0.42497386  1
  O2-  O173  1  0.42598393  0.82006256  0.75496027  1
  O2-  O174  1  0.92790744  0.32103569  0.08914017  1
  O2-  O175  1  0.93171960  0.31677806  0.43329592  1
  O2-  O176  1  0.92480815  0.32502210  0.75613839  1
  O2-  O177  1  0.92926903  0.82110310  0.09621039  1
  O2-  O178  1  0.93016948  0.82176396  0.43307418  1
  O2-  O179  1  0.92858640  0.81928950  0.75547549  1
  O2-  O180  1  0.32131921  0.06945054  0.23287429  1
  O2-  O181  1  0.32125078  0.07360805  0.57907069  1
  O2-  O182  1  0.32041601  0.07445768  0.90834264  1
  O2-  O183  1  0.31908813  0.57215509  0.23705594  1
  O2-  O184  1  0.32046251  0.56699463  0.57624812  1
  O2-  O185  1  0.32031639  0.56884048  0.89846518  1
  O2-  O186  1  0.82413650  0.07073461  0.24406950  1
  O2-  O187  1  0.82036116  0.07464168  0.57637144  1
  O2-  O188  1  0.81870198  0.06702521  0.90133985  1
  O2-  O189  1  0.81910059  0.57159139  0.23433834  1
  O2-  O190  1  0.82290069  0.57223206  0.57768134  1
  O2-  O191  1  0.82394985  0.57111959  0.90929746  1
  O2-  O192  1  0.04793516  0.08347931  0.27233987  1
  O2-  O193  1  0.03797873  0.08250264  0.59457746  1
  O2-  O194  1  0.03447003  0.08519454  0.93509125  1
  O2-  O195  1  0.05407003  0.58276880  0.27337590  1
  O2-  O196  1  0.04294031  0.58140721  0.59689878  1
  O2-  O197  1  0.04660002  0.57939875  0.93237818  1
  O2-  O198  1  0.53874410  0.08164327  0.26647202  1
  O2-  O199  1  0.54958469  0.08203065  0.60675966  1
  O2-  O200  1  0.54890201  0.07965260  0.92951841  1
  O2-  O201  1  0.53968566  0.57951672  0.26857413  1
  O2-  O202  1  0.53779282  0.58735186  0.59646972  1
  O2-  O203  1  0.54138587  0.58509140  0.93893483  1
  O2-  O204  1  0.16706847  0.20388325  0.27218392  1
  O2-  O205  1  0.16388197  0.21026163  0.59530658  1
  O2-  O206  1  0.16603925  0.20694477  0.93041676  1
  O2-  O207  1  0.16824721  0.70649556  0.27347135  1
  O2-  O208  1  0.16900570  0.71036161  0.59677791  1
  O2-  O209  1  0.16931010  0.70943658  0.93381085  1
  O2-  O210  1  0.66750364  0.20629616  0.26887541  1
  O2-  O211  1  0.66687555  0.20458078  0.60432519  1
  O2-  O212  1  0.67141719  0.20917866  0.93035188  1
  O2-  O213  1  0.66372833  0.71042215  0.26207990  1
  O2-  O214  1  0.66890572  0.71046297  0.60077646  1
  O2-  O215  1  0.66549884  0.69810166  0.93865698  1
  O2-  O216  1  0.08108644  0.44827734  0.06040243  1
  O2-  O217  1  0.08381721  0.45174259  0.39808146  1
  O2-  O218  1  0.08492501  0.45358155  0.72829677  1
  O2-  O219  1  0.08362601  0.96157276  0.06872183  1
  O2-  O220  1  0.08351630  0.95626639  0.39922513  1
  O2-  O221  1  0.08220973  0.96035763  0.73281409  1
  O2-  O222  1  0.58577551  0.46153478  0.07070782  1
  O2-  O223  1  0.58058833  0.45261806  0.40363644  1
  O2-  O224  1  0.58721016  0.46274818  0.72749433  1
  O2-  O225  1  0.57943262  0.95020822  0.06112398  1
  O2-  O226  1  0.58846196  0.95664397  0.39578855  1
  O2-  O227  1  0.58148116  0.95487346  0.73487943  1
  O2-  O228  1  0.20216394  0.33155274  0.06200611  1
  O2-  O229  1  0.20299858  0.33377222  0.39952302  1
  O2-  O230  1  0.20690422  0.33605655  0.72542125  1
  O2-  O231  1  0.21219065  0.83496803  0.07047133  1
  O2-  O232  1  0.20172275  0.83649079  0.39960259  1
  O2-  O233  1  0.21213668  0.83285926  0.73402341  1
  O2-  O234  1  0.71048568  0.33400828  0.06644283  1
  O2-  O235  1  0.71242122  0.32908042  0.40518490  1
  O2-  O236  1  0.70422292  0.33781320  0.73051802  1
  O2-  O237  1  0.69934783  0.83089302  0.06196169  1
  O2-  O238  1  0.70913104  0.83750917  0.39148181  1
  O2-  O239  1  0.71019000  0.83249052  0.73720124  1
  O2-  O240  1  0.45098822  0.41656759  0.27410735  1
  O2-  O241  1  0.46389558  0.41555291  0.59406893  1
  O2-  O242  1  0.46308278  0.41970070  0.93336639  1
  O2-  O243  1  0.45588515  0.91352317  0.27211728  1
  O2-  O244  1  0.44902113  0.92116400  0.60800135  1
  O2-  O245  1  0.45411504  0.91590792  0.92844546  1
  O2-  O246  1  0.95970960  0.41703681  0.26489686  1
  O2-  O247  1  0.95351343  0.41530352  0.60282819  1
  O2-  O248  1  0.94747521  0.41719638  0.93778318  1
  O2-  O249  1  0.96069978  0.91718631  0.26551238  1
  O2-  O250  1  0.95259550  0.91455290  0.60429124  1
  O2-  O251  1  0.95650766  0.92042752  0.93107297  1
  O2-  O252  1  0.33218625  0.29706779  0.27255002  1
  O2-  O253  1  0.33393228  0.29441596  0.59382584  1
  O2-  O254  1  0.33157385  0.29775800  0.93155557  1
  O2-  O255  1  0.33089005  0.79954042  0.27674476  1
  O2-  O256  1  0.33620328  0.79573938  0.60092337  1
  O2-  O257  1  0.33421626  0.78550581  0.93233958  1
  O2-  O258  1  0.83456420  0.28820641  0.26563325  1
  O2-  O259  1  0.83183210  0.29745015  0.60438110  1
  O2-  O260  1  0.83556336  0.29247026  0.93661518  1
  O2-  O261  1  0.83412120  0.79225571  0.26217535  1
  O2-  O262  1  0.83506598  0.79301309  0.60504785  1
  O2-  O263  1  0.82831618  0.79578245  0.92941449  1
  O2-  O264  1  0.41783906  0.04733707  0.05696819  1
  O2-  O265  1  0.41643078  0.03788478  0.40404254  1
  O2-  O266  1  0.41612459  0.05490744  0.73069699  1
  O2-  O267  1  0.41409134  0.53829920  0.06884842  1
  O2-  O268  1  0.41583387  0.53960034  0.40594160  1
  O2-  O269  1  0.41295649  0.53825764  0.72699979  1
  O2-  O270  1  0.91399999  0.03779929  0.07174146  1
  O2-  O271  1  0.91400988  0.04184679  0.39721782  1
  O2-  O272  1  0.91467061  0.04556522  0.72729598  1
  O2-  O273  1  0.91837623  0.54990028  0.06135401  1
  O2-  O274  1  0.92110838  0.54489815  0.39958759  1
  O2-  O275  1  0.91465529  0.54211673  0.72976715  1
  O2-  O276  1  0.29675856  0.16754393  0.05988589  1
  O2-  O277  1  0.29263093  0.16714234  0.40247137  1
  O2-  O278  1  0.29360187  0.17080205  0.72656414  1
  O2-  O279  1  0.28892035  0.66471186  0.06926847  1
  O2-  O280  1  0.29132829  0.66765720  0.40692742  1
  O2-  O281  1  0.29611127  0.66287662  0.72569133  1
  O2-  O282  1  0.79033352  0.16521207  0.06931520  1
  O2-  O283  1  0.79465116  0.16140176  0.39768967  1
  O2-  O284  1  0.79734208  0.16704087  0.72982386  1
  O2-  O285  1  0.79864868  0.66822183  0.05919894  1
  O2-  O286  1  0.79171066  0.67203747  0.39960794  1
  O2-  O287  1  0.79408905  0.66159545  0.73157999  1
