# generated using pymatgen
data_Ca2Al2SiO7
_symmetry_space_group_name_H-M   'P 1'
_cell_length_a   15.46032225
_cell_length_b   15.45992579
_cell_length_c   15.28565397
_cell_angle_alpha   89.99979825
_cell_angle_beta   89.99521571
_cell_angle_gamma   89.97759783
_symmetry_Int_Tables_number   1
_chemical_formula_structural   Ca2Al2SiO7
_chemical_formula_sum   'Ca48 Al48 Si24 O168'
_cell_volume   3653.50693532
_cell_formula_units_Z   24
loop_
 _symmetry_equiv_pos_site_id
 _symmetry_equiv_pos_as_xyz
  1  'x, y, z'
loop_
 _atom_type_symbol
 _atom_type_oxidation_number
  Ca2+  2.0
  Al0+  0.0
  Si0+  0.0
  O2-  -2.0
loop_
 _atom_site_type_symbol
 _atom_site_label
 _atom_site_symmetry_multiplicity
 _atom_site_fract_x
 _atom_site_fract_y
 _atom_site_fract_z
 _atom_site_occupancy
  Ca2+  Ca0  1  0.17139922  0.07819835  0.17506242  1
  Ca2+  Ca1  1  0.15720386  0.08110515  0.50289559  1
  Ca2+  Ca2  1  0.17156228  0.08265847  0.83786896  1
  Ca2+  Ca3  1  0.17005696  0.59298801  0.16979649  1
  Ca2+  Ca4  1  0.15940116  0.57785217  0.50680648  1
  Ca2+  Ca5  1  0.16375152  0.57937375  0.83685177  1
  Ca2+  Ca6  1  0.66580636  0.07605887  0.17771232  1
  Ca2+  Ca7  1  0.67158784  0.07665675  0.50611539  1
  Ca2+  Ca8  1  0.67166917  0.07891436  0.83041080  1
  Ca2+  Ca9  1  0.67272364  0.58740340  0.17549229  1
  Ca2+  Ca10  1  0.68267871  0.58208787  0.50546129  1
  Ca2+  Ca11  1  0.67158067  0.58726140  0.83463649  1
  Ca2+  Ca12  1  0.07924869  0.33142861  0.17222307  1
  Ca2+  Ca13  1  0.07851382  0.32356769  0.50035935  1
  Ca2+  Ca14  1  0.08291082  0.32747360  0.81984265  1
  Ca2+  Ca15  1  0.08262590  0.82770766  0.16756650  1
  Ca2+  Ca16  1  0.07100649  0.82673503  0.49273167  1
  Ca2+  Ca17  1  0.08179271  0.81938181  0.82454856  1
  Ca2+  Ca18  1  0.58055083  0.32871300  0.16831924  1
  Ca2+  Ca19  1  0.57248155  0.33145875  0.49204776  1
  Ca2+  Ca20  1  0.57349836  0.33208181  0.82527211  1
  Ca2+  Ca21  1  0.58004704  0.82964653  0.15971720  1
  Ca2+  Ca22  1  0.58113775  0.84375738  0.49896650  1
  Ca2+  Ca23  1  0.57368906  0.83407528  0.82991046  1
  Ca2+  Ca24  1  0.33463063  0.42394327  0.17132107  1
  Ca2+  Ca25  1  0.32905296  0.41326713  0.50845821  1
  Ca2+  Ca26  1  0.32749724  0.42066826  0.83590480  1
  Ca2+  Ca27  1  0.32971920  0.91782585  0.17047551  1
  Ca2+  Ca28  1  0.32557307  0.91596320  0.50351288  1
  Ca2+  Ca29  1  0.33696272  0.91800950  0.83940558  1
  Ca2+  Ca30  1  0.83496539  0.42361069  0.17645929  1
  Ca2+  Ca31  1  0.84914128  0.42475583  0.50491814  1
  Ca2+  Ca32  1  0.84083482  0.42260244  0.83134336  1
  Ca2+  Ca33  1  0.82610273  0.91220003  0.17919577  1
  Ca2+  Ca34  1  0.82685109  0.91329356  0.50945985  1
  Ca2+  Ca35  1  0.83573524  0.91759626  0.82809478  1
  Ca2+  Ca36  1  0.41854257  0.16638241  0.16756616  1
  Ca2+  Ca37  1  0.42152090  0.17757616  0.49401027  1
  Ca2+  Ca38  1  0.41442742  0.16894671  0.82573277  1
  Ca2+  Ca39  1  0.42205927  0.67287629  0.15331857  1
  Ca2+  Ca40  1  0.41806733  0.67329696  0.49964751  1
  Ca2+  Ca41  1  0.41684292  0.67380838  0.83116904  1
  Ca2+  Ca42  1  0.92072773  0.16797214  0.16838977  1
  Ca2+  Ca43  1  0.91868043  0.17322545  0.49505251  1
  Ca2+  Ca44  1  0.92350594  0.17163387  0.81892179  1
  Ca2+  Ca45  1  0.92480855  0.66785990  0.16868000  1
  Ca2+  Ca46  1  0.92244706  0.66701818  0.49530735  1
  Ca2+  Ca47  1  0.92592614  0.66869557  0.82280150  1
  Al0+  Al48  1  -0.00018167  0.00226680  0.00106857  1
  Al0+  Al49  1  -0.00072003  -0.00046466  0.32883692  1
  Al0+  Al50  1  0.00039091  -0.00333906  0.66790767  1
  Al0+  Al51  1  -0.00174862  0.49897490  -0.00066761  1
  Al0+  Al52  1  0.00341221  0.50026181  0.32859618  1
  Al0+  Al53  1  0.00242791  0.49760647  0.67156285  1
  Al0+  Al54  1  0.50144414  0.00165046  0.00094190  1
  Al0+  Al55  1  0.49877052  0.00167888  0.33427938  1
  Al0+  Al56  1  0.49928595  -0.00060662  0.66661042  1
  Al0+  Al57  1  0.49998731  0.49834282  -0.00001047  1
  Al0+  Al58  1  0.50050436  0.50197767  0.33136577  1
  Al0+  Al59  1  0.50013435  0.50158274  0.66351909  1
  Al0+  Al60  1  0.24933825  0.24942528  0.00672433  1
  Al0+  Al61  1  0.25080029  0.25256083  0.32546396  1
  Al0+  Al62  1  0.25023630  0.25046345  0.66347799  1
  Al0+  Al63  1  0.24876488  0.74936775  -0.00380557  1
  Al0+  Al64  1  0.25068936  0.75205119  0.33594518  1
  Al0+  Al65  1  0.25270969  0.74956123  0.65919607  1
  Al0+  Al66  1  0.74939426  0.25034709  0.00009804  1
  Al0+  Al67  1  0.74710352  0.25071481  0.32593383  1
  Al0+  Al68  1  0.74963801  0.24989105  0.66771580  1
  Al0+  Al69  1  0.75040144  0.75012047  -0.00253289  1
  Al0+  Al70  1  0.74994979  0.74935123  0.34022331  1
  Al0+  Al71  1  0.74821290  0.74847427  0.67587698  1
  Al0+  Al72  1  0.82312775  0.07190874  0.68100148  1
  Al0+  Al73  1  0.07265174  0.67941287  0.31763035  1
  Al0+  Al74  1  0.06966105  0.67926768  0.98535413  1
  Al0+  Al75  1  0.67673228  0.92864940  0.68527921  1
  Al0+  Al76  1  0.31986619  0.57060163  0.01241609  1
  Al0+  Al77  1  0.42980136  0.82194928  0.98607187  1
  Al0+  Al78  1  0.07099545  0.17676330  0.31656048  1
  Al0+  Al79  1  0.92598784  0.82023712  0.31950603  1
  Al0+  Al80  1  0.57301056  0.67614237  0.98476825  1
  Al0+  Al81  1  0.92763766  0.32013670  0.65382557  1
  Al0+  Al82  1  0.82188268  0.56844573  0.68216420  1
  Al0+  Al83  1  0.32222827  0.07135548  0.01433225  1
  Al0+  Al84  1  0.07170965  0.67699312  0.65140990  1
  Al0+  Al85  1  0.42827942  0.32430984  0.31542361  1
  Al0+  Al86  1  0.17796242  0.92951295  0.34779230  1
  Al0+  Al87  1  0.82238130  0.56826300  0.34684955  1
  Al0+  Al88  1  0.07253363  0.17631128  0.65409770  1
  Al0+  Al89  1  0.56948052  0.17840940  0.31834415  1
  Al0+  Al90  1  0.92887090  0.32198211  0.31796192  1
  Al0+  Al91  1  0.42941642  0.32188646  0.65510875  1
  Al0+  Al92  1  0.43050650  0.82256175  0.65075822  1
  Al0+  Al93  1  0.18145563  0.42892146  0.67943212  1
  Al0+  Al94  1  0.92715014  0.81952352  0.65293499  1
  Al0+  Al95  1  0.67829314  0.92904410  0.34699602  1
  Si0+  Si96  1  0.82027643  0.57047186  0.01609565  1
  Si0+  Si97  1  0.32408003  0.57332116  0.68280675  1
  Si0+  Si98  1  0.67852989  0.42734861  0.01540517  1
  Si0+  Si99  1  0.92725833  0.82445667  0.98332376  1
  Si0+  Si100  1  0.07155604  0.17976670  0.98492390  1
  Si0+  Si101  1  0.82103464  0.07325946  0.01623897  1
  Si0+  Si102  1  0.42783928  0.32011204  0.98451983  1
  Si0+  Si103  1  0.57196346  0.67769727  0.64883819  1
  Si0+  Si104  1  0.57074758  0.68076496  0.32089542  1
  Si0+  Si105  1  0.31889284  0.06968746  0.67938682  1
  Si0+  Si106  1  0.67466120  0.42802407  0.68305406  1
  Si0+  Si107  1  0.67696466  0.42785979  0.34944310  1
  Si0+  Si108  1  0.32351067  0.57287284  0.34892212  1
  Si0+  Si109  1  0.17905782  0.92610705  0.68157199  1
  Si0+  Si110  1  0.17744320  0.92803118  0.01562926  1
  Si0+  Si111  1  0.32029280  0.07341882  0.35116541  1
  Si0+  Si112  1  0.42904548  0.82163284  0.31845881  1
  Si0+  Si113  1  0.68134490  0.93041989  0.01566417  1
  Si0+  Si114  1  0.82133983  0.07395390  0.34796994  1
  Si0+  Si115  1  0.57155839  0.17961143  0.98325376  1
  Si0+  Si116  1  0.18149375  0.42999995  0.34821967  1
  Si0+  Si117  1  0.17638161  0.42778833  0.01958002  1
  Si0+  Si118  1  0.57157366  0.17803790  0.65134741  1
  Si0+  Si119  1  0.92798717  0.31914942  0.98437660  1
  O2-  O120  1  0.24851526  -0.00502599  0.05939696  1
  O2-  O121  1  0.24825879  0.00876304  0.39558197  1
  O2-  O122  1  0.24862979  -0.00095668  0.72378221  1
  O2-  O123  1  0.24371327  0.49865661  0.06258727  1
  O2-  O124  1  0.25342110  0.50077740  0.39008914  1
  O2-  O125  1  0.25449247  0.50537798  0.72640185  1
  O2-  O126  1  0.75477104  -0.00168087  0.05888756  1
  O2-  O127  1  0.75466563  0.00309184  0.39130664  1
  O2-  O128  1  0.75176809  -0.00058969  0.73332724  1
  O2-  O129  1  0.74540820  0.50261638  0.05738599  1
  O2-  O130  1  0.75129537  0.48952124  0.39373733  1
  O2-  O131  1  0.74662930  0.49263855  0.72860366  1
  O2-  O132  1  -0.00305667  0.24710050  0.26604854  1
  O2-  O133  1  -0.00569391  0.24246468  0.60599060  1
  O2-  O134  1  0.00073716  0.25023009  0.94257352  1
  O2-  O135  1  0.00040220  0.75158825  0.26799815  1
  O2-  O136  1  -0.00192735  0.74729778  0.60248890  1
  O2-  O137  1  -0.00357527  0.75595488  0.94025056  1
  O2-  O138  1  0.49898923  0.25084330  0.26570298  1
  O2-  O139  1  0.50772939  0.25161586  0.60852673  1
  O2-  O140  1  0.49778209  0.24813369  0.94149571  1
  O2-  O141  1  0.50037097  0.75117855  0.27693153  1
  O2-  O142  1  0.50695621  0.74960497  0.60393798  1
  O2-  O143  1  0.49958816  0.74746320  0.93608525  1
  O2-  O144  1  0.06995884  0.17884259  0.08959136  1
  O2-  O145  1  0.07125069  0.17898680  0.42957093  1
  O2-  O146  1  0.07577644  0.18025775  0.76861089  1
  O2-  O147  1  0.06827375  0.67995299  0.09815875  1
  O2-  O148  1  0.07217906  0.67780160  0.43043240  1
  O2-  O149  1  0.07162077  0.67831678  0.76558432  1
  O2-  O150  1  0.57309870  0.18055788  0.08790302  1
  O2-  O151  1  0.56715200  0.17943323  0.43178949  1
  O2-  O152  1  0.56812911  0.17809190  0.75777360  1
  O2-  O153  1  0.57451782  0.67960713  0.09907168  1
  O2-  O154  1  0.56831400  0.67890877  0.42566730  1
  O2-  O155  1  0.56747236  0.67463968  0.75435913  1
  O2-  O156  1  0.18192412  0.43134817  0.24268758  1
  O2-  O157  1  0.18380720  0.42729275  0.56641776  1
  O2-  O158  1  0.17802041  0.42437577  0.91404786  1
  O2-  O159  1  0.18431058  0.92764593  0.23423554  1
  O2-  O160  1  0.18104219  0.92631577  0.57666459  1
  O2-  O161  1  0.17547989  0.93101259  0.90992729  1
  O2-  O162  1  0.67437296  0.43273365  0.24336523  1
  O2-  O163  1  0.66913595  0.43173003  0.57798757  1
  O2-  O164  1  0.68059322  0.42321733  0.91051299  1
  O2-  O165  1  0.67790460  0.92888370  0.23292652  1
  O2-  O166  1  0.67475288  0.93351062  0.57180577  1
  O2-  O167  1  0.68021964  0.93296633  0.91112164  1
  O2-  O168  1  0.43073447  0.32097566  0.08916631  1
  O2-  O169  1  0.42957232  0.32463290  0.42908180  1
  O2-  O170  1  0.42930855  0.31859420  0.76891689  1
  O2-  O171  1  0.43275412  0.82178708  0.10019679  1
  O2-  O172  1  0.42941048  0.82092176  0.42351941  1
  O2-  O173  1  0.42939289  0.82265745  0.76374810  1
  O2-  O174  1  0.92673658  0.31829657  0.08926581  1
  O2-  O175  1  0.93197782  0.32208396  0.43078646  1
  O2-  O176  1  0.93165890  0.32018009  0.76834595  1
  O2-  O177  1  0.92504939  0.82435312  0.08878898  1
  O2-  O178  1  0.92428649  0.81729901  0.43235002  1
  O2-  O179  1  0.93260543  0.81900006  0.76729293  1
  O2-  O180  1  0.32205067  0.06914029  0.24523030  1
  O2-  O181  1  0.31957037  0.06915445  0.57460690  1
  O2-  O182  1  0.31940132  0.07405476  0.90078051  1
  O2-  O183  1  0.32433736  0.57322512  0.24353861  1
  O2-  O184  1  0.32617071  0.57170270  0.57700941  1
  O2-  O185  1  0.32019827  0.56670502  0.89964762  1
  O2-  O186  1  0.81833081  0.07299529  0.24145651  1
  O2-  O187  1  0.82029164  0.07441951  0.56780849  1
  O2-  O188  1  0.81981826  0.07570786  0.91158519  1
  O2-  O189  1  0.81806246  0.56884923  0.23288386  1
  O2-  O190  1  0.82146666  0.56671406  0.56914934  1
  O2-  O191  1  0.82181838  0.56762810  0.91120022  1
  O2-  O192  1  0.04536878  0.07891289  0.26071238  1
  O2-  O193  1  0.05208341  0.07533731  0.60578387  1
  O2-  O194  1  0.04488049  0.08733033  0.93780294  1
  O2-  O195  1  0.04551305  0.58223245  0.26212279  1
  O2-  O196  1  0.04399333  0.57757721  0.60245928  1
  O2-  O197  1  0.03769066  0.58145045  0.93371398  1
  O2-  O198  1  0.53767170  0.08110270  0.26320412  1
  O2-  O199  1  0.53963885  0.08740638  0.60479418  1
  O2-  O200  1  0.54566181  0.08774627  0.93599788  1
  O2-  O201  1  0.54426283  0.58969735  0.27114571  1
  O2-  O202  1  0.54329396  0.58648057  0.59958487  1
  O2-  O203  1  0.54780683  0.57617183  0.93363087  1
  O2-  O204  1  0.16811251  0.20832205  0.26233237  1
  O2-  O205  1  0.16734758  0.21020623  0.59825732  1
  O2-  O206  1  0.16435316  0.20814791  0.93981609  1
  O2-  O207  1  0.17181646  0.71066813  0.26631916  1
  O2-  O208  1  0.17028753  0.70308951  0.59917585  1
  O2-  O209  1  0.16625495  0.70674926  0.93034704  1
  O2-  O210  1  0.66650946  0.20445159  0.26072560  1
  O2-  O211  1  0.66652781  0.19774749  0.60742952  1
  O2-  O212  1  0.66234094  0.21112461  0.93549111  1
  O2-  O213  1  0.66222232  0.70860875  0.27381101  1
  O2-  O214  1  0.66766096  0.69942210  0.60747305  1
  O2-  O215  1  0.67099183  0.70559552  0.93164716  1
  O2-  O216  1  0.08123144  0.45174299  0.06347390  1
  O2-  O217  1  0.09014217  0.45865639  0.39464266  1
  O2-  O218  1  0.08692368  0.45751583  0.73847838  1
  O2-  O219  1  0.08467372  0.95690932  0.06275423  1
  O2-  O220  1  0.07893157  0.95600123  0.39865547  1
  O2-  O221  1  0.08793173  0.94978740  0.73169245  1
  O2-  O222  1  0.58526295  0.44935059  0.06236900  1
  O2-  O223  1  0.58547246  0.46022381  0.39668698  1
  O2-  O224  1  0.58274130  0.45838249  0.73223916  1
  O2-  O225  1  0.59055132  0.96099068  0.06360859  1
  O2-  O226  1  0.58152666  0.96142312  0.40006197  1
  O2-  O227  1  0.57923563  0.96308036  0.73867947  1
  O2-  O228  1  0.20435812  0.33571000  0.06764443  1
  O2-  O229  1  0.20943350  0.33728770  0.39345423  1
  O2-  O230  1  0.21554669  0.33311093  0.73510534  1
  O2-  O231  1  0.20132178  0.83388880  0.06049823  1
  O2-  O232  1  0.21450317  0.83555209  0.40368228  1
  O2-  O233  1  0.21183696  0.83484871  0.72777726  1
  O2-  O234  1  0.71082431  0.33726811  0.06493077  1
  O2-  O235  1  0.69350622  0.33072408  0.39045990  1
  O2-  O236  1  0.69389153  0.33245178  0.72786557  1
  O2-  O237  1  0.70644761  0.83668560  0.06150566  1
  O2-  O238  1  0.70546861  0.83300953  0.40302626  1
  O2-  O239  1  0.69932832  0.82959144  0.73927821  1
  O2-  O240  1  0.45976884  0.42250125  0.26243593  1
  O2-  O241  1  0.45633925  0.41893098  0.60062869  1
  O2-  O242  1  0.45697149  0.41073795  0.93617257  1
  O2-  O243  1  0.45533196  0.91381637  0.27194297  1
  O2-  O244  1  0.45978564  0.91924401  0.59624390  1
  O2-  O245  1  0.46159721  0.92016073  0.93371801  1
  O2-  O246  1  0.96357077  0.41701011  0.26112240  1
  O2-  O247  1  0.96372623  0.41579840  0.60266257  1
  O2-  O248  1  0.95356994  0.41201044  0.93858324  1
  O2-  O249  1  0.94982540  0.91911206  0.26553506  1
  O2-  O250  1  0.95424299  0.91797429  0.60120039  1
  O2-  O251  1  0.95174829  0.91961094  0.93925078  1
  O2-  O252  1  0.33115847  0.29838674  0.26005233  1
  O2-  O253  1  0.33646984  0.28686730  0.59865340  1
  O2-  O254  1  0.33438866  0.29235663  0.94059271  1
  O2-  O255  1  0.33832373  0.79234565  0.27093656  1
  O2-  O256  1  0.33635540  0.79015162  0.59346096  1
  O2-  O257  1  0.33048694  0.79753885  0.93391739  1
  O2-  O258  1  0.82856118  0.30039121  0.26491956  1
  O2-  O259  1  0.82614242  0.30181357  0.60312301  1
  O2-  O260  1  0.83644820  0.29018178  0.93719274  1
  O2-  O261  1  0.82801654  0.78760063  0.26641018  1
  O2-  O262  1  0.82532404  0.79440059  0.60721809  1
  O2-  O263  1  0.83411965  0.79885572  0.93707568  1
  O2-  O264  1  0.41991762  0.04320613  0.06812590  1
  O2-  O265  1  0.41220666  0.04410417  0.39813522  1
  O2-  O266  1  0.41034675  0.04239908  0.72825151  1
  O2-  O267  1  0.41696662  0.53871763  0.06684601  1
  O2-  O268  1  0.41578864  0.54600592  0.39630348  1
  O2-  O269  1  0.41710515  0.54622672  0.72959545  1
  O2-  O270  1  0.91499847  0.05071139  0.06229489  1
  O2-  O271  1  0.91679624  0.05313866  0.39000263  1
  O2-  O272  1  0.92127353  0.04252591  0.73678813  1
  O2-  O273  1  0.91044798  0.53782270  0.06432063  1
  O2-  O274  1  0.92080423  0.53880947  0.39727961  1
  O2-  O275  1  0.91682755  0.53588496  0.73894384  1
  O2-  O276  1  0.29042491  0.16643107  0.07116989  1
  O2-  O277  1  0.29954135  0.17045717  0.39159056  1
  O2-  O278  1  0.29137639  0.16136394  0.72767672  1
  O2-  O279  1  0.29162289  0.66868545  0.06586241  1
  O2-  O280  1  0.29697275  0.66452404  0.39677734  1
  O2-  O281  1  0.29993061  0.66820996  0.72665710  1
  O2-  O282  1  0.78879535  0.16356289  0.06451863  1
  O2-  O283  1  0.79281775  0.16788755  0.39186819  1
  O2-  O284  1  0.79376938  0.17050849  0.73651540  1
  O2-  O285  1  0.79572781  0.66419486  0.06148861  1
  O2-  O286  1  0.78666200  0.66162588  0.40278231  1
  O2-  O287  1  0.79009223  0.66299543  0.73992040  1
