# generated using pymatgen
data_Ca2Al2SiO7
_symmetry_space_group_name_H-M   'P 1'
_cell_length_a   15.45998638
_cell_length_b   15.45945864
_cell_length_c   15.28504690
_cell_angle_alpha   89.99844907
_cell_angle_beta   89.98320601
_cell_angle_gamma   89.99508168
_symmetry_Int_Tables_number   1
_chemical_formula_structural   Ca2Al2SiO7
_chemical_formula_sum   'Ca48 Al48 Si24 O168'
_cell_volume   3653.17219926
_cell_formula_units_Z   24
loop_
 _symmetry_equiv_pos_site_id
 _symmetry_equiv_pos_as_xyz
  1  'x, y, z'
loop_
 _atom_type_symbol
 _atom_type_oxidation_number
  Ca2+  2.0
  Al0+  0.0
  Si0+  0.0
  O2-  -2.0
loop_
 _atom_site_type_symbol
 _atom_site_label
 _atom_site_symmetry_multiplicity
 _atom_site_fract_x
 _atom_site_fract_y
 _atom_site_fract_z
 _atom_site_occupancy
  Ca2+  Ca0  1  0.15717966  0.07877479  0.16790965  1
  Ca2+  Ca1  1  0.16598275  0.08267576  0.50062940  1
  Ca2+  Ca2  1  0.16509870  0.07467009  0.84260897  1
  Ca2+  Ca3  1  0.17862379  0.57646310  0.16662922  1
  Ca2+  Ca4  1  0.17785603  0.58931985  0.50536046  1
  Ca2+  Ca5  1  0.17330964  0.58490599  0.84123447  1
  Ca2+  Ca6  1  0.66899959  0.07930756  0.17379366  1
  Ca2+  Ca7  1  0.67511951  0.07789537  0.50356952  1
  Ca2+  Ca8  1  0.67061988  0.08385977  0.83908143  1
  Ca2+  Ca9  1  0.67399975  0.58456921  0.16925002  1
  Ca2+  Ca10  1  0.66739886  0.58911137  0.49547194  1
  Ca2+  Ca11  1  0.67411146  0.57704811  0.84435538  1
  Ca2+  Ca12  1  0.08142442  0.32258886  0.15557636  1
  Ca2+  Ca13  1  0.08140905  0.32477190  0.49091593  1
  Ca2+  Ca14  1  0.08377452  0.33582983  0.83813754  1
  Ca2+  Ca15  1  0.07617692  0.83271014  0.15707754  1
  Ca2+  Ca16  1  0.07863010  0.82720031  0.50319081  1
  Ca2+  Ca17  1  0.07642681  0.82915515  0.83176692  1
  Ca2+  Ca18  1  0.57760535  0.33308339  0.15777447  1
  Ca2+  Ca19  1  0.57647110  0.33326664  0.49316058  1
  Ca2+  Ca20  1  0.58529677  0.33419871  0.83939044  1
  Ca2+  Ca21  1  0.57710948  0.83136418  0.16436868  1
  Ca2+  Ca22  1  0.57412619  0.83012496  0.48938491  1
  Ca2+  Ca23  1  0.56973253  0.83127405  0.83089031  1
  Ca2+  Ca24  1  0.33957763  0.42164192  0.17007021  1
  Ca2+  Ca25  1  0.33991551  0.42943668  0.50191924  1
  Ca2+  Ca26  1  0.32904999  0.42984897  0.84610956  1
  Ca2+  Ca27  1  0.33092281  0.91197650  0.16726877  1
  Ca2+  Ca28  1  0.33649049  0.91225561  0.50368050  1
  Ca2+  Ca29  1  0.32784231  0.91065641  0.84332166  1
  Ca2+  Ca30  1  0.83336532  0.42310306  0.16577412  1
  Ca2+  Ca31  1  0.83321059  0.42324027  0.50055652  1
  Ca2+  Ca32  1  0.83129556  0.42273408  0.84800269  1
  Ca2+  Ca33  1  0.82666275  0.92022152  0.17587676  1
  Ca2+  Ca34  1  0.83070489  0.92368318  0.50257797  1
  Ca2+  Ca35  1  0.84268026  0.91966965  0.83756769  1
  Ca2+  Ca36  1  0.42221284  0.18004343  0.15700789  1
  Ca2+  Ca37  1  0.41730310  0.17548961  0.49016974  1
  Ca2+  Ca38  1  0.42140416  0.17257295  0.83779810  1
  Ca2+  Ca39  1  0.41588992  0.67025061  0.16502303  1
  Ca2+  Ca40  1  0.41729554  0.67338339  0.49084653  1
  Ca2+  Ca41  1  0.40531662  0.67312720  0.83042166  1
  Ca2+  Ca42  1  0.92323332  0.16748958  0.15901016  1
  Ca2+  Ca43  1  0.91824682  0.16033836  0.49441222  1
  Ca2+  Ca44  1  0.91928413  0.17055852  0.83474120  1
  Ca2+  Ca45  1  0.91068155  0.67014499  0.15774492  1
  Ca2+  Ca46  1  0.92064271  0.66637767  0.49491909  1
  Ca2+  Ca47  1  0.91884558  0.67561847  0.82782007  1
  Al0+  Al48  1  0.00072362  -0.00079371  -0.00279318  1
  Al0+  Al49  1  0.00052791  -0.00175380  0.33546335  1
  Al0+  Al50  1  0.00005654  0.00053203  0.66694633  1
  Al0+  Al51  1  0.00343019  0.49993161  0.00496035  1
  Al0+  Al52  1  0.00064374  0.49850361  0.33766073  1
  Al0+  Al53  1  0.00047152  0.49801235  0.66164803  1
  Al0+  Al54  1  0.49968899  -0.00066850  -0.00796499  1
  Al0+  Al55  1  0.49760408  0.00009046  0.33482884  1
  Al0+  Al56  1  0.50123163  0.00157185  0.66314502  1
  Al0+  Al57  1  0.50264992  0.50110733  0.00312191  1
  Al0+  Al58  1  0.50041306  0.50216020  0.33106196  1
  Al0+  Al59  1  0.49971793  0.50024791  0.67253042  1
  Al0+  Al60  1  0.25212875  0.24851962  -0.00736713  1
  Al0+  Al61  1  0.24795195  0.24801410  0.32533557  1
  Al0+  Al62  1  0.25019035  0.25012132  0.66642092  1
  Al0+  Al63  1  0.24813154  0.75124943  0.00685333  1
  Al0+  Al64  1  0.24780963  0.74935421  0.33404213  1
  Al0+  Al65  1  0.24873087  0.75100168  0.66259339  1
  Al0+  Al66  1  0.75150375  0.25002868  -0.00234014  1
  Al0+  Al67  1  0.75109400  0.25146971  0.33854669  1
  Al0+  Al68  1  0.75103116  0.24823526  0.66930390  1
  Al0+  Al69  1  0.74823565  0.75291650  -0.00338460  1
  Al0+  Al70  1  0.74859946  0.74989765  0.33955980  1
  Al0+  Al71  1  0.74747800  0.75172106  0.66415941  1
  Al0+  Al72  1  0.42947143  0.32519490  0.98297926  1
  Al0+  Al73  1  0.57256252  0.68031651  0.31672008  1
  Al0+  Al74  1  0.82224255  0.57096756  0.34835010  1
  Al0+  Al75  1  0.42931631  0.82054847  0.65277343  1
  Al0+  Al76  1  0.42987968  0.32100801  0.32091673  1
  Al0+  Al77  1  0.17845657  0.93104829  0.01404091  1
  Al0+  Al78  1  0.42795104  0.81778843  0.98677210  1
  Al0+  Al79  1  0.06948592  0.67752384  0.65159397  1
  Al0+  Al80  1  0.42621897  0.82257165  0.31633638  1
  Al0+  Al81  1  0.57246009  0.17823706  0.98552474  1
  Al0+  Al82  1  0.82103787  0.06893673  0.68419673  1
  Al0+  Al83  1  0.17994498  0.42542473  0.01540606  1
  Al0+  Al84  1  0.07222286  0.17735458  0.98255697  1
  Al0+  Al85  1  0.93082189  0.32248797  0.98601191  1
  Al0+  Al86  1  0.06799713  0.17743208  0.31943525  1
  Al0+  Al87  1  0.32038302  0.56990765  0.34870094  1
  Al0+  Al88  1  0.82233152  0.57412092  0.01233749  1
  Al0+  Al89  1  0.67568288  0.92903376  0.34885436  1
  Al0+  Al90  1  0.82193008  0.07105815  0.34722110  1
  Al0+  Al91  1  0.31885592  0.57130309  0.68017127  1
  Al0+  Al92  1  0.92653476  0.82030871  0.98878617  1
  Al0+  Al93  1  0.32188032  0.57230688  0.01692801  1
  Al0+  Al94  1  0.92727043  0.82283443  0.64955222  1
  Al0+  Al95  1  0.68070774  0.42725332  0.01612776  1
  Si0+  Si96  1  0.32432993  0.07034934  0.01519664  1
  Si0+  Si97  1  0.82233909  0.57126550  0.68008205  1
  Si0+  Si98  1  0.57326503  0.67881163  0.98231962  1
  Si0+  Si99  1  0.93032087  0.81848663  0.32007000  1
  Si0+  Si100  1  0.68018743  0.42856384  0.68146490  1
  Si0+  Si101  1  0.42976718  0.32103736  0.65227341  1
  Si0+  Si102  1  0.67637999  0.93038366  0.01306288  1
  Si0+  Si103  1  0.67588881  0.92812778  0.68589138  1
  Si0+  Si104  1  0.82105880  0.06968727  0.01412147  1
  Si0+  Si105  1  0.57360495  0.17835708  0.31997837  1
  Si0+  Si106  1  0.31891098  0.07201820  0.34661698  1
  Si0+  Si107  1  0.17801147  0.92830707  0.35078020  1
  Si0+  Si108  1  0.92691308  0.32392827  0.31729077  1
  Si0+  Si109  1  0.07139754  0.17964692  0.65110380  1
  Si0+  Si110  1  0.17942703  0.42529872  0.35052724  1
  Si0+  Si111  1  0.57145932  0.67517608  0.65069660  1
  Si0+  Si112  1  0.07166554  0.67884165  0.98725309  1
  Si0+  Si113  1  0.67755566  0.42851259  0.35110656  1
  Si0+  Si114  1  0.32334668  0.07412062  0.68107071  1
  Si0+  Si115  1  0.18149395  0.93146272  0.68069494  1
  Si0+  Si116  1  0.57253537  0.18039384  0.64967790  1
  Si0+  Si117  1  0.92730226  0.32004612  0.65019548  1
  Si0+  Si118  1  0.17704001  0.42510274  0.68192335  1
  Si0+  Si119  1  0.07090834  0.67673010  0.31736687  1
  O2-  O120  1  0.25173578  0.00699550  0.06127131  1
  O2-  O121  1  0.25210453  -0.00233304  0.39120180  1
  O2-  O122  1  0.25529910  0.00012418  0.72234295  1
  O2-  O123  1  0.25646343  0.49278971  0.06526617  1
  O2-  O124  1  0.24695389  0.49384381  0.39682592  1
  O2-  O125  1  0.24272946  0.49697320  0.72445310  1
  O2-  O126  1  0.74821431  0.00046671  0.05541371  1
  O2-  O127  1  0.74734032  0.00231753  0.39832622  1
  O2-  O128  1  0.74874994  -0.00811192  0.73137833  1
  O2-  O129  1  0.75245027  0.50071947  0.06370372  1
  O2-  O130  1  0.74762577  0.49594091  0.39581843  1
  O2-  O131  1  0.75050913  0.50121958  0.72189458  1
  O2-  O132  1  -0.00786786  0.25137380  0.27521457  1
  O2-  O133  1  0.00054564  0.25067115  0.60864961  1
  O2-  O134  1  0.00361107  0.25274158  0.93262694  1
  O2-  O135  1  -0.00347050  0.74431718  0.27587661  1
  O2-  O136  1  -0.00650925  0.74512306  0.59970995  1
  O2-  O137  1  -0.00266747  0.74154516  0.94319343  1
  O2-  O138  1  0.50648024  0.24764639  0.27587082  1
  O2-  O139  1  0.49981016  0.24990957  0.60792299  1
  O2-  O140  1  0.50306806  0.25295976  0.93446460  1
  O2-  O141  1  0.49996421  0.75216210  0.26742719  1
  O2-  O142  1  0.50374888  0.74534256  0.60749344  1
  O2-  O143  1  0.49836669  0.74052035  0.93769173  1
  O2-  O144  1  0.06572409  0.17388961  0.09595167  1
  O2-  O145  1  0.06930446  0.17881664  0.43360287  1
  O2-  O146  1  0.07260138  0.17941403  0.75530656  1
  O2-  O147  1  0.07223401  0.68317810  0.09306694  1
  O2-  O148  1  0.07142951  0.67942001  0.42269251  1
  O2-  O149  1  0.06907480  0.67874675  0.76509725  1
  O2-  O150  1  0.56997481  0.17531818  0.09922250  1
  O2-  O151  1  0.57109523  0.18041303  0.42635032  1
  O2-  O152  1  0.57310477  0.18056847  0.75423345  1
  O2-  O153  1  0.57846693  0.68421082  0.08718848  1
  O2-  O154  1  0.56956850  0.68038331  0.43117320  1
  O2-  O155  1  0.57233091  0.67397150  0.75610000  1
  O2-  O156  1  0.17975447  0.42604355  0.24568456  1
  O2-  O157  1  0.17968496  0.41953887  0.57634561  1
  O2-  O158  1  0.17924020  0.43125649  0.90112563  1
  O2-  O159  1  0.17389865  0.92937564  0.24611274  1
  O2-  O160  1  0.18130039  0.93395802  0.57514731  1
  O2-  O161  1  0.17949024  0.92989667  0.90039278  1
  O2-  O162  1  0.67871259  0.42549738  0.24649234  1
  O2-  O163  1  0.67974260  0.42706745  0.57623301  1
  O2-  O164  1  0.68336300  0.42968250  0.90138324  1
  O2-  O165  1  0.67790719  0.93078401  0.23470576  1
  O2-  O166  1  0.67348125  0.93277538  0.58067992  1
  O2-  O167  1  0.67593352  0.93118816  0.90788848  1
  O2-  O168  1  0.43093861  0.32150578  0.09667091  1
  O2-  O169  1  0.43073129  0.31893216  0.43530493  1
  O2-  O170  1  0.43062244  0.31983264  0.75645390  1
  O2-  O171  1  0.43052396  0.82026718  0.09910447  1
  O2-  O172  1  0.42599177  0.82060118  0.43049127  1
  O2-  O173  1  0.42788423  0.82033321  0.76577218  1
  O2-  O174  1  0.92938244  0.31835390  0.09952170  1
  O2-  O175  1  0.92938833  0.32527104  0.42372029  1
  O2-  O176  1  0.92615887  0.32134244  0.75460073  1
  O2-  O177  1  0.92699607  0.82217667  0.10235122  1
  O2-  O178  1  0.93443364  0.81906386  0.42509995  1
  O2-  O179  1  0.93198047  0.82270500  0.76305278  1
  O2-  O180  1  0.31770069  0.07372915  0.24223848  1
  O2-  O181  1  0.32051849  0.07797670  0.57561738  1
  O2-  O182  1  0.32499973  0.06561481  0.90896409  1
  O2-  O183  1  0.31859200  0.57032845  0.23648151  1
  O2-  O184  1  0.32098544  0.56903707  0.56691456  1
  O2-  O185  1  0.31614489  0.57569472  0.90283656  1
  O2-  O186  1  0.82265671  0.06835550  0.23362488  1
  O2-  O187  1  0.81890078  0.07065724  0.57121143  1
  O2-  O188  1  0.82144395  0.06787822  0.90873463  1
  O2-  O189  1  0.82346994  0.57070361  0.23603367  1
  O2-  O190  1  0.82214257  0.56821877  0.57490642  1
  O2-  O191  1  0.81970749  0.57494060  0.89783878  1
  O2-  O192  1  0.03840753  0.07987999  0.26704102  1
  O2-  O193  1  0.04312616  0.08830088  0.60326960  1
  O2-  O194  1  0.03812396  0.08118083  0.92786405  1
  O2-  O195  1  0.04702306  0.58257640  0.27402695  1
  O2-  O196  1  0.04700613  0.57764798  0.59692685  1
  O2-  O197  1  0.05467807  0.58347370  0.94288116  1
  O2-  O198  1  0.54752657  0.08499348  0.27544099  1
  O2-  O199  1  0.54551422  0.08894162  0.60134665  1
  O2-  O200  1  0.54025203  0.08299072  0.92692318  1
  O2-  O201  1  0.54647719  0.58156647  0.26512562  1
  O2-  O202  1  0.54548641  0.58118480  0.60497504  1
  O2-  O203  1  0.55586783  0.58255824  0.93971523  1
  O2-  O204  1  0.16336305  0.20616220  0.26338883  1
  O2-  O205  1  0.16379614  0.20689498  0.60265727  1
  O2-  O206  1  0.17224546  0.19728727  0.92951819  1
  O2-  O207  1  0.16044724  0.70878243  0.26972072  1
  O2-  O208  1  0.16451578  0.71367310  0.59572882  1
  O2-  O209  1  0.16169493  0.71303481  0.93948779  1
  O2-  O210  1  0.66864941  0.20175725  0.27640672  1
  O2-  O211  1  0.66376684  0.21079381  0.60228117  1
  O2-  O212  1  0.67076098  0.20446203  0.93111004  1
  O2-  O213  1  0.67227360  0.70848728  0.26633412  1
  O2-  O214  1  0.66538517  0.69911119  0.60407080  1
  O2-  O215  1  0.66259394  0.71164969  0.93098196  1
  O2-  O216  1  0.08362359  0.45487357  0.07181957  1
  O2-  O217  1  0.08556996  0.44941561  0.39770922  1
  O2-  O218  1  0.08105491  0.44689280  0.72487699  1
  O2-  O219  1  0.08196737  0.96252553  0.06900911  1
  O2-  O220  1  0.08890481  0.96006339  0.40151638  1
  O2-  O221  1  0.09089503  0.96242511  0.72805666  1
  O2-  O222  1  0.58246047  0.45381794  0.06841453  1
  O2-  O223  1  0.58517986  0.45672138  0.39885418  1
  O2-  O224  1  0.58871540  0.45483219  0.73022454  1
  O2-  O225  1  0.58511286  0.95963934  0.06019055  1
  O2-  O226  1  0.57688531  0.95687983  0.40303521  1
  O2-  O227  1  0.58360172  0.96020954  0.73216780  1
  O2-  O228  1  0.20196915  0.32277557  0.06214267  1
  O2-  O229  1  0.20484151  0.33037133  0.39511658  1
  O2-  O230  1  0.20486335  0.33267911  0.72982548  1
  O2-  O231  1  0.20856534  0.83679620  0.07165633  1
  O2-  O232  1  0.20379975  0.83637534  0.39879073  1
  O2-  O233  1  0.20702449  0.83908293  0.72689451  1
  O2-  O234  1  0.70855674  0.32827998  0.06803936  1
  O2-  O235  1  0.70177325  0.33531133  0.40082469  1
  O2-  O236  1  0.70930285  0.33738621  0.72865058  1
  O2-  O237  1  0.70405867  0.83906596  0.06024662  1
  O2-  O238  1  0.70515723  0.83251156  0.40428523  1
  O2-  O239  1  0.69431585  0.83144126  0.72868816  1
  O2-  O240  1  0.45941443  0.41708021  0.26814790  1
  O2-  O241  1  0.46006785  0.41295365  0.60602050  1
  O2-  O242  1  0.45844176  0.42406192  0.93084436  1
  O2-  O243  1  0.45040957  0.92355593  0.26675677  1
  O2-  O244  1  0.45821061  0.91894565  0.59960114  1
  O2-  O245  1  0.46049229  0.91252917  0.92989653  1
  O2-  O246  1  0.95555167  0.41646161  0.27161916  1
  O2-  O247  1  0.95311497  0.41143040  0.60037237  1
  O2-  O248  1  0.95826763  0.42224589  0.93382112  1
  O2-  O249  1  0.96233526  0.90889441  0.27297352  1
  O2-  O250  1  0.96319821  0.91947884  0.59677794  1
  O2-  O251  1  0.96341663  0.91340835  0.93261191  1
  O2-  O252  1  0.33512193  0.28796998  0.26624312  1
  O2-  O253  1  0.33780071  0.29295302  0.60461879  1
  O2-  O254  1  0.33305588  0.29501026  0.92707019  1
  O2-  O255  1  0.32660714  0.79341009  0.26667310  1
  O2-  O256  1  0.33270361  0.79263056  0.59812029  1
  O2-  O257  1  0.32918653  0.78942690  0.93538378  1
  O2-  O258  1  0.83106013  0.30295216  0.27501500  1
  O2-  O259  1  0.83639907  0.28932184  0.60220075  1
  O2-  O260  1  0.83389710  0.29221893  0.93102652  1
  O2-  O261  1  0.83622724  0.79543208  0.27668771  1
  O2-  O262  1  0.82542151  0.80245602  0.60064019  1
  O2-  O263  1  0.83016135  0.79604082  0.93083960  1
  O2-  O264  1  0.41630827  0.03985089  0.06133371  1
  O2-  O265  1  0.41136241  0.04978790  0.39633506  1
  O2-  O266  1  0.41706402  0.05029526  0.72567410  1
  O2-  O267  1  0.42325584  0.55208878  0.06561468  1
  O2-  O268  1  0.41792277  0.53984202  0.40205189  1
  O2-  O269  1  0.41502224  0.54054423  0.73519373  1
  O2-  O270  1  0.91178031  0.03896751  0.06073440  1
  O2-  O271  1  0.91843905  0.03732635  0.40257497  1
  O2-  O272  1  0.91935832  0.04081304  0.73626014  1
  O2-  O273  1  0.92133813  0.55038907  0.06505750  1
  O2-  O274  1  0.91827206  0.53852375  0.40504846  1
  O2-  O275  1  0.91447342  0.54200712  0.72544782  1
  O2-  O276  1  0.30505139  0.16673741  0.05629563  1
  O2-  O277  1  0.28644020  0.16216663  0.39634143  1
  O2-  O278  1  0.29283834  0.16445646  0.72986786  1
  O2-  O279  1  0.28566058  0.66684536  0.07231882  1
  O2-  O280  1  0.28549305  0.66629166  0.40220246  1
  O2-  O281  1  0.28660959  0.66870506  0.73148831  1
  O2-  O282  1  0.79577122  0.16189922  0.06043698  1
  O2-  O283  1  0.79906792  0.17108382  0.40144528  1
  O2-  O284  1  0.78801577  0.16567808  0.73708707  1
  O2-  O285  1  0.79005589  0.67251514  0.06416524  1
  O2-  O286  1  0.79170054  0.66615556  0.40519135  1
  O2-  O287  1  0.79662801  0.66509824  0.72429039  1
