# generated using pymatgen
data_Ca2Al2SiO7
_symmetry_space_group_name_H-M   'P 1'
_cell_length_a   15.46724486
_cell_length_b   15.46989911
_cell_length_c   15.29144759
_cell_angle_alpha   89.98708136
_cell_angle_beta   89.98703543
_cell_angle_gamma   89.97252369
_symmetry_Int_Tables_number   1
_chemical_formula_structural   Ca2Al2SiO7
_chemical_formula_sum   'Ca48 Al48 Si24 O168'
_cell_volume   3658.88677772
_cell_formula_units_Z   24
loop_
 _symmetry_equiv_pos_site_id
 _symmetry_equiv_pos_as_xyz
  1  'x, y, z'
loop_
 _atom_type_symbol
 _atom_type_oxidation_number
  Ca2+  2.0
  Al0+  0.0
  Si0+  0.0
  O2-  -2.0
loop_
 _atom_site_type_symbol
 _atom_site_label
 _atom_site_symmetry_multiplicity
 _atom_site_fract_x
 _atom_site_fract_y
 _atom_site_fract_z
 _atom_site_occupancy
  Ca2+  Ca0  1  0.16772609  0.08423018  0.16466180  1
  Ca2+  Ca1  1  0.16551172  0.08145630  0.50770229  1
  Ca2+  Ca2  1  0.16787485  0.08377577  0.84183768  1
  Ca2+  Ca3  1  0.17343150  0.58854501  0.16965313  1
  Ca2+  Ca4  1  0.17073141  0.59053983  0.50050413  1
  Ca2+  Ca5  1  0.17021439  0.58357564  0.84347840  1
  Ca2+  Ca6  1  0.67290474  0.08041671  0.17552011  1
  Ca2+  Ca7  1  0.67337188  0.08262715  0.50110676  1
  Ca2+  Ca8  1  0.66675175  0.07844079  0.83880805  1
  Ca2+  Ca9  1  0.67353992  0.57972921  0.17506400  1
  Ca2+  Ca10  1  0.67248813  0.57576460  0.50964137  1
  Ca2+  Ca11  1  0.66698563  0.58788027  0.83272982  1
  Ca2+  Ca12  1  0.07012540  0.33500465  0.15672970  1
  Ca2+  Ca13  1  0.07727283  0.32778214  0.49409767  1
  Ca2+  Ca14  1  0.08585234  0.32890273  0.83361822  1
  Ca2+  Ca15  1  0.08219685  0.82073670  0.16500223  1
  Ca2+  Ca16  1  0.07713199  0.82045625  0.50090576  1
  Ca2+  Ca17  1  0.08284753  0.81947196  0.82812174  1
  Ca2+  Ca18  1  0.57754792  0.34262996  0.16953586  1
  Ca2+  Ca19  1  0.57843662  0.34576508  0.49773616  1
  Ca2+  Ca20  1  0.57605659  0.33594255  0.82588476  1
  Ca2+  Ca21  1  0.57480608  0.82465447  0.15883745  1
  Ca2+  Ca22  1  0.57516008  0.82719529  0.49873447  1
  Ca2+  Ca23  1  0.57332102  0.82093244  0.83015737  1
  Ca2+  Ca24  1  0.32711526  0.42845052  0.17102267  1
  Ca2+  Ca25  1  0.33955594  0.42132723  0.50285508  1
  Ca2+  Ca26  1  0.32658719  0.42247244  0.84243849  1
  Ca2+  Ca27  1  0.34015752  0.91874802  0.16982775  1
  Ca2+  Ca28  1  0.33596516  0.91251026  0.50353033  1
  Ca2+  Ca29  1  0.34110169  0.92189964  0.84144757  1
  Ca2+  Ca30  1  0.82936234  0.41490970  0.17786183  1
  Ca2+  Ca31  1  0.82572367  0.42281556  0.50207319  1
  Ca2+  Ca32  1  0.82981967  0.41904606  0.83325508  1
  Ca2+  Ca33  1  0.83382432  0.92506421  0.17363130  1
  Ca2+  Ca34  1  0.84396301  0.92299332  0.50591712  1
  Ca2+  Ca35  1  0.83715339  0.91201272  0.83394739  1
  Ca2+  Ca36  1  0.41313140  0.17291874  0.16406059  1
  Ca2+  Ca37  1  0.41935161  0.18279819  0.49613298  1
  Ca2+  Ca38  1  0.41105310  0.17371770  0.82827884  1
  Ca2+  Ca39  1  0.41420391  0.67249941  0.15965869  1
  Ca2+  Ca40  1  0.41995382  0.67169732  0.49364305  1
  Ca2+  Ca41  1  0.42354637  0.66709182  0.82836076  1
  Ca2+  Ca42  1  0.91598285  0.17784552  0.16079936  1
  Ca2+  Ca43  1  0.91968001  0.17032609  0.49290917  1
  Ca2+  Ca44  1  0.92942306  0.17271657  0.83125154  1
  Ca2+  Ca45  1  0.92989333  0.65137343  0.16530140  1
  Ca2+  Ca46  1  0.92578149  0.65053325  0.49775844  1
  Ca2+  Ca47  1  0.92795408  0.66585030  0.82369099  1
  Al0+  Al48  1  -0.00034818  0.00251513  -0.00012915  1
  Al0+  Al49  1  0.00228909  -0.00299097  0.33728058  1
  Al0+  Al50  1  0.00381065  -0.00058686  0.66316340  1
  Al0+  Al51  1  -0.00283405  0.49922060  -0.00779409  1
  Al0+  Al52  1  0.00157768  0.49538695  0.32797983  1
  Al0+  Al53  1  0.00005840  0.49670690  0.66651169  1
  Al0+  Al54  1  0.50088573  0.00049180  0.00370160  1
  Al0+  Al55  1  0.49966425  0.00087086  0.33231579  1
  Al0+  Al56  1  0.50150638  0.00241756  0.66400741  1
  Al0+  Al57  1  0.50054021  0.50038295  0.00028368  1
  Al0+  Al58  1  0.49823366  0.50110917  0.33453024  1
  Al0+  Al59  1  0.49969785  0.50060334  0.66470120  1
  Al0+  Al60  1  0.24876569  0.24940476  0.00682088  1
  Al0+  Al61  1  0.25169972  0.24863232  0.32922633  1
  Al0+  Al62  1  0.25136512  0.24970583  0.65822400  1
  Al0+  Al63  1  0.24790157  0.75399628  -0.00347664  1
  Al0+  Al64  1  0.24937090  0.75081484  0.33023418  1
  Al0+  Al65  1  0.24756038  0.75153484  0.66214931  1
  Al0+  Al66  1  0.74894998  0.25088436  -0.00418169  1
  Al0+  Al67  1  0.75021030  0.24756459  0.33956136  1
  Al0+  Al68  1  0.75074583  0.24873194  0.67330136  1
  Al0+  Al69  1  0.74765106  0.75004356  -0.00000588  1
  Al0+  Al70  1  0.75136721  0.75149730  0.33772258  1
  Al0+  Al71  1  0.74978127  0.75362284  0.66454952  1
  Al0+  Al72  1  0.17608976  0.42922479  0.01469746  1
  Al0+  Al73  1  0.92957695  0.31689614  0.32123374  1
  Al0+  Al74  1  0.67804612  0.42944131  0.34806477  1
  Al0+  Al75  1  0.42864506  0.82265493  0.65167017  1
  Al0+  Al76  1  0.42857970  0.82279383  0.98607912  1
  Al0+  Al77  1  0.57140132  0.67677423  0.98549072  1
  Al0+  Al78  1  0.07130273  0.18042504  0.65252799  1
  Al0+  Al79  1  0.07151835  0.17980452  0.98598531  1
  Al0+  Al80  1  0.06970602  0.67459406  0.65068642  1
  Al0+  Al81  1  0.57126755  0.67858950  0.64962399  1
  Al0+  Al82  1  0.43013573  0.82053018  0.31812171  1
  Al0+  Al83  1  0.42891093  0.32334980  0.31675326  1
  Al0+  Al84  1  0.06999764  0.67967976  0.98667489  1
  Al0+  Al85  1  0.43057810  0.32079691  0.65509840  1
  Al0+  Al86  1  0.32072041  0.57334232  0.01337685  1
  Al0+  Al87  1  0.31834480  0.57208709  0.34761930  1
  Al0+  Al88  1  0.82172470  0.06866842  0.34744548  1
  Al0+  Al89  1  0.92526523  0.32244941  0.98172341  1
  Al0+  Al90  1  0.92915126  0.82081521  0.65320017  1
  Al0+  Al91  1  0.82466865  0.57093058  0.34677647  1
  Al0+  Al92  1  0.32190424  0.07036291  0.01442264  1
  Al0+  Al93  1  0.82202515  0.57254691  0.68341690  1
  Al0+  Al94  1  0.06821238  0.67869347  0.31875128  1
  Al0+  Al95  1  0.67732339  0.42958686  0.68511587  1
  Si0+  Si96  1  0.32204627  0.07192471  0.35097338  1
  Si0+  Si97  1  0.67957662  0.92932694  0.01577371  1
  Si0+  Si98  1  0.67627608  0.92841445  0.35159620  1
  Si0+  Si99  1  0.32113405  0.07136585  0.67956865  1
  Si0+  Si100  1  0.57467588  0.17772469  0.65089623  1
  Si0+  Si101  1  0.57101518  0.17847255  0.31722060  1
  Si0+  Si102  1  0.67859744  0.42698226  0.01520769  1
  Si0+  Si103  1  0.57112200  0.17875957  0.98674797  1
  Si0+  Si104  1  0.17506507  0.92920686  0.01774675  1
  Si0+  Si105  1  0.82010680  0.07191268  0.01390973  1
  Si0+  Si106  1  0.92688450  0.82361990  0.98690249  1
  Si0+  Si107  1  0.82430979  0.06923383  0.68461529  1
  Si0+  Si108  1  0.42920406  0.32011636  0.98710558  1
  Si0+  Si109  1  0.07306162  0.17400682  0.31601937  1
  Si0+  Si110  1  0.92591837  0.31981892  0.64832425  1
  Si0+  Si111  1  0.18000205  0.92999730  0.68263253  1
  Si0+  Si112  1  0.18052078  0.42567324  0.67876350  1
  Si0+  Si113  1  0.92746553  0.82441175  0.31661188  1
  Si0+  Si114  1  0.81895263  0.57188884  0.01323764  1
  Si0+  Si115  1  0.31837418  0.57260227  0.67990987  1
  Si0+  Si116  1  0.18103699  0.92898263  0.35029374  1
  Si0+  Si117  1  0.17943354  0.42563043  0.34991991  1
  Si0+  Si118  1  0.57386199  0.67807114  0.31742870  1
  Si0+  Si119  1  0.67693754  0.93131752  0.68355438  1
  O2-  O120  1  0.24781217  -0.00535216  0.06136329  1
  O2-  O121  1  0.25060930  0.00185371  0.39310472  1
  O2-  O122  1  0.25492321  -0.00249990  0.72372325  1
  O2-  O123  1  0.24572442  0.50422385  0.06398908  1
  O2-  O124  1  0.24717029  0.49420439  0.39583598  1
  O2-  O125  1  0.24579466  0.50225806  0.72084041  1
  O2-  O126  1  0.75196055  -0.00083867  0.05774243  1
  O2-  O127  1  0.74979484  -0.00797483  0.39611129  1
  O2-  O128  1  0.75198906  -0.00094736  0.72652137  1
  O2-  O129  1  0.74944308  0.49891391  0.05520061  1
  O2-  O130  1  0.74773992  0.50432962  0.39657772  1
  O2-  O131  1  0.74821273  0.50263469  0.73548882  1
  O2-  O132  1  0.00409738  0.24227536  0.27334804  1
  O2-  O133  1  -0.00477287  0.25171153  0.60439509  1
  O2-  O134  1  0.00242848  0.25369810  0.93503010  1
  O2-  O135  1  -0.01236306  0.74856425  0.27265828  1
  O2-  O136  1  -0.00905032  0.74073396  0.60221539  1
  O2-  O137  1  -0.00530839  0.75500665  0.94262099  1
  O2-  O138  1  0.50549017  0.24919472  0.27157892  1
  O2-  O139  1  0.51111843  0.25161544  0.60870809  1
  O2-  O140  1  0.49895024  0.24796347  0.94423946  1
  O2-  O141  1  0.50565133  0.74682718  0.27237195  1
  O2-  O142  1  0.49688657  0.74859647  0.60017740  1
  O2-  O143  1  0.49353020  0.74414840  0.93748318  1
  O2-  O144  1  0.06624932  0.17649403  0.09931987  1
  O2-  O145  1  0.07306880  0.17453723  0.42198747  1
  O2-  O146  1  0.07281183  0.18121050  0.76521255  1
  O2-  O147  1  0.06865500  0.68071437  0.09992766  1
  O2-  O148  1  0.06969543  0.68101984  0.43136864  1
  O2-  O149  1  0.07382928  0.67849833  0.76417379  1
  O2-  O150  1  0.57394041  0.17894514  0.09156929  1
  O2-  O151  1  0.56800450  0.17459143  0.42263071  1
  O2-  O152  1  0.57147551  0.17329313  0.75676751  1
  O2-  O153  1  0.57768647  0.68022953  0.09891311  1
  O2-  O154  1  0.57210146  0.68000876  0.42269181  1
  O2-  O155  1  0.56780121  0.67987017  0.76327768  1
  O2-  O156  1  0.18034432  0.42665063  0.24464238  1
  O2-  O157  1  0.18364111  0.42241955  0.57378859  1
  O2-  O158  1  0.18168792  0.42766780  0.90028506  1
  O2-  O159  1  0.18016338  0.93023979  0.24525275  1
  O2-  O160  1  0.17905955  0.93214833  0.57736255  1
  O2-  O161  1  0.17195544  0.93207215  0.91231051  1
  O2-  O162  1  0.67972805  0.42924818  0.23365216  1
  O2-  O163  1  0.67901934  0.42796941  0.57201644  1
  O2-  O164  1  0.67770676  0.42336278  0.91064404  1
  O2-  O165  1  0.67564955  0.93202234  0.24564214  1
  O2-  O166  1  0.67311775  0.93695873  0.57882066  1
  O2-  O167  1  0.67955849  0.93188670  0.91072324  1
  O2-  O168  1  0.43220978  0.31989488  0.09202310  1
  O2-  O169  1  0.42783092  0.31965611  0.42975819  1
  O2-  O170  1  0.42703341  0.31611977  0.76862375  1
  O2-  O171  1  0.43441552  0.82473385  0.09961119  1
  O2-  O172  1  0.43134847  0.82130634  0.43101000  1
  O2-  O173  1  0.43087381  0.82519595  0.76482155  1
  O2-  O174  1  0.92017278  0.31762638  0.09537486  1
  O2-  O175  1  0.93207675  0.31419605  0.43424970  1
  O2-  O176  1  0.92605518  0.31760154  0.75377745  1
  O2-  O177  1  0.92692247  0.82599035  0.09250343  1
  O2-  O178  1  0.93383704  0.83234984  0.42111737  1
  O2-  O179  1  0.93611999  0.82428899  0.76703439  1
  O2-  O180  1  0.32234210  0.07176889  0.24597281  1
  O2-  O181  1  0.31913935  0.07198297  0.57445294  1
  O2-  O182  1  0.32316132  0.07110289  0.90085520  1
  O2-  O183  1  0.31698364  0.57343407  0.23471521  1
  O2-  O184  1  0.31806378  0.57250740  0.57471654  1
  O2-  O185  1  0.32211056  0.56909986  0.89919218  1
  O2-  O186  1  0.81921302  0.06778666  0.23380293  1
  O2-  O187  1  0.82356652  0.06916548  0.57945733  1
  O2-  O188  1  0.81861802  0.07039008  0.90881826  1
  O2-  O189  1  0.82363610  0.56734603  0.23246623  1
  O2-  O190  1  0.82274000  0.56627385  0.57018486  1
  O2-  O191  1  0.81681840  0.57456865  0.90860618  1
  O2-  O192  1  0.04833409  0.07949095  0.27225919  1
  O2-  O193  1  0.04183439  0.08411156  0.59816927  1
  O2-  O194  1  0.03985289  0.08240976  0.93151174  1
  O2-  O195  1  0.04283135  0.58101151  0.26426941  1
  O2-  O196  1  0.04834085  0.57402110  0.59886781  1
  O2-  O197  1  0.04028291  0.58455939  0.93086864  1
  O2-  O198  1  0.54265950  0.08654040  0.26860111  1
  O2-  O199  1  0.54416158  0.08807006  0.60039858  1
  O2-  O200  1  0.54538022  0.08654176  0.93955739  1
  O2-  O201  1  0.54821398  0.58475116  0.27218532  1
  O2-  O202  1  0.54391387  0.58016901  0.59781047  1
  O2-  O203  1  0.54791189  0.57714794  0.93265488  1
  O2-  O204  1  0.16728170  0.19781298  0.27122662  1
  O2-  O205  1  0.16595617  0.21072186  0.59478084  1
  O2-  O206  1  0.17210178  0.20469929  0.93550181  1
  O2-  O207  1  0.16194986  0.71739659  0.26475319  1
  O2-  O208  1  0.16482415  0.71139433  0.59638091  1
  O2-  O209  1  0.16513596  0.71149890  0.93069246  1
  O2-  O210  1  0.66635663  0.19995856  0.27374914  1
  O2-  O211  1  0.67097751  0.19687706  0.60841894  1
  O2-  O212  1  0.66089939  0.20651029  0.93554411  1
  O2-  O213  1  0.66894640  0.70319823  0.27300048  1
  O2-  O214  1  0.66896218  0.70954121  0.59812060  1
  O2-  O215  1  0.66711075  0.71302721  0.93081892  1
  O2-  O216  1  0.07416138  0.45350861  0.06202557  1
  O2-  O217  1  0.08529152  0.44970593  0.39460179  1
  O2-  O218  1  0.08639182  0.44511421  0.72461304  1
  O2-  O219  1  0.08326969  0.95945239  0.06665448  1
  O2-  O220  1  0.08983579  0.95542266  0.39984324  1
  O2-  O221  1  0.09060095  0.96296019  0.73136206  1
  O2-  O222  1  0.58686064  0.45412837  0.06299926  1
  O2-  O223  1  0.57883398  0.45577555  0.39943260  1
  O2-  O224  1  0.57687814  0.45627516  0.73612065  1
  O2-  O225  1  0.59040933  0.96042630  0.06595069  1
  O2-  O226  1  0.58510496  0.96149210  0.39866333  1
  O2-  O227  1  0.58765260  0.96595443  0.73312518  1
  O2-  O228  1  0.20473329  0.33217181  0.06979380  1
  O2-  O229  1  0.20483493  0.33064995  0.39434527  1
  O2-  O230  1  0.21537492  0.33596887  0.72683742  1
  O2-  O231  1  0.19659852  0.83478545  0.06313309  1
  O2-  O232  1  0.21194491  0.83890113  0.39805882  1
  O2-  O233  1  0.20382183  0.83670257  0.72893066  1
  O2-  O234  1  0.70635090  0.33478289  0.06274290  1
  O2-  O235  1  0.70530189  0.33086318  0.40112984  1
  O2-  O236  1  0.70437933  0.32911458  0.73743244  1
  O2-  O237  1  0.70663146  0.83808026  0.06461952  1
  O2-  O238  1  0.69523476  0.83341315  0.39635858  1
  O2-  O239  1  0.70058533  0.83895826  0.73097618  1
  O2-  O240  1  0.45886268  0.41994664  0.26267528  1
  O2-  O241  1  0.45626798  0.41738927  0.60013027  1
  O2-  O242  1  0.45799375  0.41081283  0.93896655  1
  O2-  O243  1  0.45966866  0.91894505  0.26636916  1
  O2-  O244  1  0.45937697  0.92128194  0.59908394  1
  O2-  O245  1  0.46486742  0.91978359  0.93398478  1
  O2-  O246  1  0.96040279  0.41108382  0.26314913  1
  O2-  O247  1  0.95208613  0.41289133  0.60337748  1
  O2-  O248  1  0.94958240  0.41998236  0.92679499  1
  O2-  O249  1  0.96171551  0.91464273  0.26710077  1
  O2-  O250  1  0.96797979  0.91510893  0.59774338  1
  O2-  O251  1  0.95095249  0.91754264  0.94072568  1
  O2-  O252  1  0.33384425  0.28823253  0.26223359  1
  O2-  O253  1  0.33897045  0.28433477  0.59567048  1
  O2-  O254  1  0.33706155  0.29163314  0.94204179  1
  O2-  O255  1  0.33346728  0.79123729  0.26474126  1
  O2-  O256  1  0.32906196  0.79832962  0.60016944  1
  O2-  O257  1  0.32671152  0.80836956  0.93673303  1
  O2-  O258  1  0.83224109  0.28447940  0.26918260  1
  O2-  O259  1  0.83229397  0.29123955  0.60467748  1
  O2-  O260  1  0.82936085  0.28779599  0.92690369  1
  O2-  O261  1  0.82945505  0.81074495  0.27572096  1
  O2-  O262  1  0.82626007  0.81209946  0.60478454  1
  O2-  O263  1  0.83297467  0.79942573  0.94140598  1
  O2-  O264  1  0.41882753  0.04178191  0.07057714  1
  O2-  O265  1  0.41413121  0.04418981  0.39773710  1
  O2-  O266  1  0.41503160  0.04876651  0.72599526  1
  O2-  O267  1  0.41904003  0.54266128  0.06621524  1
  O2-  O268  1  0.41536731  0.54312935  0.40079394  1
  O2-  O269  1  0.40987994  0.54334816  0.72617071  1
  O2-  O270  1  0.91194891  0.04654511  0.06216631  1
  O2-  O271  1  0.91914640  0.03936085  0.40159758  1
  O2-  O272  1  0.91608579  0.03851015  0.73041433  1
  O2-  O273  1  0.91165892  0.54408472  0.05761584  1
  O2-  O274  1  0.92141049  0.53458382  0.39810552  1
  O2-  O275  1  0.92121598  0.54095061  0.73530178  1
  O2-  O276  1  0.29110598  0.16519744  0.07181542  1
  O2-  O277  1  0.29429102  0.16428594  0.39759960  1
  O2-  O278  1  0.28938068  0.16252276  0.72619315  1
  O2-  O279  1  0.29424040  0.67414424  0.06272294  1
  O2-  O280  1  0.28461508  0.66814691  0.40119531  1
  O2-  O281  1  0.29106621  0.66500572  0.72636635  1
  O2-  O282  1  0.78756553  0.16261378  0.06062518  1
  O2-  O283  1  0.78872667  0.16197818  0.40570284  1
  O2-  O284  1  0.79761354  0.16048031  0.73329237  1
  O2-  O285  1  0.79141253  0.66317884  0.06248372  1
  O2-  O286  1  0.80770422  0.67375072  0.39585753  1
  O2-  O287  1  0.79800238  0.67465993  0.73182782  1
