# generated using pymatgen
data_Ca2Al2SiO7
_symmetry_space_group_name_H-M   'P 1'
_cell_length_a   15.45964251
_cell_length_b   15.45841099
_cell_length_c   15.28492460
_cell_angle_alpha   89.99680298
_cell_angle_beta   90.00599255
_cell_angle_gamma   90.02396452
_symmetry_Int_Tables_number   1
_chemical_formula_structural   Ca2Al2SiO7
_chemical_formula_sum   'Ca48 Al48 Si24 O168'
_cell_volume   3652.81397976
_cell_formula_units_Z   24
loop_
 _symmetry_equiv_pos_site_id
 _symmetry_equiv_pos_as_xyz
  1  'x, y, z'
loop_
 _atom_type_symbol
 _atom_type_oxidation_number
  Ca2+  2.0
  Al0+  0.0
  Si0+  0.0
  O2-  -2.0
loop_
 _atom_site_type_symbol
 _atom_site_label
 _atom_site_symmetry_multiplicity
 _atom_site_fract_x
 _atom_site_fract_y
 _atom_site_fract_z
 _atom_site_occupancy
  Ca2+  Ca0  1  0.16799285  0.07155368  0.17928075  1
  Ca2+  Ca1  1  0.17023992  0.07986506  0.50660927  1
  Ca2+  Ca2  1  0.17239207  0.07014370  0.83495501  1
  Ca2+  Ca3  1  0.17502604  0.58549079  0.17426491  1
  Ca2+  Ca4  1  0.16210793  0.57535892  0.50197533  1
  Ca2+  Ca5  1  0.16298434  0.58243626  0.83813876  1
  Ca2+  Ca6  1  0.66931046  0.08820823  0.17139020  1
  Ca2+  Ca7  1  0.68071746  0.08213603  0.50672077  1
  Ca2+  Ca8  1  0.66909593  0.08360210  0.83317756  1
  Ca2+  Ca9  1  0.66934287  0.57526597  0.17679564  1
  Ca2+  Ca10  1  0.67098797  0.57306817  0.50991943  1
  Ca2+  Ca11  1  0.66684752  0.58544526  0.83002566  1
  Ca2+  Ca12  1  0.08560512  0.32970143  0.17240092  1
  Ca2+  Ca13  1  0.08026520  0.33061691  0.48773591  1
  Ca2+  Ca14  1  0.08315922  0.33433290  0.82437388  1
  Ca2+  Ca15  1  0.09723272  0.82454708  0.16460906  1
  Ca2+  Ca16  1  0.09443243  0.82522328  0.49637854  1
  Ca2+  Ca17  1  0.09212263  0.82415744  0.82853466  1
  Ca2+  Ca18  1  0.57708821  0.33074011  0.16734317  1
  Ca2+  Ca19  1  0.57847524  0.33882883  0.49215152  1
  Ca2+  Ca20  1  0.58309785  0.33022733  0.82883040  1
  Ca2+  Ca21  1  0.57193097  0.83180000  0.15907523  1
  Ca2+  Ca22  1  0.58912432  0.82921933  0.50068558  1
  Ca2+  Ca23  1  0.57626850  0.83170770  0.82252255  1
  Ca2+  Ca24  1  0.33158051  0.42834314  0.17800804  1
  Ca2+  Ca25  1  0.32332152  0.41632781  0.49919027  1
  Ca2+  Ca26  1  0.32655922  0.42575192  0.83475847  1
  Ca2+  Ca27  1  0.32604672  0.91799141  0.17184847  1
  Ca2+  Ca28  1  0.32316976  0.92867617  0.50142131  1
  Ca2+  Ca29  1  0.32557858  0.91090138  0.83602411  1
  Ca2+  Ca30  1  0.82749299  0.41169222  0.17492289  1
  Ca2+  Ca31  1  0.82426997  0.41475757  0.50527490  1
  Ca2+  Ca32  1  0.82980574  0.42417383  0.82899392  1
  Ca2+  Ca33  1  0.82966612  0.92329270  0.17408530  1
  Ca2+  Ca34  1  0.83392122  0.92862586  0.50664631  1
  Ca2+  Ca35  1  0.82814536  0.91681657  0.83012623  1
  Ca2+  Ca36  1  0.41385692  0.17275085  0.16534145  1
  Ca2+  Ca37  1  0.41190862  0.17056952  0.49146949  1
  Ca2+  Ca38  1  0.42089119  0.16310665  0.82734323  1
  Ca2+  Ca39  1  0.40726987  0.67045547  0.16052808  1
  Ca2+  Ca40  1  0.42108286  0.66260743  0.49621554  1
  Ca2+  Ca41  1  0.41542174  0.67208611  0.82982486  1
  Ca2+  Ca42  1  0.91963086  0.16785854  0.17267590  1
  Ca2+  Ca43  1  0.91897927  0.16869361  0.48907484  1
  Ca2+  Ca44  1  0.91700193  0.16732271  0.82810581  1
  Ca2+  Ca45  1  0.93234900  0.66683169  0.16417283  1
  Ca2+  Ca46  1  0.92670160  0.66285097  0.49695548  1
  Ca2+  Ca47  1  0.92624074  0.66584288  0.82273959  1
  Al0+  Al48  1  -0.00154213  -0.00016754  0.00377774  1
  Al0+  Al49  1  -0.00219446  -0.00225668  0.33665835  1
  Al0+  Al50  1  0.00192645  -0.00054625  0.67591184  1
  Al0+  Al51  1  -0.00204476  0.49877107  -0.00262284  1
  Al0+  Al52  1  -0.00030820  0.50131835  0.32480749  1
  Al0+  Al53  1  -0.00131679  0.49890171  0.66903533  1
  Al0+  Al54  1  0.50029539  0.00035150  -0.00860399  1
  Al0+  Al55  1  0.49959811  -0.00283432  0.33604821  1
  Al0+  Al56  1  0.50158447  0.00173955  0.66786181  1
  Al0+  Al57  1  0.50037529  0.49882889  0.00327411  1
  Al0+  Al58  1  0.50157338  0.49887814  0.33523221  1
  Al0+  Al59  1  0.49874107  0.49951670  0.66715697  1
  Al0+  Al60  1  0.24884832  0.25018007  -0.00264441  1
  Al0+  Al61  1  0.25086272  0.25188667  0.32690798  1
  Al0+  Al62  1  0.25022570  0.25128455  0.67574278  1
  Al0+  Al63  1  0.25042705  0.74889622  -0.00249425  1
  Al0+  Al64  1  0.25361718  0.75071763  0.33813843  1
  Al0+  Al65  1  0.25192014  0.75063434  0.66136455  1
  Al0+  Al66  1  0.74999276  0.25040238  -0.00477984  1
  Al0+  Al67  1  0.74952321  0.24897617  0.33723446  1
  Al0+  Al68  1  0.74914079  0.25114827  0.67436910  1
  Al0+  Al69  1  0.75152462  0.75069173  0.00322127  1
  Al0+  Al70  1  0.75077647  0.74853573  0.32996471  1
  Al0+  Al71  1  0.75111862  0.75096288  0.66820875  1
  Al0+  Al72  1  0.82258835  0.07250071  0.68404749  1
  Al0+  Al73  1  0.42989128  0.81886198  0.98583713  1
  Al0+  Al74  1  0.92687347  0.32097268  0.31943581  1
  Al0+  Al75  1  0.07226631  0.17634908  0.32011738  1
  Al0+  Al76  1  0.42842518  0.32156988  0.32013139  1
  Al0+  Al77  1  0.67961721  0.92870567  0.68127332  1
  Al0+  Al78  1  0.57102114  0.67941130  0.65272654  1
  Al0+  Al79  1  0.68078758  0.42900444  0.34587050  1
  Al0+  Al80  1  0.17714093  0.43027023  0.34555421  1
  Al0+  Al81  1  0.57020570  0.18139552  0.98535200  1
  Al0+  Al82  1  0.07130580  0.67846740  0.65118628  1
  Al0+  Al83  1  0.32144176  0.07342688  0.68227505  1
  Al0+  Al84  1  0.32189642  0.07285144  0.34477609  1
  Al0+  Al85  1  0.31930207  0.56856721  0.01193105  1
  Al0+  Al86  1  0.32233141  0.57219522  0.35015955  1
  Al0+  Al87  1  0.82130517  0.57112926  0.68012009  1
  Al0+  Al88  1  0.67545098  0.42970371  0.68405152  1
  Al0+  Al89  1  0.18096237  0.92685550  0.68324891  1
  Al0+  Al90  1  0.81911334  0.06939610  0.34552619  1
  Al0+  Al91  1  0.17798852  0.92855139  0.34876964  1
  Al0+  Al92  1  0.18024496  0.92994812  0.01474620  1
  Al0+  Al93  1  0.06907289  0.68086429  0.98553857  1
  Al0+  Al94  1  0.07243495  0.68087579  0.31938054  1
  Al0+  Al95  1  0.17797196  0.43062491  0.67944773  1
  Si0+  Si96  1  0.68109922  0.42885659  0.01587402  1
  Si0+  Si97  1  0.57100827  0.17624480  0.32007787  1
  Si0+  Si98  1  0.32195539  0.57185714  0.68214875  1
  Si0+  Si99  1  0.92889481  0.82372547  0.65035220  1
  Si0+  Si100  1  0.67746174  0.92895751  0.01513297  1
  Si0+  Si101  1  0.43165816  0.82052581  0.31844353  1
  Si0+  Si102  1  0.07128909  0.17944844  0.65545569  1
  Si0+  Si103  1  0.67681259  0.92466782  0.34805931  1
  Si0+  Si104  1  0.57242844  0.67811734  0.31793210  1
  Si0+  Si105  1  0.07081993  0.17684409  0.98421037  1
  Si0+  Si106  1  0.92855328  0.31940907  0.65278655  1
  Si0+  Si107  1  0.82207739  0.57188706  0.01665075  1
  Si0+  Si108  1  0.81899661  0.07249052  0.01693852  1
  Si0+  Si109  1  0.42871784  0.82442420  0.64540911  1
  Si0+  Si110  1  0.92551631  0.82186828  0.31609631  1
  Si0+  Si111  1  0.92523323  0.82407877  0.98268180  1
  Si0+  Si112  1  0.82258656  0.57338440  0.34771304  1
  Si0+  Si113  1  0.32392859  0.07293739  0.01610230  1
  Si0+  Si114  1  0.17459455  0.42580989  0.01763246  1
  Si0+  Si115  1  0.57513841  0.67640384  0.98532115  1
  Si0+  Si116  1  0.92875485  0.31925836  0.98228437  1
  Si0+  Si117  1  0.42681563  0.32413121  0.98150793  1
  Si0+  Si118  1  0.57245929  0.17976800  0.64992017  1
  Si0+  Si119  1  0.42825397  0.31992663  0.65196154  1
  O2-  O120  1  0.25289640  0.00724624  0.06066270  1
  O2-  O121  1  0.24295869  0.00889608  0.39529130  1
  O2-  O122  1  0.25498454  -0.00294749  0.73313890  1
  O2-  O123  1  0.24609777  0.49266955  0.05917700  1
  O2-  O124  1  0.24776691  0.50199072  0.39820769  1
  O2-  O125  1  0.24781371  0.50940664  0.72676696  1
  O2-  O126  1  0.74828477  0.00005466  0.05797097  1
  O2-  O127  1  0.74578155  -0.00681116  0.39074412  1
  O2-  O128  1  0.74988485  0.00102857  0.73404655  1
  O2-  O129  1  0.74779211  0.50388207  0.05831475  1
  O2-  O130  1  0.75694676  0.50206935  0.39139464  1
  O2-  O131  1  0.74546628  0.50429328  0.73300717  1
  O2-  O132  1  0.00097390  0.25030036  0.26947090  1
  O2-  O133  1  -0.00264883  0.24627841  0.61189382  1
  O2-  O134  1  0.00379206  0.25180987  0.94119049  1
  O2-  O135  1  -0.00158334  0.75712916  0.27246842  1
  O2-  O136  1  -0.00227674  0.75542120  0.60564256  1
  O2-  O137  1  -0.00606765  0.75546520  0.93889521  1
  O2-  O138  1  0.49988007  0.24200495  0.27493532  1
  O2-  O139  1  0.49963241  0.24916968  0.60887391  1
  O2-  O140  1  0.49236764  0.25244457  0.93715061  1
  O2-  O141  1  0.50179958  0.74864498  0.27504651  1
  O2-  O142  1  0.49846035  0.75507147  0.60315685  1
  O2-  O143  1  0.50689416  0.74505411  0.94112922  1
  O2-  O144  1  0.06907242  0.17596965  0.08890422  1
  O2-  O145  1  0.06975871  0.17685801  0.43410155  1
  O2-  O146  1  0.06984656  0.18286263  0.76119935  1
  O2-  O147  1  0.06921897  0.68174389  0.09855095  1
  O2-  O148  1  0.06940650  0.67982341  0.43222647  1
  O2-  O149  1  0.06967365  0.67838780  0.76469233  1
  O2-  O150  1  0.57326957  0.18449614  0.09855619  1
  O2-  O151  1  0.57189072  0.17727602  0.42537441  1
  O2-  O152  1  0.57239007  0.18180810  0.75543122  1
  O2-  O153  1  0.57698399  0.67800102  0.09123769  1
  O2-  O154  1  0.57452901  0.67994171  0.42266986  1
  O2-  O155  1  0.56654926  0.68001054  0.76630884  1
  O2-  O156  1  0.17965074  0.43244234  0.23164674  1
  O2-  O157  1  0.17787118  0.42675833  0.56711290  1
  O2-  O158  1  0.17394112  0.42648223  0.91161237  1
  O2-  O159  1  0.18346153  0.92650621  0.23474322  1
  O2-  O160  1  0.18031434  0.92950752  0.57015458  1
  O2-  O161  1  0.18156108  0.93018783  0.90205351  1
  O2-  O162  1  0.68075686  0.43038135  0.23185754  1
  O2-  O163  1  0.67691186  0.42813799  0.57071031  1
  O2-  O164  1  0.68203889  0.42886653  0.91115349  1
  O2-  O165  1  0.67628678  0.92449534  0.24177497  1
  O2-  O166  1  0.68220134  0.93115963  0.56742190  1
  O2-  O167  1  0.67938317  0.92742224  0.91077262  1
  O2-  O168  1  0.42914150  0.32521520  0.08687628  1
  O2-  O169  1  0.43131064  0.32336365  0.43333385  1
  O2-  O170  1  0.42958255  0.31926034  0.75746616  1
  O2-  O171  1  0.43175277  0.81893188  0.09938437  1
  O2-  O172  1  0.43514860  0.82225558  0.42290171  1
  O2-  O173  1  0.42816504  0.82210440  0.75148248  1
  O2-  O174  1  0.92444304  0.31809934  0.08695054  1
  O2-  O175  1  0.92452532  0.31866674  0.43301987  1
  O2-  O176  1  0.93042945  0.31947197  0.75866872  1
  O2-  O177  1  0.92091491  0.82307147  0.08816949  1
  O2-  O178  1  0.91828949  0.81883149  0.42092546  1
  O2-  O179  1  0.92896167  0.82214141  0.75633915  1
  O2-  O180  1  0.32627775  0.06688173  0.23096340  1
  O2-  O181  1  0.31700219  0.07715299  0.56898596  1
  O2-  O182  1  0.32272857  0.07212353  0.91069145  1
  O2-  O183  1  0.32186028  0.57284462  0.23607767  1
  O2-  O184  1  0.32455497  0.56733896  0.57709766  1
  O2-  O185  1  0.31916212  0.56754412  0.89873616  1
  O2-  O186  1  0.81537290  0.06941113  0.23164595  1
  O2-  O187  1  0.82184567  0.07403915  0.57063679  1
  O2-  O188  1  0.81858226  0.07330217  0.91225055  1
  O2-  O189  1  0.81763754  0.57548082  0.24148010  1
  O2-  O190  1  0.82228921  0.56585286  0.56667088  1
  O2-  O191  1  0.82264898  0.57109186  0.91196868  1
  O2-  O192  1  0.03928155  0.07833642  0.26693095  1
  O2-  O193  1  0.04770244  0.08516932  0.61203364  1
  O2-  O194  1  0.03772653  0.08650807  0.93678485  1
  O2-  O195  1  0.04118035  0.58660735  0.26065627  1
  O2-  O196  1  0.03636799  0.58148046  0.59978833  1
  O2-  O197  1  0.03747883  0.58288619  0.93334291  1
  O2-  O198  1  0.55003183  0.08083086  0.27433066  1
  O2-  O199  1  0.54962579  0.08661093  0.60333158  1
  O2-  O200  1  0.54477738  0.08440193  0.92936332  1
  O2-  O201  1  0.54566061  0.58624297  0.27040660  1
  O2-  O202  1  0.53902586  0.58218486  0.59962664  1
  O2-  O203  1  0.55070584  0.58167966  0.94149328  1
  O2-  O204  1  0.16924886  0.20299911  0.26293049  1
  O2-  O205  1  0.16281841  0.21101645  0.61062937  1
  O2-  O206  1  0.16407083  0.20053678  0.93681424  1
  O2-  O207  1  0.17074737  0.71283568  0.26821731  1
  O2-  O208  1  0.16907650  0.70600947  0.59793012  1
  O2-  O209  1  0.16508149  0.71097287  0.93107611  1
  O2-  O210  1  0.66277899  0.20607804  0.27236138  1
  O2-  O211  1  0.66493952  0.21004146  0.60529229  1
  O2-  O212  1  0.66533589  0.21559671  0.92924867  1
  O2-  O213  1  0.66377717  0.70509844  0.26760612  1
  O2-  O214  1  0.66911478  0.70811068  0.59980839  1
  O2-  O215  1  0.66945823  0.70195413  0.94045605  1
  O2-  O216  1  0.08021249  0.45131455  0.06130875  1
  O2-  O217  1  0.07675619  0.45688861  0.39536389  1
  O2-  O218  1  0.08160451  0.45739950  0.73566060  1
  O2-  O219  1  0.08166359  0.95742252  0.06727109  1
  O2-  O220  1  0.07617673  0.94456607  0.39787506  1
  O2-  O221  1  0.08406563  0.95471239  0.73908488  1
  O2-  O222  1  0.58783871  0.45151673  0.06291100  1
  O2-  O223  1  0.58663292  0.46230820  0.40104675  1
  O2-  O224  1  0.57704399  0.45673701  0.73759032  1
  O2-  O225  1  0.58528447  0.95811803  0.06107040  1
  O2-  O226  1  0.58430073  0.94807044  0.39554885  1
  O2-  O227  1  0.58114281  0.95615055  0.73397635  1
  O2-  O228  1  0.19759642  0.33018176  0.06058657  1
  O2-  O229  1  0.20447531  0.33064585  0.39539022  1
  O2-  O230  1  0.21225588  0.33787568  0.73913779  1
  O2-  O231  1  0.21527410  0.83384243  0.06618344  1
  O2-  O232  1  0.21607618  0.83497033  0.40345368  1
  O2-  O233  1  0.21145132  0.82761708  0.73405764  1
  O2-  O234  1  0.71533654  0.33842277  0.06188612  1
  O2-  O235  1  0.70806545  0.33296806  0.40122366  1
  O2-  O236  1  0.70776953  0.33392070  0.73948030  1
  O2-  O237  1  0.70456552  0.83714291  0.06451643  1
  O2-  O238  1  0.70331615  0.83075888  0.39260103  1
  O2-  O239  1  0.70690221  0.83115805  0.73638190  1
  O2-  O240  1  0.46656968  0.41597672  0.26426568  1
  O2-  O241  1  0.45516602  0.41168495  0.60495187  1
  O2-  O242  1  0.45746781  0.41632636  0.93480851  1
  O2-  O243  1  0.46077480  0.91118723  0.26801810  1
  O2-  O244  1  0.45566588  0.91861538  0.60131293  1
  O2-  O245  1  0.45918370  0.91460276  0.92976596  1
  O2-  O246  1  0.95022824  0.41920731  0.26288615  1
  O2-  O247  1  0.95690578  0.41037510  0.60573284  1
  O2-  O248  1  0.95318918  0.41209053  0.93486614  1
  O2-  O249  1  0.94562211  0.91688612  0.27094518  1
  O2-  O250  1  0.95480712  0.91898854  0.60739957  1
  O2-  O251  1  0.94891766  0.91893285  0.93862157  1
  O2-  O252  1  0.33348045  0.29706921  0.26002817  1
  O2-  O253  1  0.33563137  0.29073637  0.60698884  1
  O2-  O254  1  0.33110703  0.30303829  0.93684262  1
  O2-  O255  1  0.34024641  0.79219311  0.27079092  1
  O2-  O256  1  0.33634773  0.79803768  0.59812506  1
  O2-  O257  1  0.33613728  0.78410966  0.92939837  1
  O2-  O258  1  0.82952939  0.28694443  0.26485049  1
  O2-  O259  1  0.83473283  0.29337129  0.60882824  1
  O2-  O260  1  0.83953618  0.28727810  0.93220374  1
  O2-  O261  1  0.83393876  0.79262731  0.26471314  1
  O2-  O262  1  0.83489415  0.80066435  0.60442483  1
  O2-  O263  1  0.83135797  0.79762917  0.93640458  1
  O2-  O264  1  0.41859227  0.04672597  0.05896065  1
  O2-  O265  1  0.41791287  0.03889127  0.40061851  1
  O2-  O266  1  0.42268444  0.05113951  0.73096022  1
  O2-  O267  1  0.41751458  0.54176509  0.06666083  1
  O2-  O268  1  0.42045156  0.54155605  0.40114441  1
  O2-  O269  1  0.41202614  0.54025135  0.73165271  1
  O2-  O270  1  0.91059089  0.04554172  0.06471518  1
  O2-  O271  1  0.91446147  0.04053580  0.40157756  1
  O2-  O272  1  0.91966440  0.04476671  0.73975219  1
  O2-  O273  1  0.91226425  0.53906161  0.06430637  1
  O2-  O274  1  0.91774010  0.55153098  0.38936323  1
  O2-  O275  1  0.91554308  0.53573634  0.73770559  1
  O2-  O276  1  0.30087411  0.16914812  0.05853562  1
  O2-  O277  1  0.30365943  0.17503897  0.39178937  1
  O2-  O278  1  0.29055408  0.16841810  0.74097925  1
  O2-  O279  1  0.28754415  0.66458868  0.06569114  1
  O2-  O280  1  0.29998944  0.67086023  0.40329282  1
  O2-  O281  1  0.30307159  0.66827036  0.72363456  1
  O2-  O282  1  0.78777094  0.16412397  0.06270480  1
  O2-  O283  1  0.78686982  0.16355414  0.40210809  1
  O2-  O284  1  0.79208107  0.16919722  0.73938620  1
  O2-  O285  1  0.79842239  0.66484834  0.06447695  1
  O2-  O286  1  0.79417726  0.66563380  0.39447429  1
  O2-  O287  1  0.79868849  0.67042588  0.73309385  1
