# generated using pymatgen
data_Ca2Al2SiO7
_symmetry_space_group_name_H-M   'P 1'
_cell_length_a   15.45273542
_cell_length_b   15.45285033
_cell_length_c   15.28026659
_cell_angle_alpha   89.99670576
_cell_angle_beta   90.00700992
_cell_angle_gamma   89.99374101
_symmetry_Int_Tables_number   1
_chemical_formula_structural   Ca2Al2SiO7
_chemical_formula_sum   'Ca48 Al48 Si24 O168'
_cell_volume   3648.75658396
_cell_formula_units_Z   24
loop_
 _symmetry_equiv_pos_site_id
 _symmetry_equiv_pos_as_xyz
  1  'x, y, z'
loop_
 _atom_type_symbol
 _atom_type_oxidation_number
  Ca2+  2.0
  Al0+  0.0
  Si0+  0.0
  O2-  -2.0
loop_
 _atom_site_type_symbol
 _atom_site_label
 _atom_site_symmetry_multiplicity
 _atom_site_fract_x
 _atom_site_fract_y
 _atom_site_fract_z
 _atom_site_occupancy
  Ca2+  Ca0  1  0.17313278  0.08661528  0.17114636  1
  Ca2+  Ca1  1  0.17112046  0.08081725  0.51265795  1
  Ca2+  Ca2  1  0.17455118  0.08218249  0.83362044  1
  Ca2+  Ca3  1  0.16357702  0.57771784  0.17465243  1
  Ca2+  Ca4  1  0.15988033  0.57463006  0.50496471  1
  Ca2+  Ca5  1  0.15982674  0.58006179  0.83521809  1
  Ca2+  Ca6  1  0.66550815  0.08477362  0.16218171  1
  Ca2+  Ca7  1  0.66839963  0.08274286  0.50528649  1
  Ca2+  Ca8  1  0.67009862  0.07762332  0.84651117  1
  Ca2+  Ca9  1  0.67622457  0.58532048  0.17381365  1
  Ca2+  Ca10  1  0.66652408  0.57386882  0.50574166  1
  Ca2+  Ca11  1  0.66804690  0.58358420  0.83969763  1
  Ca2+  Ca12  1  0.08684310  0.33007048  0.16727338  1
  Ca2+  Ca13  1  0.08888069  0.32680522  0.49680660  1
  Ca2+  Ca14  1  0.07460894  0.32870100  0.82091796  1
  Ca2+  Ca15  1  0.08103305  0.81787417  0.16186411  1
  Ca2+  Ca16  1  0.09297996  0.82084589  0.49803777  1
  Ca2+  Ca17  1  0.08785887  0.82373827  0.82668927  1
  Ca2+  Ca18  1  0.57336042  0.33610203  0.16020637  1
  Ca2+  Ca19  1  0.58010118  0.33794575  0.49471251  1
  Ca2+  Ca20  1  0.58011576  0.33071480  0.83032229  1
  Ca2+  Ca21  1  0.58168211  0.83098831  0.16003016  1
  Ca2+  Ca22  1  0.57108113  0.83017725  0.49814105  1
  Ca2+  Ca23  1  0.58660194  0.82464615  0.82769384  1
  Ca2+  Ca24  1  0.33297606  0.41515285  0.17341356  1
  Ca2+  Ca25  1  0.32281399  0.41218997  0.50312856  1
  Ca2+  Ca26  1  0.32573458  0.41263635  0.83502508  1
  Ca2+  Ca27  1  0.33966327  0.92332417  0.16895157  1
  Ca2+  Ca28  1  0.33154409  0.91975317  0.51131347  1
  Ca2+  Ca29  1  0.33506224  0.92399992  0.83260436  1
  Ca2+  Ca30  1  0.82513909  0.42739106  0.17433567  1
  Ca2+  Ca31  1  0.82546606  0.41763226  0.50451619  1
  Ca2+  Ca32  1  0.82863643  0.41806675  0.83551473  1
  Ca2+  Ca33  1  0.82680825  0.91826790  0.16362526  1
  Ca2+  Ca34  1  0.83368214  0.91785747  0.50319099  1
  Ca2+  Ca35  1  0.82824025  0.92387458  0.84427371  1
  Ca2+  Ca36  1  0.41822537  0.17989331  0.15770965  1
  Ca2+  Ca37  1  0.41414086  0.17111035  0.49538197  1
  Ca2+  Ca38  1  0.41544053  0.16380993  0.83605965  1
  Ca2+  Ca39  1  0.42326075  0.67334178  0.15987509  1
  Ca2+  Ca40  1  0.41490894  0.67757305  0.49886362  1
  Ca2+  Ca41  1  0.43043783  0.67265097  0.82464499  1
  Ca2+  Ca42  1  0.92105677  0.16535206  0.16288196  1
  Ca2+  Ca43  1  0.92964691  0.17250280  0.49828144  1
  Ca2+  Ca44  1  0.91829663  0.17129699  0.82281891  1
  Ca2+  Ca45  1  0.92293463  0.65378933  0.16264381  1
  Ca2+  Ca46  1  0.92652286  0.66008436  0.49737805  1
  Ca2+  Ca47  1  0.92452416  0.66178904  0.83143457  1
  Al0+  Al48  1  0.00072916  -0.00207464  0.00489282  1
  Al0+  Al49  1  0.00093188  -0.00119678  0.32831072  1
  Al0+  Al50  1  0.00116176  -0.00042411  0.66804316  1
  Al0+  Al51  1  -0.00087549  0.49727872  -0.00009599  1
  Al0+  Al52  1  -0.00013806  0.49782043  0.33740118  1
  Al0+  Al53  1  -0.00286634  0.49997633  0.66343425  1
  Al0+  Al54  1  0.49795587  0.00229825  0.00638376  1
  Al0+  Al55  1  0.50077112  0.00044048  0.33054644  1
  Al0+  Al56  1  0.50121795  0.00065540  0.66702004  1
  Al0+  Al57  1  0.49573673  0.50129775  -0.00916130  1
  Al0+  Al58  1  0.49964800  0.50228277  0.33301334  1
  Al0+  Al59  1  0.50081369  0.49856001  0.66736176  1
  Al0+  Al60  1  0.24808656  0.24897856  -0.00002914  1
  Al0+  Al61  1  0.25224554  0.24986000  0.32881796  1
  Al0+  Al62  1  0.25051711  0.25026482  0.67328829  1
  Al0+  Al63  1  0.24972525  0.74777871  -0.00409775  1
  Al0+  Al64  1  0.24955022  0.75154679  0.32192177  1
  Al0+  Al65  1  0.25099685  0.75020070  0.66379691  1
  Al0+  Al66  1  0.74929935  0.25060882  0.00253287  1
  Al0+  Al67  1  0.75175173  0.24870868  0.33710746  1
  Al0+  Al68  1  0.74896969  0.25175556  0.66624035  1
  Al0+  Al69  1  0.75174342  0.75057244  0.00531955  1
  Al0+  Al70  1  0.75128209  0.75262025  0.34046718  1
  Al0+  Al71  1  0.75102889  0.74840878  0.66134540  1
  Al0+  Al72  1  0.18249094  0.42859691  0.34621927  1
  Al0+  Al73  1  0.57102655  0.18010031  0.98511596  1
  Al0+  Al74  1  0.07251883  0.17913282  0.65350962  1
  Al0+  Al75  1  0.57317671  0.68125037  0.98823521  1
  Al0+  Al76  1  0.31798036  0.07036916  0.01730431  1
  Al0+  Al77  1  0.32311776  0.07198727  0.68219329  1
  Al0+  Al78  1  0.82068749  0.56877965  0.01249173  1
  Al0+  Al79  1  0.07064877  0.67977599  0.65306966  1
  Al0+  Al80  1  0.07158960  0.17865407  0.31864351  1
  Al0+  Al81  1  0.67836164  0.92879174  0.01484115  1
  Al0+  Al82  1  0.42882488  0.82218613  0.31731444  1
  Al0+  Al83  1  0.43124733  0.82230582  0.65302561  1
  Al0+  Al84  1  0.67673250  0.42872803  0.34772940  1
  Al0+  Al85  1  0.06773656  0.67756901  0.31894414  1
  Al0+  Al86  1  0.06977078  0.67692331  0.98533712  1
  Al0+  Al87  1  0.82306768  0.07424048  0.01550084  1
  Al0+  Al88  1  0.92648245  0.32119833  0.65023256  1
  Al0+  Al89  1  0.17757738  0.43076219  0.68089596  1
  Al0+  Al90  1  0.42605245  0.32199578  0.98149100  1
  Al0+  Al91  1  0.57351827  0.67621396  0.64930158  1
  Al0+  Al92  1  0.17800329  0.92638804  0.68152509  1
  Al0+  Al93  1  0.82183711  0.57231203  0.35162097  1
  Al0+  Al94  1  0.43119492  0.32149686  0.32177246  1
  Al0+  Al95  1  0.67770569  0.42872978  0.68337324  1
  Si0+  Si96  1  0.42785561  0.82332972  0.98296380  1
  Si0+  Si97  1  0.82386681  0.07022959  0.35031593  1
  Si0+  Si98  1  0.67803670  0.93105739  0.35123116  1
  Si0+  Si99  1  0.32052879  0.06978232  0.34747081  1
  Si0+  Si100  1  0.57495082  0.17745818  0.31740201  1
  Si0+  Si101  1  0.82062401  0.07073696  0.67914570  1
  Si0+  Si102  1  0.68044472  0.92879788  0.67923307  1
  Si0+  Si103  1  0.92740885  0.82367385  0.65079526  1
  Si0+  Si104  1  0.57272818  0.68014948  0.31760462  1
  Si0+  Si105  1  0.17819647  0.92400920  0.01945329  1
  Si0+  Si106  1  0.07020734  0.17665554  0.98537783  1
  Si0+  Si107  1  0.92582228  0.82325465  0.31490709  1
  Si0+  Si108  1  0.32128371  0.57172833  0.01387587  1
  Si0+  Si109  1  0.42849403  0.32030949  0.65206663  1
  Si0+  Si110  1  0.92978301  0.31964106  0.98729501  1
  Si0+  Si111  1  0.32201566  0.57237237  0.68309928  1
  Si0+  Si112  1  0.17905742  0.92854987  0.34580544  1
  Si0+  Si113  1  0.17905485  0.43016028  0.01483514  1
  Si0+  Si114  1  0.92922159  0.82246905  0.98407032  1
  Si0+  Si115  1  0.92717206  0.32018816  0.31533707  1
  Si0+  Si116  1  0.67432752  0.42924821  0.01530094  1
  Si0+  Si117  1  0.32170053  0.57613530  0.34803600  1
  Si0+  Si118  1  0.82042243  0.57272863  0.68485463  1
  Si0+  Si119  1  0.57124358  0.17912613  0.65225427  1
  O2-  O120  1  0.24538493  -0.00631788  0.06500321  1
  O2-  O121  1  0.25009187  -0.00126938  0.38956933  1
  O2-  O122  1  0.24967595  -0.00037361  0.73021145  1
  O2-  O123  1  0.25094466  0.50026283  0.05692785  1
  O2-  O124  1  0.25480778  0.50591316  0.39299662  1
  O2-  O125  1  0.25073429  0.50654164  0.72876127  1
  O2-  O126  1  0.74875215  0.00357629  0.06477152  1
  O2-  O127  1  0.75027119  0.00163605  0.39306401  1
  O2-  O128  1  0.75283201  -0.00248029  0.72184041  1
  O2-  O129  1  0.74041422  0.50022256  0.05953312  1
  O2-  O130  1  0.74770695  0.50109848  0.39934861  1
  O2-  O131  1  0.75014956  0.50580557  0.72941749  1
  O2-  O132  1  -0.00344749  0.25241965  0.27017438  1
  O2-  O133  1  0.00337771  0.25304964  0.60182322  1
  O2-  O134  1  -0.00620175  0.24221469  0.94495653  1
  O2-  O135  1  -0.01039123  0.74914058  0.27210943  1
  O2-  O136  1  -0.00140437  0.75746220  0.60681004  1
  O2-  O137  1  -0.00262495  0.75395319  0.93915805  1
  O2-  O138  1  0.51070705  0.25140252  0.27600483  1
  O2-  O139  1  0.49926191  0.24881815  0.61001279  1
  O2-  O140  1  0.50045081  0.25171841  0.93232707  1
  O2-  O141  1  0.50362931  0.74735548  0.27156838  1
  O2-  O142  1  0.50032043  0.74817685  0.60143716  1
  O2-  O143  1  0.50071372  0.75810994  0.94070289  1
  O2-  O144  1  0.07184821  0.18010511  0.09083506  1
  O2-  O145  1  0.07171928  0.17755611  0.43126980  1
  O2-  O146  1  0.06798786  0.17938805  0.76754062  1
  O2-  O147  1  0.06814590  0.67521490  0.09844384  1
  O2-  O148  1  0.07033180  0.68072575  0.43180492  1
  O2-  O149  1  0.06718363  0.67912607  0.76631225  1
  O2-  O150  1  0.56975377  0.18382946  0.09900094  1
  O2-  O151  1  0.57260448  0.17296305  0.42345986  1
  O2-  O152  1  0.57393727  0.17806332  0.75674951  1
  O2-  O153  1  0.57023102  0.68133159  0.10163602  1
  O2-  O154  1  0.57063252  0.68210443  0.42290415  1
  O2-  O155  1  0.57528674  0.68003521  0.76326547  1
  O2-  O156  1  0.18385330  0.42877379  0.23251589  1
  O2-  O157  1  0.18133719  0.42898383  0.56775692  1
  O2-  O158  1  0.17726056  0.43144918  0.90977569  1
  O2-  O159  1  0.17982255  0.93006723  0.24070368  1
  O2-  O160  1  0.17940746  0.92704052  0.56712642  1
  O2-  O161  1  0.17836694  0.92389571  0.91416579  1
  O2-  O162  1  0.67707764  0.43002116  0.23376690  1
  O2-  O163  1  0.67824332  0.42711547  0.57051384  1
  O2-  O164  1  0.67788011  0.42842153  0.90972735  1
  O2-  O165  1  0.67764452  0.93080294  0.24659048  1
  O2-  O166  1  0.68065722  0.93272193  0.57366793  1
  O2-  O167  1  0.68243875  0.92830076  0.90068390  1
  O2-  O168  1  0.42583637  0.32239148  0.09551257  1
  O2-  O169  1  0.42792200  0.31603795  0.43501811  1
  O2-  O170  1  0.42921977  0.32012391  0.75678061  1
  O2-  O171  1  0.42705833  0.81931016  0.08902924  1
  O2-  O172  1  0.42940568  0.82428541  0.43003811  1
  O2-  O173  1  0.43601528  0.82307912  0.76661205  1
  O2-  O174  1  0.93394600  0.32211020  0.09234880  1
  O2-  O175  1  0.92603791  0.31663985  0.42052908  1
  O2-  O176  1  0.92555736  0.31761378  0.76477531  1
  O2-  O177  1  0.93095499  0.82308446  0.08968845  1
  O2-  O178  1  0.92840708  0.82848233  0.42040191  1
  O2-  O179  1  0.92367113  0.82321014  0.75617903  1
  O2-  O180  1  0.31945799  0.06979034  0.24242823  1
  O2-  O181  1  0.32388161  0.07179784  0.56777321  1
  O2-  O182  1  0.31596474  0.07020933  0.90469719  1
  O2-  O183  1  0.32063795  0.57521301  0.24195298  1
  O2-  O184  1  0.32174364  0.57044068  0.57723948  1
  O2-  O185  1  0.32015073  0.57297449  0.90906788  1
  O2-  O186  1  0.82387002  0.06965107  0.24559795  1
  O2-  O187  1  0.81878109  0.06944704  0.57356615  1
  O2-  O188  1  0.82437406  0.07168666  0.90142997  1
  O2-  O189  1  0.82036683  0.57008197  0.23739308  1
  O2-  O190  1  0.81964394  0.57253452  0.57950501  1
  O2-  O191  1  0.82359078  0.56509036  0.89970665  1
  O2-  O192  1  0.04083429  0.08247092  0.26309793  1
  O2-  O193  1  0.04316211  0.08053892  0.60082270  1
  O2-  O194  1  0.04891274  0.08173335  0.94195618  1
  O2-  O195  1  0.03972985  0.57898440  0.26672461  1
  O2-  O196  1  0.03719301  0.58466572  0.59829565  1
  O2-  O197  1  0.03579695  0.58079257  0.93209832  1
  O2-  O198  1  0.54499974  0.08626817  0.26939421  1
  O2-  O199  1  0.54514359  0.08761102  0.60284615  1
  O2-  O200  1  0.54200434  0.08010168  0.93546742  1
  O2-  O201  1  0.54952940  0.58635837  0.27129838  1
  O2-  O202  1  0.54362496  0.57744740  0.59854918  1
  O2-  O203  1  0.54012067  0.58691037  0.93158043  1
  O2-  O204  1  0.16674378  0.21187955  0.26307455  1
  O2-  O205  1  0.17229757  0.20684662  0.60304242  1
  O2-  O206  1  0.15919497  0.20985617  0.93715116  1
  O2-  O207  1  0.16229439  0.71074109  0.26161104  1
  O2-  O208  1  0.16787369  0.70653755  0.59849842  1
  O2-  O209  1  0.16718119  0.70492474  0.93155515  1
  O2-  O210  1  0.67104038  0.19661424  0.27424199  1
  O2-  O211  1  0.66172074  0.20783964  0.60252111  1
  O2-  O212  1  0.67166862  0.20468840  0.93375457  1
  O2-  O213  1  0.66721085  0.70898550  0.27493406  1
  O2-  O214  1  0.67096820  0.70541214  0.59514407  1
  O2-  O215  1  0.67098436  0.70997364  0.93539971  1
  O2-  O216  1  0.08835167  0.45903954  0.06372414  1
  O2-  O217  1  0.08487976  0.45444917  0.39938624  1
  O2-  O218  1  0.07937411  0.46003835  0.73306649  1
  O2-  O219  1  0.08418523  0.94750450  0.06569064  1
  O2-  O220  1  0.08634368  0.95453086  0.39194663  1
  O2-  O221  1  0.07892231  0.95272093  0.73547304  1
  O2-  O222  1  0.57805706  0.45304384  0.05614262  1
  O2-  O223  1  0.57761509  0.45649389  0.40099348  1
  O2-  O224  1  0.58006175  0.45591779  0.73704123  1
  O2-  O225  1  0.58017173  0.95493412  0.06932501  1
  O2-  O226  1  0.58679322  0.96204235  0.39891376  1
  O2-  O227  1  0.59043460  0.95834701  0.72755833  1
  O2-  O228  1  0.20540868  0.33772119  0.06152295  1
  O2-  O229  1  0.21732051  0.33241416  0.39942654  1
  O2-  O230  1  0.20924674  0.33565613  0.73723311  1
  O2-  O231  1  0.20536796  0.82968424  0.06419328  1
  O2-  O232  1  0.20811383  0.83585607  0.39053085  1
  O2-  O233  1  0.20749717  0.82814691  0.73449519  1
  O2-  O234  1  0.70166837  0.33693885  0.06257999  1
  O2-  O235  1  0.70435680  0.32887625  0.40006073  1
  O2-  O236  1  0.71108846  0.33224557  0.73716681  1
  O2-  O237  1  0.71066100  0.83333338  0.07241369  1
  O2-  O238  1  0.70500656  0.84040612  0.40114360  1
  O2-  O239  1  0.70700627  0.83557991  0.72394637  1
  O2-  O240  1  0.45490833  0.42045144  0.26769095  1
  O2-  O241  1  0.45593615  0.41164968  0.60437397  1
  O2-  O242  1  0.44877642  0.42071387  0.92706433  1
  O2-  O243  1  0.46261003  0.91826347  0.26328171  1
  O2-  O244  1  0.46299761  0.91954094  0.59806644  1
  O2-  O245  1  0.44846096  0.91937940  0.94219643  1
  O2-  O246  1  0.95329874  0.41405643  0.27095843  1
  O2-  O247  1  0.94951005  0.42047754  0.59879446  1
  O2-  O248  1  0.96453114  0.40718787  0.93619173  1
  O2-  O249  1  0.95612249  0.91383486  0.26512402  1
  O2-  O250  1  0.94946943  0.91814710  0.60460282  1
  O2-  O251  1  0.95432252  0.91663971  0.93797288  1
  O2-  O252  1  0.33833968  0.28578691  0.26360018  1
  O2-  O253  1  0.33656733  0.29187787  0.60574694  1
  O2-  O254  1  0.32769220  0.28909326  0.93062314  1
  O2-  O255  1  0.33397604  0.79399116  0.25890352  1
  O2-  O256  1  0.33291805  0.79523042  0.59920015  1
  O2-  O257  1  0.33591210  0.79378152  0.93634558  1
  O2-  O258  1  0.83384566  0.29270371  0.26893181  1
  O2-  O259  1  0.83011571  0.28738364  0.59613628  1
  O2-  O260  1  0.83550259  0.29915367  0.94190871  1
  O2-  O261  1  0.82944119  0.80316517  0.27233988  1
  O2-  O262  1  0.83574912  0.79682815  0.60060919  1
  O2-  O263  1  0.83509856  0.79827768  0.93951431  1
  O2-  O264  1  0.41461527  0.04383509  0.07329645  1
  O2-  O265  1  0.41372014  0.04345694  0.39322054  1
  O2-  O266  1  0.42151142  0.04179400  0.73549087  1
  O2-  O267  1  0.41317973  0.54421084  0.06186345  1
  O2-  O268  1  0.41608714  0.55443699  0.39337682  1
  O2-  O269  1  0.41452426  0.54341781  0.72959294  1
  O2-  O270  1  0.92050651  0.04301904  0.07045876  1
  O2-  O271  1  0.91501161  0.03812297  0.39696464  1
  O2-  O272  1  0.91274954  0.04651881  0.72707564  1
  O2-  O273  1  0.91469782  0.53037379  0.06804633  1
  O2-  O274  1  0.91917373  0.54093356  0.40421460  1
  O2-  O275  1  0.91350183  0.54488621  0.73043237  1
  O2-  O276  1  0.28312619  0.16678777  0.07092924  1
  O2-  O277  1  0.29196703  0.16143077  0.39389047  1
  O2-  O278  1  0.29526140  0.16884106  0.73794160  1
  O2-  O279  1  0.29387972  0.66354080  0.06215605  1
  O2-  O280  1  0.29332885  0.67021865  0.39154152  1
  O2-  O281  1  0.30025297  0.66695863  0.72790934  1
  O2-  O282  1  0.79634854  0.17253052  0.07055408  1
  O2-  O283  1  0.79862477  0.16197826  0.39898685  1
  O2-  O284  1  0.78973288  0.16124053  0.72634513  1
  O2-  O285  1  0.79766289  0.66666938  0.06723535  1
  O2-  O286  1  0.79949337  0.67299351  0.40328211  1
  O2-  O287  1  0.79719317  0.66793930  0.72963013  1
