# generated using pymatgen
data_Ca2Al2SiO7
_symmetry_space_group_name_H-M   'P 1'
_cell_length_a   15.46364893
_cell_length_b   15.46233871
_cell_length_c   15.28661289
_cell_angle_alpha   90.00961895
_cell_angle_beta   90.00901220
_cell_angle_gamma   89.99711121
_symmetry_Int_Tables_number   1
_chemical_formula_structural   Ca2Al2SiO7
_chemical_formula_sum   'Ca48 Al48 Si24 O168'
_cell_volume   3655.09289844
_cell_formula_units_Z   24
loop_
 _symmetry_equiv_pos_site_id
 _symmetry_equiv_pos_as_xyz
  1  'x, y, z'
loop_
 _atom_type_symbol
 _atom_type_oxidation_number
  Ca2+  2.0
  Al0+  0.0
  Si0+  0.0
  O2-  -2.0
loop_
 _atom_site_type_symbol
 _atom_site_label
 _atom_site_symmetry_multiplicity
 _atom_site_fract_x
 _atom_site_fract_y
 _atom_site_fract_z
 _atom_site_occupancy
  Ca2+  Ca0  1  0.17739834  0.07748394  0.17116491  1
  Ca2+  Ca1  1  0.16749070  0.07872146  0.50405059  1
  Ca2+  Ca2  1  0.17352999  0.08336184  0.83726829  1
  Ca2+  Ca3  1  0.17777311  0.57859829  0.17377035  1
  Ca2+  Ca4  1  0.16680896  0.57258973  0.50699934  1
  Ca2+  Ca5  1  0.17178457  0.58305193  0.83492986  1
  Ca2+  Ca6  1  0.66552399  0.07393344  0.17571472  1
  Ca2+  Ca7  1  0.67160565  0.08762882  0.50449901  1
  Ca2+  Ca8  1  0.66668489  0.07772608  0.83426016  1
  Ca2+  Ca9  1  0.66841587  0.58142983  0.17408629  1
  Ca2+  Ca10  1  0.65968219  0.57321520  0.50455911  1
  Ca2+  Ca11  1  0.65386488  0.58285309  0.83392866  1
  Ca2+  Ca12  1  0.08356738  0.33632398  0.16618752  1
  Ca2+  Ca13  1  0.08901157  0.32976304  0.49583262  1
  Ca2+  Ca14  1  0.08261828  0.32751980  0.82341598  1
  Ca2+  Ca15  1  0.08285991  0.83710665  0.16758139  1
  Ca2+  Ca16  1  0.07746799  0.83243671  0.49808213  1
  Ca2+  Ca17  1  0.07639186  0.82763696  0.81988312  1
  Ca2+  Ca18  1  0.57846876  0.33155204  0.16628046  1
  Ca2+  Ca19  1  0.58988204  0.32666072  0.49239012  1
  Ca2+  Ca20  1  0.57566899  0.33114402  0.82487507  1
  Ca2+  Ca21  1  0.57899904  0.83407089  0.15940005  1
  Ca2+  Ca22  1  0.57348338  0.83606327  0.49401336  1
  Ca2+  Ca23  1  0.57667232  0.82638517  0.82882935  1
  Ca2+  Ca24  1  0.33886154  0.41990752  0.17091224  1
  Ca2+  Ca25  1  0.32554304  0.40818542  0.50338607  1
  Ca2+  Ca26  1  0.33068573  0.42176764  0.84049751  1
  Ca2+  Ca27  1  0.33669074  0.91805533  0.17213101  1
  Ca2+  Ca28  1  0.33180881  0.90793375  0.50195570  1
  Ca2+  Ca29  1  0.34178590  0.92029665  0.83958829  1
  Ca2+  Ca30  1  0.82439474  0.42480802  0.17908623  1
  Ca2+  Ca31  1  0.82186797  0.42124852  0.50152024  1
  Ca2+  Ca32  1  0.82374864  0.41678427  0.83158190  1
  Ca2+  Ca33  1  0.81637318  0.91933545  0.17509377  1
  Ca2+  Ca34  1  0.82810551  0.92500768  0.50377960  1
  Ca2+  Ca35  1  0.82965928  0.91734716  0.83463107  1
  Ca2+  Ca36  1  0.41756569  0.17591584  0.16509326  1
  Ca2+  Ca37  1  0.43264036  0.17265665  0.49241547  1
  Ca2+  Ca38  1  0.42003309  0.16860342  0.83023225  1
  Ca2+  Ca39  1  0.42103118  0.67674224  0.15779345  1
  Ca2+  Ca40  1  0.42060289  0.67505389  0.49971886  1
  Ca2+  Ca41  1  0.42136243  0.67424243  0.83076238  1
  Ca2+  Ca42  1  0.91530052  0.16266645  0.16906134  1
  Ca2+  Ca43  1  0.91746851  0.16007877  0.49821106  1
  Ca2+  Ca44  1  0.92335133  0.16378966  0.82154905  1
  Ca2+  Ca45  1  0.91633657  0.66362047  0.16499481  1
  Ca2+  Ca46  1  0.92027911  0.66291413  0.49900251  1
  Ca2+  Ca47  1  0.92347401  0.67532176  0.82180550  1
  Al0+  Al48  1  0.00038493  0.00047072  -0.00041097  1
  Al0+  Al49  1  0.00202037  -0.00143352  0.33680439  1
  Al0+  Al50  1  0.00039481  0.00065921  0.66350113  1
  Al0+  Al51  1  -0.00197878  0.49844242  -0.00264917  1
  Al0+  Al52  1  0.00276322  0.49902689  0.33837245  1
  Al0+  Al53  1  -0.00200291  0.49850683  0.66912937  1
  Al0+  Al54  1  0.50023041  0.00194152  0.00593241  1
  Al0+  Al55  1  0.49954992  0.00147866  0.32885980  1
  Al0+  Al56  1  0.49992835  0.00221579  0.65980206  1
  Al0+  Al57  1  0.49767302  0.49853471  -0.00175250  1
  Al0+  Al58  1  0.50006183  0.50204637  0.33465495  1
  Al0+  Al59  1  0.49570907  0.50147322  0.66806921  1
  Al0+  Al60  1  0.24842083  0.24814559  0.00067158  1
  Al0+  Al61  1  0.25072800  0.24871141  0.33169568  1
  Al0+  Al62  1  0.24829790  0.24845348  0.66801257  1
  Al0+  Al63  1  0.24911985  0.74846216  0.00097902  1
  Al0+  Al64  1  0.24950348  0.74922383  0.33297280  1
  Al0+  Al65  1  0.24795092  0.74836699  0.66107010  1
  Al0+  Al66  1  0.75140561  0.25067935  0.00000316  1
  Al0+  Al67  1  0.75341414  0.25097928  0.33303264  1
  Al0+  Al68  1  0.75065792  0.25043348  0.67455619  1
  Al0+  Al69  1  0.75106296  0.74930275  -0.00029396  1
  Al0+  Al70  1  0.75292769  0.75275318  0.34130530  1
  Al0+  Al71  1  0.74874994  0.74970259  0.65919993  1
  Al0+  Al72  1  0.07167265  0.18023219  0.65208768  1
  Al0+  Al73  1  0.57017122  0.67619729  0.65002142  1
  Al0+  Al74  1  0.67510594  0.92996491  0.35046075  1
  Al0+  Al75  1  0.42782446  0.82348888  0.98621316  1
  Al0+  Al76  1  0.32092160  0.07131685  0.01399043  1
  Al0+  Al77  1  0.32063192  0.57063791  0.01411527  1
  Al0+  Al78  1  0.42961221  0.82265310  0.65156079  1
  Al0+  Al79  1  0.67728168  0.43050901  0.68212529  1
  Al0+  Al80  1  0.67761280  0.43123321  0.34693786  1
  Al0+  Al81  1  0.17808141  0.42710517  0.68206870  1
  Al0+  Al82  1  0.57270174  0.67878152  0.98667489  1
  Al0+  Al83  1  0.42838267  0.81956235  0.31748024  1
  Al0+  Al84  1  0.57548186  0.18048368  0.31647060  1
  Al0+  Al85  1  0.42822551  0.31956124  0.98517601  1
  Al0+  Al86  1  0.42805349  0.32231300  0.31882216  1
  Al0+  Al87  1  0.82348467  0.57290136  0.34863263  1
  Al0+  Al88  1  0.18138237  0.92815984  0.34783244  1
  Al0+  Al89  1  0.18237004  0.42817340  0.34600273  1
  Al0+  Al90  1  0.82099741  0.06923150  0.68219194  1
  Al0+  Al91  1  0.57214807  0.18186007  0.65505925  1
  Al0+  Al92  1  0.68104981  0.92905994  0.01137246  1
  Al0+  Al93  1  0.92782848  0.82262269  0.64967303  1
  Al0+  Al94  1  0.82122937  0.07100145  0.34778009  1
  Al0+  Al95  1  0.07010701  0.67642726  0.65033998  1
  Si0+  Si96  1  0.07164049  0.17675540  0.31646311  1
  Si0+  Si97  1  0.92701040  0.32094923  0.64965918  1
  Si0+  Si98  1  0.06874343  0.17893801  0.98557571  1
  Si0+  Si99  1  0.32157876  0.07234083  0.35136110  1
  Si0+  Si100  1  0.93039184  0.82047897  0.98720504  1
  Si0+  Si101  1  0.31902086  0.57331920  0.68495936  1
  Si0+  Si102  1  0.17598509  0.92739873  0.01469625  1
  Si0+  Si103  1  0.67824634  0.42821240  0.01423176  1
  Si0+  Si104  1  0.67540551  0.92771241  0.68296591  1
  Si0+  Si105  1  0.57415590  0.17881345  0.98306720  1
  Si0+  Si106  1  0.93252846  0.32212400  0.31843868  1
  Si0+  Si107  1  0.82088466  0.57350351  0.68501387  1
  Si0+  Si108  1  0.32147214  0.06981048  0.68059963  1
  Si0+  Si109  1  0.82470413  0.07292658  0.01623863  1
  Si0+  Si110  1  0.17627569  0.42822487  0.01608009  1
  Si0+  Si111  1  0.17969195  0.92841147  0.68096256  1
  Si0+  Si112  1  0.57491818  0.67968478  0.31792224  1
  Si0+  Si113  1  0.06931374  0.67712700  0.31661940  1
  Si0+  Si114  1  0.32246414  0.57302213  0.35109542  1
  Si0+  Si115  1  0.42671323  0.32163946  0.65244645  1
  Si0+  Si116  1  0.82207994  0.56954189  0.01289480  1
  Si0+  Si117  1  0.07060907  0.67677317  0.98647110  1
  Si0+  Si118  1  0.93056330  0.82238739  0.31649556  1
  Si0+  Si119  1  0.92797344  0.32218245  0.98397454  1
  O2-  O120  1  0.24966452  -0.00894400  0.05779210  1
  O2-  O121  1  0.25800670  -0.00061871  0.39629684  1
  O2-  O122  1  0.25334142  -0.00418040  0.72394456  1
  O2-  O123  1  0.24578307  0.49509331  0.06050067  1
  O2-  O124  1  0.26004751  0.49808783  0.39431608  1
  O2-  O125  1  0.25087644  0.50298351  0.72862447  1
  O2-  O126  1  0.75391838  0.00635149  0.05820400  1
  O2-  O127  1  0.74490045  0.00507965  0.39878015  1
  O2-  O128  1  0.74726799  -0.00670537  0.72834851  1
  O2-  O129  1  0.74836043  0.50136558  0.05474090  1
  O2-  O130  1  0.74585522  0.50682684  0.39725166  1
  O2-  O131  1  0.74828988  0.50916108  0.73046048  1
  O2-  O132  1  0.00135325  0.24897891  0.27446968  1
  O2-  O133  1  -0.00181571  0.25538262  0.60473781  1
  O2-  O134  1  -0.00313409  0.24875651  0.94290236  1
  O2-  O135  1  -0.00221808  0.74744228  0.27289366  1
  O2-  O136  1  -0.00288078  0.74723087  0.60021335  1
  O2-  O137  1  0.00346133  0.75169569  0.94502262  1
  O2-  O138  1  0.50248303  0.25297194  0.26810847  1
  O2-  O139  1  0.50142743  0.26023306  0.60865611  1
  O2-  O140  1  0.50487572  0.24682502  0.93843189  1
  O2-  O141  1  0.50749769  0.74865277  0.27213056  1
  O2-  O142  1  0.50357686  0.75324575  0.60101720  1
  O2-  O143  1  0.50046325  0.75151554  0.93776845  1
  O2-  O144  1  0.06742563  0.17800052  0.09066390  1
  O2-  O145  1  0.07226097  0.17721611  0.42121996  1
  O2-  O146  1  0.07158172  0.18055860  0.76604675  1
  O2-  O147  1  0.06754013  0.67352145  0.09155648  1
  O2-  O148  1  0.06832068  0.67630448  0.42104398  1
  O2-  O149  1  0.06998714  0.68033874  0.76513093  1
  O2-  O150  1  0.57717303  0.18209625  0.08808925  1
  O2-  O151  1  0.57552946  0.18323312  0.43033435  1
  O2-  O152  1  0.56788243  0.18010943  0.76858817  1
  O2-  O153  1  0.57522139  0.67969966  0.10028596  1
  O2-  O154  1  0.57125592  0.67881950  0.42314971  1
  O2-  O155  1  0.56599290  0.67731885  0.76381826  1
  O2-  O156  1  0.17823885  0.43217730  0.23264210  1
  O2-  O157  1  0.18203426  0.42540540  0.56908353  1
  O2-  O158  1  0.17404235  0.42948039  0.91065347  1
  O2-  O159  1  0.17948083  0.93125247  0.23413367  1
  O2-  O160  1  0.17971469  0.93021890  0.57604604  1
  O2-  O161  1  0.16905933  0.93082507  0.90934413  1
  O2-  O162  1  0.68083212  0.43197700  0.23243401  1
  O2-  O163  1  0.68079083  0.42864908  0.56966830  1
  O2-  O164  1  0.68090507  0.42590357  0.90926231  1
  O2-  O165  1  0.67935889  0.92762071  0.23620363  1
  O2-  O166  1  0.67364440  0.93216383  0.57801549  1
  O2-  O167  1  0.68489354  0.92908939  0.89820517  1
  O2-  O168  1  0.42960391  0.31971013  0.09782171  1
  O2-  O169  1  0.42408083  0.31708145  0.43222259  1
  O2-  O170  1  0.42586346  0.31835000  0.75844679  1
  O2-  O171  1  0.42799489  0.82084146  0.09962004  1
  O2-  O172  1  0.42557179  0.81533725  0.43020575  1
  O2-  O173  1  0.42944467  0.82405093  0.76528068  1
  O2-  O174  1  0.92894684  0.32558703  0.08890591  1
  O2-  O175  1  0.93501257  0.32352995  0.42286124  1
  O2-  O176  1  0.92841775  0.31865704  0.75620340  1
  O2-  O177  1  0.93128082  0.81994139  0.09228646  1
  O2-  O178  1  0.93473011  0.82491991  0.42059647  1
  O2-  O179  1  0.93189439  0.82177618  0.76485448  1
  O2-  O180  1  0.31643895  0.07377681  0.24546186  1
  O2-  O181  1  0.31886666  0.07174568  0.57593327  1
  O2-  O182  1  0.31698546  0.07315138  0.90044106  1
  O2-  O183  1  0.31850988  0.57444683  0.24518444  1
  O2-  O184  1  0.31846291  0.57327949  0.57941307  1
  O2-  O185  1  0.31627733  0.57028093  0.90122636  1
  O2-  O186  1  0.82388068  0.06606616  0.23346509  1
  O2-  O187  1  0.82078748  0.07000819  0.56981861  1
  O2-  O188  1  0.82916988  0.07191287  0.91098834  1
  O2-  O189  1  0.82517752  0.56887203  0.23379567  1
  O2-  O190  1  0.82449076  0.56854609  0.58010543  1
  O2-  O191  1  0.82756603  0.56727688  0.90854769  1
  O2-  O192  1  0.04160022  0.08574560  0.26826185  1
  O2-  O193  1  0.04161029  0.08442155  0.59805369  1
  O2-  O194  1  0.04246628  0.08692720  0.93666018  1
  O2-  O195  1  0.04137044  0.58530050  0.26841853  1
  O2-  O196  1  0.04204058  0.57666997  0.60018206  1
  O2-  O197  1  0.03928639  0.58668845  0.93714961  1
  O2-  O198  1  0.54491534  0.08275768  0.26368956  1
  O2-  O199  1  0.53942495  0.08829792  0.59804454  1
  O2-  O200  1  0.54740105  0.08499053  0.93913457  1
  O2-  O201  1  0.54998741  0.58552944  0.27209942  1
  O2-  O202  1  0.53530654  0.57952560  0.59667571  1
  O2-  O203  1  0.54291090  0.58051015  0.93479363  1
  O2-  O204  1  0.16253533  0.20508331  0.26770751  1
  O2-  O205  1  0.16782572  0.21027123  0.59734837  1
  O2-  O206  1  0.15967539  0.20708668  0.93738610  1
  O2-  O207  1  0.16035869  0.70707594  0.26881606  1
  O2-  O208  1  0.16704586  0.70395607  0.59603719  1
  O2-  O209  1  0.16281197  0.70099367  0.93928061  1
  O2-  O210  1  0.67465962  0.20745360  0.26321340  1
  O2-  O211  1  0.67013836  0.21134776  0.60468839  1
  O2-  O212  1  0.66887017  0.20342753  0.93719973  1
  O2-  O213  1  0.67128695  0.70272446  0.27565464  1
  O2-  O214  1  0.67145612  0.69327610  0.60040632  1
  O2-  O215  1  0.67209341  0.70467922  0.93275890  1
  O2-  O216  1  0.08217222  0.45551883  0.06163198  1
  O2-  O217  1  0.08801539  0.46092415  0.40182403  1
  O2-  O218  1  0.07967571  0.45405062  0.73530535  1
  O2-  O219  1  0.08485086  0.95911053  0.06435325  1
  O2-  O220  1  0.08683933  0.96218958  0.40252491  1
  O2-  O221  1  0.08932765  0.95983496  0.72901534  1
  O2-  O222  1  0.58608836  0.45342215  0.06048034  1
  O2-  O223  1  0.57844226  0.45422642  0.40079407  1
  O2-  O224  1  0.57834613  0.45802788  0.73449335  1
  O2-  O225  1  0.58533142  0.95805214  0.06695933  1
  O2-  O226  1  0.57489177  0.95519672  0.39966488  1
  O2-  O227  1  0.58309710  0.95925153  0.72914025  1
  O2-  O228  1  0.19826525  0.33334653  0.06039438  1
  O2-  O229  1  0.20772084  0.32948996  0.39853874  1
  O2-  O230  1  0.20966542  0.33062226  0.73702386  1
  O2-  O231  1  0.19373656  0.83170670  0.05919756  1
  O2-  O232  1  0.20735556  0.83013744  0.40070379  1
  O2-  O233  1  0.20233404  0.83436919  0.72652229  1
  O2-  O234  1  0.70964117  0.33747494  0.06234073  1
  O2-  O235  1  0.71317961  0.33471045  0.39814538  1
  O2-  O236  1  0.71278403  0.33702485  0.74028960  1
  O2-  O237  1  0.71569258  0.83371277  0.06671611  1
  O2-  O238  1  0.70645240  0.83347527  0.40435676  1
  O2-  O239  1  0.69875258  0.83178920  0.72545731  1
  O2-  O240  1  0.45271614  0.42329278  0.26836082  1
  O2-  O241  1  0.44227307  0.41789876  0.61012182  1
  O2-  O242  1  0.45720644  0.41582128  0.93025961  1
  O2-  O243  1  0.45239473  0.91890841  0.26626434  1
  O2-  O244  1  0.45404955  0.92094629  0.59678805  1
  O2-  O245  1  0.45537649  0.92363382  0.93653482  1
  O2-  O246  1  0.96452802  0.41239688  0.26891883  1
  O2-  O247  1  0.94852375  0.41582006  0.60625538  1
  O2-  O248  1  0.95727617  0.41216381  0.93318341  1
  O2-  O249  1  0.96499376  0.91161800  0.26713487  1
  O2-  O250  1  0.96246087  0.91810730  0.59638530  1
  O2-  O251  1  0.95623064  0.91320279  0.93984150  1
  O2-  O252  1  0.33046458  0.29068465  0.26356582  1
  O2-  O253  1  0.33590116  0.28854799  0.60619837  1
  O2-  O254  1  0.33021321  0.28859709  0.93322495  1
  O2-  O255  1  0.33148962  0.78647639  0.26370410  1
  O2-  O256  1  0.33136327  0.79213897  0.59983901  1
  O2-  O257  1  0.32740468  0.79645027  0.93522712  1
  O2-  O258  1  0.84147399  0.29637980  0.26827887  1
  O2-  O259  1  0.83453235  0.29178920  0.60550803  1
  O2-  O260  1  0.83562511  0.29672087  0.93616811  1
  O2-  O261  1  0.83704687  0.79731481  0.27052169  1
  O2-  O262  1  0.82826630  0.80126035  0.59816716  1
  O2-  O263  1  0.84086468  0.79027394  0.93781968  1
  O2-  O264  1  0.41773150  0.04801337  0.06996369  1
  O2-  O265  1  0.41741236  0.05279513  0.39302443  1
  O2-  O266  1  0.41406751  0.04427476  0.72790226  1
  O2-  O267  1  0.41672355  0.53889656  0.06848610  1
  O2-  O268  1  0.41791799  0.55548441  0.39505948  1
  O2-  O269  1  0.41177378  0.54831988  0.73235699  1
  O2-  O270  1  0.91780121  0.04611852  0.06352464  1
  O2-  O271  1  0.91864506  0.03883416  0.40024258  1
  O2-  O272  1  0.91912841  0.03823848  0.73518674  1
  O2-  O273  1  0.91243294  0.53818397  0.06279624  1
  O2-  O274  1  0.91878567  0.53719615  0.40244133  1
  O2-  O275  1  0.91275398  0.54368286  0.73396547  1
  O2-  O276  1  0.28231723  0.16480612  0.07008977  1
  O2-  O277  1  0.28967387  0.16321965  0.39822390  1
  O2-  O278  1  0.28938968  0.15941763  0.73040976  1
  O2-  O279  1  0.28812699  0.66649057  0.06976031  1
  O2-  O280  1  0.28798865  0.66270534  0.39838662  1
  O2-  O281  1  0.28939924  0.66610535  0.73137938  1
  O2-  O282  1  0.80273743  0.16847422  0.06066607  1
  O2-  O283  1  0.80289478  0.17236942  0.39766643  1
  O2-  O284  1  0.79210129  0.16515620  0.73915678  1
  O2-  O285  1  0.79870237  0.66213815  0.06073836  1
  O2-  O286  1  0.80756732  0.67359554  0.39936398  1
  O2-  O287  1  0.80116359  0.67020368  0.72763267  1
