# generated using pymatgen
data_Ca2Al2SiO7
_symmetry_space_group_name_H-M   'P 1'
_cell_length_a   15.45446111
_cell_length_b   15.45421438
_cell_length_c   15.28110180
_cell_angle_alpha   90.00247741
_cell_angle_beta   90.00238191
_cell_angle_gamma   89.98154674
_symmetry_Int_Tables_number   1
_chemical_formula_structural   Ca2Al2SiO7
_chemical_formula_sum   'Ca48 Al48 Si24 O168'
_cell_volume   3649.68551702
_cell_formula_units_Z   24
loop_
 _symmetry_equiv_pos_site_id
 _symmetry_equiv_pos_as_xyz
  1  'x, y, z'
loop_
 _atom_type_symbol
 _atom_type_oxidation_number
  Ca2+  2.0
  Al0+  0.0
  Si0+  0.0
  O2-  -2.0
loop_
 _atom_site_type_symbol
 _atom_site_label
 _atom_site_symmetry_multiplicity
 _atom_site_fract_x
 _atom_site_fract_y
 _atom_site_fract_z
 _atom_site_occupancy
  Ca2+  Ca0  1  0.17703957  0.08961066  0.16792046  1
  Ca2+  Ca1  1  0.17684870  0.08434345  0.50236498  1
  Ca2+  Ca2  1  0.17067530  0.08323840  0.84372982  1
  Ca2+  Ca3  1  0.16894010  0.57474968  0.17277623  1
  Ca2+  Ca4  1  0.15986896  0.57752828  0.50517982  1
  Ca2+  Ca5  1  0.16806289  0.57512064  0.83812939  1
  Ca2+  Ca6  1  0.66173631  0.07775656  0.17139261  1
  Ca2+  Ca7  1  0.66842564  0.08862650  0.50806371  1
  Ca2+  Ca8  1  0.67086000  0.07874500  0.83460121  1
  Ca2+  Ca9  1  0.66667679  0.57872399  0.17080124  1
  Ca2+  Ca10  1  0.66226562  0.57584195  0.50277205  1
  Ca2+  Ca11  1  0.66547413  0.59102044  0.83982380  1
  Ca2+  Ca12  1  0.08693053  0.33365961  0.16379273  1
  Ca2+  Ca13  1  0.07294531  0.34562570  0.49657767  1
  Ca2+  Ca14  1  0.08606468  0.33167401  0.83060458  1
  Ca2+  Ca15  1  0.07880123  0.82789036  0.16270327  1
  Ca2+  Ca16  1  0.08413813  0.82076694  0.49694924  1
  Ca2+  Ca17  1  0.07358446  0.83009669  0.82466268  1
  Ca2+  Ca18  1  0.57291281  0.33244906  0.16629811  1
  Ca2+  Ca19  1  0.58150201  0.32255111  0.48939882  1
  Ca2+  Ca20  1  0.57173306  0.33002992  0.82819273  1
  Ca2+  Ca21  1  0.58050384  0.83027080  0.16075544  1
  Ca2+  Ca22  1  0.57379620  0.83029016  0.49943818  1
  Ca2+  Ca23  1  0.58093069  0.82540417  0.82920238  1
  Ca2+  Ca24  1  0.32827015  0.41589302  0.17015943  1
  Ca2+  Ca25  1  0.32059215  0.41057614  0.50296560  1
  Ca2+  Ca26  1  0.32388930  0.42014566  0.84500401  1
  Ca2+  Ca27  1  0.34112311  0.92931573  0.17352857  1
  Ca2+  Ca28  1  0.34243970  0.91832874  0.50136924  1
  Ca2+  Ca29  1  0.33651079  0.92125193  0.83759749  1
  Ca2+  Ca30  1  0.82720713  0.41433542  0.17713539  1
  Ca2+  Ca31  1  0.82959828  0.40890706  0.50391157  1
  Ca2+  Ca32  1  0.83221232  0.41659327  0.83270969  1
  Ca2+  Ca33  1  0.82871347  0.91265799  0.16556082  1
  Ca2+  Ca34  1  0.83337662  0.92510885  0.51033692  1
  Ca2+  Ca35  1  0.83241485  0.91579045  0.84036004  1
  Ca2+  Ca36  1  0.40853771  0.17627625  0.16521592  1
  Ca2+  Ca37  1  0.42795728  0.16784517  0.48992846  1
  Ca2+  Ca38  1  0.41766587  0.16938954  0.83310464  1
  Ca2+  Ca39  1  0.41953564  0.66832210  0.15999773  1
  Ca2+  Ca40  1  0.41401104  0.67827064  0.49791156  1
  Ca2+  Ca41  1  0.42523405  0.66549501  0.82858476  1
  Ca2+  Ca42  1  0.92452762  0.17436510  0.16246723  1
  Ca2+  Ca43  1  0.91278462  0.17669476  0.49760161  1
  Ca2+  Ca44  1  0.92217996  0.16964389  0.82710188  1
  Ca2+  Ca45  1  0.92414181  0.66790292  0.16355611  1
  Ca2+  Ca46  1  0.92820103  0.66586267  0.49988630  1
  Ca2+  Ca47  1  0.92007159  0.67919289  0.82686912  1
  Al0+  Al48  1  -0.00048415  0.00200604  -0.00552906  1
  Al0+  Al49  1  0.00002646  -0.00076414  0.33455116  1
  Al0+  Al50  1  0.00161152  0.00223261  0.66707455  1
  Al0+  Al51  1  -0.00178315  0.50020303  0.00326420  1
  Al0+  Al52  1  -0.00023953  0.50160889  0.32720481  1
  Al0+  Al53  1  -0.00252520  0.49894785  0.66737393  1
  Al0+  Al54  1  0.50187757  0.00010827  0.00774827  1
  Al0+  Al55  1  0.50159610  -0.00167300  0.33209931  1
  Al0+  Al56  1  0.50220127  0.00042867  0.66277404  1
  Al0+  Al57  1  0.49950588  0.49951255  -0.00525203  1
  Al0+  Al58  1  0.50036403  0.49977669  0.33720114  1
  Al0+  Al59  1  0.49787805  0.49891032  0.66298763  1
  Al0+  Al60  1  0.24900775  0.24974092  -0.00186821  1
  Al0+  Al61  1  0.25025285  0.24945127  0.34253777  1
  Al0+  Al62  1  0.24929292  0.24953307  0.67257248  1
  Al0+  Al63  1  0.25012143  0.74993035  0.00281206  1
  Al0+  Al64  1  0.24960968  0.75047653  0.32273961  1
  Al0+  Al65  1  0.25055976  0.75023184  0.66208468  1
  Al0+  Al66  1  0.75043093  0.24921622  0.00037577  1
  Al0+  Al67  1  0.75045384  0.24947237  0.32723758  1
  Al0+  Al68  1  0.75040297  0.24896174  0.66813485  1
  Al0+  Al69  1  0.75005742  0.75043224  -0.00100932  1
  Al0+  Al70  1  0.75083411  0.75075678  0.33754641  1
  Al0+  Al71  1  0.74889875  0.74929107  0.65778997  1
  Al0+  Al72  1  0.43036985  0.81980196  0.31654443  1
  Al0+  Al73  1  0.57216479  0.67520732  0.64937207  1
  Al0+  Al74  1  0.17941906  0.43093746  0.34868918  1
  Al0+  Al75  1  0.17831592  0.42975666  0.01667537  1
  Al0+  Al76  1  0.57221980  0.17837377  0.31599245  1
  Al0+  Al77  1  0.92813093  0.82492273  0.65038416  1
  Al0+  Al78  1  0.32370267  0.57215610  0.01497300  1
  Al0+  Al79  1  0.93034246  0.81935642  0.98749060  1
  Al0+  Al80  1  0.68189046  0.92901145  0.01335265  1
  Al0+  Al81  1  0.17723563  0.43039248  0.68220610  1
  Al0+  Al82  1  0.32092349  0.06938724  0.34925314  1
  Al0+  Al83  1  0.93092545  0.31865312  0.65469012  1
  Al0+  Al84  1  0.42956644  0.82140727  0.65346245  1
  Al0+  Al85  1  0.42941732  0.31961375  0.98586571  1
  Al0+  Al86  1  0.42660022  0.32130093  0.31992350  1
  Al0+  Al87  1  0.82189074  0.07167343  0.68110689  1
  Al0+  Al88  1  0.32025032  0.06900402  0.01323934  1
  Al0+  Al89  1  0.56963629  0.18180981  0.65560201  1
  Al0+  Al90  1  0.93011612  0.32044709  0.31909588  1
  Al0+  Al91  1  0.07025159  0.18204593  0.98701313  1
  Al0+  Al92  1  0.06989918  0.67886803  0.65394990  1
  Al0+  Al93  1  0.67946152  0.42867903  0.34664771  1
  Al0+  Al94  1  0.07009973  0.67919576  0.31687745  1
  Al0+  Al95  1  0.56906537  0.67973161  0.98872945  1
  Si0+  Si96  1  0.92703337  0.82415214  0.31670048  1
  Si0+  Si97  1  0.32318135  0.06933078  0.68244015  1
  Si0+  Si98  1  0.82382805  0.07320541  0.01814615  1
  Si0+  Si99  1  0.92498558  0.32389380  0.98257609  1
  Si0+  Si100  1  0.82213591  0.57255966  0.35115278  1
  Si0+  Si101  1  0.32256419  0.57494254  0.35064532  1
  Si0+  Si102  1  0.82176770  0.07023380  0.34714943  1
  Si0+  Si103  1  0.57365855  0.17589461  0.98296293  1
  Si0+  Si104  1  0.17470785  0.92753188  0.01561128  1
  Si0+  Si105  1  0.42482115  0.32135889  0.65013864  1
  Si0+  Si106  1  0.67753462  0.42817462  0.68196457  1
  Si0+  Si107  1  0.57373617  0.67781338  0.31693035  1
  Si0+  Si108  1  0.67877004  0.92732448  0.68253850  1
  Si0+  Si109  1  0.32200331  0.57367107  0.68255977  1
  Si0+  Si110  1  0.67873227  0.42721111  0.01282885  1
  Si0+  Si111  1  0.07545873  0.17763286  0.64905306  1
  Si0+  Si112  1  0.81869047  0.57116730  0.68149613  1
  Si0+  Si113  1  0.07238674  0.17588485  0.31931587  1
  Si0+  Si114  1  0.17997591  0.92797872  0.68094888  1
  Si0+  Si115  1  0.81911591  0.57135491  0.01427595  1
  Si0+  Si116  1  0.07313046  0.67638346  0.98321761  1
  Si0+  Si117  1  0.67961801  0.92808774  0.35098138  1
  Si0+  Si118  1  0.17705482  0.92628172  0.34950300  1
  Si0+  Si119  1  0.42758513  0.82482683  0.98541495  1
  O2-  O120  1  0.24751103  -0.00830291  0.06000237  1
  O2-  O121  1  0.24642507  -0.00652620  0.39550095  1
  O2-  O122  1  0.25092678  -0.00091141  0.72383719  1
  O2-  O123  1  0.24929930  0.50318939  0.06592302  1
  O2-  O124  1  0.25537002  0.50493403  0.39574281  1
  O2-  O125  1  0.25424239  0.50390588  0.72666746  1
  O2-  O126  1  0.75412417  0.00572422  0.06234547  1
  O2-  O127  1  0.75085903  -0.00011583  0.39072763  1
  O2-  O128  1  0.75220637  -0.00872024  0.72679973  1
  O2-  O129  1  0.75194635  0.49611581  0.05524220  1
  O2-  O130  1  0.75344698  0.50373628  0.39524754  1
  O2-  O131  1  0.74279506  0.50483280  0.72467320  1
  O2-  O132  1  0.00636880  0.24679493  0.27450848  1
  O2-  O133  1  0.00678681  0.24641863  0.60559416  1
  O2-  O134  1  -0.00444879  0.25677148  0.94000001  1
  O2-  O135  1  -0.00478696  0.75532906  0.27258837  1
  O2-  O136  1  0.00051571  0.75289651  0.60190994  1
  O2-  O137  1  0.00854945  0.74917036  0.93975597  1
  O2-  O138  1  0.49818965  0.24934898  0.26815111  1
  O2-  O139  1  0.49516644  0.25470503  0.60656613  1
  O2-  O140  1  0.50516876  0.24493607  0.93937440  1
  O2-  O141  1  0.50382538  0.74357539  0.27088160  1
  O2-  O142  1  0.49915539  0.74739329  0.60240551  1
  O2-  O143  1  0.49156104  0.75162935  0.94183592  1
  O2-  O144  1  0.06862973  0.18203437  0.10034395  1
  O2-  O145  1  0.06897867  0.17191876  0.42476146  1
  O2-  O146  1  0.07608003  0.17791732  0.75476473  1
  O2-  O147  1  0.06932174  0.67610335  0.08877198  1
  O2-  O148  1  0.06829088  0.67935238  0.42996974  1
  O2-  O149  1  0.06803360  0.68066319  0.76767758  1
  O2-  O150  1  0.57532550  0.17737401  0.08808053  1
  O2-  O151  1  0.57345698  0.17973366  0.43004195  1
  O2-  O152  1  0.56766353  0.18190986  0.76892510  1
  O2-  O153  1  0.57168956  0.68094838  0.10172231  1
  O2-  O154  1  0.57437369  0.68053084  0.42224895  1
  O2-  O155  1  0.57222287  0.67711696  0.76330582  1
  O2-  O156  1  0.17943623  0.43126551  0.23596964  1
  O2-  O157  1  0.17680631  0.43155164  0.56902952  1
  O2-  O158  1  0.17794098  0.43153142  0.90274744  1
  O2-  O159  1  0.17427581  0.92917384  0.24398165  1
  O2-  O160  1  0.17988338  0.92895647  0.57592329  1
  O2-  O161  1  0.17418428  0.92950873  0.90960555  1
  O2-  O162  1  0.68109588  0.43121338  0.23296669  1
  O2-  O163  1  0.68103329  0.42633686  0.57706689  1
  O2-  O164  1  0.68051818  0.42682120  0.90736976  1
  O2-  O165  1  0.68173860  0.92512368  0.24570293  1
  O2-  O166  1  0.67734804  0.93114559  0.57680493  1
  O2-  O167  1  0.68314666  0.92882574  0.90025894  1
  O2-  O168  1  0.43023158  0.32006472  0.09857254  1
  O2-  O169  1  0.42765420  0.31784219  0.43379148  1
  O2-  O170  1  0.42601107  0.32005265  0.75608080  1
  O2-  O171  1  0.43183429  0.82626449  0.09078272  1
  O2-  O172  1  0.43229259  0.81976056  0.42964986  1
  O2-  O173  1  0.43085989  0.82352948  0.76718809  1
  O2-  O174  1  0.92149086  0.32255284  0.08801505  1
  O2-  O175  1  0.92876145  0.31887359  0.43231327  1
  O2-  O176  1  0.93014429  0.31803484  0.76777352  1
  O2-  O177  1  0.93008813  0.81578250  0.10085645  1
  O2-  O178  1  0.92756933  0.82606312  0.42185020  1
  O2-  O179  1  0.92899330  0.82239080  0.76430942  1
  O2-  O180  1  0.31786341  0.07025903  0.23619906  1
  O2-  O181  1  0.32282792  0.06924246  0.57747414  1
  O2-  O182  1  0.32009564  0.06683901  0.89941191  1
  O2-  O183  1  0.32173387  0.57447337  0.24509718  1
  O2-  O184  1  0.32158316  0.57405533  0.57700014  1
  O2-  O185  1  0.32379500  0.57030512  0.90104260  1
  O2-  O186  1  0.82373335  0.06736613  0.24202961  1
  O2-  O187  1  0.81762165  0.07388922  0.56756747  1
  O2-  O188  1  0.82292654  0.07395130  0.91259065  1
  O2-  O189  1  0.81954355  0.57419594  0.24502280  1
  O2-  O190  1  0.82108275  0.56769174  0.57666462  1
  O2-  O191  1  0.81852396  0.57247558  0.90897697  1
  O2-  O192  1  0.04502707  0.08333740  0.27121745  1
  O2-  O193  1  0.05205901  0.08395474  0.60332406  1
  O2-  O194  1  0.04028484  0.08620424  0.93020122  1
  O2-  O195  1  0.03548978  0.58601203  0.25935501  1
  O2-  O196  1  0.03548922  0.58260358  0.60067361  1
  O2-  O197  1  0.04177641  0.58409987  0.93776717  1
  O2-  O198  1  0.54655515  0.07850544  0.26646719  1
  O2-  O199  1  0.54194338  0.08561200  0.60007433  1
  O2-  O200  1  0.54665089  0.08192134  0.93865287  1
  O2-  O201  1  0.55172847  0.58247990  0.27375616  1
  O2-  O202  1  0.54497099  0.57615293  0.59672651  1
  O2-  O203  1  0.54369992  0.58347037  0.93130377  1
  O2-  O204  1  0.16686652  0.20166803  0.27678541  1
  O2-  O205  1  0.16976450  0.20271305  0.60437842  1
  O2-  O206  1  0.16533258  0.21091161  0.92951366  1
  O2-  O207  1  0.16473729  0.70908591  0.25967014  1
  O2-  O208  1  0.16796787  0.70484756  0.59966646  1
  O2-  O209  1  0.16887820  0.69721990  0.93988824  1
  O2-  O210  1  0.66938525  0.20642564  0.26109430  1
  O2-  O211  1  0.66535435  0.21379454  0.60153141  1
  O2-  O212  1  0.66816304  0.20076536  0.93760099  1
  O2-  O213  1  0.66800269  0.70569656  0.27249931  1
  O2-  O214  1  0.66948298  0.70113500  0.59389405  1
  O2-  O215  1  0.66436489  0.71364775  0.93365728  1
  O2-  O216  1  0.07775823  0.45505204  0.06818366  1
  O2-  O217  1  0.08131591  0.46531625  0.39869267  1
  O2-  O218  1  0.08034783  0.46096543  0.73619731  1
  O2-  O219  1  0.08228161  0.95738152  0.06198621  1
  O2-  O220  1  0.08348194  0.95141045  0.39715240  1
  O2-  O221  1  0.08861215  0.95636885  0.72949929  1
  O2-  O222  1  0.58796524  0.45759535  0.05932831  1
  O2-  O223  1  0.58342937  0.45729299  0.40366336  1
  O2-  O224  1  0.58253846  0.44999272  0.72642227  1
  O2-  O225  1  0.58647236  0.95780023  0.07074254  1
  O2-  O226  1  0.58830383  0.95595838  0.39834524  1
  O2-  O227  1  0.58707971  0.95867978  0.72990338  1
  O2-  O228  1  0.20787849  0.33095950  0.06676821  1
  O2-  O229  1  0.20565842  0.33408220  0.40523510  1
  O2-  O230  1  0.20692626  0.33265219  0.73593888  1
  O2-  O231  1  0.19344532  0.83190698  0.06006736  1
  O2-  O232  1  0.20304341  0.83143231  0.39232638  1
  O2-  O233  1  0.20704868  0.83611803  0.72898519  1
  O2-  O234  1  0.70459005  0.33512568  0.06103911  1
  O2-  O235  1  0.71334009  0.33146950  0.39845852  1
  O2-  O236  1  0.71138561  0.33974760  0.73211419  1
  O2-  O237  1  0.71643918  0.83407401  0.06959814  1
  O2-  O238  1  0.70738944  0.83696105  0.40022042  1
  O2-  O239  1  0.69943582  0.83061169  0.72437854  1
  O2-  O240  1  0.45506120  0.42108911  0.26967448  1
  O2-  O241  1  0.44575380  0.41566050  0.60508188  1
  O2-  O242  1  0.46198801  0.41406339  0.92855698  1
  O2-  O243  1  0.46518628  0.91497032  0.26342669  1
  O2-  O244  1  0.46138751  0.91778436  0.59788592  1
  O2-  O245  1  0.45875563  0.91693462  0.93924530  1
  O2-  O246  1  0.95651787  0.41717041  0.26425486  1
  O2-  O247  1  0.95790333  0.41559206  0.60013140  1
  O2-  O248  1  0.94746915  0.41931740  0.93875992  1
  O2-  O249  1  0.95277297  0.91727693  0.26920098  1
  O2-  O250  1  0.95654238  0.92402786  0.59928697  1
  O2-  O251  1  0.95503623  0.91742474  0.93385520  1
  O2-  O252  1  0.32760221  0.29016374  0.26952242  1
  O2-  O253  1  0.33139294  0.29293991  0.60614988  1
  O2-  O254  1  0.33427385  0.28706137  0.93072924  1
  O2-  O255  1  0.33337311  0.79552413  0.26113112  1
  O2-  O256  1  0.33145818  0.79648980  0.59791582  1
  O2-  O257  1  0.33087800  0.80645282  0.94271289  1
  O2-  O258  1  0.83617584  0.28720461  0.26202296  1
  O2-  O259  1  0.83482401  0.28596973  0.60095554  1
  O2-  O260  1  0.83205446  0.29643237  0.93520091  1
  O2-  O261  1  0.83279540  0.79719744  0.27215067  1
  O2-  O262  1  0.83028089  0.79809185  0.59703759  1
  O2-  O263  1  0.83615257  0.78392612  0.93227203  1
  O2-  O264  1  0.41668874  0.04227185  0.06932195  1
  O2-  O265  1  0.41840078  0.03643882  0.40116637  1
  O2-  O266  1  0.41481717  0.04029612  0.72965625  1
  O2-  O267  1  0.42239758  0.54176740  0.06662822  1
  O2-  O268  1  0.41731455  0.55416070  0.39646553  1
  O2-  O269  1  0.41672877  0.54797995  0.72752348  1
  O2-  O270  1  0.91711233  0.04591661  0.06384588  1
  O2-  O271  1  0.91322633  0.04326952  0.39649197  1
  O2-  O272  1  0.92130683  0.04754036  0.73368752  1
  O2-  O273  1  0.91124868  0.54735370  0.06310424  1
  O2-  O274  1  0.91588898  0.54572502  0.39483649  1
  O2-  O275  1  0.90743576  0.53875349  0.73225517  1
  O2-  O276  1  0.28488594  0.16427023  0.06607950  1
  O2-  O277  1  0.28999443  0.16358031  0.40785826  1
  O2-  O278  1  0.29576201  0.16099917  0.73068590  1
  O2-  O279  1  0.30090387  0.67299609  0.06686485  1
  O2-  O280  1  0.29346129  0.66941669  0.39336946  1
  O2-  O281  1  0.29733933  0.66778238  0.72851167  1
  O2-  O282  1  0.79986466  0.16773190  0.06391078  1
  O2-  O283  1  0.79356333  0.16263331  0.39264678  1
  O2-  O284  1  0.78599672  0.16558838  0.73801436  1
  O2-  O285  1  0.78730683  0.66038051  0.06420110  1
  O2-  O286  1  0.79846871  0.66638991  0.39840939  1
  O2-  O287  1  0.79393160  0.66532715  0.72663893  1
