# generated using pymatgen
data_Ca2Al2SiO7
_symmetry_space_group_name_H-M   'P 1'
_cell_length_a   15.46720818
_cell_length_b   15.47039976
_cell_length_c   15.29067023
_cell_angle_alpha   89.97430735
_cell_angle_beta   89.99680509
_cell_angle_gamma   89.99997733
_symmetry_Int_Tables_number   1
_chemical_formula_structural   Ca2Al2SiO7
_chemical_formula_sum   'Ca48 Al48 Si24 O168'
_cell_volume   3658.81073578
_cell_formula_units_Z   24
loop_
 _symmetry_equiv_pos_site_id
 _symmetry_equiv_pos_as_xyz
  1  'x, y, z'
loop_
 _atom_type_symbol
 _atom_type_oxidation_number
  Ca2+  2.0
  Al0+  0.0
  Si0+  0.0
  O2-  -2.0
loop_
 _atom_site_type_symbol
 _atom_site_label
 _atom_site_symmetry_multiplicity
 _atom_site_fract_x
 _atom_site_fract_y
 _atom_site_fract_z
 _atom_site_occupancy
  Ca2+  Ca0  1  0.16931398  0.09302089  0.16804635  1
  Ca2+  Ca1  1  0.16517974  0.08712524  0.49935482  1
  Ca2+  Ca2  1  0.16972329  0.08352965  0.84435265  1
  Ca2+  Ca3  1  0.17390532  0.57942203  0.16896855  1
  Ca2+  Ca4  1  0.17609509  0.59012210  0.50455589  1
  Ca2+  Ca5  1  0.16810856  0.58116042  0.84662567  1
  Ca2+  Ca6  1  0.67672771  0.08737508  0.17268545  1
  Ca2+  Ca7  1  0.66952078  0.08261901  0.50512594  1
  Ca2+  Ca8  1  0.67320680  0.07362768  0.84035560  1
  Ca2+  Ca9  1  0.66868474  0.58334035  0.16873294  1
  Ca2+  Ca10  1  0.67301220  0.58314935  0.50810893  1
  Ca2+  Ca11  1  0.67342099  0.57912239  0.83913789  1
  Ca2+  Ca12  1  0.08499444  0.32565948  0.15926007  1
  Ca2+  Ca13  1  0.07313233  0.33048182  0.49688392  1
  Ca2+  Ca14  1  0.07763098  0.33298545  0.83291635  1
  Ca2+  Ca15  1  0.08060725  0.82400921  0.15882509  1
  Ca2+  Ca16  1  0.07656093  0.82755077  0.50262430  1
  Ca2+  Ca17  1  0.07580575  0.81981248  0.82831920  1
  Ca2+  Ca18  1  0.57416816  0.33764183  0.16210173  1
  Ca2+  Ca19  1  0.58038845  0.33425432  0.49124762  1
  Ca2+  Ca20  1  0.58082429  0.34451812  0.83345022  1
  Ca2+  Ca21  1  0.58465325  0.81940973  0.16239358  1
  Ca2+  Ca22  1  0.59594909  0.82243214  0.50031061  1
  Ca2+  Ca23  1  0.58875756  0.82101437  0.82789076  1
  Ca2+  Ca24  1  0.33478801  0.42020882  0.16505085  1
  Ca2+  Ca25  1  0.33670567  0.41921359  0.49707394  1
  Ca2+  Ca26  1  0.32522189  0.42089357  0.84657160  1
  Ca2+  Ca27  1  0.33246946  0.92226758  0.16684636  1
  Ca2+  Ca28  1  0.33167337  0.91851151  0.50441021  1
  Ca2+  Ca29  1  0.33254485  0.92492789  0.84097247  1
  Ca2+  Ca30  1  0.82933465  0.42895713  0.16796605  1
  Ca2+  Ca31  1  0.82849853  0.42554899  0.51033752  1
  Ca2+  Ca32  1  0.82529819  0.42235509  0.83723371  1
  Ca2+  Ca33  1  0.83544355  0.92763416  0.16880663  1
  Ca2+  Ca34  1  0.83034201  0.92237887  0.50556068  1
  Ca2+  Ca35  1  0.83271852  0.91499212  0.83407306  1
  Ca2+  Ca36  1  0.41785207  0.17867289  0.15977005  1
  Ca2+  Ca37  1  0.42818451  0.17569470  0.48777146  1
  Ca2+  Ca38  1  0.41270506  0.17396492  0.83420497  1
  Ca2+  Ca39  1  0.42459349  0.65492873  0.16153524  1
  Ca2+  Ca40  1  0.43105187  0.66292254  0.49244564  1
  Ca2+  Ca41  1  0.42984559  0.65440328  0.83416872  1
  Ca2+  Ca42  1  0.92302258  0.16090513  0.15986342  1
  Ca2+  Ca43  1  0.91515523  0.17406588  0.49267082  1
  Ca2+  Ca44  1  0.91645275  0.17179425  0.83203917  1
  Ca2+  Ca45  1  0.91533504  0.66425559  0.15787559  1
  Ca2+  Ca46  1  0.90811206  0.66965118  0.49967372  1
  Ca2+  Ca47  1  0.92440126  0.65734697  0.82612442  1
  Al0+  Al48  1  0.00017205  -0.00152234  -0.00217451  1
  Al0+  Al49  1  -0.00129399  -0.00063905  0.33529297  1
  Al0+  Al50  1  0.00367186  -0.00209908  0.66415488  1
  Al0+  Al51  1  -0.00114393  0.49756313  0.00415714  1
  Al0+  Al52  1  0.00046269  0.50015096  0.33847544  1
  Al0+  Al53  1  0.00403187  0.49610625  0.65947314  1
  Al0+  Al54  1  0.49928906  -0.00032964  0.00519663  1
  Al0+  Al55  1  0.49949482  -0.00183150  0.33122380  1
  Al0+  Al56  1  0.50060499  0.00133410  0.67128351  1
  Al0+  Al57  1  0.49896759  0.49838222  -0.00315360  1
  Al0+  Al58  1  0.49837338  0.50103419  0.33003014  1
  Al0+  Al59  1  0.49868631  0.50017166  0.66382435  1
  Al0+  Al60  1  0.25018111  0.24926421  -0.00140015  1
  Al0+  Al61  1  0.24851836  0.25017507  0.32992288  1
  Al0+  Al62  1  0.25268834  0.25158530  0.66466182  1
  Al0+  Al63  1  0.25009605  0.75146761  -0.00034264  1
  Al0+  Al64  1  0.24927127  0.75050143  0.33853802  1
  Al0+  Al65  1  0.25159209  0.75280411  0.66588182  1
  Al0+  Al66  1  0.74898431  0.24863289  0.00764463  1
  Al0+  Al67  1  0.75088141  0.25165936  0.33346085  1
  Al0+  Al68  1  0.75023836  0.25028625  0.66734112  1
  Al0+  Al69  1  0.74867448  0.75138733  -0.00118935  1
  Al0+  Al70  1  0.75052080  0.75163670  0.33030398  1
  Al0+  Al71  1  0.75231205  0.75188881  0.66689459  1
  Al0+  Al72  1  0.06998913  0.67678072  0.98970026  1
  Al0+  Al73  1  0.82039980  0.57230601  0.01363616  1
  Al0+  Al74  1  0.06672501  0.17888503  0.31975188  1
  Al0+  Al75  1  0.82343034  0.57074402  0.68063840  1
  Al0+  Al76  1  0.92779181  0.31903411  0.65339141  1
  Al0+  Al77  1  0.67971920  0.93008391  0.68042990  1
  Al0+  Al78  1  0.67700956  0.42883701  0.01643021  1
  Al0+  Al79  1  0.57077888  0.68193883  0.31909976  1
  Al0+  Al80  1  0.92954446  0.82098097  0.65027558  1
  Al0+  Al81  1  0.82056774  0.07197375  0.34793106  1
  Al0+  Al82  1  0.32067772  0.07141198  0.01462546  1
  Al0+  Al83  1  0.56984235  0.67962126  0.65304880  1
  Al0+  Al84  1  0.07371462  0.67622049  0.65099959  1
  Al0+  Al85  1  0.43079550  0.31888368  0.98372286  1
  Al0+  Al86  1  0.42944304  0.32075688  0.31644859  1
  Al0+  Al87  1  0.32016950  0.57063069  0.34863284  1
  Al0+  Al88  1  0.82127470  0.57272146  0.34834194  1
  Al0+  Al89  1  0.67679643  0.42788819  0.68080368  1
  Al0+  Al90  1  0.17689374  0.42756151  0.01470093  1
  Al0+  Al91  1  0.06985936  0.17875380  0.98564703  1
  Al0+  Al92  1  0.32017207  0.57244781  0.01345295  1
  Al0+  Al93  1  0.57423481  0.17673766  0.31815775  1
  Al0+  Al94  1  0.57007730  0.67934635  0.98478021  1
  Al0+  Al95  1  0.82120658  0.06891849  0.01212022  1
  Si0+  Si96  1  0.92764661  0.32502927  0.31508998  1
  Si0+  Si97  1  0.17837977  0.92869044  0.35003386  1
  Si0+  Si98  1  0.57013323  0.17729838  0.65479509  1
  Si0+  Si99  1  0.67765599  0.43062561  0.34889183  1
  Si0+  Si100  1  0.07270381  0.67897174  0.31923197  1
  Si0+  Si101  1  0.57359374  0.17566356  0.98262116  1
  Si0+  Si102  1  0.32016341  0.07185071  0.68061163  1
  Si0+  Si103  1  0.67664748  0.92727193  0.01863139  1
  Si0+  Si104  1  0.17803988  0.42613779  0.35282925  1
  Si0+  Si105  1  0.93001373  0.81979376  0.31714266  1
  Si0+  Si106  1  0.92812245  0.82147619  0.98384658  1
  Si0+  Si107  1  0.92505427  0.32108682  0.98463128  1
  Si0+  Si108  1  0.07450068  0.17858476  0.65078010  1
  Si0+  Si109  1  0.32044961  0.07162531  0.34882015  1
  Si0+  Si110  1  0.42310424  0.82219625  0.31642677  1
  Si0+  Si111  1  0.42966247  0.82611927  0.65066169  1
  Si0+  Si112  1  0.42751797  0.82446850  0.98326042  1
  Si0+  Si113  1  0.31998841  0.57219922  0.68090968  1
  Si0+  Si114  1  0.42919135  0.32037641  0.65046199  1
  Si0+  Si115  1  0.17948943  0.92882070  0.68360477  1
  Si0+  Si116  1  0.82470576  0.07251962  0.68266737  1
  Si0+  Si117  1  0.18179127  0.42690528  0.68035079  1
  Si0+  Si118  1  0.17798759  0.92856543  0.01698574  1
  Si0+  Si119  1  0.67752625  0.92866112  0.34896641  1
  O2-  O120  1  0.24539305  -0.00228770  0.06238546  1
  O2-  O121  1  0.25042656  -0.00016980  0.39211648  1
  O2-  O122  1  0.24890173  0.00201640  0.72411649  1
  O2-  O123  1  0.24611851  0.50274338  0.06357269  1
  O2-  O124  1  0.24549465  0.49645529  0.39718412  1
  O2-  O125  1  0.24466552  0.50547136  0.72171236  1
  O2-  O126  1  0.74465996  -0.00275326  0.06102609  1
  O2-  O127  1  0.73988808  0.00316058  0.39351552  1
  O2-  O128  1  0.75718147  0.00256522  0.72640323  1
  O2-  O129  1  0.74710926  0.50299538  0.06558216  1
  O2-  O130  1  0.74720877  0.49742829  0.39420434  1
  O2-  O131  1  0.74905812  0.50043702  0.72931063  1
  O2-  O132  1  -0.00689025  0.25303795  0.27126120  1
  O2-  O133  1  0.00097112  0.24149630  0.60706564  1
  O2-  O134  1  -0.00543825  0.25248526  0.94003668  1
  O2-  O135  1  -0.00247543  0.74492611  0.27612980  1
  O2-  O136  1  -0.00316229  0.74355143  0.60039431  1
  O2-  O137  1  -0.00871325  0.74676593  0.94192768  1
  O2-  O138  1  0.50206004  0.24824778  0.26811039  1
  O2-  O139  1  0.50494627  0.25318224  0.61124930  1
  O2-  O140  1  0.50670720  0.24501703  0.93620187  1
  O2-  O141  1  0.49262657  0.75439339  0.27348307  1
  O2-  O142  1  0.49670116  0.75667371  0.60599145  1
  O2-  O143  1  0.49402565  0.75422159  0.93896582  1
  O2-  O144  1  0.06791031  0.17823953  0.09866892  1
  O2-  O145  1  0.06704077  0.17995733  0.43344928  1
  O2-  O146  1  0.07844720  0.18024925  0.75595365  1
  O2-  O147  1  0.07072315  0.68151598  0.10321427  1
  O2-  O148  1  0.07539603  0.68387301  0.42399942  1
  O2-  O149  1  0.07655914  0.67960808  0.76456072  1
  O2-  O150  1  0.57099692  0.17482811  0.08785411  1
  O2-  O151  1  0.57072399  0.17713266  0.43292505  1
  O2-  O152  1  0.56513644  0.17290728  0.75929237  1
  O2-  O153  1  0.56964631  0.68211100  0.09795207  1
  O2-  O154  1  0.57129493  0.68424424  0.43246380  1
  O2-  O155  1  0.56625517  0.67885524  0.76573358  1
  O2-  O156  1  0.17672860  0.42641445  0.24778983  1
  O2-  O157  1  0.18742001  0.42075021  0.57554559  1
  O2-  O158  1  0.17818414  0.42819519  0.90026353  1
  O2-  O159  1  0.17891804  0.92651412  0.24533844  1
  O2-  O160  1  0.18079335  0.92870796  0.57819333  1
  O2-  O161  1  0.17956831  0.92976764  0.91123867  1
  O2-  O162  1  0.67793503  0.43255414  0.24367379  1
  O2-  O163  1  0.67540453  0.42759523  0.56695612  1
  O2-  O164  1  0.67941313  0.43006476  0.90270633  1
  O2-  O165  1  0.68125156  0.92614916  0.24362666  1
  O2-  O166  1  0.67753439  0.93519110  0.56729505  1
  O2-  O167  1  0.67649376  0.92756121  0.91284697  1
  O2-  O168  1  0.43014776  0.31783383  0.09624557  1
  O2-  O169  1  0.43006837  0.31861208  0.43129393  1
  O2-  O170  1  0.42362232  0.31816064  0.75495580  1
  O2-  O171  1  0.42855299  0.82747623  0.08875417  1
  O2-  O172  1  0.42046556  0.82306899  0.42212968  1
  O2-  O173  1  0.42885678  0.82942061  0.75580163  1
  O2-  O174  1  0.92574746  0.32000721  0.09013445  1
  O2-  O175  1  0.92980226  0.32344939  0.42109185  1
  O2-  O176  1  0.92936021  0.31681932  0.76637031  1
  O2-  O177  1  0.93132353  0.82463176  0.08988330  1
  O2-  O178  1  0.93069649  0.82147899  0.42195580  1
  O2-  O179  1  0.93482960  0.82708036  0.76325279  1
  O2-  O180  1  0.31866844  0.07069359  0.24421002  1
  O2-  O181  1  0.31927644  0.07139340  0.57530648  1
  O2-  O182  1  0.31937686  0.06912923  0.90072814  1
  O2-  O183  1  0.31733074  0.57264487  0.23634764  1
  O2-  O184  1  0.32106356  0.57031617  0.57555029  1
  O2-  O185  1  0.31904961  0.56994549  0.89912825  1
  O2-  O186  1  0.82439195  0.06558565  0.23520618  1
  O2-  O187  1  0.82262776  0.07291677  0.57692834  1
  O2-  O188  1  0.82058119  0.06653506  0.89874634  1
  O2-  O189  1  0.82169416  0.57318474  0.23563787  1
  O2-  O190  1  0.81871620  0.56935599  0.56669199  1
  O2-  O191  1  0.82241281  0.57056668  0.90034052  1
  O2-  O192  1  0.03856957  0.08085477  0.26734738  1
  O2-  O193  1  0.05632353  0.08267757  0.60676312  1
  O2-  O194  1  0.04081012  0.08139210  0.93138586  1
  O2-  O195  1  0.05089162  0.58401575  0.27678897  1
  O2-  O196  1  0.05832417  0.57544936  0.59883195  1
  O2-  O197  1  0.04381449  0.57856166  0.93680542  1
  O2-  O198  1  0.54806581  0.07667075  0.26779680  1
  O2-  O199  1  0.53679250  0.08845065  0.60431134  1
  O2-  O200  1  0.54596955  0.08135479  0.93818559  1
  O2-  O201  1  0.54000281  0.58563262  0.26646404  1
  O2-  O202  1  0.53570047  0.58454722  0.59730741  1
  O2-  O203  1  0.53837650  0.58369345  0.93041459  1
  O2-  O204  1  0.16425493  0.20794746  0.26744990  1
  O2-  O205  1  0.16624449  0.20980726  0.60241923  1
  O2-  O206  1  0.16632144  0.20807930  0.93133113  1
  O2-  O207  1  0.16256996  0.71283990  0.27190203  1
  O2-  O208  1  0.17042287  0.71437550  0.59766311  1
  O2-  O209  1  0.16564097  0.71135662  0.93514526  1
  O2-  O210  1  0.67378037  0.20283673  0.26729683  1
  O2-  O211  1  0.66410454  0.19848302  0.60938132  1
  O2-  O212  1  0.66884048  0.19842306  0.93895613  1
  O2-  O213  1  0.66568624  0.71618839  0.26377902  1
  O2-  O214  1  0.66687128  0.71120615  0.60105938  1
  O2-  O215  1  0.66617162  0.71278356  0.93084461  1
  O2-  O216  1  0.07867600  0.45025842  0.06949517  1
  O2-  O217  1  0.08446896  0.45065944  0.39977516  1
  O2-  O218  1  0.08703454  0.44529413  0.72425456  1
  O2-  O219  1  0.08425291  0.95250612  0.06258814  1
  O2-  O220  1  0.08813776  0.95907017  0.39889008  1
  O2-  O221  1  0.08799010  0.95543605  0.73148750  1
  O2-  O222  1  0.57833240  0.45719164  0.06695996  1
  O2-  O223  1  0.58380232  0.45643918  0.39419646  1
  O2-  O224  1  0.57702490  0.45635597  0.73146245  1
  O2-  O225  1  0.58317248  0.95015464  0.06539839  1
  O2-  O226  1  0.58067924  0.94442635  0.39298246  1
  O2-  O227  1  0.58420667  0.96249906  0.73652154  1
  O2-  O228  1  0.20934350  0.33049975  0.06673100  1
  O2-  O229  1  0.20614163  0.33290230  0.39935555  1
  O2-  O230  1  0.21707403  0.33819032  0.73007683  1
  O2-  O231  1  0.20521917  0.83638104  0.06495478  1
  O2-  O232  1  0.20671142  0.83878919  0.40116671  1
  O2-  O233  1  0.20979204  0.83842891  0.73221727  1
  O2-  O234  1  0.70311747  0.33043236  0.06993650  1
  O2-  O235  1  0.70048857  0.33568295  0.39389020  1
  O2-  O236  1  0.70330876  0.32859003  0.73349453  1
  O2-  O237  1  0.70466248  0.83510419  0.06545003  1
  O2-  O238  1  0.71230185  0.83855452  0.39657195  1
  O2-  O239  1  0.70953424  0.83413364  0.73517221  1
  O2-  O240  1  0.45592585  0.41920912  0.26441729  1
  O2-  O241  1  0.45310461  0.41261259  0.60236424  1
  O2-  O242  1  0.45914188  0.41498237  0.92759710  1
  O2-  O243  1  0.44681219  0.91633042  0.27058491  1
  O2-  O244  1  0.45497135  0.91985765  0.60351320  1
  O2-  O245  1  0.45467309  0.91804982  0.93673428  1
  O2-  O246  1  0.95726934  0.41811412  0.27038310  1
  O2-  O247  1  0.96220756  0.41183145  0.59435747  1
  O2-  O248  1  0.95182175  0.41391298  0.93827108  1
  O2-  O249  1  0.96335284  0.90979975  0.26970707  1
  O2-  O250  1  0.96484607  0.91775656  0.59463634  1
  O2-  O251  1  0.96006150  0.91139394  0.93437675  1
  O2-  O252  1  0.33103408  0.29101738  0.26575723  1
  O2-  O253  1  0.34044380  0.28701176  0.59955772  1
  O2-  O254  1  0.33514281  0.28479173  0.92911582  1
  O2-  O255  1  0.32926688  0.79726656  0.27065906  1
  O2-  O256  1  0.33539917  0.80234072  0.60486938  1
  O2-  O257  1  0.33261979  0.80359598  0.93764477  1
  O2-  O258  1  0.83270161  0.30397977  0.27171078  1
  O2-  O259  1  0.83123955  0.28953703  0.59741509  1
  O2-  O260  1  0.83199031  0.29233931  0.93915181  1
  O2-  O261  1  0.83831220  0.79614617  0.26819220  1
  O2-  O262  1  0.82991037  0.79966132  0.59681946  1
  O2-  O263  1  0.83232016  0.80405085  0.94018919  1
  O2-  O264  1  0.41626744  0.04069052  0.07035955  1
  O2-  O265  1  0.41279536  0.04385332  0.39621817  1
  O2-  O266  1  0.41055194  0.04415101  0.72993898  1
  O2-  O267  1  0.41692410  0.53905172  0.06482006  1
  O2-  O268  1  0.41694413  0.53863498  0.40247599  1
  O2-  O269  1  0.40987289  0.53883538  0.72755098  1
  O2-  O270  1  0.91699845  0.03442324  0.06617017  1
  O2-  O271  1  0.91502798  0.03561184  0.40352881  1
  O2-  O272  1  0.92034957  0.04827094  0.72502328  1
  O2-  O273  1  0.91730629  0.54260325  0.06879944  1
  O2-  O274  1  0.91908614  0.54517542  0.40217233  1
  O2-  O275  1  0.92423331  0.53966986  0.72720108  1
  O2-  O276  1  0.28820250  0.16627270  0.06861126  1
  O2-  O277  1  0.29042647  0.16257521  0.39697067  1
  O2-  O278  1  0.29212700  0.16389171  0.72751774  1
  O2-  O279  1  0.29744283  0.67278665  0.06493189  1
  O2-  O280  1  0.28950831  0.66741255  0.40419990  1
  O2-  O281  1  0.29906625  0.66663547  0.72556088  1
  O2-  O282  1  0.79474987  0.16460138  0.06878938  1
  O2-  O283  1  0.79590425  0.17095116  0.40074729  1
  O2-  O284  1  0.79743150  0.16472644  0.72956158  1
  O2-  O285  1  0.79491735  0.67266255  0.06462177  1
  O2-  O286  1  0.78963110  0.67070157  0.39930826  1
  O2-  O287  1  0.80115972  0.67136690  0.73021372  1
