# generated using pymatgen
data_Ca2Al2SiO7
_symmetry_space_group_name_H-M   'P 1'
_cell_length_a   15.45511467
_cell_length_b   15.45465206
_cell_length_c   15.28125420
_cell_angle_alpha   90.00758908
_cell_angle_beta   90.00299066
_cell_angle_gamma   90.00569547
_symmetry_Int_Tables_number   1
_chemical_formula_structural   Ca2Al2SiO7
_chemical_formula_sum   'Ca48 Al48 Si24 O168'
_cell_volume   3649.97977045
_cell_formula_units_Z   24
loop_
 _symmetry_equiv_pos_site_id
 _symmetry_equiv_pos_as_xyz
  1  'x, y, z'
loop_
 _atom_type_symbol
 _atom_type_oxidation_number
  Ca2+  2.0
  Al0+  0.0
  Si0+  0.0
  O2-  -2.0
loop_
 _atom_site_type_symbol
 _atom_site_label
 _atom_site_symmetry_multiplicity
 _atom_site_fract_x
 _atom_site_fract_y
 _atom_site_fract_z
 _atom_site_occupancy
  Ca2+  Ca0  1  0.17612805  0.08346635  0.17072637  1
  Ca2+  Ca1  1  0.16970449  0.07239543  0.50260030  1
  Ca2+  Ca2  1  0.16931523  0.07587676  0.84498586  1
  Ca2+  Ca3  1  0.16181195  0.58046407  0.16323795  1
  Ca2+  Ca4  1  0.16984760  0.58389500  0.50284956  1
  Ca2+  Ca5  1  0.16646361  0.57599167  0.84328942  1
  Ca2+  Ca6  1  0.66003808  0.07564818  0.16868592  1
  Ca2+  Ca7  1  0.66173069  0.07232818  0.50409408  1
  Ca2+  Ca8  1  0.65596924  0.07799063  0.83617519  1
  Ca2+  Ca9  1  0.67751047  0.57494422  0.17438670  1
  Ca2+  Ca10  1  0.67763759  0.58260118  0.50484380  1
  Ca2+  Ca11  1  0.67824273  0.58759279  0.83725180  1
  Ca2+  Ca12  1  0.08010268  0.33012585  0.15878151  1
  Ca2+  Ca13  1  0.06948180  0.33443178  0.49518813  1
  Ca2+  Ca14  1  0.08424219  0.32726719  0.83258262  1
  Ca2+  Ca15  1  0.08002413  0.83456647  0.16061330  1
  Ca2+  Ca16  1  0.07916617  0.83688318  0.49051350  1
  Ca2+  Ca17  1  0.08941302  0.83019145  0.83163305  1
  Ca2+  Ca18  1  0.57865555  0.32780488  0.15722830  1
  Ca2+  Ca19  1  0.58404760  0.32908437  0.49619552  1
  Ca2+  Ca20  1  0.57315497  0.32217384  0.82482137  1
  Ca2+  Ca21  1  0.57949739  0.84313018  0.16501791  1
  Ca2+  Ca22  1  0.58761698  0.83076259  0.49358352  1
  Ca2+  Ca23  1  0.58689453  0.83258965  0.82728082  1
  Ca2+  Ca24  1  0.32644279  0.40799913  0.16522629  1
  Ca2+  Ca25  1  0.33349979  0.41512999  0.50467674  1
  Ca2+  Ca26  1  0.33288050  0.41068252  0.84027288  1
  Ca2+  Ca27  1  0.32603098  0.92756166  0.17466151  1
  Ca2+  Ca28  1  0.32690318  0.91574173  0.50006004  1
  Ca2+  Ca29  1  0.32394939  0.92365789  0.84202029  1
  Ca2+  Ca30  1  0.83380963  0.42565074  0.17512058  1
  Ca2+  Ca31  1  0.83444898  0.42212190  0.50340360  1
  Ca2+  Ca32  1  0.84046221  0.42637833  0.83627956  1
  Ca2+  Ca33  1  0.82344604  0.91376083  0.17256022  1
  Ca2+  Ca34  1  0.82508370  0.91066982  0.50292067  1
  Ca2+  Ca35  1  0.81902854  0.91738422  0.83752422  1
  Ca2+  Ca36  1  0.41779163  0.16503088  0.15691512  1
  Ca2+  Ca37  1  0.41940435  0.16418433  0.50056831  1
  Ca2+  Ca38  1  0.41988254  0.17049755  0.83363309  1
  Ca2+  Ca39  1  0.41636354  0.67642738  0.16465370  1
  Ca2+  Ca40  1  0.42651526  0.67382294  0.49442484  1
  Ca2+  Ca41  1  0.42721512  0.66876186  0.82512895  1
  Ca2+  Ca42  1  0.92190954  0.17233067  0.16145073  1
  Ca2+  Ca43  1  0.91123125  0.17879224  0.49466340  1
  Ca2+  Ca44  1  0.92348894  0.17042068  0.82843084  1
  Ca2+  Ca45  1  0.91529773  0.66873661  0.16398045  1
  Ca2+  Ca46  1  0.91370030  0.66896522  0.49396344  1
  Ca2+  Ca47  1  0.91920721  0.66174149  0.83332657  1
  Al0+  Al48  1  -0.00429412  -0.00005162  -0.00284641  1
  Al0+  Al49  1  0.00021400  0.00045637  0.33105573  1
  Al0+  Al50  1  -0.00072617  -0.00161132  0.67116007  1
  Al0+  Al51  1  0.00134815  0.50372385  0.00499844  1
  Al0+  Al52  1  0.00065780  0.49987500  0.33289013  1
  Al0+  Al53  1  0.00157560  0.50048587  0.66614546  1
  Al0+  Al54  1  0.49804633  -0.00016367  0.00231045  1
  Al0+  Al55  1  0.49943276  -0.00029276  0.33824599  1
  Al0+  Al56  1  0.49647390  0.00040049  0.66764923  1
  Al0+  Al57  1  0.50091055  0.50258834  -0.00353882  1
  Al0+  Al58  1  0.50016652  0.49840406  0.33459247  1
  Al0+  Al59  1  0.50187831  0.50127030  0.65805499  1
  Al0+  Al60  1  0.24783893  0.25075592  0.00025043  1
  Al0+  Al61  1  0.25130275  0.24959875  0.34032480  1
  Al0+  Al62  1  0.24948233  0.24875071  0.66176494  1
  Al0+  Al63  1  0.24856522  0.74894556  -0.00203065  1
  Al0+  Al64  1  0.25183090  0.74890858  0.33181086  1
  Al0+  Al65  1  0.25069351  0.74772577  0.67089247  1
  Al0+  Al66  1  0.74890742  0.25032735  -0.00676420  1
  Al0+  Al67  1  0.74882416  0.25074478  0.32921156  1
  Al0+  Al68  1  0.74978601  0.25001217  0.65934137  1
  Al0+  Al69  1  0.75012492  0.75089962  0.00903994  1
  Al0+  Al70  1  0.75219489  0.74756174  0.33472381  1
  Al0+  Al71  1  0.75184125  0.74933645  0.67187303  1
  Al0+  Al72  1  0.43054521  0.82112135  0.31947188  1
  Al0+  Al73  1  0.18115527  0.43001683  0.01251844  1
  Al0+  Al74  1  0.82123038  0.56897556  0.68264904  1
  Al0+  Al75  1  0.93157777  0.32172298  0.65365561  1
  Al0+  Al76  1  0.17778175  0.92738332  0.34754227  1
  Al0+  Al77  1  0.67887479  0.93064271  0.67976944  1
  Al0+  Al78  1  0.31836106  0.07078837  0.01448571  1
  Al0+  Al79  1  0.92844135  0.32147530  0.31740688  1
  Al0+  Al80  1  0.32178315  0.07205551  0.35202880  1
  Al0+  Al81  1  0.57050815  0.17658078  0.64824777  1
  Al0+  Al82  1  0.06957736  0.68109417  0.98569070  1
  Al0+  Al83  1  0.67746560  0.42667598  0.34859304  1
  Al0+  Al84  1  0.67938998  0.93165244  0.01464763  1
  Al0+  Al85  1  0.06959461  0.17819781  0.98760030  1
  Al0+  Al86  1  0.17771533  0.92754329  0.68233039  1
  Al0+  Al87  1  0.82075346  0.56931344  0.01583061  1
  Al0+  Al88  1  0.57121138  0.17678302  0.98487794  1
  Al0+  Al89  1  0.42793988  0.32112251  0.64869052  1
  Al0+  Al90  1  0.92877337  0.82136219  0.32008115  1
  Al0+  Al91  1  0.68111473  0.93021502  0.34720422  1
  Al0+  Al92  1  0.42846794  0.32287368  0.98656434  1
  Al0+  Al93  1  0.57453223  0.68186391  0.65273798  1
  Al0+  Al94  1  0.17564858  0.92627172  0.01577479  1
  Al0+  Al95  1  0.82231788  0.56904771  0.35059055  1
  Si0+  Si96  1  0.57265883  0.68080723  0.98665923  1
  Si0+  Si97  1  0.17993775  0.42922138  0.34944329  1
  Si0+  Si98  1  0.07411801  0.67779909  0.31651727  1
  Si0+  Si99  1  0.67689547  0.42660960  0.68367042  1
  Si0+  Si100  1  0.07122927  0.17481909  0.64881750  1
  Si0+  Si101  1  0.32340565  0.57012635  0.68064142  1
  Si0+  Si102  1  0.67658426  0.42722510  0.01299443  1
  Si0+  Si103  1  0.82231022  0.07594343  0.01539008  1
  Si0+  Si104  1  0.07312250  0.17977782  0.31765524  1
  Si0+  Si105  1  0.82180273  0.07502657  0.68261817  1
  Si0+  Si106  1  0.32567175  0.57321052  0.01576221  1
  Si0+  Si107  1  0.31942211  0.07290091  0.68602440  1
  Si0+  Si108  1  0.93047689  0.82023845  0.65422357  1
  Si0+  Si109  1  0.32194250  0.57147917  0.34798507  1
  Si0+  Si110  1  0.42877785  0.82044422  0.98498072  1
  Si0+  Si111  1  0.42636971  0.82022486  0.65126293  1
  Si0+  Si112  1  0.82341040  0.07337130  0.34791362  1
  Si0+  Si113  1  0.57248974  0.67698018  0.31530164  1
  Si0+  Si114  1  0.56923892  0.17871903  0.31798556  1
  Si0+  Si115  1  0.92868217  0.32429138  0.98412247  1
  Si0+  Si116  1  0.18060022  0.42988647  0.67989176  1
  Si0+  Si117  1  0.92440025  0.82165657  0.98181915  1
  Si0+  Si118  1  0.42766112  0.32217055  0.31747096  1
  Si0+  Si119  1  0.07230318  0.67895810  0.65223052  1
  O2-  O120  1  0.24515330  0.00024689  0.06515006  1
  O2-  O121  1  0.24939184  -0.00135869  0.39935737  1
  O2-  O122  1  0.24986944  0.00419860  0.72872333  1
  O2-  O123  1  0.25937721  0.50169611  0.05940805  1
  O2-  O124  1  0.25107481  0.50044773  0.39100091  1
  O2-  O125  1  0.25711157  0.49470713  0.72217498  1
  O2-  O126  1  0.75190041  0.00916118  0.05986927  1
  O2-  O127  1  0.75826175  0.00222685  0.39403603  1
  O2-  O128  1  0.74936710  0.00966981  0.72630911  1
  O2-  O129  1  0.74817972  0.49143087  0.05931018  1
  O2-  O130  1  0.75025129  0.49704419  0.40012522  1
  O2-  O131  1  0.74693545  0.49352198  0.72943400  1
  O2-  O132  1  0.00329923  0.24665486  0.27217020  1
  O2-  O133  1  0.00185049  0.24319241  0.60499020  1
  O2-  O134  1  -0.00626176  0.25204805  0.94009822  1
  O2-  O135  1  0.00669387  0.74888833  0.27488400  1
  O2-  O136  1  0.00527455  0.75338825  0.61112766  1
  O2-  O137  1  -0.00215966  0.75778466  0.93704580  1
  O2-  O138  1  0.49878117  0.25116891  0.27663202  1
  O2-  O139  1  0.50086581  0.25092693  0.59748904  1
  O2-  O140  1  0.50132106  0.25199388  0.93686798  1
  O2-  O141  1  0.50661860  0.74823926  0.27040404  1
  O2-  O142  1  0.50061980  0.75779598  0.60652566  1
  O2-  O143  1  0.50056533  0.74998101  0.94286913  1
  O2-  O144  1  0.06877562  0.18171728  0.10073488  1
  O2-  O145  1  0.07224534  0.18249651  0.42356503  1
  O2-  O146  1  0.07132519  0.17668715  0.75448490  1
  O2-  O147  1  0.06776997  0.67916047  0.09845725  1
  O2-  O148  1  0.07544001  0.67632380  0.42282442  1
  O2-  O149  1  0.07200703  0.67634215  0.75702341  1
  O2-  O150  1  0.57028023  0.17750362  0.09892601  1
  O2-  O151  1  0.56894756  0.17875523  0.42280448  1
  O2-  O152  1  0.56722396  0.17655577  0.76155491  1
  O2-  O153  1  0.57072094  0.67989290  0.09156900  1
  O2-  O154  1  0.57020788  0.67791404  0.42108985  1
  O2-  O155  1  0.57281379  0.68307997  0.76657963  1
  O2-  O156  1  0.18035333  0.42797790  0.24454063  1
  O2-  O157  1  0.17892030  0.43455182  0.57445612  1
  O2-  O158  1  0.18015383  0.43195244  0.89895164  1
  O2-  O159  1  0.17872303  0.92836133  0.23464248  1
  O2-  O160  1  0.17802810  0.92621747  0.56935969  1
  O2-  O161  1  0.18121305  0.92644411  0.90173421  1
  O2-  O162  1  0.67604394  0.42871844  0.23454691  1
  O2-  O163  1  0.67827096  0.42927994  0.57821513  1
  O2-  O164  1  0.67597838  0.43063314  0.90753215  1
  O2-  O165  1  0.67963546  0.93342304  0.23419866  1
  O2-  O166  1  0.68305276  0.92817153  0.56680335  1
  O2-  O167  1  0.68020644  0.92863472  0.90132712  1
  O2-  O168  1  0.43045260  0.32324973  0.10066775  1
  O2-  O169  1  0.42683134  0.32334339  0.42216081  1
  O2-  O170  1  0.42612951  0.32073244  0.76196552  1
  O2-  O171  1  0.42971119  0.81934862  0.09010909  1
  O2-  O172  1  0.43015838  0.81683475  0.43274156  1
  O2-  O173  1  0.42460596  0.81529539  0.75718402  1
  O2-  O174  1  0.93007187  0.32346061  0.08978846  1
  O2-  O175  1  0.93132904  0.32148754  0.43081496  1
  O2-  O176  1  0.93728063  0.32339150  0.76673107  1
  O2-  O177  1  0.92229801  0.81880956  0.08729094  1
  O2-  O178  1  0.92890143  0.81899881  0.43400727  1
  O2-  O179  1  0.92971644  0.81853638  0.75909348  1
  O2-  O180  1  0.32060483  0.07500646  0.23873634  1
  O2-  O181  1  0.31846677  0.07203733  0.58045754  1
  O2-  O182  1  0.31839431  0.06842309  0.90070978  1
  O2-  O183  1  0.32225292  0.57130189  0.24301760  1
  O2-  O184  1  0.31882370  0.57367998  0.57539779  1
  O2-  O185  1  0.32551201  0.57438490  0.90989894  1
  O2-  O186  1  0.82149839  0.07369839  0.24226989  1
  O2-  O187  1  0.82538872  0.07225034  0.57705444  1
  O2-  O188  1  0.82406510  0.07419188  0.90969469  1
  O2-  O189  1  0.82163639  0.56786428  0.23698922  1
  O2-  O190  1  0.82280735  0.56944593  0.57020628  1
  O2-  O191  1  0.82042707  0.56941974  0.90231217  1
  O2-  O192  1  0.05044454  0.08594361  0.27177533  1
  O2-  O193  1  0.04522867  0.08041839  0.60450754  1
  O2-  O194  1  0.03931276  0.08214599  0.93102537  1
  O2-  O195  1  0.04658112  0.58475339  0.27042889  1
  O2-  O196  1  0.04242552  0.58904764  0.60234081  1
  O2-  O197  1  0.03643767  0.58459166  0.93127792  1
  O2-  O198  1  0.53933610  0.08718080  0.27177277  1
  O2-  O199  1  0.53819812  0.07809075  0.59617090  1
  O2-  O200  1  0.53857467  0.07917959  0.93213190  1
  O2-  O201  1  0.54201137  0.58422083  0.26968723  1
  O2-  O202  1  0.54341968  0.58699904  0.59624821  1
  O2-  O203  1  0.54763567  0.58963920  0.93624514  1
  O2-  O204  1  0.16662504  0.20995956  0.27377631  1
  O2-  O205  1  0.16398202  0.20076017  0.60197865  1
  O2-  O206  1  0.16388065  0.21201194  0.93144794  1
  O2-  O207  1  0.16843645  0.69864645  0.27021419  1
  O2-  O208  1  0.16594435  0.70279274  0.60577042  1
  O2-  O209  1  0.16785892  0.70560702  0.92976898  1
  O2-  O210  1  0.66099183  0.20399055  0.26929416  1
  O2-  O211  1  0.67043476  0.20003444  0.59588014  1
  O2-  O212  1  0.67039974  0.20038129  0.92990294  1
  O2-  O213  1  0.66735590  0.69919931  0.27166739  1
  O2-  O214  1  0.67120875  0.71306435  0.59949420  1
  O2-  O215  1  0.66420006  0.71189908  0.94070958  1
  O2-  O216  1  0.08764634  0.46548414  0.06937939  1
  O2-  O217  1  0.08908535  0.45893537  0.39747309  1
  O2-  O218  1  0.09216562  0.46402917  0.72912519  1
  O2-  O219  1  0.07313866  0.94913720  0.06118662  1
  O2-  O220  1  0.07879220  0.95653068  0.40025147  1
  O2-  O221  1  0.08003723  0.95445932  0.73657999  1
  O2-  O222  1  0.58445085  0.45702171  0.06051856  1
  O2-  O223  1  0.57853074  0.45438452  0.40164576  1
  O2-  O224  1  0.58252244  0.45457905  0.72673994  1
  O2-  O225  1  0.58233509  0.96016049  0.06831161  1
  O2-  O226  1  0.58581572  0.96139928  0.40245147  1
  O2-  O227  1  0.57926446  0.95496559  0.73161078  1
  O2-  O228  1  0.20844157  0.33450686  0.06967004  1
  O2-  O229  1  0.20775624  0.33921412  0.39999106  1
  O2-  O230  1  0.20219279  0.33491487  0.72369184  1
  O2-  O231  1  0.20480241  0.82710613  0.06599665  1
  O2-  O232  1  0.20647566  0.82768992  0.39917395  1
  O2-  O233  1  0.21019010  0.83043099  0.73548474  1
  O2-  O234  1  0.69729837  0.33132884  0.05638853  1
  O2-  O235  1  0.70498711  0.32738105  0.39981826  1
  O2-  O236  1  0.70054398  0.33110899  0.72620735  1
  O2-  O237  1  0.71130608  0.83699955  0.07147489  1
  O2-  O238  1  0.71001728  0.83209866  0.39863328  1
  O2-  O239  1  0.71502787  0.83660281  0.73585293  1
  O2-  O240  1  0.45295835  0.41463452  0.26983139  1
  O2-  O241  1  0.45264582  0.42089796  0.59588766  1
  O2-  O242  1  0.45365642  0.42283402  0.93305977  1
  O2-  O243  1  0.46109369  0.91835495  0.26691414  1
  O2-  O244  1  0.44352486  0.91629767  0.60911011  1
  O2-  O245  1  0.45691958  0.91148213  0.93718585  1
  O2-  O246  1  0.96292973  0.41740889  0.26456679  1
  O2-  O247  1  0.96874824  0.41603677  0.59797438  1
  O2-  O248  1  0.96029192  0.41666979  0.93983001  1
  O2-  O249  1  0.95413547  0.91935706  0.26552512  1
  O2-  O250  1  0.95354926  0.91354839  0.60722195  1
  O2-  O251  1  0.94148496  0.91717183  0.93649008  1
  O2-  O252  1  0.33430848  0.29405794  0.27280662  1
  O2-  O253  1  0.32858614  0.29339667  0.59515360  1
  O2-  O254  1  0.32972264  0.29525500  0.93468574  1
  O2-  O255  1  0.33543280  0.78653602  0.26432126  1
  O2-  O256  1  0.33549481  0.78606971  0.60387808  1
  O2-  O257  1  0.33793250  0.79138559  0.93658660  1
  O2-  O258  1  0.83193512  0.29215048  0.26268831  1
  O2-  O259  1  0.83418433  0.29644446  0.59887113  1
  O2-  O260  1  0.83410129  0.30443593  0.93753957  1
  O2-  O261  1  0.83348554  0.78713499  0.26473764  1
  O2-  O262  1  0.84052815  0.78768979  0.60655117  1
  O2-  O263  1  0.83236785  0.78852663  0.93604537  1
  O2-  O264  1  0.41547836  0.04004653  0.06822896  1
  O2-  O265  1  0.41843250  0.04111705  0.40600161  1
  O2-  O266  1  0.41252638  0.04655718  0.73200233  1
  O2-  O267  1  0.42029082  0.55287333  0.06216161  1
  O2-  O268  1  0.41302959  0.54346683  0.39654042  1
  O2-  O269  1  0.41774208  0.54767088  0.72524561  1
  O2-  O270  1  0.91466820  0.04934911  0.06316811  1
  O2-  O271  1  0.91822676  0.05324839  0.39344018  1
  O2-  O272  1  0.91362478  0.04573340  0.73117907  1
  O2-  O273  1  0.91679586  0.54096575  0.07087937  1
  O2-  O274  1  0.92213756  0.54211321  0.40211487  1
  O2-  O275  1  0.91912258  0.53732466  0.73518749  1
  O2-  O276  1  0.29113510  0.16940176  0.06699020  1
  O2-  O277  1  0.29291893  0.16978371  0.40738151  1
  O2-  O278  1  0.29322340  0.16746090  0.72985151  1
  O2-  O279  1  0.29492981  0.66478486  0.06277061  1
  O2-  O280  1  0.29365270  0.66174994  0.39810501  1
  O2-  O281  1  0.29220846  0.65892447  0.73203638  1
  O2-  O282  1  0.80016487  0.17140477  0.05971218  1
  O2-  O283  1  0.79435151  0.16612153  0.39349589  1
  O2-  O284  1  0.80119652  0.17050786  0.72684007  1
  O2-  O285  1  0.78727443  0.66397375  0.07098631  1
  O2-  O286  1  0.79298546  0.66700394  0.40353425  1
  O2-  O287  1  0.79003494  0.66459333  0.73832556  1
