# generated using pymatgen
data_Ca2Al2SiO7
_symmetry_space_group_name_H-M   'P 1'
_cell_length_a   15.46160093
_cell_length_b   15.46088053
_cell_length_c   15.28678007
_cell_angle_alpha   89.98681051
_cell_angle_beta   90.00671776
_cell_angle_gamma   90.00935918
_symmetry_Int_Tables_number   1
_chemical_formula_structural   Ca2Al2SiO7
_chemical_formula_sum   'Ca48 Al48 Si24 O168'
_cell_volume   3654.30406493
_cell_formula_units_Z   24
loop_
 _symmetry_equiv_pos_site_id
 _symmetry_equiv_pos_as_xyz
  1  'x, y, z'
loop_
 _atom_type_symbol
 _atom_type_oxidation_number
  Ca2+  2.0
  Al0+  0.0
  Si0+  0.0
  O2-  -2.0
loop_
 _atom_site_type_symbol
 _atom_site_label
 _atom_site_symmetry_multiplicity
 _atom_site_fract_x
 _atom_site_fract_y
 _atom_site_fract_z
 _atom_site_occupancy
  Ca2+  Ca0  1  0.17105184  0.08427854  0.16894464  1
  Ca2+  Ca1  1  0.16813626  0.08038742  0.50804389  1
  Ca2+  Ca2  1  0.15753035  0.07569800  0.83960363  1
  Ca2+  Ca3  1  0.16456356  0.57976417  0.17583226  1
  Ca2+  Ca4  1  0.16573206  0.57740435  0.50476432  1
  Ca2+  Ca5  1  0.16509191  0.58050408  0.83597822  1
  Ca2+  Ca6  1  0.67872938  0.08893942  0.16774010  1
  Ca2+  Ca7  1  0.67858606  0.08488834  0.50572280  1
  Ca2+  Ca8  1  0.67608834  0.09217424  0.83790574  1
  Ca2+  Ca9  1  0.67149965  0.58043888  0.16802594  1
  Ca2+  Ca10  1  0.66524045  0.58398830  0.50342690  1
  Ca2+  Ca11  1  0.67904260  0.57344594  0.84427251  1
  Ca2+  Ca12  1  0.08001843  0.32797899  0.15633535  1
  Ca2+  Ca13  1  0.08507148  0.33484039  0.50127874  1
  Ca2+  Ca14  1  0.07447851  0.32236073  0.82745796  1
  Ca2+  Ca15  1  0.08527893  0.82485894  0.16396988  1
  Ca2+  Ca16  1  0.07653635  0.83455266  0.49707844  1
  Ca2+  Ca17  1  0.08381214  0.83403374  0.82953404  1
  Ca2+  Ca18  1  0.57929536  0.32915169  0.15593694  1
  Ca2+  Ca19  1  0.58120174  0.32761047  0.50028823  1
  Ca2+  Ca20  1  0.58643575  0.32416363  0.83196365  1
  Ca2+  Ca21  1  0.58148832  0.82935740  0.16583022  1
  Ca2+  Ca22  1  0.57915032  0.82567227  0.49121451  1
  Ca2+  Ca23  1  0.57998070  0.83355544  0.82945259  1
  Ca2+  Ca24  1  0.32142451  0.41888778  0.17815123  1
  Ca2+  Ca25  1  0.31892751  0.42685591  0.50326458  1
  Ca2+  Ca26  1  0.32708659  0.41850556  0.83113944  1
  Ca2+  Ca27  1  0.32760650  0.92749111  0.16547778  1
  Ca2+  Ca28  1  0.32586554  0.92002116  0.50500160  1
  Ca2+  Ca29  1  0.31922419  0.92254841  0.84019267  1
  Ca2+  Ca30  1  0.83292679  0.41584244  0.16182131  1
  Ca2+  Ca31  1  0.83500025  0.41727792  0.50567944  1
  Ca2+  Ca32  1  0.83371950  0.41296941  0.84343883  1
  Ca2+  Ca33  1  0.84024710  0.92825706  0.17129041  1
  Ca2+  Ca34  1  0.84435020  0.92495667  0.50412630  1
  Ca2+  Ca35  1  0.84110304  0.92922815  0.83447042  1
  Ca2+  Ca36  1  0.41939158  0.16083563  0.15734795  1
  Ca2+  Ca37  1  0.42196781  0.16118108  0.49490199  1
  Ca2+  Ca38  1  0.42889242  0.15630826  0.83182120  1
  Ca2+  Ca39  1  0.42031674  0.65938985  0.16575773  1
  Ca2+  Ca40  1  0.41659789  0.66013744  0.49308877  1
  Ca2+  Ca41  1  0.41554665  0.66545347  0.82755250  1
  Ca2+  Ca42  1  0.91955298  0.16891052  0.15645816  1
  Ca2+  Ca43  1  0.92049248  0.16585388  0.50247974  1
  Ca2+  Ca44  1  0.91748721  0.17240111  0.82714681  1
  Ca2+  Ca45  1  0.92809472  0.66782212  0.15989921  1
  Ca2+  Ca46  1  0.92180166  0.68216746  0.48956946  1
  Ca2+  Ca47  1  0.92138630  0.67045503  0.83086127  1
  Al0+  Al48  1  -0.00016904  -0.00364815  0.00779647  1
  Al0+  Al49  1  0.00058673  0.00292965  0.33327159  1
  Al0+  Al50  1  0.00029625  0.00111173  0.66745592  1
  Al0+  Al51  1  0.00051866  0.50161511  -0.00400280  1
  Al0+  Al52  1  -0.00391730  0.49966245  0.33464600  1
  Al0+  Al53  1  0.00035997  0.49982126  0.66742161  1
  Al0+  Al54  1  0.49887846  -0.00194862  -0.00173554  1
  Al0+  Al55  1  0.50267829  -0.00141847  0.33493216  1
  Al0+  Al56  1  0.50156679  -0.00282325  0.65979751  1
  Al0+  Al57  1  0.50108723  0.49899435  0.00021561  1
  Al0+  Al58  1  0.49909894  0.49744793  0.33192276  1
  Al0+  Al59  1  0.50119440  0.49855471  0.67067754  1
  Al0+  Al60  1  0.25105089  0.25112686  -0.00219488  1
  Al0+  Al61  1  0.25080892  0.25073425  0.34247483  1
  Al0+  Al62  1  0.25301565  0.25204972  0.66803541  1
  Al0+  Al63  1  0.25049996  0.75056976  0.00031522  1
  Al0+  Al64  1  0.25129438  0.75238466  0.33202937  1
  Al0+  Al65  1  0.25156724  0.75158274  0.67268026  1
  Al0+  Al66  1  0.74714116  0.25003248  0.00237222  1
  Al0+  Al67  1  0.74985397  0.24937565  0.33791529  1
  Al0+  Al68  1  0.74936867  0.25004628  0.66095147  1
  Al0+  Al69  1  0.75028920  0.74941857  0.00288344  1
  Al0+  Al70  1  0.74784973  0.75133659  0.32420616  1
  Al0+  Al71  1  0.74924072  0.75090752  0.66310799  1
  Al0+  Al72  1  0.07285478  0.17573998  0.98718886  1
  Al0+  Al73  1  0.82155256  0.07143565  0.34922240  1
  Al0+  Al74  1  0.17750863  0.92744153  0.01757559  1
  Al0+  Al75  1  0.92890057  0.31906857  0.98697659  1
  Al0+  Al76  1  0.81876399  0.07037016  0.68069485  1
  Al0+  Al77  1  0.07093621  0.67832818  0.31981303  1
  Al0+  Al78  1  0.32118489  0.57196356  0.34581090  1
  Al0+  Al79  1  0.56973495  0.17816482  0.65062403  1
  Al0+  Al80  1  0.56864609  0.67639110  0.31814026  1
  Al0+  Al81  1  0.17932642  0.93222243  0.67992636  1
  Al0+  Al82  1  0.92928217  0.82481522  0.31567699  1
  Al0+  Al83  1  0.82363040  0.57205692  0.01583099  1
  Al0+  Al84  1  0.32110517  0.07205962  0.01262574  1
  Al0+  Al85  1  0.56874299  0.17819892  0.98769671  1
  Al0+  Al86  1  0.92897765  0.82071293  0.65433374  1
  Al0+  Al87  1  0.32106636  0.57054014  0.68296969  1
  Al0+  Al88  1  0.92855508  0.32248195  0.65026882  1
  Al0+  Al89  1  0.07271734  0.17902259  0.65167260  1
  Al0+  Al90  1  0.81952593  0.07022649  0.01295201  1
  Al0+  Al91  1  0.07262171  0.67994063  0.98494203  1
  Al0+  Al92  1  0.32306618  0.07076697  0.34781756  1
  Al0+  Al93  1  0.17598190  0.42750823  0.68620619  1
  Al0+  Al94  1  0.67878032  0.42840189  0.01549369  1
  Al0+  Al95  1  0.17412005  0.42947966  0.34823653  1
  Si0+  Si96  1  0.92623345  0.82130661  0.98304592  1
  Si0+  Si97  1  0.43053386  0.81892579  0.98379628  1
  Si0+  Si98  1  0.42707825  0.32462312  0.98216305  1
  Si0+  Si99  1  0.67571828  0.92647854  0.01650306  1
  Si0+  Si100  1  0.56998655  0.67837409  0.65330171  1
  Si0+  Si101  1  0.67843641  0.42923343  0.34983166  1
  Si0+  Si102  1  0.07266713  0.18219691  0.31989705  1
  Si0+  Si103  1  0.81848017  0.57278726  0.34840679  1
  Si0+  Si104  1  0.67921536  0.92672964  0.35008418  1
  Si0+  Si105  1  0.82036529  0.57422795  0.67881540  1
  Si0+  Si106  1  0.32613192  0.07221145  0.68195281  1
  Si0+  Si107  1  0.57196746  0.67736928  0.98326067  1
  Si0+  Si108  1  0.92602947  0.32078729  0.31829565  1
  Si0+  Si109  1  0.17883211  0.92958174  0.35094828  1
  Si0+  Si110  1  0.42943980  0.31811057  0.31933225  1
  Si0+  Si111  1  0.17974979  0.43004967  0.01372546  1
  Si0+  Si112  1  0.57130170  0.17847755  0.31745462  1
  Si0+  Si113  1  0.07373190  0.67957255  0.65136098  1
  Si0+  Si114  1  0.42833028  0.82431819  0.31473105  1
  Si0+  Si115  1  0.67667828  0.92591065  0.68217936  1
  Si0+  Si116  1  0.42992185  0.32480466  0.64806688  1
  Si0+  Si117  1  0.68083918  0.42958863  0.68106672  1
  Si0+  Si118  1  0.42832741  0.81933091  0.65074065  1
  Si0+  Si119  1  0.32164729  0.57117779  0.01485779  1
  O2-  O120  1  0.24426440  0.00647771  0.06431672  1
  O2-  O121  1  0.24895649  -0.00321130  0.39550942  1
  O2-  O122  1  0.25114454  0.01093576  0.72557788  1
  O2-  O123  1  0.25165130  0.49997677  0.05688687  1
  O2-  O124  1  0.24202731  0.50788975  0.39506752  1
  O2-  O125  1  0.24711182  0.50211387  0.73463803  1
  O2-  O126  1  0.74529754  -0.00574789  0.05994097  1
  O2-  O127  1  0.75027813  -0.00773314  0.39453425  1
  O2-  O128  1  0.74328203  -0.00446222  0.72665390  1
  O2-  O129  1  0.75098236  0.50002355  0.06571054  1
  O2-  O130  1  0.74718449  0.50236395  0.39244629  1
  O2-  O131  1  0.75517509  0.49781876  0.72123969  1
  O2-  O132  1  0.00148694  0.25361753  0.27818278  1
  O2-  O133  1  0.00350911  0.25357871  0.59992366  1
  O2-  O134  1  -0.00206506  0.24459393  0.93726949  1
  O2-  O135  1  -0.00014334  0.75038546  0.26775218  1
  O2-  O136  1  0.00264577  0.74531577  0.60692875  1
  O2-  O137  1  -0.00353652  0.75387537  0.93936020  1
  O2-  O138  1  0.49685148  0.24498948  0.27484659  1
  O2-  O139  1  0.49152831  0.24932528  0.60345511  1
  O2-  O140  1  0.49306540  0.25196004  0.94014076  1
  O2-  O141  1  0.49203873  0.74977823  0.27139433  1
  O2-  O142  1  0.49778630  0.74654237  0.60892708  1
  O2-  O143  1  0.50148797  0.74790805  0.94007758  1
  O2-  O144  1  0.07411842  0.18141652  0.10161679  1
  O2-  O145  1  0.07265889  0.18133084  0.42475996  1
  O2-  O146  1  0.06744313  0.17672102  0.76478104  1
  O2-  O147  1  0.07368972  0.67933410  0.09793927  1
  O2-  O148  1  0.06773040  0.67836945  0.43360473  1
  O2-  O149  1  0.07299241  0.68187668  0.75705343  1
  O2-  O150  1  0.56752395  0.17977522  0.10123826  1
  O2-  O151  1  0.57129502  0.18078294  0.42263755  1
  O2-  O152  1  0.56986787  0.17948439  0.76364337  1
  O2-  O153  1  0.56953615  0.67711887  0.08829585  1
  O2-  O154  1  0.56884825  0.67768297  0.43190816  1
  O2-  O155  1  0.57042516  0.68058916  0.75832397  1
  O2-  O156  1  0.17747928  0.42550420  0.23412635  1
  O2-  O157  1  0.17709926  0.43161931  0.57252851  1
  O2-  O158  1  0.18134780  0.43131453  0.90919463  1
  O2-  O159  1  0.17959569  0.93106736  0.24563783  1
  O2-  O160  1  0.18286316  0.93029886  0.56658524  1
  O2-  O161  1  0.18117747  0.92507529  0.90391415  1
  O2-  O162  1  0.67862420  0.42755101  0.24528239  1
  O2-  O163  1  0.67759955  0.43266567  0.57537529  1
  O2-  O164  1  0.67699401  0.43091891  0.90156333  1
  O2-  O165  1  0.67479540  0.92945369  0.24464968  1
  O2-  O166  1  0.67501467  0.92342134  0.57679460  1
  O2-  O167  1  0.67402745  0.92497098  0.91082537  1
  O2-  O168  1  0.42820297  0.32748373  0.08807012  1
  O2-  O169  1  0.43364881  0.31845510  0.42414561  1
  O2-  O170  1  0.43519637  0.32934494  0.75335560  1
  O2-  O171  1  0.43242265  0.81830859  0.08877665  1
  O2-  O172  1  0.43218671  0.82703667  0.42047631  1
  O2-  O173  1  0.43153873  0.82061589  0.75586906  1
  O2-  O174  1  0.93152427  0.31906203  0.10135734  1
  O2-  O175  1  0.92322116  0.31988244  0.42309008  1
  O2-  O176  1  0.92400449  0.32026372  0.76326169  1
  O2-  O177  1  0.92485790  0.81964631  0.08840537  1
  O2-  O178  1  0.93099350  0.82351247  0.42979408  1
  O2-  O179  1  0.92687102  0.81780358  0.76713377  1
  O2-  O180  1  0.32276046  0.07097835  0.23506479  1
  O2-  O181  1  0.32869853  0.06613346  0.57610569  1
  O2-  O182  1  0.32782910  0.06556156  0.89964586  1
  O2-  O183  1  0.32445107  0.56463115  0.23205244  1
  O2-  O184  1  0.32349146  0.57000756  0.56973890  1
  O2-  O185  1  0.32289581  0.57041016  0.90989536  1
  O2-  O186  1  0.81768603  0.07440672  0.23622157  1
  O2-  O187  1  0.81749255  0.06854027  0.56748201  1
  O2-  O188  1  0.81749354  0.06997160  0.89991239  1
  O2-  O189  1  0.81845754  0.57011990  0.24382344  1
  O2-  O190  1  0.81439206  0.57654601  0.57343172  1
  O2-  O191  1  0.81990685  0.57383424  0.90160084  1
  O2-  O192  1  0.04507377  0.09078700  0.27236169  1
  O2-  O193  1  0.04081562  0.08210343  0.59721787  1
  O2-  O194  1  0.04756200  0.07405872  0.94102931  1
  O2-  O195  1  0.04023023  0.57936777  0.26766313  1
  O2-  O196  1  0.05076388  0.58468704  0.60808739  1
  O2-  O197  1  0.04161668  0.58457934  0.92907322  1
  O2-  O198  1  0.54814597  0.08474597  0.27236880  1
  O2-  O199  1  0.54339790  0.08036410  0.59537714  1
  O2-  O200  1  0.54000951  0.08116653  0.93256816  1
  O2-  O201  1  0.53916428  0.57940953  0.26361367  1
  O2-  O202  1  0.54453534  0.58537310  0.60687659  1
  O2-  O203  1  0.54365893  0.58579430  0.93547869  1
  O2-  O204  1  0.16561210  0.21000092  0.27454595  1
  O2-  O205  1  0.17481130  0.20245315  0.60243594  1
  O2-  O206  1  0.17094620  0.20455649  0.93382913  1
  O2-  O207  1  0.17125885  0.70408124  0.26835010  1
  O2-  O208  1  0.16740041  0.70780358  0.60708941  1
  O2-  O209  1  0.16975747  0.71036875  0.93134278  1
  O2-  O210  1  0.66220755  0.21195531  0.27198125  1
  O2-  O211  1  0.66302741  0.21449307  0.59409175  1
  O2-  O212  1  0.66365372  0.21193727  0.93323926  1
  O2-  O213  1  0.66328028  0.70808360  0.26135895  1
  O2-  O214  1  0.66013342  0.70722243  0.60300274  1
  O2-  O215  1  0.66410079  0.70540562  0.93683165  1
  O2-  O216  1  0.08841751  0.45883129  0.06045181  1
  O2-  O217  1  0.07421668  0.45229109  0.40086745  1
  O2-  O218  1  0.07652505  0.45451834  0.73785720  1
  O2-  O219  1  0.07853650  0.94622634  0.07211100  1
  O2-  O220  1  0.08620285  0.95845706  0.39654473  1
  O2-  O221  1  0.08302214  0.95971884  0.73502408  1
  O2-  O222  1  0.58049861  0.45881270  0.06903893  1
  O2-  O223  1  0.58649882  0.45591015  0.39749259  1
  O2-  O224  1  0.59141450  0.45991199  0.73083892  1
  O2-  O225  1  0.58262609  0.95214707  0.06320953  1
  O2-  O226  1  0.58720247  0.95450874  0.39885754  1
  O2-  O227  1  0.58194990  0.94995021  0.72717894  1
  O2-  O228  1  0.20712392  0.33827384  0.06165420  1
  O2-  O229  1  0.21042324  0.33541380  0.40491015  1
  O2-  O230  1  0.20885613  0.32966508  0.73837871  1
  O2-  O231  1  0.21666989  0.83217785  0.07105791  1
  O2-  O232  1  0.20313115  0.83548833  0.39656268  1
  O2-  O233  1  0.21385502  0.83772306  0.73550652  1
  O2-  O234  1  0.70468726  0.33114492  0.07113397  1
  O2-  O235  1  0.70841739  0.33882824  0.39907736  1
  O2-  O236  1  0.70607489  0.33673950  0.72608195  1
  O2-  O237  1  0.69897575  0.83250738  0.06304453  1
  O2-  O238  1  0.69974911  0.83070109  0.39379785  1
  O2-  O239  1  0.70186685  0.83225191  0.72919060  1
  O2-  O240  1  0.45996742  0.40783779  0.26953501  1
  O2-  O241  1  0.46592964  0.41473909  0.59986936  1
  O2-  O242  1  0.45757534  0.41624822  0.93381222  1
  O2-  O243  1  0.46299759  0.91461448  0.26628871  1
  O2-  O244  1  0.45785141  0.90872061  0.59939926  1
  O2-  O245  1  0.45958764  0.90898597  0.93390137  1
  O2-  O246  1  0.94702265  0.41471183  0.27259896  1
  O2-  O247  1  0.95268836  0.42348304  0.59834608  1
  O2-  O248  1  0.95704437  0.41728979  0.93442988  1
  O2-  O249  1  0.95945938  0.92342785  0.26436064  1
  O2-  O250  1  0.96215493  0.91594831  0.60023096  1
  O2-  O251  1  0.95228862  0.91537431  0.93904943  1
  O2-  O252  1  0.33572583  0.29335621  0.27425657  1
  O2-  O253  1  0.33392187  0.30724638  0.60498943  1
  O2-  O254  1  0.33331532  0.30341933  0.93570966  1
  O2-  O255  1  0.33310762  0.80677048  0.26995348  1
  O2-  O256  1  0.33653967  0.79257157  0.60330773  1
  O2-  O257  1  0.33987932  0.78941777  0.93576833  1
  O2-  O258  1  0.83509773  0.28852319  0.27116920  1
  O2-  O259  1  0.83086784  0.29346310  0.59511556  1
  O2-  O260  1  0.82853162  0.29433799  0.93708386  1
  O2-  O261  1  0.82913197  0.80118457  0.26491176  1
  O2-  O262  1  0.83204295  0.79128119  0.59824937  1
  O2-  O263  1  0.83215812  0.79573435  0.93702034  1
  O2-  O264  1  0.41737210  0.03561778  0.06730465  1
  O2-  O265  1  0.42052985  0.03950608  0.40064831  1
  O2-  O266  1  0.41775645  0.03730312  0.72706572  1
  O2-  O267  1  0.41467673  0.54481810  0.06043073  1
  O2-  O268  1  0.41750521  0.53586794  0.39973415  1
  O2-  O269  1  0.41979746  0.53995121  0.73661591  1
  O2-  O270  1  0.91479797  0.04046620  0.06977154  1
  O2-  O271  1  0.91956963  0.04389915  0.40190642  1
  O2-  O272  1  0.91436997  0.03825724  0.73393935  1
  O2-  O273  1  0.92200244  0.54296049  0.06802444  1
  O2-  O274  1  0.90873440  0.54458704  0.39795612  1
  O2-  O275  1  0.91431107  0.55379917  0.72362987  1
  O2-  O276  1  0.30158469  0.17372374  0.06351354  1
  O2-  O277  1  0.29512869  0.16653236  0.40415304  1
  O2-  O278  1  0.31398285  0.16985465  0.72227053  1
  O2-  O279  1  0.29582977  0.66305499  0.06186238  1
  O2-  O280  1  0.30606660  0.67516483  0.39373841  1
  O2-  O281  1  0.29794883  0.67014293  0.73597605  1
  O2-  O282  1  0.78598651  0.16501749  0.06861308  1
  O2-  O283  1  0.78534343  0.16579266  0.40472885  1
  O2-  O284  1  0.78467681  0.16756117  0.73114736  1
  O2-  O285  1  0.79196877  0.66913976  0.06982005  1
  O2-  O286  1  0.78936370  0.66578917  0.39290081  1
  O2-  O287  1  0.78628593  0.66311094  0.72820638  1
