# generated using pymatgen
data_Ca2Al2SiO7
_symmetry_space_group_name_H-M   'P 1'
_cell_length_a   15.45959190
_cell_length_b   15.45961137
_cell_length_c   15.28529851
_cell_angle_alpha   90.00205624
_cell_angle_beta   90.01166937
_cell_angle_gamma   89.99846945
_symmetry_Int_Tables_number   1
_chemical_formula_structural   Ca2Al2SiO7
_chemical_formula_sum   'Ca48 Al48 Si24 O168'
_cell_volume   3653.17530096
_cell_formula_units_Z   24
loop_
 _symmetry_equiv_pos_site_id
 _symmetry_equiv_pos_as_xyz
  1  'x, y, z'
loop_
 _atom_type_symbol
 _atom_type_oxidation_number
  Ca2+  2.0
  Al0+  0.0
  Si0+  0.0
  O2-  -2.0
loop_
 _atom_site_type_symbol
 _atom_site_label
 _atom_site_symmetry_multiplicity
 _atom_site_fract_x
 _atom_site_fract_y
 _atom_site_fract_z
 _atom_site_occupancy
  Ca2+  Ca0  1  0.17373722  0.08071094  0.17283164  1
  Ca2+  Ca1  1  0.17147128  0.09277600  0.50009637  1
  Ca2+  Ca2  1  0.16798254  0.07799098  0.83971549  1
  Ca2+  Ca3  1  0.16520213  0.57196671  0.16765972  1
  Ca2+  Ca4  1  0.17621595  0.57429637  0.50468909  1
  Ca2+  Ca5  1  0.17478442  0.58036222  0.84332747  1
  Ca2+  Ca6  1  0.67115689  0.08766748  0.17478483  1
  Ca2+  Ca7  1  0.65759294  0.07444474  0.50092967  1
  Ca2+  Ca8  1  0.66720283  0.08056518  0.84166257  1
  Ca2+  Ca9  1  0.66088428  0.58056917  0.16321779  1
  Ca2+  Ca10  1  0.66189931  0.57730383  0.51070911  1
  Ca2+  Ca11  1  0.66102153  0.57721464  0.83899090  1
  Ca2+  Ca12  1  0.08729239  0.33139316  0.16427003  1
  Ca2+  Ca13  1  0.08522818  0.32348685  0.49226947  1
  Ca2+  Ca14  1  0.08274694  0.32987987  0.82992989  1
  Ca2+  Ca15  1  0.08360412  0.82808786  0.15553827  1
  Ca2+  Ca16  1  0.08090700  0.83089313  0.49663792  1
  Ca2+  Ca17  1  0.08608203  0.82888379  0.83468604  1
  Ca2+  Ca18  1  0.57398542  0.32583972  0.15657866  1
  Ca2+  Ca19  1  0.57283445  0.33371636  0.49427224  1
  Ca2+  Ca20  1  0.57811362  0.33822309  0.82995478  1
  Ca2+  Ca21  1  0.57972335  0.83217372  0.15820775  1
  Ca2+  Ca22  1  0.58669152  0.83327924  0.49980791  1
  Ca2+  Ca23  1  0.57778422  0.82488554  0.82642175  1
  Ca2+  Ca24  1  0.32590499  0.40327946  0.16848615  1
  Ca2+  Ca25  1  0.33464690  0.41445289  0.50556801  1
  Ca2+  Ca26  1  0.33560304  0.41912400  0.83775486  1
  Ca2+  Ca27  1  0.33234988  0.91956728  0.16900154  1
  Ca2+  Ca28  1  0.33985722  0.92626483  0.50394064  1
  Ca2+  Ca29  1  0.33202096  0.91144105  0.83927535  1
  Ca2+  Ca30  1  0.82613108  0.42041339  0.16257104  1
  Ca2+  Ca31  1  0.82367326  0.41617356  0.50490240  1
  Ca2+  Ca32  1  0.81757103  0.41916769  0.84226490  1
  Ca2+  Ca33  1  0.82549243  0.92868667  0.17207240  1
  Ca2+  Ca34  1  0.82039005  0.92232985  0.50048757  1
  Ca2+  Ca35  1  0.82638319  0.92255292  0.83797919  1
  Ca2+  Ca36  1  0.42494764  0.16989184  0.16475500  1
  Ca2+  Ca37  1  0.41866349  0.17757051  0.48943491  1
  Ca2+  Ca38  1  0.42122153  0.17904436  0.83375734  1
  Ca2+  Ca39  1  0.42226966  0.67649763  0.15551436  1
  Ca2+  Ca40  1  0.41829295  0.66865901  0.50538763  1
  Ca2+  Ca41  1  0.42300970  0.67324099  0.82746714  1
  Ca2+  Ca42  1  0.91899044  0.15828051  0.16402806  1
  Ca2+  Ca43  1  0.92781834  0.15895386  0.49521128  1
  Ca2+  Ca44  1  0.92203118  0.16264778  0.83077255  1
  Ca2+  Ca45  1  0.92128659  0.66575900  0.15609608  1
  Ca2+  Ca46  1  0.91573495  0.66927373  0.49539237  1
  Ca2+  Ca47  1  0.92285138  0.65572032  0.83566872  1
  Al0+  Al48  1  0.00045859  -0.00226254  0.00680517  1
  Al0+  Al49  1  -0.00143985  -0.00211762  0.33205336  1
  Al0+  Al50  1  0.00135200  -0.00160880  0.66170470  1
  Al0+  Al51  1  0.00054606  0.49886947  0.00203037  1
  Al0+  Al52  1  0.00108496  0.49878229  0.33939856  1
  Al0+  Al53  1  0.00050615  0.49806819  0.66288260  1
  Al0+  Al54  1  0.49872336  0.00229492  -0.00776038  1
  Al0+  Al55  1  0.49853580  -0.00019079  0.33756319  1
  Al0+  Al56  1  0.49910701  0.00021922  0.67166022  1
  Al0+  Al57  1  0.49845042  0.50139381  -0.00016670  1
  Al0+  Al58  1  0.49804331  0.50256833  0.32817915  1
  Al0+  Al59  1  0.49844252  0.50146723  0.66702511  1
  Al0+  Al60  1  0.25075741  0.24846084  -0.00096791  1
  Al0+  Al61  1  0.24673480  0.24876381  0.33353052  1
  Al0+  Al62  1  0.25001602  0.24886715  0.66132580  1
  Al0+  Al63  1  0.24739884  0.74908477  -0.00212844  1
  Al0+  Al64  1  0.25031814  0.74728865  0.33366581  1
  Al0+  Al65  1  0.25064463  0.74990957  0.66468455  1
  Al0+  Al66  1  0.75209617  0.25045145  0.00499922  1
  Al0+  Al67  1  0.75325171  0.25254789  0.33695064  1
  Al0+  Al68  1  0.75186649  0.24987875  0.67027534  1
  Al0+  Al69  1  0.75148884  0.75213851  -0.00074575  1
  Al0+  Al70  1  0.75097890  0.75096456  0.33485963  1
  Al0+  Al71  1  0.75188114  0.75104540  0.66787764  1
  Al0+  Al72  1  0.06867131  0.67709424  0.98669562  1
  Al0+  Al73  1  0.57241395  0.17839701  0.32102240  1
  Al0+  Al74  1  0.67899017  0.42957040  0.67890001  1
  Al0+  Al75  1  0.43112916  0.32081479  0.65276359  1
  Al0+  Al76  1  0.57356371  0.68012147  0.98492942  1
  Al0+  Al77  1  0.67524042  0.42990014  0.01686460  1
  Al0+  Al78  1  0.18041273  0.92782481  0.01282751  1
  Al0+  Al79  1  0.82071418  0.07114646  0.01318215  1
  Al0+  Al80  1  0.67823085  0.92953740  0.68350780  1
  Al0+  Al81  1  0.42771747  0.82286022  0.64909280  1
  Al0+  Al82  1  0.67804419  0.92922509  0.34782424  1
  Al0+  Al83  1  0.06825492  0.17829826  0.31660565  1
  Al0+  Al84  1  0.57181559  0.68059259  0.65096305  1
  Al0+  Al85  1  0.42740104  0.82228011  0.98553810  1
  Al0+  Al86  1  0.82246315  0.07405309  0.35071528  1
  Al0+  Al87  1  0.18029241  0.42927208  0.34866567  1
  Al0+  Al88  1  0.31894463  0.57090813  0.68145430  1
  Al0+  Al89  1  0.31870236  0.06918303  0.34672359  1
  Al0+  Al90  1  0.42745457  0.32050145  0.98407153  1
  Al0+  Al91  1  0.06942788  0.17872096  0.65369168  1
  Al0+  Al92  1  0.57531361  0.18025426  0.98461896  1
  Al0+  Al93  1  0.42824880  0.32257574  0.31717433  1
  Al0+  Al94  1  0.18022237  0.42755993  0.01229081  1
  Al0+  Al95  1  0.82085908  0.57226881  0.01384262  1
  Si0+  Si96  1  0.67689324  0.43153571  0.34754435  1
  Si0+  Si97  1  0.93040493  0.82065868  0.65030482  1
  Si0+  Si98  1  0.32320449  0.57454696  0.35083078  1
  Si0+  Si99  1  0.92848744  0.32554847  0.31523884  1
  Si0+  Si100  1  0.92862839  0.81867082  0.31692948  1
  Si0+  Si101  1  0.07030473  0.17685212  0.98667067  1
  Si0+  Si102  1  0.57451765  0.17790352  0.65170027  1
  Si0+  Si103  1  0.32014689  0.07297048  0.68282181  1
  Si0+  Si104  1  0.07055785  0.67801802  0.31926155  1
  Si0+  Si105  1  0.92670225  0.32243842  0.64965170  1
  Si0+  Si106  1  0.82093481  0.57107592  0.34848990  1
  Si0+  Si107  1  0.92955833  0.82366974  0.98280251  1
  Si0+  Si108  1  0.82472628  0.06951648  0.68300042  1
  Si0+  Si109  1  0.17843861  0.92920216  0.68023679  1
  Si0+  Si110  1  0.32202785  0.07199260  0.01595306  1
  Si0+  Si111  1  0.17799006  0.42625499  0.68310983  1
  Si0+  Si112  1  0.67600751  0.92992542  0.01472558  1
  Si0+  Si113  1  0.57302602  0.68001917  0.31820217  1
  Si0+  Si114  1  0.82479876  0.57273241  0.68200398  1
  Si0+  Si115  1  0.17790170  0.92431443  0.35032144  1
  Si0+  Si116  1  0.42828299  0.82099444  0.31959891  1
  Si0+  Si117  1  0.07178838  0.67702655  0.65020350  1
  Si0+  Si118  1  0.93043812  0.32120589  0.98586033  1
  Si0+  Si119  1  0.32095697  0.57252569  0.01739966  1
  O2-  O120  1  0.25696709  -0.00065035  0.05966142  1
  O2-  O121  1  0.24443537  -0.00622877  0.39574579  1
  O2-  O122  1  0.25089480  -0.00163220  0.72273740  1
  O2-  O123  1  0.25697994  0.49909931  0.06121663  1
  O2-  O124  1  0.25872633  0.50087381  0.39355619  1
  O2-  O125  1  0.24369604  0.49639516  0.72809169  1
  O2-  O126  1  0.74102721  0.00164170  0.05941059  1
  O2-  O127  1  0.74505776  0.00646093  0.39860890  1
  O2-  O128  1  0.75085813  0.00765236  0.72819188  1
  O2-  O129  1  0.74490623  0.50593967  0.06591903  1
  O2-  O130  1  0.74784476  0.50293519  0.39086306  1
  O2-  O131  1  0.75501452  0.50472370  0.72368066  1
  O2-  O132  1  -0.00816738  0.25183290  0.27065115  1
  O2-  O133  1  -0.00457425  0.25372257  0.60614687  1
  O2-  O134  1  -0.00012047  0.24790365  0.94392752  1
  O2-  O135  1  0.00210980  0.75004707  0.27543580  1
  O2-  O136  1  -0.00199672  0.74542515  0.60792750  1
  O2-  O137  1  -0.00663388  0.75048398  0.93780271  1
  O2-  O138  1  0.50319056  0.25228748  0.26976486  1
  O2-  O139  1  0.50774932  0.24776995  0.60675477  1
  O2-  O140  1  0.50576888  0.25492922  0.93465041  1
  O2-  O141  1  0.50144504  0.75168788  0.27831825  1
  O2-  O142  1  0.50293061  0.75447721  0.59833736  1
  O2-  O143  1  0.50138363  0.75239271  0.93611158  1
  O2-  O144  1  0.06985354  0.17706484  0.09145182  1
  O2-  O145  1  0.06802419  0.18022238  0.42998716  1
  O2-  O146  1  0.06773198  0.17700608  0.76732037  1
  O2-  O147  1  0.06768786  0.67846286  0.10021721  1
  O2-  O148  1  0.06839585  0.67974709  0.42485024  1
  O2-  O149  1  0.07119302  0.67647018  0.75497323  1
  O2-  O150  1  0.57371469  0.17894644  0.09823704  1
  O2-  O151  1  0.56828166  0.17998443  0.43503758  1
  O2-  O152  1  0.57393256  0.17946720  0.75710373  1
  O2-  O153  1  0.57177354  0.68386085  0.09964011  1
  O2-  O154  1  0.57470347  0.67794911  0.42296680  1
  O2-  O155  1  0.57087515  0.68104957  0.76373469  1
  O2-  O156  1  0.17747901  0.43241986  0.23562979  1
  O2-  O157  1  0.17788914  0.42792026  0.57739406  1
  O2-  O158  1  0.17875641  0.42856171  0.89910321  1
  O2-  O159  1  0.18038276  0.92123752  0.24496104  1
  O2-  O160  1  0.17582404  0.92940533  0.57510799  1
  O2-  O161  1  0.17718235  0.93141494  0.89923431  1
  O2-  O162  1  0.67774135  0.43375459  0.24304660  1
  O2-  O163  1  0.68094258  0.43093926  0.56498729  1
  O2-  O164  1  0.67842185  0.42889052  0.90323008  1
  O2-  O165  1  0.68121505  0.92344979  0.23458517  1
  O2-  O166  1  0.68091365  0.92956916  0.57042630  1
  O2-  O167  1  0.68013957  0.93015300  0.90911065  1
  O2-  O168  1  0.42392396  0.31399312  0.09726314  1
  O2-  O169  1  0.43085907  0.32405176  0.43116054  1
  O2-  O170  1  0.42836925  0.31923917  0.76538601  1
  O2-  O171  1  0.42787274  0.82128818  0.10015771  1
  O2-  O172  1  0.42559115  0.81905740  0.42424087  1
  O2-  O173  1  0.42500040  0.81976140  0.76195117  1
  O2-  O174  1  0.93198247  0.32284104  0.09079909  1
  O2-  O175  1  0.93158924  0.33025806  0.42093155  1
  O2-  O176  1  0.92796287  0.32424583  0.75519642  1
  O2-  O177  1  0.93315516  0.82441759  0.08852079  1
  O2-  O178  1  0.92892317  0.81559673  0.42258656  1
  O2-  O179  1  0.93384592  0.82436364  0.75489403  1
  O2-  O180  1  0.31811000  0.06527208  0.23373867  1
  O2-  O181  1  0.31827466  0.07380824  0.57763556  1
  O2-  O182  1  0.31715587  0.07484666  0.91014425  1
  O2-  O183  1  0.32006204  0.58293798  0.24602975  1
  O2-  O184  1  0.31587989  0.57052332  0.56793839  1
  O2-  O185  1  0.31699523  0.57411661  0.91181826  1
  O2-  O186  1  0.82396286  0.06789446  0.23733324  1
  O2-  O187  1  0.82840733  0.06557640  0.57795694  1
  O2-  O188  1  0.82577627  0.06674897  0.89985439  1
  O2-  O189  1  0.82306585  0.57183810  0.24409082  1
  O2-  O190  1  0.82673004  0.57161854  0.57569140  1
  O2-  O191  1  0.82499622  0.56518437  0.90049464  1
  O2-  O192  1  0.04103107  0.07920888  0.26489087  1
  O2-  O193  1  0.03945924  0.08266583  0.59717623  1
  O2-  O194  1  0.04040820  0.08505623  0.94008960  1
  O2-  O195  1  0.03997285  0.58634239  0.27424211  1
  O2-  O196  1  0.04638194  0.58460376  0.60143246  1
  O2-  O197  1  0.03804045  0.58110314  0.93088791  1
  O2-  O198  1  0.54279045  0.07922843  0.26968352  1
  O2-  O199  1  0.54586095  0.08427531  0.60831540  1
  O2-  O200  1  0.54419577  0.08387275  0.92914280  1
  O2-  O201  1  0.54440447  0.58977034  0.26847521  1
  O2-  O202  1  0.53875283  0.58371607  0.59731262  1
  O2-  O203  1  0.54538892  0.58120883  0.93468917  1
  O2-  O204  1  0.16403234  0.21034571  0.26307391  1
  O2-  O205  1  0.16469141  0.20958481  0.59770311  1
  O2-  O206  1  0.16150530  0.20377430  0.93824418  1
  O2-  O207  1  0.16324624  0.70306381  0.27264361  1
  O2-  O208  1  0.16081641  0.70930472  0.60080653  1
  O2-  O209  1  0.16308443  0.71006674  0.93067556  1
  O2-  O210  1  0.67419863  0.20336889  0.27367775  1
  O2-  O211  1  0.67045051  0.19861493  0.60794777  1
  O2-  O212  1  0.67641758  0.20347102  0.93449747  1
  O2-  O213  1  0.66539461  0.70729198  0.27162392  1
  O2-  O214  1  0.67321574  0.70504065  0.60010528  1
  O2-  O215  1  0.67326778  0.70538126  0.93295577  1
  O2-  O216  1  0.08553157  0.46090350  0.06800342  1
  O2-  O217  1  0.08569100  0.46396217  0.40598018  1
  O2-  O218  1  0.08208702  0.44961255  0.72599187  1
  O2-  O219  1  0.08610358  0.95951378  0.07040942  1
  O2-  O220  1  0.08269213  0.94732178  0.39374045  1
  O2-  O221  1  0.08727293  0.95887346  0.72815282  1
  O2-  O222  1  0.57641166  0.45634825  0.07023975  1
  O2-  O223  1  0.58478770  0.46143182  0.39358103  1
  O2-  O224  1  0.58346404  0.46139952  0.73236320  1
  O2-  O225  1  0.58007273  0.95154198  0.05715757  1
  O2-  O226  1  0.57899746  0.95172679  0.40214458  1
  O2-  O227  1  0.58094190  0.95668683  0.73740699  1
  O2-  O228  1  0.20819921  0.32977510  0.06616364  1
  O2-  O229  1  0.20635809  0.33176172  0.40199625  1
  O2-  O230  1  0.20389103  0.33210724  0.72717132  1
  O2-  O231  1  0.20659228  0.83019285  0.06736938  1
  O2-  O232  1  0.20321363  0.83045882  0.39724128  1
  O2-  O233  1  0.20359234  0.83640034  0.72663476  1
  O2-  O234  1  0.71105540  0.33420499  0.07049798  1
  O2-  O235  1  0.70519305  0.34095413  0.39670524  1
  O2-  O236  1  0.71013406  0.33332284  0.73421422  1
  O2-  O237  1  0.70447653  0.83750221  0.06141630  1
  O2-  O238  1  0.71466343  0.83285130  0.40283968  1
  O2-  O239  1  0.71471419  0.83398266  0.73610718  1
  O2-  O240  1  0.45164557  0.42272154  0.26466317  1
  O2-  O241  1  0.45935137  0.41767701  0.59868005  1
  O2-  O242  1  0.44846127  0.42216219  0.93612558  1
  O2-  O243  1  0.45349658  0.91304228  0.27274217  1
  O2-  O244  1  0.45393641  0.92398449  0.60059579  1
  O2-  O245  1  0.44887141  0.92143618  0.93194497  1
  O2-  O246  1  0.96056122  0.41755938  0.26897134  1
  O2-  O247  1  0.95117710  0.41579488  0.60091381  1
  O2-  O248  1  0.96189362  0.41029977  0.93601188  1
  O2-  O249  1  0.95434312  0.91045614  0.26974076  1
  O2-  O250  1  0.96366339  0.90877979  0.59892025  1
  O2-  O251  1  0.96281532  0.91448769  0.93517798  1
  O2-  O252  1  0.32976099  0.29034637  0.26841897  1
  O2-  O253  1  0.33497785  0.28828038  0.59819106  1
  O2-  O254  1  0.33093994  0.28629951  0.92885632  1
  O2-  O255  1  0.33668886  0.79084636  0.27179345  1
  O2-  O256  1  0.32942759  0.79249911  0.59524049  1
  O2-  O257  1  0.32920915  0.79208290  0.93327819  1
  O2-  O258  1  0.83252977  0.30693792  0.27201561  1
  O2-  O259  1  0.83316409  0.29718192  0.60296628  1
  O2-  O260  1  0.83880901  0.29432607  0.93838500  1
  O2-  O261  1  0.83838395  0.78777144  0.26871865  1
  O2-  O262  1  0.83891186  0.79431158  0.60184245  1
  O2-  O263  1  0.83465306  0.80451661  0.93781076  1
  O2-  O264  1  0.41708173  0.04930528  0.05973905  1
  O2-  O265  1  0.41377035  0.03923348  0.40385274  1
  O2-  O266  1  0.41181691  0.04893718  0.73125041  1
  O2-  O267  1  0.41598892  0.55426311  0.06236936  1
  O2-  O268  1  0.41873030  0.55306453  0.39469934  1
  O2-  O269  1  0.41496167  0.54105270  0.73501821  1
  O2-  O270  1  0.91443958  0.03459561  0.06986814  1
  O2-  O271  1  0.91904646  0.03593498  0.40314779  1
  O2-  O272  1  0.91651321  0.03631628  0.72955593  1
  O2-  O273  1  0.91717200  0.53824847  0.06896983  1
  O2-  O274  1  0.91144185  0.54237303  0.39888029  1
  O2-  O275  1  0.91916037  0.54556444  0.72658663  1
  O2-  O276  1  0.29023454  0.16221112  0.06432345  1
  O2-  O277  1  0.28481446  0.16429028  0.40163162  1
  O2-  O278  1  0.28661245  0.16280485  0.73058293  1
  O2-  O279  1  0.28857848  0.66363647  0.06461088  1
  O2-  O280  1  0.29116245  0.66483052  0.40148200  1
  O2-  O281  1  0.28574257  0.66756281  0.73412445  1
  O2-  O282  1  0.79969950  0.16884974  0.06855915  1
  O2-  O283  1  0.80677103  0.17604426  0.40164046  1
  O2-  O284  1  0.80786992  0.16609215  0.72609889  1
  O2-  O285  1  0.80205996  0.67426439  0.06455468  1
  O2-  O286  1  0.79563304  0.66346195  0.39647503  1
  O2-  O287  1  0.80505777  0.66741811  0.72698059  1
