# generated using pymatgen
data_Ca2Al2SiO7
_symmetry_space_group_name_H-M   'P 1'
_cell_length_a   15.46066027
_cell_length_b   15.45904257
_cell_length_c   15.28381135
_cell_angle_alpha   90.01279185
_cell_angle_beta   89.99803777
_cell_angle_gamma   90.00895430
_symmetry_Int_Tables_number   1
_chemical_formula_structural   Ca2Al2SiO7
_chemical_formula_sum   'Ca48 Al48 Si24 O168'
_cell_volume   3652.93784442
_cell_formula_units_Z   24
loop_
 _symmetry_equiv_pos_site_id
 _symmetry_equiv_pos_as_xyz
  1  'x, y, z'
loop_
 _atom_type_symbol
 _atom_type_oxidation_number
  Ca2+  2.0
  Al0+  0.0
  Si0+  0.0
  O2-  -2.0
loop_
 _atom_site_type_symbol
 _atom_site_label
 _atom_site_symmetry_multiplicity
 _atom_site_fract_x
 _atom_site_fract_y
 _atom_site_fract_z
 _atom_site_occupancy
  Ca2+  Ca0  1  0.16365499  0.07632342  0.16428763  1
  Ca2+  Ca1  1  0.16101743  0.07416576  0.50367082  1
  Ca2+  Ca2  1  0.16334745  0.07685544  0.84153305  1
  Ca2+  Ca3  1  0.15985030  0.57775425  0.16483692  1
  Ca2+  Ca4  1  0.16830609  0.57388018  0.50539538  1
  Ca2+  Ca5  1  0.15804504  0.57227440  0.84177492  1
  Ca2+  Ca6  1  0.67676757  0.07983277  0.16624776  1
  Ca2+  Ca7  1  0.67765058  0.08114509  0.50518823  1
  Ca2+  Ca8  1  0.67468009  0.07418790  0.84278855  1
  Ca2+  Ca9  1  0.67876494  0.58707622  0.17120209  1
  Ca2+  Ca10  1  0.67024203  0.58125135  0.50140162  1
  Ca2+  Ca11  1  0.67502995  0.57702855  0.83751986  1
  Ca2+  Ca12  1  0.07376538  0.32770422  0.15379508  1
  Ca2+  Ca13  1  0.08304514  0.32605090  0.49678986  1
  Ca2+  Ca14  1  0.08453188  0.32405398  0.83352608  1
  Ca2+  Ca15  1  0.08292927  0.83144888  0.16088114  1
  Ca2+  Ca16  1  0.07404740  0.84052300  0.49608168  1
  Ca2+  Ca17  1  0.08284900  0.83207118  0.82762648  1
  Ca2+  Ca18  1  0.56957615  0.33469920  0.16079882  1
  Ca2+  Ca19  1  0.57966962  0.33739613  0.49308907  1
  Ca2+  Ca20  1  0.57972024  0.33534679  0.83079290  1
  Ca2+  Ca21  1  0.58312675  0.83114124  0.15879491  1
  Ca2+  Ca22  1  0.58700105  0.82823768  0.49443434  1
  Ca2+  Ca23  1  0.57927791  0.84526290  0.83214320  1
  Ca2+  Ca24  1  0.32709872  0.40602257  0.16673078  1
  Ca2+  Ca25  1  0.33088427  0.41641629  0.50576107  1
  Ca2+  Ca26  1  0.32078541  0.41337173  0.84038250  1
  Ca2+  Ca27  1  0.32380513  0.91445428  0.16470949  1
  Ca2+  Ca28  1  0.31858028  0.91485467  0.50493267  1
  Ca2+  Ca29  1  0.32314956  0.92200627  0.84667376  1
  Ca2+  Ca30  1  0.84620411  0.42701726  0.17083242  1
  Ca2+  Ca31  1  0.83511120  0.42364421  0.50181033  1
  Ca2+  Ca32  1  0.83285227  0.41869947  0.84300597  1
  Ca2+  Ca33  1  0.84102406  0.93010590  0.17068345  1
  Ca2+  Ca34  1  0.83512535  0.91745235  0.50345539  1
  Ca2+  Ca35  1  0.82524402  0.91605864  0.83991214  1
  Ca2+  Ca36  1  0.41236947  0.17234787  0.15791737  1
  Ca2+  Ca37  1  0.42115830  0.17370979  0.49414944  1
  Ca2+  Ca38  1  0.40951078  0.16812288  0.83657812  1
  Ca2+  Ca39  1  0.42545194  0.67215348  0.16015515  1
  Ca2+  Ca40  1  0.42642064  0.66648862  0.49192417  1
  Ca2+  Ca41  1  0.41552182  0.67513837  0.83459622  1
  Ca2+  Ca42  1  0.91431941  0.17445038  0.15885475  1
  Ca2+  Ca43  1  0.92124107  0.16953171  0.49344669  1
  Ca2+  Ca44  1  0.92803325  0.15971317  0.83410418  1
  Ca2+  Ca45  1  0.91602708  0.67092706  0.16041477  1
  Ca2+  Ca46  1  0.91162273  0.67962943  0.49406997  1
  Ca2+  Ca47  1  0.91960922  0.66967817  0.83500923  1
  Al0+  Al48  1  -0.00208527  -0.00013281  0.00365628  1
  Al0+  Al49  1  -0.00015033  -0.00040250  0.33786232  1
  Al0+  Al50  1  0.00128319  0.00079195  0.66166811  1
  Al0+  Al51  1  -0.00055715  0.50094807  0.00007076  1
  Al0+  Al52  1  0.00039049  0.50012269  0.33949072  1
  Al0+  Al53  1  0.00110928  0.50091118  0.66942950  1
  Al0+  Al54  1  0.49898910  0.00019098  0.00412956  1
  Al0+  Al55  1  0.49859410  0.00009254  0.33411314  1
  Al0+  Al56  1  0.50055454  0.00222619  0.66485888  1
  Al0+  Al57  1  0.49948952  0.50072377  -0.00658284  1
  Al0+  Al58  1  0.49951893  0.50087572  0.32344551  1
  Al0+  Al59  1  0.50152852  0.50195287  0.67065970  1
  Al0+  Al60  1  0.24852272  0.24956043  -0.00012739  1
  Al0+  Al61  1  0.25059760  0.24746132  0.33191189  1
  Al0+  Al62  1  0.24992548  0.25100629  0.66342764  1
  Al0+  Al63  1  0.25149799  0.74733859  -0.00526690  1
  Al0+  Al64  1  0.25033124  0.74784327  0.34034669  1
  Al0+  Al65  1  0.25073557  0.74987000  0.66745417  1
  Al0+  Al66  1  0.74611993  0.25079253  0.00001318  1
  Al0+  Al67  1  0.74970421  0.24977501  0.33382348  1
  Al0+  Al68  1  0.74977940  0.25163966  0.67014212  1
  Al0+  Al69  1  0.74910813  0.74632758  0.00482344  1
  Al0+  Al70  1  0.75165025  0.74980738  0.32822796  1
  Al0+  Al71  1  0.74933408  0.75061047  0.66711142  1
  Al0+  Al72  1  0.42926067  0.31957722  0.31980282  1
  Al0+  Al73  1  0.07097806  0.68014661  0.98752838  1
  Al0+  Al74  1  0.18066600  0.92801858  0.34852684  1
  Al0+  Al75  1  0.18013737  0.42981340  0.01441411  1
  Al0+  Al76  1  0.17985810  0.42901374  0.68050460  1
  Al0+  Al77  1  0.42810361  0.32095544  0.98331631  1
  Al0+  Al78  1  0.92948321  0.81891487  0.65426617  1
  Al0+  Al79  1  0.17852377  0.92984826  0.68115820  1
  Al0+  Al80  1  0.67922720  0.92911685  0.67849216  1
  Al0+  Al81  1  0.07106135  0.18054084  0.65097721  1
  Al0+  Al82  1  0.17732867  0.92489992  0.01409765  1
  Al0+  Al83  1  0.82196840  0.57196124  0.34871479  1
  Al0+  Al84  1  0.43094938  0.82130925  0.98654191  1
  Al0+  Al85  1  0.82066466  0.56751151  0.01408201  1
  Al0+  Al86  1  0.67895913  0.42893955  0.67961105  1
  Al0+  Al87  1  0.92653054  0.32250349  0.98496140  1
  Al0+  Al88  1  0.82142066  0.07216107  0.01458107  1
  Al0+  Al89  1  0.92972560  0.32172478  0.32186576  1
  Al0+  Al90  1  0.57145409  0.68085784  0.31888578  1
  Al0+  Al91  1  0.81997618  0.07263841  0.34914768  1
  Al0+  Al92  1  0.06903963  0.17756486  0.98600903  1
  Al0+  Al93  1  0.67822439  0.92791639  0.01589818  1
  Al0+  Al94  1  0.93117864  0.82127482  0.31845913  1
  Al0+  Al95  1  0.31936716  0.07130093  0.01507846  1
  Si0+  Si96  1  0.57299931  0.17608169  0.31659449  1
  Si0+  Si97  1  0.17969140  0.42708415  0.34837051  1
  Si0+  Si98  1  0.32371689  0.57208813  0.68397334  1
  Si0+  Si99  1  0.67456815  0.42794768  0.01757344  1
  Si0+  Si100  1  0.57066881  0.17773397  0.98196429  1
  Si0+  Si101  1  0.42560973  0.82178081  0.31881544  1
  Si0+  Si102  1  0.56922938  0.67976862  0.65172795  1
  Si0+  Si103  1  0.57323168  0.17909084  0.65121410  1
  Si0+  Si104  1  0.82261431  0.07283865  0.68261811  1
  Si0+  Si105  1  0.43138639  0.32163486  0.65203820  1
  Si0+  Si106  1  0.07389399  0.67608131  0.64858549  1
  Si0+  Si107  1  0.32268182  0.07203736  0.68119079  1
  Si0+  Si108  1  0.32300230  0.07354443  0.35229514  1
  Si0+  Si109  1  0.92684055  0.82192045  0.98491372  1
  Si0+  Si110  1  0.92616690  0.32398558  0.65016419  1
  Si0+  Si111  1  0.82132282  0.57271721  0.68301389  1
  Si0+  Si112  1  0.57418259  0.67830928  0.97944442  1
  Si0+  Si113  1  0.42833762  0.82343752  0.65042183  1
  Si0+  Si114  1  0.67735469  0.92797052  0.34928053  1
  Si0+  Si115  1  0.67594879  0.43042575  0.34683740  1
  Si0+  Si116  1  0.32386325  0.57153797  0.01695443  1
  Si0+  Si117  1  0.07397927  0.67699234  0.31959929  1
  Si0+  Si118  1  0.32279790  0.56907791  0.34741103  1
  Si0+  Si119  1  0.07146039  0.17748650  0.31622527  1
  O2-  O120  1  0.24795573  -0.00157460  0.06423949  1
  O2-  O121  1  0.25626616  0.00284285  0.39554667  1
  O2-  O122  1  0.25538216  0.00277311  0.72557588  1
  O2-  O123  1  0.25673775  0.50238907  0.06263876  1
  O2-  O124  1  0.25279026  0.49704620  0.38997209  1
  O2-  O125  1  0.25150053  0.50710037  0.72683351  1
  O2-  O126  1  0.75287070  -0.00321286  0.06538766  1
  O2-  O127  1  0.74397003  -0.00215305  0.39483442  1
  O2-  O128  1  0.75396787  0.00315611  0.72495714  1
  O2-  O129  1  0.74725042  0.49149406  0.06176293  1
  O2-  O130  1  0.74704478  0.49562560  0.39319901  1
  O2-  O131  1  0.75842343  0.49805570  0.72603940  1
  O2-  O132  1  0.00341093  0.24719421  0.27398742  1
  O2-  O133  1  -0.00475930  0.25577062  0.60570588  1
  O2-  O134  1  -0.00478938  0.24765596  0.93478032  1
  O2-  O135  1  0.00659703  0.74596677  0.27494761  1
  O2-  O136  1  0.00590380  0.74560906  0.60537900  1
  O2-  O137  1  0.00033138  0.75856388  0.94029237  1
  O2-  O138  1  0.50246702  0.24353172  0.27348354  1
  O2-  O139  1  0.50391232  0.25255366  0.60908868  1
  O2-  O140  1  0.50298419  0.24696462  0.93587645  1
  O2-  O141  1  0.49930871  0.75909129  0.27454781  1
  O2-  O142  1  0.49930092  0.75187241  0.60852548  1
  O2-  O143  1  0.50807864  0.75014899  0.93614639  1
  O2-  O144  1  0.06966402  0.17995912  0.09969078  1
  O2-  O145  1  0.07227951  0.18012254  0.42246913  1
  O2-  O146  1  0.07204277  0.17947075  0.76332236  1
  O2-  O147  1  0.06905771  0.67913982  0.10090007  1
  O2-  O148  1  0.07443454  0.67638213  0.42546163  1
  O2-  O149  1  0.07347701  0.67469364  0.75390629  1
  O2-  O150  1  0.57031323  0.18003088  0.08761836  1
  O2-  O151  1  0.57182697  0.17729211  0.42293726  1
  O2-  O152  1  0.57234290  0.17720900  0.75566390  1
  O2-  O153  1  0.57193216  0.67639828  0.08503730  1
  O2-  O154  1  0.56851068  0.67942939  0.43302194  1
  O2-  O155  1  0.56752625  0.67807864  0.75623422  1
  O2-  O156  1  0.17929580  0.42791192  0.24376439  1
  O2-  O157  1  0.18434509  0.42933350  0.56645984  1
  O2-  O158  1  0.18136916  0.43090909  0.90121150  1
  O2-  O159  1  0.18284173  0.92521818  0.23616458  1
  O2-  O160  1  0.18019882  0.93062166  0.56771792  1
  O2-  O161  1  0.17918426  0.92565878  0.90026777  1
  O2-  O162  1  0.67287173  0.43347274  0.24187070  1
  O2-  O163  1  0.67438820  0.43287363  0.56638648  1
  O2-  O164  1  0.67343867  0.43166879  0.91153642  1
  O2-  O165  1  0.67616763  0.92983933  0.24435814  1
  O2-  O166  1  0.67883449  0.92994910  0.56520547  1
  O2-  O167  1  0.67951442  0.93046573  0.90163371  1
  O2-  O168  1  0.43015056  0.32032817  0.09659377  1
  O2-  O169  1  0.43100091  0.32066845  0.43389292  1
  O2-  O170  1  0.43119562  0.32055160  0.75660267  1
  O2-  O171  1  0.43093203  0.81673063  0.09984110  1
  O2-  O172  1  0.42539179  0.81819126  0.42500509  1
  O2-  O173  1  0.42874890  0.82361833  0.75515089  1
  O2-  O174  1  0.93061405  0.32324629  0.09882600  1
  O2-  O175  1  0.93305884  0.32215474  0.43554174  1
  O2-  O176  1  0.92499033  0.32401814  0.75510583  1
  O2-  O177  1  0.92683694  0.81964599  0.09049055  1
  O2-  O178  1  0.93055058  0.82023659  0.43216570  1
  O2-  O179  1  0.92788531  0.81616935  0.76710491  1
  O2-  O180  1  0.32330299  0.07639310  0.24757720  1
  O2-  O181  1  0.32453192  0.07056141  0.57532203  1
  O2-  O182  1  0.31919041  0.06948760  0.90088777  1
  O2-  O183  1  0.32264817  0.57140397  0.24302784  1
  O2-  O184  1  0.32723779  0.56931206  0.57769999  1
  O2-  O185  1  0.32389458  0.57041128  0.91111299  1
  O2-  O186  1  0.81910512  0.07328582  0.23678046  1
  O2-  O187  1  0.81967905  0.07431720  0.57667402  1
  O2-  O188  1  0.82028941  0.06986593  0.90050265  1
  O2-  O189  1  0.82278933  0.57098067  0.23617603  1
  O2-  O190  1  0.81829889  0.57384548  0.57720372  1
  O2-  O191  1  0.81802794  0.56877492  0.90045326  1
  O2-  O192  1  0.04568613  0.08359566  0.27344155  1
  O2-  O193  1  0.03979077  0.08520922  0.59440546  1
  O2-  O194  1  0.04109033  0.07816537  0.93300620  1
  O2-  O195  1  0.04826230  0.58283779  0.27547932  1
  O2-  O196  1  0.04840213  0.58208689  0.60206537  1
  O2-  O197  1  0.03448452  0.58636736  0.93141662  1
  O2-  O198  1  0.54874835  0.08161117  0.27183696  1
  O2-  O199  1  0.54299175  0.08929371  0.59995469  1
  O2-  O200  1  0.54395683  0.08432910  0.93660948  1
  O2-  O201  1  0.53723717  0.58754820  0.26162259  1
  O2-  O202  1  0.53899628  0.58855252  0.60284354  1
  O2-  O203  1  0.54461604  0.58652105  0.93123385  1
  O2-  O204  1  0.16599502  0.20111654  0.27203001  1
  O2-  O205  1  0.16726617  0.21304108  0.59484168  1
  O2-  O206  1  0.16639651  0.20830167  0.93266505  1
  O2-  O207  1  0.16896767  0.70025340  0.27533443  1
  O2-  O208  1  0.16948934  0.69867445  0.60388822  1
  O2-  O209  1  0.16852540  0.70198305  0.93102850  1
  O2-  O210  1  0.66551928  0.20250839  0.27030832  1
  O2-  O211  1  0.66539041  0.20634148  0.60352439  1
  O2-  O212  1  0.66345672  0.20313670  0.93394042  1
  O2-  O213  1  0.66718793  0.70903153  0.26364153  1
  O2-  O214  1  0.66089997  0.70708785  0.60403520  1
  O2-  O215  1  0.66880792  0.70023840  0.93433320  1
  O2-  O216  1  0.08514031  0.46430436  0.06816496  1
  O2-  O217  1  0.09075101  0.45712004  0.39992377  1
  O2-  O218  1  0.08230517  0.45652486  0.73379604  1
  O2-  O219  1  0.07869842  0.95079119  0.06656488  1
  O2-  O220  1  0.08537733  0.96141847  0.40359927  1
  O2-  O221  1  0.08149575  0.96102206  0.73233295  1
  O2-  O222  1  0.58156812  0.45885199  0.06224075  1
  O2-  O223  1  0.58286532  0.46040628  0.39356121  1
  O2-  O224  1  0.58474793  0.46390036  0.73628145  1
  O2-  O225  1  0.58125743  0.95771707  0.06989806  1
  O2-  O226  1  0.58143924  0.94896677  0.39492517  1
  O2-  O227  1  0.58206663  0.96120073  0.73076631  1
  O2-  O228  1  0.21079695  0.33407251  0.06876378  1
  O2-  O229  1  0.20796283  0.33478494  0.39532000  1
  O2-  O230  1  0.21525835  0.33362062  0.73302789  1
  O2-  O231  1  0.21019533  0.82666393  0.06508855  1
  O2-  O232  1  0.21131476  0.83175781  0.40569496  1
  O2-  O233  1  0.20683485  0.83088508  0.73149934  1
  O2-  O234  1  0.69043991  0.33192690  0.06091201  1
  O2-  O235  1  0.69663693  0.33521699  0.39176304  1
  O2-  O236  1  0.70233417  0.33119168  0.73470121  1
  O2-  O237  1  0.70007615  0.82710462  0.06536176  1
  O2-  O238  1  0.70550936  0.83445131  0.39393091  1
  O2-  O239  1  0.70675984  0.83220446  0.73308578  1
  O2-  O240  1  0.45852077  0.41459860  0.26289305  1
  O2-  O241  1  0.45889810  0.41494497  0.60627526  1
  O2-  O242  1  0.45792721  0.41770049  0.92833296  1
  O2-  O243  1  0.44341318  0.91838560  0.27635049  1
  O2-  O244  1  0.45574951  0.91494955  0.60192558  1
  O2-  O245  1  0.45926498  0.91888383  0.93284314  1
  O2-  O246  1  0.96235009  0.41903870  0.27059488  1
  O2-  O247  1  0.95151888  0.41903840  0.60574584  1
  O2-  O248  1  0.95854327  0.41932650  0.93170402  1
  O2-  O249  1  0.96291306  0.91832776  0.26692577  1
  O2-  O250  1  0.95869961  0.91546047  0.59884076  1
  O2-  O251  1  0.94505154  0.91731159  0.94086600  1
  O2-  O252  1  0.33226628  0.28933100  0.26668927  1
  O2-  O253  1  0.34095991  0.29299663  0.60231579  1
  O2-  O254  1  0.33221380  0.28875349  0.92974078  1
  O2-  O255  1  0.33436372  0.78863963  0.27336720  1
  O2-  O256  1  0.33691095  0.79367224  0.60241462  1
  O2-  O257  1  0.33710805  0.78661266  0.92887455  1
  O2-  O258  1  0.83128795  0.29525441  0.27008873  1
  O2-  O259  1  0.83158828  0.29926758  0.60423771  1
  O2-  O260  1  0.82433661  0.30150533  0.93639214  1
  O2-  O261  1  0.83539695  0.79149576  0.26411321  1
  O2-  O262  1  0.83282729  0.78678615  0.59887722  1
  O2-  O263  1  0.83462476  0.78890896  0.93952817  1
  O2-  O264  1  0.41754956  0.04514950  0.06893023  1
  O2-  O265  1  0.41807551  0.05113568  0.39854511  1
  O2-  O266  1  0.41696077  0.04908768  0.72687852  1
  O2-  O267  1  0.41884745  0.54720676  0.06090913  1
  O2-  O268  1  0.41471520  0.53976680  0.39493907  1
  O2-  O269  1  0.41544044  0.54489871  0.73222608  1
  O2-  O270  1  0.91885945  0.04670003  0.07029238  1
  O2-  O271  1  0.91588586  0.04102468  0.40390419  1
  O2-  O272  1  0.91642909  0.04648598  0.72524337  1
  O2-  O273  1  0.91660549  0.53907032  0.06950140  1
  O2-  O274  1  0.91753694  0.54172042  0.40628731  1
  O2-  O275  1  0.91727518  0.55420310  0.72633208  1
  O2-  O276  1  0.29129182  0.16922546  0.06837290  1
  O2-  O277  1  0.29544812  0.16642048  0.40076295  1
  O2-  O278  1  0.29730340  0.16640598  0.72464388  1
  O2-  O279  1  0.29802715  0.66459642  0.06260694  1
  O2-  O280  1  0.29605917  0.65887658  0.40020930  1
  O2-  O281  1  0.30247707  0.66747741  0.72755730  1
  O2-  O282  1  0.78849440  0.17011468  0.06686134  1
  O2-  O283  1  0.78844822  0.16896917  0.40524906  1
  O2-  O284  1  0.79665437  0.16582409  0.72890554  1
  O2-  O285  1  0.78855098  0.66258733  0.07003461  1
  O2-  O286  1  0.78760279  0.66834649  0.40155718  1
  O2-  O287  1  0.78796112  0.66266221  0.73074736  1
