# generated using pymatgen
data_Ca2Al2SiO7
_symmetry_space_group_name_H-M   'P 1'
_cell_length_a   15.46340417
_cell_length_b   15.46468830
_cell_length_c   15.28757721
_cell_angle_alpha   90.00968044
_cell_angle_beta   90.00551047
_cell_angle_gamma   89.99408688
_symmetry_Int_Tables_number   1
_chemical_formula_structural   Ca2Al2SiO7
_chemical_formula_sum   'Ca48 Al48 Si24 O168'
_cell_volume   3655.82106640
_cell_formula_units_Z   24
loop_
 _symmetry_equiv_pos_site_id
 _symmetry_equiv_pos_as_xyz
  1  'x, y, z'
loop_
 _atom_type_symbol
 _atom_type_oxidation_number
  Ca2+  2.0
  Al0+  0.0
  Si0+  0.0
  O2-  -2.0
loop_
 _atom_site_type_symbol
 _atom_site_label
 _atom_site_symmetry_multiplicity
 _atom_site_fract_x
 _atom_site_fract_y
 _atom_site_fract_z
 _atom_site_occupancy
  Ca2+  Ca0  1  0.16464672  0.08295030  0.17510901  1
  Ca2+  Ca1  1  0.16545911  0.08033266  0.50284687  1
  Ca2+  Ca2  1  0.16386492  0.07520662  0.83244682  1
  Ca2+  Ca3  1  0.17502172  0.57625712  0.17651549  1
  Ca2+  Ca4  1  0.16901208  0.58359807  0.49458901  1
  Ca2+  Ca5  1  0.17560872  0.57927423  0.84251956  1
  Ca2+  Ca6  1  0.67080442  0.07816472  0.18027367  1
  Ca2+  Ca7  1  0.66288149  0.07887903  0.50158064  1
  Ca2+  Ca8  1  0.66175924  0.07779530  0.83147869  1
  Ca2+  Ca9  1  0.66866989  0.58311118  0.17340949  1
  Ca2+  Ca10  1  0.66903208  0.58006915  0.50052639  1
  Ca2+  Ca11  1  0.66500332  0.57133636  0.84020491  1
  Ca2+  Ca12  1  0.07319521  0.34565231  0.16750822  1
  Ca2+  Ca13  1  0.07493420  0.33090927  0.48692224  1
  Ca2+  Ca14  1  0.07203038  0.34182650  0.83105564  1
  Ca2+  Ca15  1  0.08389069  0.82415691  0.16820762  1
  Ca2+  Ca16  1  0.07901747  0.83120645  0.49566897  1
  Ca2+  Ca17  1  0.07827314  0.83276682  0.82217937  1
  Ca2+  Ca18  1  0.58339765  0.33411732  0.16567621  1
  Ca2+  Ca19  1  0.58533595  0.32366981  0.49394419  1
  Ca2+  Ca20  1  0.59021217  0.32983625  0.82512912  1
  Ca2+  Ca21  1  0.58574906  0.82136899  0.17013216  1
  Ca2+  Ca22  1  0.57639426  0.83624563  0.49061250  1
  Ca2+  Ca23  1  0.57974698  0.82491824  0.82492323  1
  Ca2+  Ca24  1  0.32723027  0.42487390  0.17798569  1
  Ca2+  Ca25  1  0.33386139  0.41690063  0.49707317  1
  Ca2+  Ca26  1  0.32583033  0.42412410  0.84711638  1
  Ca2+  Ca27  1  0.33568423  0.91664403  0.17374393  1
  Ca2+  Ca28  1  0.33243299  0.91137499  0.50609110  1
  Ca2+  Ca29  1  0.33182070  0.91282648  0.82942277  1
  Ca2+  Ca30  1  0.83018234  0.41518627  0.17291186  1
  Ca2+  Ca31  1  0.83531480  0.41828175  0.50208980  1
  Ca2+  Ca32  1  0.82498570  0.40672237  0.83471514  1
  Ca2+  Ca33  1  0.82599866  0.92555487  0.18109997  1
  Ca2+  Ca34  1  0.82179702  0.92024314  0.50411579  1
  Ca2+  Ca35  1  0.82888804  0.91407334  0.83298411  1
  Ca2+  Ca36  1  0.41944856  0.17466244  0.17287983  1
  Ca2+  Ca37  1  0.42904203  0.16989169  0.49123297  1
  Ca2+  Ca38  1  0.42455364  0.17119416  0.82576555  1
  Ca2+  Ca39  1  0.42281991  0.66092812  0.16789023  1
  Ca2+  Ca40  1  0.42201948  0.67592424  0.48931212  1
  Ca2+  Ca41  1  0.42173994  0.66418447  0.83142213  1
  Ca2+  Ca42  1  0.91670447  0.17604926  0.16954508  1
  Ca2+  Ca43  1  0.91754364  0.17650022  0.49052660  1
  Ca2+  Ca44  1  0.91559161  0.17863824  0.82857630  1
  Ca2+  Ca45  1  0.92302455  0.65472286  0.17022090  1
  Ca2+  Ca46  1  0.91798801  0.67032915  0.49097929  1
  Ca2+  Ca47  1  0.91991014  0.67273623  0.82684314  1
  Al0+  Al48  1  -0.00025086  0.00135618  -0.00037286  1
  Al0+  Al49  1  -0.00155909  0.00188568  0.33422544  1
  Al0+  Al50  1  0.00009710  -0.00009374  0.66840504  1
  Al0+  Al51  1  -0.00102041  0.50127166  -0.00615603  1
  Al0+  Al52  1  -0.00025603  0.50104020  0.33445445  1
  Al0+  Al53  1  0.00144144  0.50134735  0.66414534  1
  Al0+  Al54  1  0.49872075  -0.00087942  -0.00002930  1
  Al0+  Al55  1  0.49795469  0.00015679  0.32794561  1
  Al0+  Al56  1  0.50052796  0.00022417  0.66598510  1
  Al0+  Al57  1  0.50086680  0.49971735  0.00250715  1
  Al0+  Al58  1  0.49935455  0.50125719  0.33287723  1
  Al0+  Al59  1  0.50054592  0.49974729  0.67129037  1
  Al0+  Al60  1  0.24847609  0.24658958  0.00133703  1
  Al0+  Al61  1  0.25017790  0.24789947  0.33178758  1
  Al0+  Al62  1  0.24995453  0.25076151  0.67064208  1
  Al0+  Al63  1  0.25015252  0.75198054  0.00276672  1
  Al0+  Al64  1  0.24883890  0.74958611  0.32895667  1
  Al0+  Al65  1  0.25126965  0.74985935  0.66954952  1
  Al0+  Al66  1  0.75101343  0.24835150  -0.00029013  1
  Al0+  Al67  1  0.75163054  0.24869385  0.32952822  1
  Al0+  Al68  1  0.75134984  0.25015379  0.66183137  1
  Al0+  Al69  1  0.74797871  0.74933574  -0.00507424  1
  Al0+  Al70  1  0.74826620  0.75093005  0.33842599  1
  Al0+  Al71  1  0.75171190  0.75022686  0.66779429  1
  Al0+  Al72  1  0.43053519  0.81836826  0.65457816  1
  Al0+  Al73  1  0.93088783  0.32127045  0.65132954  1
  Al0+  Al74  1  0.92973246  0.32260477  0.31738020  1
  Al0+  Al75  1  0.68148329  0.42953386  0.67846283  1
  Al0+  Al76  1  0.57197898  0.17954738  0.31692258  1
  Al0+  Al77  1  0.07168699  0.17733243  0.31905673  1
  Al0+  Al78  1  0.57046085  0.67797591  0.98408918  1
  Al0+  Al79  1  0.57325773  0.67853678  0.32032133  1
  Al0+  Al80  1  0.06955649  0.67998526  0.31985919  1
  Al0+  Al81  1  0.17953638  0.92927992  0.67925157  1
  Al0+  Al82  1  0.82185623  0.07282311  0.34999107  1
  Al0+  Al83  1  0.92983153  0.32051832  0.98425586  1
  Al0+  Al84  1  0.17628442  0.42817787  0.01498248  1
  Al0+  Al85  1  0.82075674  0.57030197  0.34613605  1
  Al0+  Al86  1  0.67762048  0.92872101  0.68223884  1
  Al0+  Al87  1  0.92802552  0.82206924  0.65214920  1
  Al0+  Al88  1  0.56999238  0.18022777  0.65377430  1
  Al0+  Al89  1  0.67680875  0.93004851  0.34831705  1
  Al0+  Al90  1  0.68118576  0.42717519  0.01377958  1
  Al0+  Al91  1  0.42750645  0.82106669  0.31737994  1
  Al0+  Al92  1  0.32251892  0.57249672  0.35115628  1
  Al0+  Al93  1  0.32158739  0.57200058  0.01685812  1
  Al0+  Al94  1  0.42892830  0.32238711  0.31936906  1
  Al0+  Al95  1  0.17985269  0.42786228  0.35000964  1
  Si0+  Si96  1  0.57030458  0.17826613  0.98442291  1
  Si0+  Si97  1  0.67756525  0.42698229  0.34905145  1
  Si0+  Si98  1  0.67846736  0.92792226  0.01414647  1
  Si0+  Si99  1  0.82482680  0.57258459  0.68429473  1
  Si0+  Si100  1  0.32265829  0.07321586  0.68379752  1
  Si0+  Si101  1  0.82058667  0.57493056  0.01422968  1
  Si0+  Si102  1  0.07151291  0.68146096  0.98413253  1
  Si0+  Si103  1  0.07290229  0.67946346  0.65024363  1
  Si0+  Si104  1  0.32056084  0.07025185  0.34847950  1
  Si0+  Si105  1  0.92953929  0.82362278  0.98598622  1
  Si0+  Si106  1  0.07378681  0.17830356  0.65172930  1
  Si0+  Si107  1  0.82154428  0.07159118  0.68495290  1
  Si0+  Si108  1  0.82055476  0.06930261  0.01420496  1
  Si0+  Si109  1  0.32051668  0.57056021  0.68242798  1
  Si0+  Si110  1  0.42580018  0.32419173  0.65306594  1
  Si0+  Si111  1  0.17814628  0.42815189  0.68233240  1
  Si0+  Si112  1  0.17812316  0.92838382  0.34721321  1
  Si0+  Si113  1  0.92730659  0.82212688  0.31769638  1
  Si0+  Si114  1  0.42816709  0.31967397  0.98580047  1
  Si0+  Si115  1  0.17738124  0.93043638  0.01583019  1
  Si0+  Si116  1  0.07258031  0.17443667  0.98006427  1
  Si0+  Si117  1  0.42761014  0.82368492  0.98102244  1
  Si0+  Si118  1  0.32216292  0.06991926  0.01588088  1
  Si0+  Si119  1  0.57270935  0.67531583  0.65074410  1
  O2-  O120  1  0.24921300  0.00029221  0.05750589  1
  O2-  O121  1  0.24932443  -0.00111482  0.38944880  1
  O2-  O122  1  0.25312780  0.00465060  0.72798257  1
  O2-  O123  1  0.25035684  0.49793861  0.06426088  1
  O2-  O124  1  0.25299692  0.49809866  0.40179064  1
  O2-  O125  1  0.25159828  0.49688233  0.72418202  1
  O2-  O126  1  0.75023138  -0.00228930  0.05586735  1
  O2-  O127  1  0.74769373  0.00284587  0.39885040  1
  O2-  O128  1  0.75377357  0.00201712  0.73083875  1
  O2-  O129  1  0.75462807  0.50387796  0.05780630  1
  O2-  O130  1  0.74620022  0.49584329  0.39311181  1
  O2-  O131  1  0.75560115  0.50416465  0.72799183  1
  O2-  O132  1  0.00376598  0.25195490  0.26768894  1
  O2-  O133  1  0.00815428  0.24855686  0.60737580  1
  O2-  O134  1  0.00849311  0.24839741  0.93787407  1
  O2-  O135  1  -0.00700285  0.75214085  0.27065617  1
  O2-  O136  1  0.00206274  0.74636843  0.60725445  1
  O2-  O137  1  0.00045217  0.75281083  0.94246873  1
  O2-  O138  1  0.50477017  0.25580465  0.26653316  1
  O2-  O139  1  0.49447772  0.25542605  0.61029898  1
  O2-  O140  1  0.50118088  0.25118919  0.94160705  1
  O2-  O141  1  0.49873724  0.74775485  0.26912894  1
  O2-  O142  1  0.50814177  0.74796741  0.60772942  1
  O2-  O143  1  0.49376209  0.75197962  0.93825976  1
  O2-  O144  1  0.06949173  0.16466403  0.08421792  1
  O2-  O145  1  0.07049929  0.17616246  0.43304340  1
  O2-  O146  1  0.07366923  0.17866662  0.75773307  1
  O2-  O147  1  0.07092744  0.68216866  0.08875727  1
  O2-  O148  1  0.06959741  0.68410110  0.43298015  1
  O2-  O149  1  0.07259712  0.68061913  0.75670275  1
  O2-  O150  1  0.56906250  0.17603944  0.08866553  1
  O2-  O151  1  0.56879753  0.17883031  0.43058231  1
  O2-  O152  1  0.56843344  0.18110981  0.76800747  1
  O2-  O153  1  0.57562285  0.68159210  0.09611006  1
  O2-  O154  1  0.57305167  0.68005391  0.43409807  1
  O2-  O155  1  0.56895546  0.67383053  0.75682766  1
  O2-  O156  1  0.17957080  0.43131409  0.23651126  1
  O2-  O157  1  0.17777818  0.42637317  0.57814262  1
  O2-  O158  1  0.17824631  0.43245424  0.90010229  1
  O2-  O159  1  0.17783025  0.92971918  0.24150451  1
  O2-  O160  1  0.18045253  0.92933412  0.56662593  1
  O2-  O161  1  0.17609238  0.93061815  0.91061629  1
  O2-  O162  1  0.67929826  0.42760661  0.24317076  1
  O2-  O163  1  0.68024498  0.43069355  0.56614103  1
  O2-  O164  1  0.68308608  0.42532248  0.90015266  1
  O2-  O165  1  0.68069149  0.93006365  0.23365500  1
  O2-  O166  1  0.67596995  0.93081421  0.57035399  1
  O2-  O167  1  0.67893063  0.92912671  0.90878211  1
  O2-  O168  1  0.42784079  0.31634861  0.09010198  1
  O2-  O169  1  0.42938079  0.31758372  0.43345994  1
  O2-  O170  1  0.42453626  0.32272012  0.75931305  1
  O2-  O171  1  0.42865480  0.82886993  0.08561976  1
  O2-  O172  1  0.42690083  0.82144471  0.43125790  1
  O2-  O173  1  0.42952102  0.81455658  0.76814476  1
  O2-  O174  1  0.92795606  0.31922514  0.09623701  1
  O2-  O175  1  0.93085848  0.32186185  0.43101623  1
  O2-  O176  1  0.93134108  0.31917599  0.76508140  1
  O2-  O177  1  0.93152114  0.82629187  0.09050808  1
  O2-  O178  1  0.93097862  0.82164835  0.42316607  1
  O2-  O179  1  0.93070101  0.81996690  0.76651209  1
  O2-  O180  1  0.32025110  0.06877006  0.24286417  1
  O2-  O181  1  0.32154143  0.07505509  0.57880547  1
  O2-  O182  1  0.32404128  0.06902482  0.91066030  1
  O2-  O183  1  0.31927290  0.57275277  0.23778527  1
  O2-  O184  1  0.32064295  0.57228042  0.57823371  1
  O2-  O185  1  0.31885882  0.57131780  0.90187242  1
  O2-  O186  1  0.82228109  0.06885967  0.23531453  1
  O2-  O187  1  0.82171597  0.07061066  0.58028744  1
  O2-  O188  1  0.82066358  0.06835455  0.90884975  1
  O2-  O189  1  0.82029806  0.56889389  0.23257902  1
  O2-  O190  1  0.82617849  0.57240057  0.57910392  1
  O2-  O191  1  0.81937173  0.57841132  0.90844715  1
  O2-  O192  1  0.04086953  0.07972905  0.26402460  1
  O2-  O193  1  0.04839710  0.08439582  0.60757037  1
  O2-  O194  1  0.04054954  0.08324396  0.93006023  1
  O2-  O195  1  0.03844629  0.58466342  0.26480625  1
  O2-  O196  1  0.05018718  0.58565493  0.60464911  1
  O2-  O197  1  0.04412576  0.59120755  0.93322329  1
  O2-  O198  1  0.53708011  0.08423692  0.26198622  1
  O2-  O199  1  0.53792636  0.08468856  0.60026555  1
  O2-  O200  1  0.53882451  0.08694192  0.93640732  1
  O2-  O201  1  0.54834941  0.57980810  0.26718023  1
  O2-  O202  1  0.54307457  0.58291848  0.60523759  1
  O2-  O203  1  0.54023532  0.58030803  0.93029764  1
  O2-  O204  1  0.17180354  0.19769111  0.26713804  1
  O2-  O205  1  0.16938708  0.20038339  0.60819012  1
  O2-  O206  1  0.16885657  0.19314872  0.93594806  1
  O2-  O207  1  0.16283138  0.71387959  0.26217139  1
  O2-  O208  1  0.16556296  0.70795329  0.60568276  1
  O2-  O209  1  0.16320906  0.71138365  0.93671060  1
  O2-  O210  1  0.67105181  0.20242815  0.26399075  1
  O2-  O211  1  0.66560184  0.21001613  0.59960000  1
  O2-  O212  1  0.66277578  0.20367835  0.93728449  1
  O2-  O213  1  0.67045654  0.71065204  0.26572781  1
  O2-  O214  1  0.66905478  0.69549378  0.61027897  1
  O2-  O215  1  0.66592236  0.71044637  0.92684568  1
  O2-  O216  1  0.07746667  0.46061569  0.06341383  1
  O2-  O217  1  0.08246915  0.46039410  0.40227159  1
  O2-  O218  1  0.08738001  0.46008855  0.73030492  1
  O2-  O219  1  0.08571309  0.95870317  0.06312451  1
  O2-  O220  1  0.08678744  0.95654341  0.39482429  1
  O2-  O221  1  0.08370986  0.96034311  0.73679657  1
  O2-  O222  1  0.58375191  0.45477640  0.06574757  1
  O2-  O223  1  0.58386179  0.45080515  0.39491871  1
  O2-  O224  1  0.58406209  0.45736424  0.73525936  1
  O2-  O225  1  0.58656084  0.95692039  0.05967678  1
  O2-  O226  1  0.57721121  0.95931787  0.39777876  1
  O2-  O227  1  0.58190393  0.96191478  0.73813447  1
  O2-  O228  1  0.19739511  0.32572159  0.06160882  1
  O2-  O229  1  0.20671550  0.32769770  0.40077418  1
  O2-  O230  1  0.20223461  0.33588861  0.73203206  1
  O2-  O231  1  0.20348896  0.83865601  0.06354375  1
  O2-  O232  1  0.20492612  0.83680750  0.39402300  1
  O2-  O233  1  0.21158715  0.83384953  0.73677701  1
  O2-  O234  1  0.71201493  0.33039559  0.06715318  1
  O2-  O235  1  0.70406299  0.33305463  0.39303225  1
  O2-  O236  1  0.71394700  0.33257769  0.73267394  1
  O2-  O237  1  0.70658949  0.83569344  0.05937630  1
  O2-  O238  1  0.70503048  0.83319176  0.40320036  1
  O2-  O239  1  0.70885939  0.83131884  0.73634267  1
  O2-  O240  1  0.45115657  0.42189742  0.26747362  1
  O2-  O241  1  0.45105268  0.41796085  0.60855672  1
  O2-  O242  1  0.45275085  0.41257193  0.93947333  1
  O2-  O243  1  0.45514289  0.91836586  0.26224033  1
  O2-  O244  1  0.45472351  0.91735388  0.60380071  1
  O2-  O245  1  0.45618507  0.91628618  0.93279822  1
  O2-  O246  1  0.95773119  0.42089915  0.26457085  1
  O2-  O247  1  0.95924333  0.41940864  0.60023083  1
  O2-  O248  1  0.95661062  0.41810867  0.92808973  1
  O2-  O249  1  0.95619578  0.91436115  0.27090614  1
  O2-  O250  1  0.96029045  0.91863971  0.60047121  1
  O2-  O251  1  0.95814986  0.91450357  0.93634474  1
  O2-  O252  1  0.33356476  0.28709533  0.26484137  1
  O2-  O253  1  0.33163676  0.29927274  0.60811888  1
  O2-  O254  1  0.33663027  0.28920944  0.93749867  1
  O2-  O255  1  0.32901652  0.79548354  0.26336322  1
  O2-  O256  1  0.33368366  0.78712325  0.60196250  1
  O2-  O257  1  0.33130641  0.80152118  0.93768479  1
  O2-  O258  1  0.83269333  0.29260682  0.26322969  1
  O2-  O259  1  0.83580031  0.28954512  0.59732305  1
  O2-  O260  1  0.83456990  0.28285065  0.92980984  1
  O2-  O261  1  0.83270900  0.79955986  0.27405940  1
  O2-  O262  1  0.83104121  0.79320026  0.59897386  1
  O2-  O263  1  0.83798253  0.79572056  0.93781777  1
  O2-  O264  1  0.41274828  0.03971024  0.06441322  1
  O2-  O265  1  0.41169614  0.04137397  0.39566432  1
  O2-  O266  1  0.41467487  0.04549065  0.73201060  1
  O2-  O267  1  0.42033071  0.54490124  0.06717731  1
  O2-  O268  1  0.42209029  0.54743887  0.40349256  1
  O2-  O269  1  0.41232263  0.54441279  0.73164076  1
  O2-  O270  1  0.91254411  0.04157995  0.06102826  1
  O2-  O271  1  0.91949743  0.04272756  0.40351734  1
  O2-  O272  1  0.91529458  0.04680890  0.73236724  1
  O2-  O273  1  0.91623879  0.55127163  0.05577276  1
  O2-  O274  1  0.91671728  0.54210799  0.40228107  1
  O2-  O275  1  0.91931507  0.54776499  0.73049325  1
  O2-  O276  1  0.29603314  0.16152029  0.06372197  1
  O2-  O277  1  0.29422080  0.16089562  0.39796102  1
  O2-  O278  1  0.29744936  0.16638181  0.73330876  1
  O2-  O279  1  0.29323088  0.67155458  0.06673818  1
  O2-  O280  1  0.28732854  0.67056926  0.40173834  1
  O2-  O281  1  0.28951748  0.66015827  0.73293302  1
  O2-  O282  1  0.79154991  0.15991566  0.06156867  1
  O2-  O283  1  0.79578079  0.17221283  0.40087132  1
  O2-  O284  1  0.79290068  0.16474174  0.73074030  1
  O2-  O285  1  0.79431125  0.66799966  0.06115859  1
  O2-  O286  1  0.79206793  0.66679437  0.40169150  1
  O2-  O287  1  0.80123382  0.66656212  0.73085066  1
