# generated using pymatgen
data_Ca2Al2SiO7
_symmetry_space_group_name_H-M   'P 1'
_cell_length_a   15.45232719
_cell_length_b   15.45248448
_cell_length_c   15.27914250
_cell_angle_alpha   89.98953479
_cell_angle_beta   89.99384064
_cell_angle_gamma   89.99457214
_symmetry_Int_Tables_number   1
_chemical_formula_structural   Ca2Al2SiO7
_chemical_formula_sum   'Ca48 Al48 Si24 O168'
_cell_volume   3648.30535878
_cell_formula_units_Z   24
loop_
 _symmetry_equiv_pos_site_id
 _symmetry_equiv_pos_as_xyz
  1  'x, y, z'
loop_
 _atom_type_symbol
 _atom_type_oxidation_number
  Ca2+  2.0
  Al0+  0.0
  Si0+  0.0
  O2-  -2.0
loop_
 _atom_site_type_symbol
 _atom_site_label
 _atom_site_symmetry_multiplicity
 _atom_site_fract_x
 _atom_site_fract_y
 _atom_site_fract_z
 _atom_site_occupancy
  Ca2+  Ca0  1  0.17465277  0.08822132  0.17303478  1
  Ca2+  Ca1  1  0.17691785  0.08841077  0.50301589  1
  Ca2+  Ca2  1  0.17627138  0.08644710  0.83918321  1
  Ca2+  Ca3  1  0.16571431  0.57736719  0.17794025  1
  Ca2+  Ca4  1  0.17403517  0.58855020  0.50235867  1
  Ca2+  Ca5  1  0.16710346  0.58710126  0.83394379  1
  Ca2+  Ca6  1  0.67095518  0.07701570  0.17079919  1
  Ca2+  Ca7  1  0.66931688  0.08436246  0.50430736  1
  Ca2+  Ca8  1  0.66396041  0.07941104  0.83831154  1
  Ca2+  Ca9  1  0.67709949  0.58031836  0.16846303  1
  Ca2+  Ca10  1  0.66992642  0.58621034  0.50465740  1
  Ca2+  Ca11  1  0.67180137  0.57993935  0.84235561  1
  Ca2+  Ca12  1  0.09201181  0.32280900  0.16501994  1
  Ca2+  Ca13  1  0.08256710  0.33230958  0.49548211  1
  Ca2+  Ca14  1  0.07724690  0.32844590  0.83132953  1
  Ca2+  Ca15  1  0.08602605  0.81761875  0.16110988  1
  Ca2+  Ca16  1  0.08513472  0.82330892  0.49816435  1
  Ca2+  Ca17  1  0.07670291  0.82189507  0.82726174  1
  Ca2+  Ca18  1  0.57699880  0.33414370  0.15906928  1
  Ca2+  Ca19  1  0.57558584  0.32913949  0.50213136  1
  Ca2+  Ca20  1  0.57479356  0.33265365  0.82615032  1
  Ca2+  Ca21  1  0.57306083  0.83823162  0.16239724  1
  Ca2+  Ca22  1  0.57626579  0.82587295  0.49714900  1
  Ca2+  Ca23  1  0.58223167  0.83075558  0.83150769  1
  Ca2+  Ca24  1  0.32854363  0.42311815  0.17491121  1
  Ca2+  Ca25  1  0.32621366  0.42335847  0.50509575  1
  Ca2+  Ca26  1  0.34214867  0.42138659  0.83490604  1
  Ca2+  Ca27  1  0.33973086  0.92626251  0.17169578  1
  Ca2+  Ca28  1  0.33587125  0.92372473  0.50213584  1
  Ca2+  Ca29  1  0.34020921  0.92989450  0.83941322  1
  Ca2+  Ca30  1  0.83054294  0.42452693  0.16810494  1
  Ca2+  Ca31  1  0.83846031  0.42188441  0.50342166  1
  Ca2+  Ca32  1  0.82726819  0.41955677  0.84141519  1
  Ca2+  Ca33  1  0.82626639  0.91882647  0.17080202  1
  Ca2+  Ca34  1  0.84056616  0.92202903  0.50362444  1
  Ca2+  Ca35  1  0.82644448  0.91073442  0.83806547  1
  Ca2+  Ca36  1  0.40913943  0.17331172  0.15778443  1
  Ca2+  Ca37  1  0.41472371  0.16487509  0.49932371  1
  Ca2+  Ca38  1  0.41586267  0.17631625  0.82764909  1
  Ca2+  Ca39  1  0.40648424  0.68149951  0.16303691  1
  Ca2+  Ca40  1  0.41703280  0.66445658  0.49346722  1
  Ca2+  Ca41  1  0.42228389  0.67159738  0.82520297  1
  Ca2+  Ca42  1  0.92982290  0.15928964  0.16472935  1
  Ca2+  Ca43  1  0.91962066  0.17385968  0.49052706  1
  Ca2+  Ca44  1  0.92129403  0.17184067  0.82713210  1
  Ca2+  Ca45  1  0.92471009  0.65355356  0.16421572  1
  Ca2+  Ca46  1  0.92599296  0.66919143  0.49446664  1
  Ca2+  Ca47  1  0.92528152  0.66478346  0.82682052  1
  Al0+  Al48  1  0.00277237  -0.00270891  -0.00583928  1
  Al0+  Al49  1  -0.00070711  -0.00032467  0.33296066  1
  Al0+  Al50  1  0.00060901  -0.00019154  0.66649153  1
  Al0+  Al51  1  0.00186994  0.49781191  -0.00136960  1
  Al0+  Al52  1  -0.00306467  0.49829045  0.33736788  1
  Al0+  Al53  1  0.00143163  0.49919959  0.66065073  1
  Al0+  Al54  1  0.50030886  0.00153625  0.00527149  1
  Al0+  Al55  1  0.50106499  -0.00057384  0.33460861  1
  Al0+  Al56  1  0.50140608  0.00026997  0.66822068  1
  Al0+  Al57  1  0.49989086  0.50148509  0.00241893  1
  Al0+  Al58  1  0.50152493  0.49926542  0.33457545  1
  Al0+  Al59  1  0.49978889  0.49959991  0.66200587  1
  Al0+  Al60  1  0.25077478  0.25116892  -0.00699648  1
  Al0+  Al61  1  0.24959021  0.25074762  0.33861917  1
  Al0+  Al62  1  0.24933723  0.25191295  0.66923334  1
  Al0+  Al63  1  0.24953637  0.75282858  -0.01201480  1
  Al0+  Al64  1  0.24999179  0.75130157  0.32758529  1
  Al0+  Al65  1  0.24981049  0.75093763  0.66954413  1
  Al0+  Al66  1  0.75054641  0.24962907  0.00639235  1
  Al0+  Al67  1  0.74852875  0.24926123  0.33513782  1
  Al0+  Al68  1  0.74992341  0.25009827  0.66004350  1
  Al0+  Al69  1  0.74991885  0.75100709  0.01191155  1
  Al0+  Al70  1  0.74828427  0.74878750  0.33719290  1
  Al0+  Al71  1  0.74995645  0.75129164  0.65918336  1
  Al0+  Al72  1  0.92776976  0.82173679  0.65148421  1
  Al0+  Al73  1  0.43025336  0.32281666  0.98755289  1
  Al0+  Al74  1  0.43023812  0.82366297  0.98445992  1
  Al0+  Al75  1  0.32188527  0.57106060  0.68186930  1
  Al0+  Al76  1  0.32045397  0.57371108  0.34591468  1
  Al0+  Al77  1  0.07104343  0.17996348  0.32089632  1
  Al0+  Al78  1  0.06865482  0.67924843  0.31887066  1
  Al0+  Al79  1  0.32103591  0.07054625  0.68239566  1
  Al0+  Al80  1  0.42702798  0.32143421  0.64922619  1
  Al0+  Al81  1  0.17865731  0.42814733  0.34839109  1
  Al0+  Al82  1  0.31790282  0.07144226  0.01383217  1
  Al0+  Al83  1  0.07171801  0.17740598  0.98530667  1
  Al0+  Al84  1  0.81947734  0.56987933  0.35060411  1
  Al0+  Al85  1  0.32074845  0.07070734  0.34701034  1
  Al0+  Al86  1  0.82158325  0.06929182  0.34709412  1
  Al0+  Al87  1  0.43043809  0.82013243  0.31991140  1
  Al0+  Al88  1  0.06992476  0.67636024  0.98536541  1
  Al0+  Al89  1  0.57037616  0.67861558  0.65466351  1
  Al0+  Al90  1  0.57003751  0.17719659  0.65201036  1
  Al0+  Al91  1  0.67606197  0.42739654  0.01439529  1
  Al0+  Al92  1  0.07254292  0.67891011  0.64950818  1
  Al0+  Al93  1  0.92849429  0.31973094  0.65356007  1
  Al0+  Al94  1  0.67914174  0.93007008  0.01421379  1
  Al0+  Al95  1  0.82324473  0.57021508  0.01329719  1
  Si0+  Si96  1  0.17750641  0.92674606  0.01616147  1
  Si0+  Si97  1  0.82590976  0.07229960  0.01511316  1
  Si0+  Si98  1  0.68012445  0.42851568  0.68011380  1
  Si0+  Si99  1  0.57158857  0.17867992  0.31685044  1
  Si0+  Si100  1  0.92521422  0.32138303  0.31431995  1
  Si0+  Si101  1  0.18053626  0.42994250  0.01285780  1
  Si0+  Si102  1  0.68067715  0.92866904  0.68107663  1
  Si0+  Si103  1  0.57381889  0.17867065  0.98668100  1
  Si0+  Si104  1  0.17754146  0.92716243  0.34826663  1
  Si0+  Si105  1  0.42861037  0.82273927  0.65156060  1
  Si0+  Si106  1  0.92739083  0.32014381  0.98537624  1
  Si0+  Si107  1  0.42949179  0.31985788  0.31872299  1
  Si0+  Si108  1  0.07194092  0.17787228  0.65029936  1
  Si0+  Si109  1  0.17638395  0.92777570  0.68563458  1
  Si0+  Si110  1  0.67660082  0.42639551  0.35366018  1
  Si0+  Si111  1  0.92588063  0.82225352  0.31513252  1
  Si0+  Si112  1  0.32065381  0.57416804  0.01253721  1
  Si0+  Si113  1  0.17633786  0.42902044  0.68658109  1
  Si0+  Si114  1  0.67751482  0.92864872  0.35354693  1
  Si0+  Si115  1  0.57336446  0.67578412  0.31408843  1
  Si0+  Si116  1  0.92593085  0.82119371  0.98562825  1
  Si0+  Si117  1  0.82153058  0.07285779  0.68146683  1
  Si0+  Si118  1  0.57281628  0.67988357  0.98645323  1
  Si0+  Si119  1  0.82085886  0.57143909  0.67994812  1
  O2-  O120  1  0.24402308  -0.00339888  0.06193741  1
  O2-  O121  1  0.24455852  -0.00266642  0.39323976  1
  O2-  O122  1  0.24578681  -0.00366165  0.72943686  1
  O2-  O123  1  0.24932549  0.50346152  0.05468807  1
  O2-  O124  1  0.24769168  0.50353072  0.39743690  1
  O2-  O125  1  0.24667419  0.49684517  0.73029396  1
  O2-  O126  1  0.75590030  0.00438096  0.05852129  1
  O2-  O127  1  0.74969122  -0.00624971  0.39741322  1
  O2-  O128  1  0.75181239  0.00032182  0.72360825  1
  O2-  O129  1  0.74961320  0.49883904  0.06266626  1
  O2-  O130  1  0.74439878  0.49579047  0.39802084  1
  O2-  O131  1  0.75023007  0.50045268  0.72311104  1
  O2-  O132  1  -0.00457386  0.25320156  0.27155514  1
  O2-  O133  1  0.00218093  0.24479694  0.60608482  1
  O2-  O134  1  -0.00832084  0.24756419  0.94068349  1
  O2-  O135  1  -0.00753701  0.75215284  0.27009304  1
  O2-  O136  1  0.00008046  0.75110443  0.60087273  1
  O2-  O137  1  -0.00863828  0.74923658  0.94206311  1
  O2-  O138  1  0.49934690  0.24825483  0.27477132  1
  O2-  O139  1  0.49500018  0.24488243  0.60005671  1
  O2-  O140  1  0.50903734  0.25084587  0.94288223  1
  O2-  O141  1  0.50193332  0.74233593  0.27134917  1
  O2-  O142  1  0.49144105  0.74880052  0.60751048  1
  O2-  O143  1  0.50455434  0.74756509  0.93978378  1
  O2-  O144  1  0.07274984  0.17946759  0.09855448  1
  O2-  O145  1  0.06981861  0.18145327  0.43385960  1
  O2-  O146  1  0.06942961  0.17879638  0.75626991  1
  O2-  O147  1  0.07119271  0.67568831  0.09856414  1
  O2-  O148  1  0.06979689  0.68275265  0.43134359  1
  O2-  O149  1  0.06862892  0.67869082  0.76343340  1
  O2-  O150  1  0.57240443  0.17850901  0.09260390  1
  O2-  O151  1  0.57213798  0.17930296  0.42171741  1
  O2-  O152  1  0.57290508  0.17881244  0.76580587  1
  O2-  O153  1  0.57102057  0.68046672  0.09184780  1
  O2-  O154  1  0.57393853  0.67769904  0.41995968  1
  O2-  O155  1  0.57376116  0.68133226  0.76807539  1
  O2-  O156  1  0.18295448  0.42615622  0.23387656  1
  O2-  O157  1  0.17611820  0.42861803  0.58129292  1
  O2-  O158  1  0.17873712  0.43022769  0.90790393  1
  O2-  O159  1  0.17866386  0.92721475  0.24253588  1
  O2-  O160  1  0.17628988  0.92849734  0.57989139  1
  O2-  O161  1  0.17788276  0.92825951  0.91069586  1
  O2-  O162  1  0.67601596  0.42612945  0.24802653  1
  O2-  O163  1  0.68193785  0.42877112  0.57509358  1
  O2-  O164  1  0.67735156  0.42817330  0.90023027  1
  O2-  O165  1  0.67671220  0.93175643  0.24771892  1
  O2-  O166  1  0.68012922  0.92949898  0.57629141  1
  O2-  O167  1  0.68087036  0.92962195  0.90054304  1
  O2-  O168  1  0.42766822  0.32105898  0.10114155  1
  O2-  O169  1  0.43125622  0.31916835  0.42338583  1
  O2-  O170  1  0.43192112  0.32254797  0.76310482  1
  O2-  O171  1  0.43000886  0.82338743  0.09765757  1
  O2-  O172  1  0.43365572  0.82164407  0.43310386  1
  O2-  O173  1  0.43390439  0.82395744  0.75729256  1
  O2-  O174  1  0.92908812  0.32152679  0.09065422  1
  O2-  O175  1  0.92400134  0.31863400  0.42012325  1
  O2-  O176  1  0.92720703  0.31779941  0.76714972  1
  O2-  O177  1  0.92840033  0.82512935  0.09092183  1
  O2-  O178  1  0.92793497  0.82229172  0.42058391  1
  O2-  O179  1  0.92483284  0.81834206  0.76545986  1
  O2-  O180  1  0.32039318  0.07242139  0.23379803  1
  O2-  O181  1  0.32031548  0.06751908  0.56905671  1
  O2-  O182  1  0.31807572  0.07162895  0.90079108  1
  O2-  O183  1  0.31869054  0.57219324  0.23151944  1
  O2-  O184  1  0.32143813  0.57080703  0.56903974  1
  O2-  O185  1  0.32200063  0.57189743  0.90741380  1
  O2-  O186  1  0.81959891  0.06723689  0.23365541  1
  O2-  O187  1  0.82101453  0.07250137  0.57652432  1
  O2-  O188  1  0.82479259  0.07368379  0.90930328  1
  O2-  O189  1  0.81898447  0.56704543  0.23745942  1
  O2-  O190  1  0.81866143  0.57001491  0.57501093  1
  O2-  O191  1  0.82200985  0.56930422  0.89896951  1
  O2-  O192  1  0.04118934  0.08257238  0.26665345  1
  O2-  O193  1  0.04977298  0.08334324  0.60580290  1
  O2-  O194  1  0.04620639  0.07991112  0.93007069  1
  O2-  O195  1  0.03725036  0.58059235  0.26840896  1
  O2-  O196  1  0.04562013  0.58078371  0.59717531  1
  O2-  O197  1  0.04131327  0.57950996  0.93036469  1
  O2-  O198  1  0.54634214  0.08568416  0.27116812  1
  O2-  O199  1  0.54553977  0.07779041  0.59872891  1
  O2-  O200  1  0.54545705  0.08627746  0.94056777  1
  O2-  O201  1  0.55293170  0.58001557  0.27042227  1
  O2-  O202  1  0.54477204  0.58252425  0.59814957  1
  O2-  O203  1  0.54796653  0.58616325  0.94035079  1
  O2-  O204  1  0.16775736  0.21331986  0.26729804  1
  O2-  O205  1  0.16511856  0.20542701  0.60570742  1
  O2-  O206  1  0.16389779  0.21529314  0.92804703  1
  O2-  O207  1  0.16440367  0.71061099  0.26311821  1
  O2-  O208  1  0.17151201  0.70979277  0.59895164  1
  O2-  O209  1  0.16350846  0.71050324  0.92758277  1
  O2-  O210  1  0.66296749  0.20755344  0.26860251  1
  O2-  O211  1  0.66657024  0.20826772  0.59637758  1
  O2-  O212  1  0.67008194  0.19797078  0.94258850  1
  O2-  O213  1  0.66651920  0.70488919  0.26869299  1
  O2-  O214  1  0.66348522  0.71334158  0.59636757  1
  O2-  O215  1  0.66760670  0.70655927  0.94304259  1
  O2-  O216  1  0.08858127  0.45397222  0.06168887  1
  O2-  O217  1  0.07804577  0.44918700  0.39852748  1
  O2-  O218  1  0.08238809  0.45635029  0.73249491  1
  O2-  O219  1  0.08242910  0.94842235  0.06127036  1
  O2-  O220  1  0.08317798  0.94961157  0.39386550  1
  O2-  O221  1  0.08250286  0.95362889  0.73262701  1
  O2-  O222  1  0.57923261  0.45789642  0.07046776  1
  O2-  O223  1  0.58317014  0.45171737  0.40020289  1
  O2-  O224  1  0.58790402  0.45583358  0.72612860  1
  O2-  O225  1  0.58539954  0.96404849  0.07187500  1
  O2-  O226  1  0.58646481  0.95918778  0.40136678  1
  O2-  O227  1  0.58960041  0.95595982  0.73040812  1
  O2-  O228  1  0.21195303  0.33898310  0.05937911  1
  O2-  O229  1  0.21070245  0.33313380  0.40555059  1
  O2-  O230  1  0.19923406  0.33460805  0.73275068  1
  O2-  O231  1  0.20570504  0.83251952  0.05981459  1
  O2-  O232  1  0.20715692  0.83541732  0.39527863  1
  O2-  O233  1  0.20026629  0.83417406  0.73233997  1
  O2-  O234  1  0.70265887  0.32922259  0.07010670  1
  O2-  O235  1  0.70214459  0.33258313  0.39902758  1
  O2-  O236  1  0.70960221  0.33663147  0.72686402  1
  O2-  O237  1  0.70693150  0.83577308  0.07436570  1
  O2-  O238  1  0.69785009  0.83307734  0.39704019  1
  O2-  O239  1  0.71030421  0.83698700  0.72868595  1
  O2-  O240  1  0.45811268  0.41198966  0.27139885  1
  O2-  O241  1  0.46035719  0.41702241  0.59453957  1
  O2-  O242  1  0.45879574  0.42065960  0.93401468  1
  O2-  O243  1  0.46593179  0.91614910  0.26575469  1
  O2-  O244  1  0.46044918  0.91354738  0.60412045  1
  O2-  O245  1  0.46487682  0.92024190  0.93280572  1
  O2-  O246  1  0.94922218  0.41564085  0.27032191  1
  O2-  O247  1  0.95922657  0.41492116  0.59769121  1
  O2-  O248  1  0.95797027  0.41088498  0.93632061  1
  O2-  O249  1  0.95065592  0.91594968  0.26904069  1
  O2-  O250  1  0.95555091  0.92149481  0.60001185  1
  O2-  O251  1  0.95265642  0.91265141  0.93488662  1
  O2-  O252  1  0.33725314  0.29217991  0.27271247  1
  O2-  O253  1  0.32639263  0.29698689  0.60006728  1
  O2-  O254  1  0.33679916  0.28980821  0.92953124  1
  O2-  O255  1  0.33407980  0.79403929  0.26264108  1
  O2-  O256  1  0.33242069  0.80454699  0.60958771  1
  O2-  O257  1  0.33503417  0.79574257  0.92712979  1
  O2-  O258  1  0.83119314  0.29479145  0.26920708  1
  O2-  O259  1  0.83398484  0.29011373  0.59561483  1
  O2-  O260  1  0.83185998  0.29813851  0.94066828  1
  O2-  O261  1  0.82982684  0.79842066  0.27297428  1
  O2-  O262  1  0.83096116  0.79575865  0.59482048  1
  O2-  O263  1  0.82999378  0.79838517  0.94308808  1
  O2-  O264  1  0.41480991  0.04285547  0.06813848  1
  O2-  O265  1  0.41744536  0.03875408  0.40014858  1
  O2-  O266  1  0.41838713  0.03919404  0.73567850  1
  O2-  O267  1  0.41189972  0.54828446  0.06148870  1
  O2-  O268  1  0.42033311  0.54579000  0.39619535  1
  O2-  O269  1  0.41972693  0.53931550  0.73453456  1
  O2-  O270  1  0.91951633  0.04333114  0.05962989  1
  O2-  O271  1  0.91850413  0.04120519  0.40230659  1
  O2-  O272  1  0.91439841  0.04761557  0.72865711  1
  O2-  O273  1  0.92035861  0.53657735  0.06672755  1
  O2-  O274  1  0.91462429  0.53813751  0.40604197  1
  O2-  O275  1  0.91352518  0.54273058  0.72486732  1
  O2-  O276  1  0.28526320  0.16919320  0.06507105  1
  O2-  O277  1  0.29002775  0.16582185  0.40274257  1
  O2-  O278  1  0.29071467  0.16841180  0.73473955  1
  O2-  O279  1  0.29206412  0.66779940  0.05524438  1
  O2-  O280  1  0.29384543  0.67307441  0.39746860  1
  O2-  O281  1  0.29393121  0.66916632  0.73567402  1
  O2-  O282  1  0.80334791  0.16523314  0.06391758  1
  O2-  O283  1  0.78890532  0.16586577  0.40025555  1
  O2-  O284  1  0.79146922  0.16428179  0.72864640  1
  O2-  O285  1  0.79780563  0.66727282  0.07025840  1
  O2-  O286  1  0.78982673  0.66743677  0.40386795  1
  O2-  O287  1  0.79202975  0.66410599  0.72485020  1
