# generated using pymatgen
data_Ca2Al2SiO7
_symmetry_space_group_name_H-M   'P 1'
_cell_length_a   15.47021200
_cell_length_b   15.46859912
_cell_length_c   15.29360984
_cell_angle_alpha   90.00266453
_cell_angle_beta   89.99896375
_cell_angle_gamma   90.03186711
_symmetry_Int_Tables_number   1
_chemical_formula_structural   Ca2Al2SiO7
_chemical_formula_sum   'Ca48 Al48 Si24 O168'
_cell_volume   3659.79861778
_cell_formula_units_Z   24
loop_
 _symmetry_equiv_pos_site_id
 _symmetry_equiv_pos_as_xyz
  1  'x, y, z'
loop_
 _atom_type_symbol
 _atom_type_oxidation_number
  Ca2+  2.0
  Al0+  0.0
  Si0+  0.0
  O2-  -2.0
loop_
 _atom_site_type_symbol
 _atom_site_label
 _atom_site_symmetry_multiplicity
 _atom_site_fract_x
 _atom_site_fract_y
 _atom_site_fract_z
 _atom_site_occupancy
  Ca2+  Ca0  1  0.16518707  0.08393638  0.17296068  1
  Ca2+  Ca1  1  0.16319329  0.08865208  0.50340037  1
  Ca2+  Ca2  1  0.16784628  0.08485382  0.83374854  1
  Ca2+  Ca3  1  0.17676613  0.57690511  0.17716413  1
  Ca2+  Ca4  1  0.17396839  0.57029870  0.50472992  1
  Ca2+  Ca5  1  0.17189067  0.58009028  0.83022434  1
  Ca2+  Ca6  1  0.67658051  0.07701372  0.16879560  1
  Ca2+  Ca7  1  0.67959652  0.08341899  0.50961230  1
  Ca2+  Ca8  1  0.67056830  0.07866996  0.83636507  1
  Ca2+  Ca9  1  0.66722539  0.57760501  0.17081867  1
  Ca2+  Ca10  1  0.67588392  0.57046806  0.50251998  1
  Ca2+  Ca11  1  0.67131428  0.57708924  0.83824819  1
  Ca2+  Ca12  1  0.07656486  0.33591122  0.17019923  1
  Ca2+  Ca13  1  0.08116315  0.32862735  0.49186055  1
  Ca2+  Ca14  1  0.07967309  0.32801786  0.82254040  1
  Ca2+  Ca15  1  0.07388748  0.83116404  0.16686752  1
  Ca2+  Ca16  1  0.07351317  0.82764686  0.49205422  1
  Ca2+  Ca17  1  0.07869206  0.82873755  0.82743814  1
  Ca2+  Ca18  1  0.58167096  0.34418394  0.16552582  1
  Ca2+  Ca19  1  0.58744277  0.33471743  0.49549589  1
  Ca2+  Ca20  1  0.59107360  0.33091898  0.82674262  1
  Ca2+  Ca21  1  0.58118602  0.82414008  0.15350648  1
  Ca2+  Ca22  1  0.58228512  0.83406449  0.49998203  1
  Ca2+  Ca23  1  0.58345050  0.83414889  0.82758388  1
  Ca2+  Ca24  1  0.32995802  0.42139276  0.18271361  1
  Ca2+  Ca25  1  0.32767419  0.41978212  0.50172209  1
  Ca2+  Ca26  1  0.32881656  0.41739176  0.83128259  1
  Ca2+  Ca27  1  0.33419358  0.91528233  0.16855432  1
  Ca2+  Ca28  1  0.33146927  0.91626566  0.50721713  1
  Ca2+  Ca29  1  0.33827349  0.91153389  0.83526260  1
  Ca2+  Ca30  1  0.82307743  0.42562930  0.17522468  1
  Ca2+  Ca31  1  0.83011672  0.41808791  0.50472408  1
  Ca2+  Ca32  1  0.82221031  0.42254133  0.83703583  1
  Ca2+  Ca33  1  0.83385176  0.92374543  0.17210103  1
  Ca2+  Ca34  1  0.83307762  0.92570405  0.50472211  1
  Ca2+  Ca35  1  0.82092896  0.92768031  0.83690568  1
  Ca2+  Ca36  1  0.41832726  0.17729470  0.16670358  1
  Ca2+  Ca37  1  0.42833135  0.17450397  0.49641528  1
  Ca2+  Ca38  1  0.42889270  0.16877085  0.82376626  1
  Ca2+  Ca39  1  0.42410734  0.66685468  0.15725443  1
  Ca2+  Ca40  1  0.41227793  0.66446628  0.49832076  1
  Ca2+  Ca41  1  0.42394850  0.67510181  0.82780564  1
  Ca2+  Ca42  1  0.91040311  0.17023899  0.17006856  1
  Ca2+  Ca43  1  0.92300796  0.16808769  0.49020474  1
  Ca2+  Ca44  1  0.91735117  0.16254362  0.82569948  1
  Ca2+  Ca45  1  0.90669773  0.66702530  0.16508229  1
  Ca2+  Ca46  1  0.90490264  0.67054166  0.49254566  1
  Ca2+  Ca47  1  0.90970742  0.66196617  0.82897776  1
  Al0+  Al48  1  0.00269717  -0.00022033  0.00226028  1
  Al0+  Al49  1  0.00025933  -0.00278191  0.32848315  1
  Al0+  Al50  1  0.00133532  -0.00202851  0.66660560  1
  Al0+  Al51  1  0.00022806  0.49860134  0.00119903  1
  Al0+  Al52  1  0.00188400  0.50049171  0.33499903  1
  Al0+  Al53  1  0.00275559  0.49922210  0.67294077  1
  Al0+  Al54  1  0.49780601  0.00370038  0.00272066  1
  Al0+  Al55  1  0.49875466  0.00013389  0.33172987  1
  Al0+  Al56  1  0.49908475  0.00098991  0.65912610  1
  Al0+  Al57  1  0.49740160  0.50238129  -0.00472304  1
  Al0+  Al58  1  0.50106256  0.50116530  0.33763175  1
  Al0+  Al59  1  0.49884043  0.50250998  0.67321594  1
  Al0+  Al60  1  0.24875704  0.24885729  -0.00051605  1
  Al0+  Al61  1  0.25288012  0.24809633  0.32886136  1
  Al0+  Al62  1  0.25052488  0.24858649  0.66735667  1
  Al0+  Al63  1  0.24758058  0.75008885  -0.00292377  1
  Al0+  Al64  1  0.24883788  0.75189037  0.33551376  1
  Al0+  Al65  1  0.24909247  0.75005237  0.66560036  1
  Al0+  Al66  1  0.74986648  0.25143696  0.00673207  1
  Al0+  Al67  1  0.75186136  0.24623269  0.33509228  1
  Al0+  Al68  1  0.75280895  0.25046090  0.66897864  1
  Al0+  Al69  1  0.75012588  0.75117774  -0.00198622  1
  Al0+  Al70  1  0.74635213  0.75047966  0.33035771  1
  Al0+  Al71  1  0.74785429  0.75109918  0.67055881  1
  Al0+  Al72  1  0.67979940  0.42747752  0.34846479  1
  Al0+  Al73  1  0.82308174  0.57113189  0.01537433  1
  Al0+  Al74  1  0.18081329  0.42597128  0.68296684  1
  Al0+  Al75  1  0.82176608  0.06748275  0.34811606  1
  Al0+  Al76  1  0.42799491  0.82258982  0.98558261  1
  Al0+  Al77  1  0.57285217  0.67904694  0.98188305  1
  Al0+  Al78  1  0.82091767  0.57330148  0.34657689  1
  Al0+  Al79  1  0.67595829  0.93130628  0.67986804  1
  Al0+  Al80  1  0.67596360  0.43046444  0.01600041  1
  Al0+  Al81  1  0.07094471  0.17741282  0.65390863  1
  Al0+  Al82  1  0.17910867  0.42591116  0.34748260  1
  Al0+  Al83  1  0.92752257  0.81770118  0.31966748  1
  Al0+  Al84  1  0.57357584  0.18098683  0.65369455  1
  Al0+  Al85  1  0.67614393  0.92989948  0.01515774  1
  Al0+  Al86  1  0.82424140  0.07065472  0.68032469  1
  Al0+  Al87  1  0.42925535  0.81998424  0.65034810  1
  Al0+  Al88  1  0.67869457  0.42758962  0.68133447  1
  Al0+  Al89  1  0.82360912  0.07055677  0.01719179  1
  Al0+  Al90  1  0.32241635  0.57300669  0.34739621  1
  Al0+  Al91  1  0.07151548  0.17858695  0.31659313  1
  Al0+  Al92  1  0.32057525  0.57387925  0.68456282  1
  Al0+  Al93  1  0.43356800  0.32107888  0.32179613  1
  Al0+  Al94  1  0.82171437  0.57190329  0.68072376  1
  Al0+  Al95  1  0.92723533  0.32323413  0.31785192  1
  Si0+  Si96  1  0.07432162  0.67840896  0.31703379  1
  Si0+  Si97  1  0.07188027  0.17862809  0.98346047  1
  Si0+  Si98  1  0.18004913  0.92791244  0.01551892  1
  Si0+  Si99  1  0.57343018  0.17540894  0.31505520  1
  Si0+  Si100  1  0.42578217  0.32168898  0.98455162  1
  Si0+  Si101  1  0.67514093  0.92800374  0.34952773  1
  Si0+  Si102  1  0.32078554  0.06998331  0.68042544  1
  Si0+  Si103  1  0.56794555  0.68110366  0.31920638  1
  Si0+  Si104  1  0.07009484  0.67824147  0.98430836  1
  Si0+  Si105  1  0.31697299  0.57130971  0.01352806  1
  Si0+  Si106  1  0.42828973  0.32326298  0.65173487  1
  Si0+  Si107  1  0.57026989  0.18196629  0.98702461  1
  Si0+  Si108  1  0.93039394  0.32288034  0.65173041  1
  Si0+  Si109  1  0.17944720  0.92997666  0.34868360  1
  Si0+  Si110  1  0.92858927  0.81865193  0.65313272  1
  Si0+  Si111  1  0.42610172  0.82295058  0.31802307  1
  Si0+  Si112  1  0.31986885  0.07309963  0.01576640  1
  Si0+  Si113  1  0.93021026  0.82299110  0.98334979  1
  Si0+  Si114  1  0.57284676  0.67725516  0.64696043  1
  Si0+  Si115  1  0.17929116  0.92846604  0.68143769  1
  Si0+  Si116  1  0.92947311  0.32024534  0.98481118  1
  Si0+  Si117  1  0.07103004  0.67802522  0.65151814  1
  Si0+  Si118  1  0.17994340  0.42636902  0.01593230  1
  Si0+  Si119  1  0.32234091  0.07035210  0.34915457  1
  O2-  O120  1  0.25246120  -0.00211768  0.05684987  1
  O2-  O121  1  0.24981501  0.00100835  0.39148051  1
  O2-  O122  1  0.25041710  -0.00111116  0.72413891  1
  O2-  O123  1  0.25131631  0.49676113  0.05779956  1
  O2-  O124  1  0.25050214  0.49983346  0.39503906  1
  O2-  O125  1  0.25213674  0.49806655  0.73435574  1
  O2-  O126  1  0.75270805  -0.00354646  0.06595832  1
  O2-  O127  1  0.74367785  -0.00383301  0.39366561  1
  O2-  O128  1  0.74692770  0.00427793  0.72939833  1
  O2-  O129  1  0.74638562  0.50441561  0.06470845  1
  O2-  O130  1  0.75825855  0.49356412  0.39654264  1
  O2-  O131  1  0.74913629  0.50118223  0.73070943  1
  O2-  O132  1  0.00030284  0.25114739  0.26660081  1
  O2-  O133  1  -0.00303912  0.25170703  0.60812488  1
  O2-  O134  1  -0.00170007  0.24637071  0.94207600  1
  O2-  O135  1  -0.00107564  0.73949130  0.27198711  1
  O2-  O136  1  -0.00624635  0.74234357  0.61021615  1
  O2-  O137  1  -0.00455306  0.74570693  0.94169984  1
  O2-  O138  1  0.51006781  0.24975464  0.27134741  1
  O2-  O139  1  0.50364860  0.26143026  0.60861078  1
  O2-  O140  1  0.50192976  0.25581247  0.94391272  1
  O2-  O141  1  0.49519205  0.75111040  0.27680536  1
  O2-  O142  1  0.50247422  0.74496670  0.60232039  1
  O2-  O143  1  0.50399305  0.75644317  0.93434656  1
  O2-  O144  1  0.07761012  0.17963672  0.08770865  1
  O2-  O145  1  0.07079657  0.17698173  0.43011322  1
  O2-  O146  1  0.07108493  0.17707451  0.76771538  1
  O2-  O147  1  0.07513817  0.68124954  0.08903668  1
  O2-  O148  1  0.08008582  0.68542194  0.42209029  1
  O2-  O149  1  0.07332794  0.68274371  0.75708549  1
  O2-  O150  1  0.56611767  0.18043552  0.09194851  1
  O2-  O151  1  0.56841267  0.17089735  0.42031627  1
  O2-  O152  1  0.56868038  0.17886691  0.76744741  1
  O2-  O153  1  0.56652277  0.67669924  0.09616632  1
  O2-  O154  1  0.56881075  0.68370417  0.42394475  1
  O2-  O155  1  0.57300142  0.67960713  0.75226660  1
  O2-  O156  1  0.18295405  0.42827729  0.23289594  1
  O2-  O157  1  0.18175153  0.42527096  0.57004709  1
  O2-  O158  1  0.18131242  0.42454257  0.91114232  1
  O2-  O159  1  0.18227402  0.92820417  0.24325619  1
  O2-  O160  1  0.17882048  0.92819405  0.57638896  1
  O2-  O161  1  0.17765812  0.92848264  0.91043103  1
  O2-  O162  1  0.67507241  0.43404419  0.23527192  1
  O2-  O163  1  0.68066460  0.42753385  0.56810416  1
  O2-  O164  1  0.67888562  0.42726517  0.90285638  1
  O2-  O165  1  0.67370586  0.92899891  0.24402226  1
  O2-  O166  1  0.67885493  0.93114847  0.56611121  1
  O2-  O167  1  0.67525697  0.93538148  0.90182796  1
  O2-  O168  1  0.42138987  0.31923615  0.08954681  1
  O2-  O169  1  0.43255081  0.31746156  0.43453285  1
  O2-  O170  1  0.42474187  0.31696637  0.75783945  1
  O2-  O171  1  0.42420117  0.81775517  0.09952273  1
  O2-  O172  1  0.42568204  0.82541828  0.42274509  1
  O2-  O173  1  0.42834128  0.82019707  0.76309619  1
  O2-  O174  1  0.93300484  0.32161453  0.08936979  1
  O2-  O175  1  0.92791449  0.32036340  0.43136718  1
  O2-  O176  1  0.93274014  0.32250480  0.75788222  1
  O2-  O177  1  0.93539694  0.82557268  0.08835377  1
  O2-  O178  1  0.93076031  0.81887604  0.43303939  1
  O2-  O179  1  0.93390231  0.82086132  0.75832067  1
  O2-  O180  1  0.32381999  0.06747984  0.24370112  1
  O2-  O181  1  0.31909247  0.06944415  0.57534563  1
  O2-  O182  1  0.31751270  0.07706442  0.91082517  1
  O2-  O183  1  0.32119517  0.57360626  0.23280283  1
  O2-  O184  1  0.31579079  0.57496658  0.57141784  1
  O2-  O185  1  0.31249817  0.57176256  0.90906848  1
  O2-  O186  1  0.82092935  0.06464889  0.23510486  1
  O2-  O187  1  0.82734348  0.06630789  0.56701469  1
  O2-  O188  1  0.82499632  0.06949573  0.90374719  1
  O2-  O189  1  0.81351988  0.57610856  0.23352215  1
  O2-  O190  1  0.82126776  0.57186690  0.56742378  1
  O2-  O191  1  0.82687646  0.56469795  0.90228434  1
  O2-  O192  1  0.04432865  0.07935393  0.26368083  1
  O2-  O193  1  0.04432081  0.07912249  0.60058496  1
  O2-  O194  1  0.04873029  0.08440217  0.93793065  1
  O2-  O195  1  0.05965759  0.58218303  0.27372797  1
  O2-  O196  1  0.05148738  0.58307230  0.60804514  1
  O2-  O197  1  0.04695679  0.58472535  0.93786526  1
  O2-  O198  1  0.53869820  0.08494676  0.26632150  1
  O2-  O199  1  0.53587754  0.08864676  0.59610983  1
  O2-  O200  1  0.53716884  0.09224088  0.93862689  1
  O2-  O201  1  0.54006670  0.58955962  0.27184276  1
  O2-  O202  1  0.54637121  0.58274031  0.60328444  1
  O2-  O203  1  0.53806015  0.58285548  0.92725428  1
  O2-  O204  1  0.17153335  0.20268646  0.26367786  1
  O2-  O205  1  0.16913704  0.20557121  0.60163102  1
  O2-  O206  1  0.16298685  0.20870357  0.93429648  1
  O2-  O207  1  0.16415174  0.71413727  0.26697292  1
  O2-  O208  1  0.15877233  0.71392056  0.60227488  1
  O2-  O209  1  0.15870409  0.71202879  0.93355301  1
  O2-  O210  1  0.66902009  0.19287226  0.27195523  1
  O2-  O211  1  0.67198163  0.20631799  0.60099411  1
  O2-  O212  1  0.66350357  0.20665741  0.94133206  1
  O2-  O213  1  0.65710608  0.71092580  0.26799926  1
  O2-  O214  1  0.66589384  0.70616940  0.60116244  1
  O2-  O215  1  0.67302055  0.70250166  0.93015135  1
  O2-  O216  1  0.08863220  0.45564294  0.06196539  1
  O2-  O217  1  0.08105245  0.45214963  0.40064949  1
  O2-  O218  1  0.08431707  0.45584006  0.73898221  1
  O2-  O219  1  0.09054675  0.95810205  0.06557867  1
  O2-  O220  1  0.08763663  0.95614682  0.39545062  1
  O2-  O221  1  0.08905172  0.95644018  0.73159005  1
  O2-  O222  1  0.57431543  0.45701657  0.06430556  1
  O2-  O223  1  0.58435695  0.46165980  0.40325310  1
  O2-  O224  1  0.57890669  0.45107653  0.73331968  1
  O2-  O225  1  0.57838553  0.96101742  0.06922969  1
  O2-  O226  1  0.58062305  0.95300569  0.39453650  1
  O2-  O227  1  0.57649013  0.95929695  0.73020707  1
  O2-  O228  1  0.20741223  0.33433524  0.06273295  1
  O2-  O229  1  0.21081785  0.32742528  0.39736519  1
  O2-  O230  1  0.21084544  0.32807794  0.73785956  1
  O2-  O231  1  0.20655140  0.83607928  0.06375077  1
  O2-  O232  1  0.20749004  0.83956471  0.39843189  1
  O2-  O233  1  0.20666958  0.83766937  0.73039207  1
  O2-  O234  1  0.70378666  0.33270524  0.06975638  1
  O2-  O235  1  0.69960525  0.32551776  0.39627623  1
  O2-  O236  1  0.70887494  0.33048544  0.73604552  1
  O2-  O237  1  0.69996924  0.82900469  0.06362384  1
  O2-  O238  1  0.69999922  0.83442858  0.39429923  1
  O2-  O239  1  0.70479131  0.83396649  0.73349022  1
  O2-  O240  1  0.46002253  0.41928683  0.26771637  1
  O2-  O241  1  0.44433731  0.42061960  0.61126513  1
  O2-  O242  1  0.44560087  0.41505726  0.93786388  1
  O2-  O243  1  0.45305182  0.91484139  0.26956329  1
  O2-  O244  1  0.45666628  0.91672697  0.59428708  1
  O2-  O245  1  0.44677138  0.92600323  0.93840368  1
  O2-  O246  1  0.95619259  0.42247316  0.26487232  1
  O2-  O247  1  0.95934668  0.41592790  0.60648941  1
  O2-  O248  1  0.96169580  0.41033920  0.93630409  1
  O2-  O249  1  0.96627178  0.91007614  0.26243212  1
  O2-  O250  1  0.96419559  0.90735143  0.60440023  1
  O2-  O251  1  0.96768203  0.91172070  0.93542017  1
  O2-  O252  1  0.33956197  0.28593847  0.26395461  1
  O2-  O253  1  0.33824851  0.28842809  0.60445853  1
  O2-  O254  1  0.33644126  0.28655507  0.93568658  1
  O2-  O255  1  0.33282231  0.79859339  0.27147479  1
  O2-  O256  1  0.33053194  0.79117177  0.59781773  1
  O2-  O257  1  0.32938339  0.79181260  0.93264756  1
  O2-  O258  1  0.82948763  0.29110021  0.26431204  1
  O2-  O259  1  0.83623143  0.30053511  0.60707402  1
  O2-  O260  1  0.83624072  0.29398506  0.93989489  1
  O2-  O261  1  0.82990793  0.79242476  0.26472774  1
  O2-  O262  1  0.83503828  0.79703203  0.60699494  1
  O2-  O263  1  0.83670136  0.80340325  0.93706346  1
  O2-  O264  1  0.41115378  0.05066388  0.06587195  1
  O2-  O265  1  0.41304195  0.04026359  0.39742619  1
  O2-  O266  1  0.41193945  0.04138489  0.72748496  1
  O2-  O267  1  0.41058154  0.54785058  0.05781474  1
  O2-  O268  1  0.41904796  0.54557438  0.40196390  1
  O2-  O269  1  0.41947404  0.55115939  0.73773671  1
  O2-  O270  1  0.92338027  0.04264473  0.06828400  1
  O2-  O271  1  0.91833804  0.03210251  0.39897045  1
  O2-  O272  1  0.92045325  0.03589613  0.73498523  1
  O2-  O273  1  0.92146430  0.54092633  0.06882561  1
  O2-  O274  1  0.92464777  0.55967071  0.39270161  1
  O2-  O275  1  0.92103086  0.54704138  0.73346391  1
  O2-  O276  1  0.28631826  0.16239988  0.06554052  1
  O2-  O277  1  0.29669244  0.16212349  0.39566968  1
  O2-  O278  1  0.29302452  0.16005888  0.73088602  1
  O2-  O279  1  0.28490150  0.66191117  0.06120954  1
  O2-  O280  1  0.29322221  0.67176600  0.39918713  1
  O2-  O281  1  0.28462005  0.67037561  0.73749787  1
  O2-  O282  1  0.79314969  0.16807824  0.06955530  1
  O2-  O283  1  0.79546586  0.16455079  0.40169522  1
  O2-  O284  1  0.80185848  0.17010917  0.73196717  1
  O2-  O285  1  0.80410745  0.67432890  0.06055946  1
  O2-  O286  1  0.78426514  0.66960486  0.39957666  1
  O2-  O287  1  0.79507563  0.67071317  0.73361849  1
