# generated using pymatgen
data_Ca2Al2SiO7
_symmetry_space_group_name_H-M   'P 1'
_cell_length_a   15.45587135
_cell_length_b   15.45582573
_cell_length_c   15.28156033
_cell_angle_alpha   90.00401163
_cell_angle_beta   90.00356826
_cell_angle_gamma   90.00939967
_symmetry_Int_Tables_number   1
_chemical_formula_structural   Ca2Al2SiO7
_chemical_formula_sum   'Ca48 Al48 Si24 O168'
_cell_volume   3650.50879487
_cell_formula_units_Z   24
loop_
 _symmetry_equiv_pos_site_id
 _symmetry_equiv_pos_as_xyz
  1  'x, y, z'
loop_
 _atom_type_symbol
 _atom_type_oxidation_number
  Ca2+  2.0
  Al0+  0.0
  Si0+  0.0
  O2-  -2.0
loop_
 _atom_site_type_symbol
 _atom_site_label
 _atom_site_symmetry_multiplicity
 _atom_site_fract_x
 _atom_site_fract_y
 _atom_site_fract_z
 _atom_site_occupancy
  Ca2+  Ca0  1  0.16980602  0.07886717  0.17341341  1
  Ca2+  Ca1  1  0.17532251  0.09436645  0.49917674  1
  Ca2+  Ca2  1  0.17314394  0.07993057  0.83748901  1
  Ca2+  Ca3  1  0.16880841  0.58765284  0.17136890  1
  Ca2+  Ca4  1  0.16752994  0.57931666  0.50286139  1
  Ca2+  Ca5  1  0.17819395  0.58877581  0.84031686  1
  Ca2+  Ca6  1  0.67196152  0.06800329  0.17465815  1
  Ca2+  Ca7  1  0.67656995  0.07440206  0.50412573  1
  Ca2+  Ca8  1  0.67141251  0.07342098  0.83479053  1
  Ca2+  Ca9  1  0.65923229  0.57754889  0.17104107  1
  Ca2+  Ca10  1  0.66323300  0.57523791  0.50049901  1
  Ca2+  Ca11  1  0.66042122  0.57186246  0.83969696  1
  Ca2+  Ca12  1  0.08192572  0.33038842  0.17020458  1
  Ca2+  Ca13  1  0.07054738  0.33074821  0.48739816  1
  Ca2+  Ca14  1  0.07448977  0.33174927  0.82490811  1
  Ca2+  Ca15  1  0.08157827  0.82657822  0.15528137  1
  Ca2+  Ca16  1  0.08266759  0.82618918  0.49320545  1
  Ca2+  Ca17  1  0.08478762  0.83286381  0.83770226  1
  Ca2+  Ca18  1  0.58805826  0.33353574  0.16286550  1
  Ca2+  Ca19  1  0.57886397  0.33982808  0.49757097  1
  Ca2+  Ca20  1  0.58222151  0.33587759  0.82537945  1
  Ca2+  Ca21  1  0.58439615  0.82541355  0.15719713  1
  Ca2+  Ca22  1  0.58808787  0.83079947  0.49244919  1
  Ca2+  Ca23  1  0.58577940  0.83251818  0.83343779  1
  Ca2+  Ca24  1  0.32646241  0.42636188  0.17144161  1
  Ca2+  Ca25  1  0.32595996  0.41961665  0.50641498  1
  Ca2+  Ca26  1  0.34127322  0.42928000  0.83571920  1
  Ca2+  Ca27  1  0.33025947  0.91489983  0.16771019  1
  Ca2+  Ca28  1  0.33391339  0.93091216  0.50310018  1
  Ca2+  Ca29  1  0.33164209  0.91928197  0.84074732  1
  Ca2+  Ca30  1  0.82397860  0.41655294  0.17419502  1
  Ca2+  Ca31  1  0.82498363  0.40726890  0.50291463  1
  Ca2+  Ca32  1  0.82321168  0.41176394  0.83565775  1
  Ca2+  Ca33  1  0.82637634  0.91259650  0.17188506  1
  Ca2+  Ca34  1  0.82612904  0.92432344  0.50484094  1
  Ca2+  Ca35  1  0.82739275  0.91681961  0.83885477  1
  Ca2+  Ca36  1  0.41486436  0.16734077  0.16574971  1
  Ca2+  Ca37  1  0.41276577  0.16911209  0.49632113  1
  Ca2+  Ca38  1  0.41879651  0.17300805  0.82331136  1
  Ca2+  Ca39  1  0.42577824  0.67061400  0.15743261  1
  Ca2+  Ca40  1  0.42192938  0.66671042  0.49571193  1
  Ca2+  Ca41  1  0.41591105  0.66872245  0.83470244  1
  Ca2+  Ca42  1  0.91324102  0.16744445  0.17008505  1
  Ca2+  Ca43  1  0.91230691  0.17190148  0.49291949  1
  Ca2+  Ca44  1  0.91561015  0.16905702  0.82479608  1
  Ca2+  Ca45  1  0.92813704  0.67102148  0.15972204  1
  Ca2+  Ca46  1  0.92225694  0.66775022  0.49112763  1
  Ca2+  Ca47  1  0.91847675  0.67227336  0.83530200  1
  Al0+  Al48  1  0.00239389  0.00187520  -0.00040018  1
  Al0+  Al49  1  0.00032230  0.00066269  0.33387437  1
  Al0+  Al50  1  0.00082874  -0.00151584  0.66726760  1
  Al0+  Al51  1  -0.00013758  0.49795713  -0.00599308  1
  Al0+  Al52  1  -0.00047716  0.49993487  0.32750051  1
  Al0+  Al53  1  -0.00100156  0.49946726  0.66221379  1
  Al0+  Al54  1  0.50327023  0.00214760  -0.00005239  1
  Al0+  Al55  1  0.49809782  0.00124428  0.34021124  1
  Al0+  Al56  1  0.49891426  -0.00032576  0.67328126  1
  Al0+  Al57  1  0.49822092  0.49970630  0.00649301  1
  Al0+  Al58  1  0.49894798  0.50149164  0.33268366  1
  Al0+  Al59  1  0.49916945  0.50021896  0.66850697  1
  Al0+  Al60  1  0.24967520  0.25181645  -0.00241601  1
  Al0+  Al61  1  0.24788010  0.25266865  0.33543148  1
  Al0+  Al62  1  0.24990157  0.25131041  0.66842927  1
  Al0+  Al63  1  0.25238218  0.75158254  0.00153672  1
  Al0+  Al64  1  0.25189716  0.75152471  0.33159533  1
  Al0+  Al65  1  0.25199353  0.74959643  0.66723347  1
  Al0+  Al66  1  0.74945603  0.24972868  0.00328802  1
  Al0+  Al67  1  0.74699295  0.24953865  0.33571624  1
  Al0+  Al68  1  0.74897334  0.24779319  0.67006249  1
  Al0+  Al69  1  0.75164194  0.74733166  -0.00531602  1
  Al0+  Al70  1  0.74921534  0.74621375  0.33240135  1
  Al0+  Al71  1  0.75071861  0.74817543  0.66754485  1
  Al0+  Al72  1  0.31983058  0.57034711  0.68002881  1
  Al0+  Al73  1  0.31961439  0.07320270  0.68185809  1
  Al0+  Al74  1  0.43103303  0.82335537  0.98456529  1
  Al0+  Al75  1  0.68065627  0.92738098  0.01412774  1
  Al0+  Al76  1  0.92928535  0.82289531  0.98456305  1
  Al0+  Al77  1  0.31913387  0.07186518  0.34585473  1
  Al0+  Al78  1  0.17769140  0.43142557  0.34641001  1
  Al0+  Al79  1  0.57001419  0.67912408  0.31992902  1
  Al0+  Al80  1  0.68050062  0.43094170  0.67952271  1
  Al0+  Al81  1  0.07301650  0.67773232  0.98335148  1
  Al0+  Al82  1  0.92732104  0.31929269  0.65254347  1
  Al0+  Al83  1  0.18071429  0.93136601  0.01359406  1
  Al0+  Al84  1  0.67904864  0.92581494  0.68353156  1
  Al0+  Al85  1  0.82210232  0.07023314  0.34789099  1
  Al0+  Al86  1  0.67748828  0.42958944  0.34796626  1
  Al0+  Al87  1  0.82234238  0.07021106  0.68276189  1
  Al0+  Al88  1  0.57096041  0.67634087  0.98308739  1
  Al0+  Al89  1  0.67872440  0.92502146  0.34733099  1
  Al0+  Al90  1  0.67980801  0.42990688  0.01498491  1
  Al0+  Al91  1  0.07223414  0.17886661  0.31725531  1
  Al0+  Al92  1  0.31906357  0.57099783  0.01580023  1
  Al0+  Al93  1  0.07247761  0.67962934  0.32008821  1
  Al0+  Al94  1  0.43004836  0.32217514  0.65257153  1
  Al0+  Al95  1  0.92504793  0.31995713  0.31591877  1
  Si0+  Si96  1  0.07275919  0.18001005  0.98345509  1
  Si0+  Si97  1  0.17548936  0.42643307  0.01554894  1
  Si0+  Si98  1  0.07299189  0.68037125  0.65125659  1
  Si0+  Si99  1  0.82265446  0.57024698  0.34857724  1
  Si0+  Si100  1  0.42939956  0.82543734  0.31794067  1
  Si0+  Si101  1  0.32119651  0.57321377  0.35051833  1
  Si0+  Si102  1  0.32305587  0.07539190  0.01582595  1
  Si0+  Si103  1  0.92709059  0.31887885  0.98404780  1
  Si0+  Si104  1  0.42865728  0.32007861  0.98632924  1
  Si0+  Si105  1  0.42816471  0.82205912  0.65081902  1
  Si0+  Si106  1  0.92843757  0.82051085  0.65035393  1
  Si0+  Si107  1  0.17790020  0.92636837  0.34975942  1
  Si0+  Si108  1  0.57054751  0.67905148  0.65168542  1
  Si0+  Si109  1  0.82296484  0.07235848  0.01725280  1
  Si0+  Si110  1  0.82474968  0.57070773  0.01590980  1
  Si0+  Si111  1  0.57251612  0.18036023  0.98517595  1
  Si0+  Si112  1  0.57014135  0.17631018  0.64926814  1
  Si0+  Si113  1  0.92817187  0.82163275  0.31868633  1
  Si0+  Si114  1  0.42814869  0.32163179  0.31803172  1
  Si0+  Si115  1  0.82544580  0.57262637  0.68342988  1
  Si0+  Si116  1  0.56895200  0.17835223  0.31931106  1
  Si0+  Si117  1  0.07233351  0.17668863  0.65057971  1
  Si0+  Si118  1  0.17925862  0.92614482  0.68278754  1
  Si0+  Si119  1  0.17577508  0.42915463  0.68324286  1
  O2-  O120  1  0.25711581  0.00463335  0.05999263  1
  O2-  O121  1  0.24310084  -0.00142953  0.39365622  1
  O2-  O122  1  0.24493145  -0.00194088  0.72649719  1
  O2-  O123  1  0.23951404  0.49954867  0.05938674  1
  O2-  O124  1  0.24949341  0.50802593  0.39473811  1
  O2-  O125  1  0.24486150  0.49649701  0.72821626  1
  O2-  O126  1  0.75948309  -0.00169695  0.05996697  1
  O2-  O127  1  0.75235116  -0.00457971  0.39668649  1
  O2-  O128  1  0.75265184  -0.00348367  0.73304731  1
  O2-  O129  1  0.75322540  0.50567232  0.06120579  1
  O2-  O130  1  0.75490225  0.50137673  0.39428166  1
  O2-  O131  1  0.75722833  0.50307085  0.72687375  1
  O2-  O132  1  -0.00298754  0.24716917  0.26597001  1
  O2-  O133  1  0.00194724  0.24381831  0.60732998  1
  O2-  O134  1  0.00006198  0.24958051  0.94196003  1
  O2-  O135  1  0.00057370  0.75705185  0.27447375  1
  O2-  O136  1  0.00008752  0.74940716  0.60873015  1
  O2-  O137  1  0.00132292  0.75042747  0.93335371  1
  O2-  O138  1  0.49910749  0.25056922  0.27564246  1
  O2-  O139  1  0.50171805  0.24535175  0.60400023  1
  O2-  O140  1  0.49964468  0.24974982  0.94351105  1
  O2-  O141  1  0.49972750  0.75832813  0.27488035  1
  O2-  O142  1  0.50330301  0.75446667  0.60982298  1
  O2-  O143  1  0.50278249  0.75189789  0.93230498  1
  O2-  O144  1  0.07651722  0.18122759  0.08792743  1
  O2-  O145  1  0.07530216  0.18401247  0.43065422  1
  O2-  O146  1  0.07258414  0.17840159  0.75681531  1
  O2-  O147  1  0.07071895  0.67868799  0.09699335  1
  O2-  O148  1  0.07128077  0.68113996  0.43417658  1
  O2-  O149  1  0.07452095  0.68181897  0.75582433  1
  O2-  O150  1  0.57255029  0.18105937  0.09052908  1
  O2-  O151  1  0.56681446  0.17799653  0.42437015  1
  O2-  O152  1  0.56839999  0.17802720  0.75538960  1
  O2-  O153  1  0.56772197  0.67572828  0.09675714  1
  O2-  O154  1  0.56648147  0.67704001  0.43376883  1
  O2-  O155  1  0.56888931  0.67699410  0.75630315  1
  O2-  O156  1  0.18202241  0.43117047  0.23321363  1
  O2-  O157  1  0.17552140  0.43150045  0.57760462  1
  O2-  O158  1  0.17757646  0.42252570  0.90995621  1
  O2-  O159  1  0.18061722  0.92438149  0.24442390  1
  O2-  O160  1  0.18124866  0.92229056  0.57715895  1
  O2-  O161  1  0.18088028  0.93583422  0.90016266  1
  O2-  O162  1  0.67649195  0.43128556  0.23498027  1
  O2-  O163  1  0.67862337  0.43380300  0.56657171  1
  O2-  O164  1  0.68102146  0.42713880  0.90169125  1
  O2-  O165  1  0.67872022  0.92572306  0.23358151  1
  O2-  O166  1  0.68094025  0.92498194  0.56991461  1
  O2-  O167  1  0.68012308  0.93254952  0.90133387  1
  O2-  O168  1  0.42643127  0.31736375  0.09162310  1
  O2-  O169  1  0.42889953  0.32205762  0.42329836  1
  O2-  O170  1  0.43350114  0.32233679  0.76613637  1
  O2-  O171  1  0.43225153  0.82316255  0.09840272  1
  O2-  O172  1  0.42738167  0.82428538  0.42401453  1
  O2-  O173  1  0.42436889  0.82057985  0.75538473  1
  O2-  O174  1  0.92535231  0.31795674  0.08860723  1
  O2-  O175  1  0.92549324  0.31891185  0.42960694  1
  O2-  O176  1  0.92986264  0.31896705  0.76641686  1
  O2-  O177  1  0.93124155  0.82192384  0.09840850  1
  O2-  O178  1  0.92901831  0.81827687  0.42491176  1
  O2-  O179  1  0.92874507  0.82034945  0.75500433  1
  O2-  O180  1  0.32009674  0.07049497  0.23276692  1
  O2-  O181  1  0.31858404  0.07251900  0.56868219  1
  O2-  O182  1  0.31962152  0.07886521  0.91030095  1
  O2-  O183  1  0.32158366  0.57141268  0.24510598  1
  O2-  O184  1  0.31764583  0.57084257  0.56680947  1
  O2-  O185  1  0.32063707  0.56738497  0.90237095  1
  O2-  O186  1  0.81842929  0.06894353  0.23400838  1
  O2-  O187  1  0.82149112  0.06874747  0.56955346  1
  O2-  O188  1  0.82015537  0.07624663  0.91174447  1
  O2-  O189  1  0.82180657  0.57074041  0.24320738  1
  O2-  O190  1  0.82621239  0.57518199  0.57783429  1
  O2-  O191  1  0.82659849  0.56590534  0.91007539  1
  O2-  O192  1  0.04930815  0.07774122  0.26635251  1
  O2-  O193  1  0.05228465  0.08112973  0.60584480  1
  O2-  O194  1  0.04700344  0.08863761  0.93478220  1
  O2-  O195  1  0.04179910  0.58474228  0.26406926  1
  O2-  O196  1  0.04647186  0.58789205  0.60421165  1
  O2-  O197  1  0.04619023  0.57851790  0.92955140  1
  O2-  O198  1  0.53826544  0.08707265  0.27166324  1
  O2-  O199  1  0.54290410  0.08234906  0.60478580  1
  O2-  O200  1  0.54656656  0.08933801  0.93592983  1
  O2-  O201  1  0.53445155  0.58438886  0.26461697  1
  O2-  O202  1  0.53706928  0.58953524  0.60315686  1
  O2-  O203  1  0.53624468  0.57780967  0.93278226  1
  O2-  O204  1  0.16933062  0.21261378  0.26304880  1
  O2-  O205  1  0.16575680  0.20457471  0.60577934  1
  O2-  O206  1  0.16352704  0.20989542  0.93341432  1
  O2-  O207  1  0.17022187  0.70852333  0.26737310  1
  O2-  O208  1  0.16383442  0.71037842  0.60236100  1
  O2-  O209  1  0.17116185  0.70890748  0.93227845  1
  O2-  O210  1  0.65969897  0.20570762  0.27059580  1
  O2-  O211  1  0.66422244  0.20161289  0.60540152  1
  O2-  O212  1  0.66325199  0.21085465  0.93699817  1
  O2-  O213  1  0.66855171  0.70219179  0.26614942  1
  O2-  O214  1  0.66446586  0.70174012  0.60504898  1
  O2-  O215  1  0.67148492  0.69657321  0.93161663  1
  O2-  O216  1  0.07950601  0.44578915  0.05872581  1
  O2-  O217  1  0.07984766  0.45995038  0.39892791  1
  O2-  O218  1  0.08198747  0.45537436  0.72880691  1
  O2-  O219  1  0.08484045  0.96358128  0.06824634  1
  O2-  O220  1  0.08293328  0.94635860  0.39478645  1
  O2-  O221  1  0.08461276  0.94820571  0.72772713  1
  O2-  O222  1  0.58275015  0.45671987  0.06944758  1
  O2-  O223  1  0.58124137  0.46386430  0.40147475  1
  O2-  O224  1  0.58505949  0.46413665  0.73419537  1
  O2-  O225  1  0.58549465  0.96353899  0.06833571  1
  O2-  O226  1  0.58123905  0.95553380  0.40088338  1
  O2-  O227  1  0.58080072  0.95454082  0.73594191  1
  O2-  O228  1  0.20732050  0.33495798  0.06317207  1
  O2-  O229  1  0.21116019  0.33726501  0.40259042  1
  O2-  O230  1  0.19901582  0.33510116  0.72876005  1
  O2-  O231  1  0.21017547  0.83521049  0.06809852  1
  O2-  O232  1  0.20815622  0.83469863  0.39864654  1
  O2-  O233  1  0.20893650  0.83473088  0.73061445  1
  O2-  O234  1  0.71210880  0.33344565  0.06912203  1
  O2-  O235  1  0.70297782  0.33197758  0.40143686  1
  O2-  O236  1  0.70710284  0.33328265  0.73332037  1
  O2-  O237  1  0.70777328  0.82769341  0.06337089  1
  O2-  O238  1  0.70559798  0.82579475  0.39972665  1
  O2-  O239  1  0.70694741  0.82647601  0.73479182  1
  O2-  O240  1  0.45624691  0.41307871  0.27037888  1
  O2-  O241  1  0.46225516  0.41803562  0.59755389  1
  O2-  O242  1  0.45767793  0.41183587  0.94090222  1
  O2-  O243  1  0.45089390  0.92030731  0.27304137  1
  O2-  O244  1  0.45275352  0.91591091  0.60566527  1
  O2-  O245  1  0.45717345  0.92364499  0.93277141  1
  O2-  O246  1  0.95446901  0.41787975  0.26278432  1
  O2-  O247  1  0.95616686  0.41676285  0.59827767  1
  O2-  O248  1  0.95251206  0.41026659  0.93459936  1
  O2-  O249  1  0.94805063  0.91675785  0.27457956  1
  O2-  O250  1  0.95710519  0.91201158  0.60243176  1
  O2-  O251  1  0.95881965  0.92194131  0.93203053  1
  O2-  O252  1  0.33713652  0.29307931  0.27018344  1
  O2-  O253  1  0.33102030  0.29434649  0.60120103  1
  O2-  O254  1  0.33735183  0.29371867  0.93632484  1
  O2-  O255  1  0.33649737  0.79829844  0.27107797  1
  O2-  O256  1  0.33833636  0.79018948  0.60093333  1
  O2-  O257  1  0.33254548  0.79484185  0.93215541  1
  O2-  O258  1  0.82564764  0.29120500  0.26408955  1
  O2-  O259  1  0.82982161  0.28865366  0.60057568  1
  O2-  O260  1  0.83595608  0.28780876  0.93646573  1
  O2-  O261  1  0.83633996  0.79133406  0.27202503  1
  O2-  O262  1  0.83722781  0.79117066  0.60225502  1
  O2-  O263  1  0.83280099  0.79270259  0.92853411  1
  O2-  O264  1  0.41845517  0.05456520  0.05935019  1
  O2-  O265  1  0.41362576  0.04192354  0.40460702  1
  O2-  O266  1  0.41538251  0.04332755  0.73685564  1
  O2-  O267  1  0.41196456  0.53412641  0.07277290  1
  O2-  O268  1  0.41268431  0.54257396  0.39734155  1
  O2-  O269  1  0.41490006  0.53794595  0.73515746  1
  O2-  O270  1  0.91928410  0.05432609  0.05977984  1
  O2-  O271  1  0.92227092  0.04773750  0.40052863  1
  O2-  O272  1  0.92265349  0.04442281  0.73411230  1
  O2-  O273  1  0.91778499  0.54140962  0.06187545  1
  O2-  O274  1  0.91678114  0.54686585  0.39435073  1
  O2-  O275  1  0.91939824  0.54794540  0.72932555  1
  O2-  O276  1  0.29360860  0.16821826  0.06227928  1
  O2-  O277  1  0.28932461  0.16847819  0.40044877  1
  O2-  O278  1  0.29002688  0.16983875  0.73723406  1
  O2-  O279  1  0.29345700  0.66845623  0.06931865  1
  O2-  O280  1  0.29971798  0.66851253  0.39537991  1
  O2-  O281  1  0.28924229  0.66685036  0.73421093  1
  O2-  O282  1  0.79056880  0.16301203  0.06533731  1
  O2-  O283  1  0.78833942  0.16676736  0.40077659  1
  O2-  O284  1  0.79149377  0.16697591  0.73769920  1
  O2-  O285  1  0.80465443  0.66614927  0.05914836  1
  O2-  O286  1  0.79644026  0.66281350  0.39705115  1
  O2-  O287  1  0.79942267  0.66538671  0.73022767  1
