# generated using pymatgen
data_Ca2Al2SiO7
_symmetry_space_group_name_H-M   'P 1'
_cell_length_a   15.46305284
_cell_length_b   15.46086573
_cell_length_c   15.28560859
_cell_angle_alpha   89.98551757
_cell_angle_beta   89.98529033
_cell_angle_gamma   89.99401745
_symmetry_Int_Tables_number   1
_chemical_formula_structural   Ca2Al2SiO7
_chemical_formula_sum   'Ca48 Al48 Si24 O168'
_cell_volume   3654.36356668
_cell_formula_units_Z   24
loop_
 _symmetry_equiv_pos_site_id
 _symmetry_equiv_pos_as_xyz
  1  'x, y, z'
loop_
 _atom_type_symbol
 _atom_type_oxidation_number
  Ca2+  2.0
  Al0+  0.0
  Si0+  0.0
  O2-  -2.0
loop_
 _atom_site_type_symbol
 _atom_site_label
 _atom_site_symmetry_multiplicity
 _atom_site_fract_x
 _atom_site_fract_y
 _atom_site_fract_z
 _atom_site_occupancy
  Ca2+  Ca0  1  0.17127211  0.08734856  0.16433852  1
  Ca2+  Ca1  1  0.17408201  0.08050395  0.50749911  1
  Ca2+  Ca2  1  0.17683674  0.09097009  0.84016374  1
  Ca2+  Ca3  1  0.17269716  0.58406514  0.17175493  1
  Ca2+  Ca4  1  0.17879883  0.58317737  0.50649352  1
  Ca2+  Ca5  1  0.16875820  0.58603551  0.83320176  1
  Ca2+  Ca6  1  0.65527010  0.07244563  0.17080113  1
  Ca2+  Ca7  1  0.65780913  0.07703053  0.50763570  1
  Ca2+  Ca8  1  0.66008652  0.07498262  0.83349082  1
  Ca2+  Ca9  1  0.67557719  0.58908805  0.16969296  1
  Ca2+  Ca10  1  0.67950356  0.58072345  0.50631638  1
  Ca2+  Ca11  1  0.67726315  0.58715471  0.84132952  1
  Ca2+  Ca12  1  0.07867922  0.33096030  0.16358233  1
  Ca2+  Ca13  1  0.07221243  0.33477089  0.49959843  1
  Ca2+  Ca14  1  0.07762371  0.32843230  0.83049290  1
  Ca2+  Ca15  1  0.07855059  0.82487375  0.15786122  1
  Ca2+  Ca16  1  0.08290648  0.82646854  0.49938778  1
  Ca2+  Ca17  1  0.08437296  0.82035522  0.82853417  1
  Ca2+  Ca18  1  0.57317983  0.33153899  0.16439090  1
  Ca2+  Ca19  1  0.57722054  0.32084685  0.49506231  1
  Ca2+  Ca20  1  0.57151239  0.32821791  0.82360508  1
  Ca2+  Ca21  1  0.57843184  0.83290813  0.16136299  1
  Ca2+  Ca22  1  0.58172553  0.83719480  0.49494292  1
  Ca2+  Ca23  1  0.58659679  0.83497816  0.83663567  1
  Ca2+  Ca24  1  0.33727314  0.42002937  0.17280023  1
  Ca2+  Ca25  1  0.34186565  0.42356520  0.50426253  1
  Ca2+  Ca26  1  0.33964010  0.41877932  0.83679087  1
  Ca2+  Ca27  1  0.34366474  0.92000457  0.16764966  1
  Ca2+  Ca28  1  0.33643078  0.92145388  0.50549255  1
  Ca2+  Ca29  1  0.33856663  0.93053823  0.83954289  1
  Ca2+  Ca30  1  0.83671323  0.42696611  0.17292741  1
  Ca2+  Ca31  1  0.83939735  0.42039818  0.50566944  1
  Ca2+  Ca32  1  0.83727550  0.42378801  0.83501146  1
  Ca2+  Ca33  1  0.81795320  0.91479434  0.17212269  1
  Ca2+  Ca34  1  0.81809989  0.92579548  0.50965775  1
  Ca2+  Ca35  1  0.82200968  0.92041629  0.83583767  1
  Ca2+  Ca36  1  0.41835112  0.17478063  0.16186724  1
  Ca2+  Ca37  1  0.42341848  0.17085922  0.49720330  1
  Ca2+  Ca38  1  0.41427238  0.17400322  0.82523011  1
  Ca2+  Ca39  1  0.42045142  0.67736309  0.15859264  1
  Ca2+  Ca40  1  0.41469460  0.67035468  0.49213189  1
  Ca2+  Ca41  1  0.42216569  0.67166626  0.82896858  1
  Ca2+  Ca42  1  0.92241282  0.17207168  0.16214572  1
  Ca2+  Ca43  1  0.90398241  0.17850443  0.49902464  1
  Ca2+  Ca44  1  0.91974145  0.16732814  0.82389901  1
  Ca2+  Ca45  1  0.91922439  0.66143331  0.15828258  1
  Ca2+  Ca46  1  0.92123143  0.65698895  0.49885244  1
  Ca2+  Ca47  1  0.92439401  0.65820918  0.82817714  1
  Al0+  Al48  1  0.00140665  0.00060362  -0.00351669  1
  Al0+  Al49  1  -0.00009025  -0.00196710  0.33389773  1
  Al0+  Al50  1  -0.00115147  -0.00372674  0.66869129  1
  Al0+  Al51  1  0.00145359  0.49964649  0.00078375  1
  Al0+  Al52  1  0.00280541  0.49832878  0.33286420  1
  Al0+  Al53  1  0.00293726  0.49920809  0.66236965  1
  Al0+  Al54  1  0.49919261  0.00144324  0.00594199  1
  Al0+  Al55  1  0.49867728  -0.00115582  0.33119763  1
  Al0+  Al56  1  0.49692819  -0.00097793  0.67235745  1
  Al0+  Al57  1  0.50164534  0.50138811  -0.00609973  1
  Al0+  Al58  1  0.50352154  0.50025985  0.33483573  1
  Al0+  Al59  1  0.50102851  0.50250764  0.66693817  1
  Al0+  Al60  1  0.24833905  0.25139473  -0.00156735  1
  Al0+  Al61  1  0.24875421  0.24975580  0.33289308  1
  Al0+  Al62  1  0.24710289  0.25182794  0.66451606  1
  Al0+  Al63  1  0.24910957  0.75202192  -0.00807205  1
  Al0+  Al64  1  0.24969181  0.75025175  0.33262383  1
  Al0+  Al65  1  0.24988967  0.74773326  0.66594639  1
  Al0+  Al66  1  0.74869008  0.25163010  0.00148594  1
  Al0+  Al67  1  0.75092561  0.24989602  0.32010421  1
  Al0+  Al68  1  0.74886010  0.24930121  0.66300129  1
  Al0+  Al69  1  0.75065922  0.75135157  0.00575792  1
  Al0+  Al70  1  0.75143246  0.75129733  0.34405247  1
  Al0+  Al71  1  0.75087764  0.75021896  0.67369543  1
  Al0+  Al72  1  0.92917669  0.31862175  0.65476375  1
  Al0+  Al73  1  0.42888018  0.32132044  0.98595639  1
  Al0+  Al74  1  0.42606349  0.32390384  0.65022622  1
  Al0+  Al75  1  0.82100869  0.56799504  0.01405815  1
  Al0+  Al76  1  0.31875622  0.07228923  0.01575533  1
  Al0+  Al77  1  0.32287914  0.57098406  0.68174650  1
  Al0+  Al78  1  0.67648986  0.92930270  0.68436667  1
  Al0+  Al79  1  0.32235801  0.57109998  0.34397085  1
  Al0+  Al80  1  0.07051668  0.67945471  0.64987362  1
  Al0+  Al81  1  0.06945725  0.17941597  0.98645677  1
  Al0+  Al82  1  0.42838173  0.81853206  0.32096401  1
  Al0+  Al83  1  0.56812486  0.17712779  0.65325153  1
  Al0+  Al84  1  0.42810481  0.32325084  0.31815549  1
  Al0+  Al85  1  0.42931604  0.82329595  0.98269608  1
  Al0+  Al86  1  0.82259037  0.56802443  0.68110549  1
  Al0+  Al87  1  0.82111667  0.07370154  0.68086295  1
  Al0+  Al88  1  0.07012361  0.67810138  0.98601855  1
  Al0+  Al89  1  0.67793847  0.93195142  0.34850306  1
  Al0+  Al90  1  0.57010257  0.17745632  0.31632112  1
  Al0+  Al91  1  0.57311992  0.68046452  0.98545905  1
  Al0+  Al92  1  0.68094345  0.93173927  0.01704161  1
  Al0+  Al93  1  0.82230187  0.56916978  0.34856875  1
  Al0+  Al94  1  0.31690979  0.07124110  0.67902997  1
  Al0+  Al95  1  0.93033763  0.32142077  0.31769595  1
  Si0+  Si96  1  0.57186981  0.17824532  0.98336322  1
  Si0+  Si97  1  0.17643707  0.92743767  0.34797952  1
  Si0+  Si98  1  0.57445437  0.67945966  0.65104588  1
  Si0+  Si99  1  0.18044864  0.43056668  0.01517667  1
  Si0+  Si100  1  0.17728071  0.92678609  0.01658265  1
  Si0+  Si101  1  0.92733199  0.82237047  0.98384190  1
  Si0+  Si102  1  0.92771214  0.32210092  0.98392691  1
  Si0+  Si103  1  0.82529218  0.07456618  0.01743119  1
  Si0+  Si104  1  0.92861367  0.82091965  0.31982712  1
  Si0+  Si105  1  0.67526567  0.42726206  0.01758501  1
  Si0+  Si106  1  0.17831761  0.42956850  0.68378830  1
  Si0+  Si107  1  0.42998205  0.81877205  0.65219956  1
  Si0+  Si108  1  0.67926084  0.42508795  0.34960069  1
  Si0+  Si109  1  0.17919178  0.42703128  0.35063051  1
  Si0+  Si110  1  0.07154581  0.17440048  0.64978703  1
  Si0+  Si111  1  0.92620138  0.82166303  0.64851024  1
  Si0+  Si112  1  0.17715525  0.92562079  0.68333067  1
  Si0+  Si113  1  0.67766856  0.42769468  0.68245983  1
  Si0+  Si114  1  0.32213080  0.57311374  0.01297817  1
  Si0+  Si115  1  0.07015520  0.68009345  0.31818882  1
  Si0+  Si116  1  0.07244266  0.17465148  0.31738822  1
  Si0+  Si117  1  0.31884792  0.07021364  0.34787339  1
  Si0+  Si118  1  0.57590886  0.67877338  0.32025873  1
  Si0+  Si119  1  0.82447950  0.07240068  0.34718805  1
  O2-  O120  1  0.24630116  -0.00579874  0.06247272  1
  O2-  O121  1  0.24656374  -0.00041964  0.38923587  1
  O2-  O122  1  0.23933793  -0.00022215  0.72710034  1
  O2-  O123  1  0.25214307  0.50157856  0.05653865  1
  O2-  O124  1  0.25299411  0.49153421  0.39228187  1
  O2-  O125  1  0.25252214  0.49209172  0.72840404  1
  O2-  O126  1  0.75540137  0.00806322  0.06309773  1
  O2-  O127  1  0.75067886  0.01002172  0.39196780  1
  O2-  O128  1  0.74827886  0.00340736  0.73178669  1
  O2-  O129  1  0.74557625  0.49484580  0.06196597  1
  O2-  O130  1  0.74895383  0.49292455  0.39463650  1
  O2-  O131  1  0.74711537  0.49501616  0.72837242  1
  O2-  O132  1  0.00332286  0.24340747  0.27404307  1
  O2-  O133  1  -0.00185231  0.23819224  0.60655744  1
  O2-  O134  1  -0.01119291  0.24716358  0.93974127  1
  O2-  O135  1  -0.00374338  0.74750598  0.27545151  1
  O2-  O136  1  -0.00547617  0.75278400  0.60286317  1
  O2-  O137  1  -0.00449657  0.75300962  0.93978602  1
  O2-  O138  1  0.49901154  0.25115933  0.26715121  1
  O2-  O139  1  0.49705842  0.24997283  0.60262670  1
  O2-  O140  1  0.50468733  0.24807509  0.93956608  1
  O2-  O141  1  0.50257440  0.74249023  0.27622266  1
  O2-  O142  1  0.50204079  0.74930645  0.60905428  1
  O2-  O143  1  0.50034469  0.75039595  0.93286451  1
  O2-  O144  1  0.06953105  0.18272683  0.09996579  1
  O2-  O145  1  0.07423999  0.17263604  0.42268738  1
  O2-  O146  1  0.07328329  0.17786653  0.75535740  1
  O2-  O147  1  0.06995004  0.67860225  0.09987926  1
  O2-  O148  1  0.07127691  0.68219428  0.42307317  1
  O2-  O149  1  0.06981755  0.68016843  0.76296805  1
  O2-  O150  1  0.57002796  0.17944212  0.08895166  1
  O2-  O151  1  0.56742237  0.17605263  0.42979976  1
  O2-  O152  1  0.56583792  0.17825150  0.76700126  1
  O2-  O153  1  0.57187623  0.68034352  0.09959456  1
  O2-  O154  1  0.57667928  0.68108525  0.42607376  1
  O2-  O155  1  0.57451926  0.67925669  0.75592612  1
  O2-  O156  1  0.17590780  0.42943966  0.24469842  1
  O2-  O157  1  0.17572673  0.43267474  0.57815922  1
  O2-  O158  1  0.17808736  0.43083738  0.91035840  1
  O2-  O159  1  0.17294659  0.92593154  0.24338846  1
  O2-  O160  1  0.17966912  0.92480311  0.57698177  1
  O2-  O161  1  0.17647711  0.92707660  0.91130186  1
  O2-  O162  1  0.67918249  0.42855171  0.24390150  1
  O2-  O163  1  0.67820001  0.43054475  0.57683398  1
  O2-  O164  1  0.67695658  0.42617029  0.91207790  1
  O2-  O165  1  0.68015051  0.93001798  0.23548874  1
  O2-  O166  1  0.67622299  0.92907546  0.57054185  1
  O2-  O167  1  0.68226361  0.93262104  0.90443490  1
  O2-  O168  1  0.42844915  0.32159747  0.09906059  1
  O2-  O169  1  0.42857480  0.32125370  0.43123134  1
  O2-  O170  1  0.42747754  0.32221474  0.76400355  1
  O2-  O171  1  0.42953035  0.82019209  0.09665737  1
  O2-  O172  1  0.42687206  0.81878799  0.43445115  1
  O2-  O173  1  0.42893083  0.81767666  0.75688203  1
  O2-  O174  1  0.93260297  0.32412216  0.08953672  1
  O2-  O175  1  0.93264032  0.32218046  0.43073064  1
  O2-  O176  1  0.93423555  0.32076681  0.76781608  1
  O2-  O177  1  0.92966823  0.82131406  0.09018462  1
  O2-  O178  1  0.93250863  0.82252790  0.42437111  1
  O2-  O179  1  0.92818549  0.82140854  0.75402339  1
  O2-  O180  1  0.31655077  0.07056329  0.24285139  1
  O2-  O181  1  0.31660202  0.06700777  0.56531244  1
  O2-  O182  1  0.31621151  0.07333336  0.90274061  1
  O2-  O183  1  0.31724183  0.57401074  0.23060921  1
  O2-  O184  1  0.32021291  0.57398615  0.56833834  1
  O2-  O185  1  0.32029242  0.57160011  0.90807587  1
  O2-  O186  1  0.83086216  0.06608993  0.24186698  1
  O2-  O187  1  0.82086604  0.07151761  0.56697449  1
  O2-  O188  1  0.82601934  0.07354588  0.91218284  1
  O2-  O189  1  0.82287995  0.57028429  0.23531158  1
  O2-  O190  1  0.82194783  0.56612334  0.56780958  1
  O2-  O191  1  0.82347770  0.56509524  0.90115451  1
  O2-  O192  1  0.04708069  0.08101125  0.27023419  1
  O2-  O193  1  0.05370108  0.07743449  0.60741250  1
  O2-  O194  1  0.04781538  0.08093485  0.93202928  1
  O2-  O195  1  0.04643232  0.58700550  0.27194733  1
  O2-  O196  1  0.04091821  0.58360484  0.59467639  1
  O2-  O197  1  0.03915638  0.58163753  0.93227761  1
  O2-  O198  1  0.53621553  0.08097012  0.26318094  1
  O2-  O199  1  0.53590704  0.07873335  0.60158054  1
  O2-  O200  1  0.54450756  0.08478541  0.94008695  1
  O2-  O201  1  0.55766347  0.58328723  0.27587926  1
  O2-  O202  1  0.54835197  0.58762929  0.60322294  1
  O2-  O203  1  0.54834604  0.58226803  0.93082385  1
  O2-  O204  1  0.16495351  0.20200097  0.26997038  1
  O2-  O205  1  0.16197372  0.20555409  0.60031264  1
  O2-  O206  1  0.16232013  0.21757646  0.93109851  1
  O2-  O207  1  0.15993947  0.71192726  0.26946118  1
  O2-  O208  1  0.16662171  0.71314872  0.59541116  1
  O2-  O209  1  0.16502477  0.70862984  0.92933653  1
  O2-  O210  1  0.66887129  0.19995480  0.26107123  1
  O2-  O211  1  0.66691561  0.20279330  0.59971619  1
  O2-  O212  1  0.66753644  0.20047405  0.93949205  1
  O2-  O213  1  0.66849579  0.71010529  0.27486954  1
  O2-  O214  1  0.66652962  0.70818534  0.60449523  1
  O2-  O215  1  0.67201090  0.71090098  0.93443193  1
  O2-  O216  1  0.08978864  0.45978866  0.06500229  1
  O2-  O217  1  0.08861504  0.45892587  0.39892909  1
  O2-  O218  1  0.08819728  0.46239130  0.73231802  1
  O2-  O219  1  0.08343486  0.95324665  0.06335849  1
  O2-  O220  1  0.08538764  0.95440565  0.39852134  1
  O2-  O221  1  0.08107555  0.94176610  0.72731607  1
  O2-  O222  1  0.58214544  0.45549301  0.06351482  1
  O2-  O223  1  0.58660474  0.45023819  0.39774058  1
  O2-  O224  1  0.58503853  0.45500993  0.72940580  1
  O2-  O225  1  0.58406648  0.96153995  0.07124545  1
  O2-  O226  1  0.58000703  0.96035697  0.40134420  1
  O2-  O227  1  0.57867638  0.95646740  0.73844718  1
  O2-  O228  1  0.20754001  0.33965543  0.06422294  1
  O2-  O229  1  0.19705719  0.33124438  0.39567802  1
  O2-  O230  1  0.19574283  0.33347530  0.72790589  1
  O2-  O231  1  0.20130428  0.83190483  0.06185598  1
  O2-  O232  1  0.20609832  0.83690660  0.39700976  1
  O2-  O233  1  0.20826324  0.83413406  0.72960234  1
  O2-  O234  1  0.69836715  0.33310276  0.06465289  1
  O2-  O235  1  0.70528920  0.32968106  0.39107751  1
  O2-  O236  1  0.70117709  0.33349649  0.72725120  1
  O2-  O237  1  0.71284253  0.83597619  0.07269241  1
  O2-  O238  1  0.71122176  0.83755935  0.40541307  1
  O2-  O239  1  0.70789015  0.83216365  0.73808929  1
  O2-  O240  1  0.45732354  0.42260862  0.26612256  1
  O2-  O241  1  0.45668496  0.42316129  0.60005257  1
  O2-  O242  1  0.45772307  0.41792061  0.93148664  1
  O2-  O243  1  0.45928392  0.91403695  0.26643197  1
  O2-  O244  1  0.45614420  0.91130710  0.60586523  1
  O2-  O245  1  0.45908956  0.92294274  0.93391134  1
  O2-  O246  1  0.96739380  0.41617760  0.26269700  1
  O2-  O247  1  0.96734368  0.41181245  0.59835659  1
  O2-  O248  1  0.96227695  0.41220443  0.93675984  1
  O2-  O249  1  0.95879073  0.91107894  0.27003894  1
  O2-  O250  1  0.95265141  0.91485230  0.60086057  1
  O2-  O251  1  0.95258423  0.91562821  0.93743331  1
  O2-  O252  1  0.32761492  0.29633358  0.26763955  1
  O2-  O253  1  0.32591795  0.29901224  0.59922122  1
  O2-  O254  1  0.33216751  0.29107768  0.93305833  1
  O2-  O255  1  0.33133149  0.79035042  0.26560336  1
  O2-  O256  1  0.33845095  0.79025640  0.60424730  1
  O2-  O257  1  0.33041230  0.79869951  0.92979653  1
  O2-  O258  1  0.83510373  0.29660139  0.25891314  1
  O2-  O259  1  0.83205095  0.29482373  0.59815743  1
  O2-  O260  1  0.83071525  0.30581972  0.94197217  1
  O2-  O261  1  0.83544450  0.79422880  0.27510710  1
  O2-  O262  1  0.83203306  0.79569303  0.60431626  1
  O2-  O263  1  0.83401350  0.79697222  0.93951653  1
  O2-  O264  1  0.41481720  0.04336382  0.07118362  1
  O2-  O265  1  0.40907281  0.03882714  0.39484041  1
  O2-  O266  1  0.41042524  0.03758483  0.73559837  1
  O2-  O267  1  0.41499970  0.54659886  0.05860319  1
  O2-  O268  1  0.42122511  0.54794844  0.39756992  1
  O2-  O269  1  0.42127275  0.54677871  0.73518500  1
  O2-  O270  1  0.91959010  0.04821678  0.06269192  1
  O2-  O271  1  0.91588560  0.04305470  0.39655080  1
  O2-  O272  1  0.92018861  0.04356606  0.73347287  1
  O2-  O273  1  0.91767214  0.53556193  0.06869560  1
  O2-  O274  1  0.92039255  0.53801993  0.39972271  1
  O2-  O275  1  0.91996590  0.53540238  0.73218378  1
  O2-  O276  1  0.28223294  0.16763407  0.06955226  1
  O2-  O277  1  0.29132402  0.16204487  0.39560164  1
  O2-  O278  1  0.28733048  0.16917807  0.73134749  1
  O2-  O279  1  0.29179617  0.66548625  0.05802593  1
  O2-  O280  1  0.28509949  0.66563387  0.39935321  1
  O2-  O281  1  0.28612668  0.66572878  0.73561243  1
  O2-  O282  1  0.80304745  0.17021932  0.06171005  1
  O2-  O283  1  0.80387820  0.17012930  0.38518653  1
  O2-  O284  1  0.79839114  0.17382800  0.73246119  1
  O2-  O285  1  0.79400317  0.66565052  0.06810330  1
  O2-  O286  1  0.79357901  0.66511551  0.40483501  1
  O2-  O287  1  0.79490232  0.66520210  0.73452025  1
