# generated using pymatgen
data_Ca2Al2SiO7
_symmetry_space_group_name_H-M   'P 1'
_cell_length_a   15.45801519
_cell_length_b   15.45635331
_cell_length_c   15.28284120
_cell_angle_alpha   89.99049563
_cell_angle_beta   90.00713760
_cell_angle_gamma   90.00045175
_symmetry_Int_Tables_number   1
_chemical_formula_structural   Ca2Al2SiO7
_chemical_formula_sum   'Ca48 Al48 Si24 O168'
_cell_volume   3651.44579074
_cell_formula_units_Z   24
loop_
 _symmetry_equiv_pos_site_id
 _symmetry_equiv_pos_as_xyz
  1  'x, y, z'
loop_
 _atom_type_symbol
 _atom_type_oxidation_number
  Ca2+  2.0
  Al0+  0.0
  Si0+  0.0
  O2-  -2.0
loop_
 _atom_site_type_symbol
 _atom_site_label
 _atom_site_symmetry_multiplicity
 _atom_site_fract_x
 _atom_site_fract_y
 _atom_site_fract_z
 _atom_site_occupancy
  Ca2+  Ca0  1  0.17124640  0.08393159  0.17388670  1
  Ca2+  Ca1  1  0.17858533  0.07777744  0.50582852  1
  Ca2+  Ca2  1  0.17149537  0.08067105  0.83495494  1
  Ca2+  Ca3  1  0.17112742  0.57535458  0.17212319  1
  Ca2+  Ca4  1  0.17986292  0.58340113  0.50618629  1
  Ca2+  Ca5  1  0.16997790  0.58357275  0.83944944  1
  Ca2+  Ca6  1  0.66824652  0.07619234  0.17616391  1
  Ca2+  Ca7  1  0.66564296  0.07151502  0.50726141  1
  Ca2+  Ca8  1  0.65394819  0.07932839  0.83480515  1
  Ca2+  Ca9  1  0.66840465  0.59404765  0.16863257  1
  Ca2+  Ca10  1  0.66030445  0.58012417  0.50886120  1
  Ca2+  Ca11  1  0.66416158  0.58152503  0.83684442  1
  Ca2+  Ca12  1  0.08920379  0.33168110  0.15980517  1
  Ca2+  Ca13  1  0.08476076  0.33406867  0.49452455  1
  Ca2+  Ca14  1  0.08697460  0.33276429  0.83469943  1
  Ca2+  Ca15  1  0.07495324  0.82973978  0.16037662  1
  Ca2+  Ca16  1  0.08331546  0.83333810  0.49901341  1
  Ca2+  Ca17  1  0.08586956  0.82222552  0.82499317  1
  Ca2+  Ca18  1  0.57395287  0.32579530  0.16312130  1
  Ca2+  Ca19  1  0.57127724  0.33313796  0.50012702  1
  Ca2+  Ca20  1  0.58205564  0.32474976  0.82112712  1
  Ca2+  Ca21  1  0.57901251  0.82775535  0.16255772  1
  Ca2+  Ca22  1  0.59303999  0.82437181  0.49627628  1
  Ca2+  Ca23  1  0.57993929  0.82438472  0.83012898  1
  Ca2+  Ca24  1  0.32394138  0.41821012  0.17658680  1
  Ca2+  Ca25  1  0.34009824  0.42362623  0.50135511  1
  Ca2+  Ca26  1  0.33550544  0.42290051  0.83335655  1
  Ca2+  Ca27  1  0.33662441  0.92121454  0.17051128  1
  Ca2+  Ca28  1  0.33461581  0.92934806  0.50905198  1
  Ca2+  Ca29  1  0.33531628  0.91796819  0.83314069  1
  Ca2+  Ca30  1  0.83210037  0.42551167  0.16676755  1
  Ca2+  Ca31  1  0.82252975  0.41835072  0.50694109  1
  Ca2+  Ca32  1  0.82493500  0.42195218  0.83739779  1
  Ca2+  Ca33  1  0.82818179  0.92093755  0.17880557  1
  Ca2+  Ca34  1  0.82608172  0.91492720  0.49814134  1
  Ca2+  Ca35  1  0.82510345  0.91445614  0.83315375  1
  Ca2+  Ca36  1  0.41545599  0.17016323  0.16324465  1
  Ca2+  Ca37  1  0.41031080  0.17394307  0.49751192  1
  Ca2+  Ca38  1  0.42405608  0.17349297  0.82440807  1
  Ca2+  Ca39  1  0.42520651  0.66867146  0.16288197  1
  Ca2+  Ca40  1  0.42535935  0.65881715  0.49584528  1
  Ca2+  Ca41  1  0.42176042  0.66841941  0.82549991  1
  Ca2+  Ca42  1  0.92206949  0.16628521  0.16152422  1
  Ca2+  Ca43  1  0.91661101  0.16349366  0.49488927  1
  Ca2+  Ca44  1  0.92439396  0.16579220  0.83118479  1
  Ca2+  Ca45  1  0.91877746  0.67139986  0.16025498  1
  Ca2+  Ca46  1  0.92532804  0.67301170  0.49474751  1
  Ca2+  Ca47  1  0.92826793  0.65602231  0.83143429  1
  Al0+  Al48  1  -0.00011733  0.00063200  -0.00455724  1
  Al0+  Al49  1  -0.00081956  0.00007258  0.33240004  1
  Al0+  Al50  1  -0.00030584  -0.00041833  0.66959362  1
  Al0+  Al51  1  -0.00236582  0.49999270  0.00510239  1
  Al0+  Al52  1  -0.00095666  0.49828290  0.33610802  1
  Al0+  Al53  1  0.00124638  0.50028871  0.65962016  1
  Al0+  Al54  1  0.49844898  0.00051416  -0.00477875  1
  Al0+  Al55  1  0.50102996  -0.00200538  0.34260654  1
  Al0+  Al56  1  0.50162406  -0.00005761  0.67310346  1
  Al0+  Al57  1  0.49959463  0.49949596  -0.00003605  1
  Al0+  Al58  1  0.49998504  0.49809194  0.32376094  1
  Al0+  Al59  1  0.49993852  0.49851042  0.67009844  1
  Al0+  Al60  1  0.24943999  0.24961289  -0.00160443  1
  Al0+  Al61  1  0.24886198  0.24964607  0.33651044  1
  Al0+  Al62  1  0.24869877  0.25055542  0.66650580  1
  Al0+  Al63  1  0.24822295  0.75211644  -0.00370511  1
  Al0+  Al64  1  0.25140625  0.74807402  0.33512960  1
  Al0+  Al65  1  0.25071608  0.74937808  0.66831979  1
  Al0+  Al66  1  0.75033193  0.24995235  -0.00214532  1
  Al0+  Al67  1  0.75174247  0.25102239  0.33428111  1
  Al0+  Al68  1  0.75091013  0.25004161  0.66700084  1
  Al0+  Al69  1  0.74838260  0.75114451  0.00078739  1
  Al0+  Al70  1  0.75303417  0.75052261  0.32864208  1
  Al0+  Al71  1  0.75268854  0.75169252  0.66843920  1
  Al0+  Al72  1  0.42809036  0.31846754  0.31759111  1
  Al0+  Al73  1  0.67989031  0.92785154  0.68351225  1
  Al0+  Al74  1  0.07323742  0.67832282  0.65100424  1
  Al0+  Al75  1  0.07165243  0.17878871  0.98611332  1
  Al0+  Al76  1  0.42783337  0.82167105  0.98471118  1
  Al0+  Al77  1  0.82236546  0.07288056  0.34733138  1
  Al0+  Al78  1  0.67991977  0.92748216  0.34789181  1
  Al0+  Al79  1  0.06807848  0.67849060  0.98827733  1
  Al0+  Al80  1  0.32338378  0.57073119  0.34711937  1
  Al0+  Al81  1  0.32115445  0.06982877  0.34554450  1
  Al0+  Al82  1  0.57061130  0.67904929  0.31978130  1
  Al0+  Al83  1  0.17852030  0.92905766  0.68274726  1
  Al0+  Al84  1  0.32159735  0.56943953  0.68134312  1
  Al0+  Al85  1  0.57158279  0.67832753  0.98357218  1
  Al0+  Al86  1  0.17795123  0.42873766  0.34977263  1
  Al0+  Al87  1  0.57273972  0.17668788  0.64925944  1
  Al0+  Al88  1  0.81805887  0.57094671  0.01386024  1
  Al0+  Al89  1  0.32125834  0.07341619  0.68494187  1
  Al0+  Al90  1  0.42795991  0.32045706  0.65131646  1
  Al0+  Al91  1  0.67927663  0.42969553  0.67938538  1
  Al0+  Al92  1  0.93214310  0.82028335  0.31914874  1
  Al0+  Al93  1  0.18096941  0.42991049  0.01267403  1
  Al0+  Al94  1  0.57118549  0.68033994  0.65398965  1
  Al0+  Al95  1  0.57137916  0.18060184  0.98834462  1
  Si0+  Si96  1  0.17466287  0.42916589  0.68365156  1
  Si0+  Si97  1  0.57268198  0.17626388  0.31946067  1
  Si0+  Si98  1  0.17684246  0.92683796  0.34680593  1
  Si0+  Si99  1  0.67933771  0.42937768  0.34615480  1
  Si0+  Si100  1  0.06962269  0.17812031  0.65050541  1
  Si0+  Si101  1  0.42670954  0.32122494  0.98395333  1
  Si0+  Si102  1  0.92801955  0.32214832  0.98317678  1
  Si0+  Si103  1  0.92928830  0.82336432  0.64929739  1
  Si0+  Si104  1  0.92706305  0.82319888  0.98186077  1
  Si0+  Si105  1  0.06910369  0.18090773  0.31964020  1
  Si0+  Si106  1  0.67825196  0.93152356  0.01563866  1
  Si0+  Si107  1  0.42843154  0.82178431  0.64933667  1
  Si0+  Si108  1  0.82201765  0.07302572  0.68578602  1
  Si0+  Si109  1  0.82084934  0.57167597  0.34871399  1
  Si0+  Si110  1  0.92944800  0.32118834  0.65090513  1
  Si0+  Si111  1  0.17649488  0.92840291  0.01580092  1
  Si0+  Si112  1  0.92638900  0.32301122  0.31692394  1
  Si0+  Si113  1  0.32276453  0.57527508  0.01699984  1
  Si0+  Si114  1  0.07345315  0.67585435  0.31634624  1
  Si0+  Si115  1  0.67647595  0.42536990  0.01817034  1
  Si0+  Si116  1  0.82306671  0.07145387  0.01423611  1
  Si0+  Si117  1  0.82387839  0.57178468  0.68087558  1
  Si0+  Si118  1  0.31948607  0.06953508  0.01513140  1
  Si0+  Si119  1  0.42664968  0.82474271  0.31988253  1
  O2-  O120  1  0.24793321  -0.00101020  0.05825253  1
  O2-  O121  1  0.25047434  -0.00981334  0.39015750  1
  O2-  O122  1  0.25060148  -0.00029499  0.73511026  1
  O2-  O123  1  0.25564282  0.50408140  0.06004520  1
  O2-  O124  1  0.24907788  0.50153605  0.39845391  1
  O2-  O125  1  0.24409085  0.49668114  0.72742193  1
  O2-  O126  1  0.75055337  0.00240758  0.05683907  1
  O2-  O127  1  0.74835157  0.00381422  0.39717496  1
  O2-  O128  1  0.75075475  0.00737549  0.73031080  1
  O2-  O129  1  0.73994006  0.49950449  0.06220682  1
  O2-  O130  1  0.74780575  0.50266023  0.38981880  1
  O2-  O131  1  0.75256619  0.50634442  0.72543518  1
  O2-  O132  1  -0.00154275  0.25219705  0.27643847  1
  O2-  O133  1  -0.00043242  0.24972888  0.60783761  1
  O2-  O134  1  -0.00326717  0.25335361  0.93903468  1
  O2-  O135  1  0.00773030  0.74705329  0.27149271  1
  O2-  O136  1  -0.00029459  0.75545121  0.60638476  1
  O2-  O137  1  -0.00576824  0.75297894  0.93850642  1
  O2-  O138  1  0.50125015  0.24066741  0.27268808  1
  O2-  O139  1  0.49716641  0.24547532  0.60046948  1
  O2-  O140  1  0.50225829  0.25986058  0.94122978  1
  O2-  O141  1  0.49412916  0.75417820  0.27646283  1
  O2-  O142  1  0.49840617  0.75506857  0.60408410  1
  O2-  O143  1  0.49529619  0.74563715  0.93432587  1
  O2-  O144  1  0.07012463  0.17809461  0.09954200  1
  O2-  O145  1  0.06718106  0.18103552  0.42476225  1
  O2-  O146  1  0.06783003  0.17862037  0.75575670  1
  O2-  O147  1  0.06628757  0.68151989  0.10146016  1
  O2-  O148  1  0.07102052  0.67644272  0.42182397  1
  O2-  O149  1  0.06886072  0.67518635  0.76435004  1
  O2-  O150  1  0.56940805  0.17911258  0.10197152  1
  O2-  O151  1  0.57428089  0.17960605  0.42424100  1
  O2-  O152  1  0.57257473  0.18145865  0.76334331  1
  O2-  O153  1  0.57259188  0.68342802  0.09741951  1
  O2-  O154  1  0.57211051  0.67763440  0.43286509  1
  O2-  O155  1  0.57047990  0.68080706  0.76672069  1
  O2-  O156  1  0.17781190  0.42863567  0.23573032  1
  O2-  O157  1  0.17113915  0.43089078  0.57840793  1
  O2-  O158  1  0.18188732  0.43003695  0.89964849  1
  O2-  O159  1  0.17447708  0.93016670  0.24074688  1
  O2-  O160  1  0.17726983  0.93328253  0.56860113  1
  O2-  O161  1  0.17416469  0.92970344  0.91141395  1
  O2-  O162  1  0.68319101  0.42723079  0.24097624  1
  O2-  O163  1  0.68115287  0.43093207  0.56569600  1
  O2-  O164  1  0.68054088  0.42229970  0.91285618  1
  O2-  O165  1  0.68061508  0.92932743  0.23352527  1
  O2-  O166  1  0.68531592  0.92453978  0.57083601  1
  O2-  O167  1  0.68003877  0.93187107  0.91070841  1
  O2-  O168  1  0.42458140  0.31677410  0.08980468  1
  O2-  O169  1  0.43014460  0.32018116  0.42994615  1
  O2-  O170  1  0.43019421  0.32106715  0.76535589  1
  O2-  O171  1  0.43081553  0.82516260  0.09894080  1
  O2-  O172  1  0.42563128  0.82687167  0.42486941  1
  O2-  O173  1  0.42898567  0.81859585  0.75506854  1
  O2-  O174  1  0.92670568  0.32034909  0.08898218  1
  O2-  O175  1  0.92481872  0.32397557  0.42195448  1
  O2-  O176  1  0.93081758  0.32195450  0.75600837  1
  O2-  O177  1  0.92944159  0.82520214  0.08767053  1
  O2-  O178  1  0.93297282  0.81815681  0.43212062  1
  O2-  O179  1  0.92877380  0.82372953  0.75498193  1
  O2-  O180  1  0.31851068  0.07019299  0.23158068  1
  O2-  O181  1  0.31719924  0.07329239  0.57102485  1
  O2-  O182  1  0.31808226  0.06992516  0.91075163  1
  O2-  O183  1  0.32168923  0.57005184  0.23318087  1
  O2-  O184  1  0.32285874  0.56818986  0.56846221  1
  O2-  O185  1  0.32193815  0.57454260  0.91144215  1
  O2-  O186  1  0.82255742  0.07227218  0.23305002  1
  O2-  O187  1  0.82478834  0.07199770  0.58040532  1
  O2-  O188  1  0.82564551  0.07009378  0.90945632  1
  O2-  O189  1  0.82207722  0.56992262  0.24343906  1
  O2-  O190  1  0.82452975  0.56915546  0.57493092  1
  O2-  O191  1  0.82074178  0.56605379  0.90088390  1
  O2-  O192  1  0.04175951  0.08941115  0.27094599  1
  O2-  O193  1  0.03969859  0.08675800  0.60352000  1
  O2-  O194  1  0.03936052  0.08377885  0.92972746  1
  O2-  O195  1  0.04277531  0.58276545  0.27178947  1
  O2-  O196  1  0.03998575  0.58372877  0.59406350  1
  O2-  O197  1  0.03499121  0.58203739  0.93510663  1
  O2-  O198  1  0.55061353  0.08013299  0.27681506  1
  O2-  O199  1  0.54956787  0.07484034  0.60232812  1
  O2-  O200  1  0.53660375  0.08677623  0.93301996  1
  O2-  O201  1  0.54245506  0.58372938  0.26144330  1
  O2-  O202  1  0.54006347  0.58288332  0.60264946  1
  O2-  O203  1  0.55068984  0.57586786  0.93579073  1
  O2-  O204  1  0.16032053  0.20849098  0.27125077  1
  O2-  O205  1  0.16109767  0.20528210  0.60309354  1
  O2-  O206  1  0.16676099  0.21052890  0.93058984  1
  O2-  O207  1  0.16884723  0.69690389  0.27202516  1
  O2-  O208  1  0.16975256  0.70905064  0.59748617  1
  O2-  O209  1  0.16426682  0.70809634  0.93402903  1
  O2-  O210  1  0.66574473  0.20565623  0.27254376  1
  O2-  O211  1  0.67224862  0.20629663  0.59907968  1
  O2-  O212  1  0.66968464  0.20487355  0.93415790  1
  O2-  O213  1  0.66713000  0.71078194  0.26577446  1
  O2-  O214  1  0.67046069  0.70844590  0.60267433  1
  O2-  O215  1  0.66953644  0.70985670  0.93149199  1
  O2-  O216  1  0.08323934  0.45709053  0.06671813  1
  O2-  O217  1  0.07752488  0.45281084  0.40156370  1
  O2-  O218  1  0.08088507  0.45567834  0.72967955  1
  O2-  O219  1  0.08439582  0.95838632  0.06285857  1
  O2-  O220  1  0.08617604  0.95835206  0.39476081  1
  O2-  O221  1  0.08001935  0.95797915  0.73623407  1
  O2-  O222  1  0.58027701  0.44434499  0.06186203  1
  O2-  O223  1  0.58656257  0.45576958  0.39023486  1
  O2-  O224  1  0.58473209  0.45839410  0.73656063  1
  O2-  O225  1  0.58656203  0.96183402  0.06176505  1
  O2-  O226  1  0.58192189  0.94896226  0.40367612  1
  O2-  O227  1  0.58336335  0.95433066  0.73920911  1
  O2-  O228  1  0.21103403  0.33207583  0.06648690  1
  O2-  O229  1  0.20445803  0.33023431  0.40219149  1
  O2-  O230  1  0.19715015  0.33403979  0.72734860  1
  O2-  O231  1  0.20274252  0.83665513  0.06429539  1
  O2-  O232  1  0.19490854  0.83105773  0.39061456  1
  O2-  O233  1  0.20514623  0.83005006  0.73442732  1
  O2-  O234  1  0.70853762  0.33372152  0.06594082  1
  O2-  O235  1  0.71041938  0.33948521  0.39515414  1
  O2-  O236  1  0.71462329  0.33453266  0.73420069  1
  O2-  O237  1  0.70544135  0.83970851  0.06286672  1
  O2-  O238  1  0.71689320  0.83103019  0.39978995  1
  O2-  O239  1  0.71655998  0.83341711  0.73957596  1
  O2-  O240  1  0.46156090  0.41177640  0.25886416  1
  O2-  O241  1  0.46249978  0.41714666  0.59886243  1
  O2-  O242  1  0.44455813  0.41790317  0.94212947  1
  O2-  O243  1  0.45470142  0.91779141  0.27235153  1
  O2-  O244  1  0.45265425  0.91740114  0.60812914  1
  O2-  O245  1  0.45976516  0.91784086  0.92966138  1
  O2-  O246  1  0.95376822  0.41503838  0.26889731  1
  O2-  O247  1  0.95669734  0.41156094  0.60007257  1
  O2-  O248  1  0.95446938  0.41509424  0.93757126  1
  O2-  O249  1  0.96080091  0.91764674  0.26377637  1
  O2-  O250  1  0.95431870  0.91738983  0.60337157  1
  O2-  O251  1  0.95307025  0.91589708  0.93457216  1
  O2-  O252  1  0.33041138  0.28687172  0.26513102  1
  O2-  O253  1  0.32742578  0.29614244  0.59966846  1
  O2-  O254  1  0.33667899  0.28928663  0.93557621  1
  O2-  O255  1  0.33197245  0.80226092  0.27281968  1
  O2-  O256  1  0.33449704  0.79769486  0.60417598  1
  O2-  O257  1  0.32723867  0.80126551  0.93326191  1
  O2-  O258  1  0.83580869  0.29530141  0.26640579  1
  O2-  O259  1  0.83818263  0.29355691  0.60252390  1
  O2-  O260  1  0.83540769  0.29582878  0.93536911  1
  O2-  O261  1  0.83766830  0.78837096  0.26168930  1
  O2-  O262  1  0.83721355  0.79502918  0.60229121  1
  O2-  O263  1  0.83256370  0.79921523  0.93832375  1
  O2-  O264  1  0.41122085  0.04059043  0.06253212  1
  O2-  O265  1  0.41722965  0.04487575  0.40223952  1
  O2-  O266  1  0.42015163  0.04723099  0.73700129  1
  O2-  O267  1  0.41779737  0.55175518  0.06171460  1
  O2-  O268  1  0.42203635  0.53735777  0.39669113  1
  O2-  O269  1  0.41545440  0.53577223  0.73855108  1
  O2-  O270  1  0.91471982  0.04226639  0.06221765  1
  O2-  O271  1  0.91988779  0.04206819  0.40113076  1
  O2-  O272  1  0.91444301  0.04395330  0.73316049  1
  O2-  O273  1  0.91184075  0.53645553  0.07203013  1
  O2-  O274  1  0.91127939  0.54142532  0.39727226  1
  O2-  O275  1  0.91606546  0.53940914  0.72650906  1
  O2-  O276  1  0.29045214  0.16119506  0.06240740  1
  O2-  O277  1  0.28409596  0.16293617  0.40074734  1
  O2-  O278  1  0.28854273  0.17125169  0.73714810  1
  O2-  O279  1  0.29465299  0.66873575  0.06207672  1
  O2-  O280  1  0.30004356  0.67057250  0.40046390  1
  O2-  O281  1  0.29237166  0.66634548  0.73457908  1
  O2-  O282  1  0.79911647  0.16523126  0.05999484  1
  O2-  O283  1  0.80064919  0.17344446  0.39908601  1
  O2-  O284  1  0.80217137  0.16820002  0.73087034  1
  O2-  O285  1  0.79109483  0.66931705  0.06801342  1
  O2-  O286  1  0.79660069  0.66426313  0.39446815  1
  O2-  O287  1  0.80502399  0.66637995  0.72623555  1
