# generated using pymatgen
data_Ca2Al2SiO7
_symmetry_space_group_name_H-M   'P 1'
_cell_length_a   15.45960314
_cell_length_b   15.45829530
_cell_length_c   15.28494978
_cell_angle_alpha   89.99644121
_cell_angle_beta   89.98956118
_cell_angle_gamma   89.97611714
_symmetry_Int_Tables_number   1
_chemical_formula_structural   Ca2Al2SiO7
_chemical_formula_sum   'Ca48 Al48 Si24 O168'
_cell_volume   3652.78331717
_cell_formula_units_Z   24
loop_
 _symmetry_equiv_pos_site_id
 _symmetry_equiv_pos_as_xyz
  1  'x, y, z'
loop_
 _atom_type_symbol
 _atom_type_oxidation_number
  Ca2+  2.0
  Al0+  0.0
  Si0+  0.0
  O2-  -2.0
loop_
 _atom_site_type_symbol
 _atom_site_label
 _atom_site_symmetry_multiplicity
 _atom_site_fract_x
 _atom_site_fract_y
 _atom_site_fract_z
 _atom_site_occupancy
  Ca2+  Ca0  1  0.17087931  0.08840764  0.17007080  1
  Ca2+  Ca1  1  0.17252037  0.07970559  0.50957286  1
  Ca2+  Ca2  1  0.17733741  0.07894372  0.83599404  1
  Ca2+  Ca3  1  0.17715094  0.57825661  0.17407956  1
  Ca2+  Ca4  1  0.17127204  0.58615773  0.50504929  1
  Ca2+  Ca5  1  0.16462663  0.58443079  0.83514897  1
  Ca2+  Ca6  1  0.66566210  0.08558138  0.16322021  1
  Ca2+  Ca7  1  0.66487827  0.08322102  0.50700109  1
  Ca2+  Ca8  1  0.66492573  0.07851262  0.84317338  1
  Ca2+  Ca9  1  0.66615246  0.58052001  0.17256030  1
  Ca2+  Ca10  1  0.66385192  0.57859413  0.50411884  1
  Ca2+  Ca11  1  0.67659595  0.59167132  0.83804213  1
  Ca2+  Ca12  1  0.07354581  0.33031523  0.16454252  1
  Ca2+  Ca13  1  0.07204772  0.32967632  0.49470833  1
  Ca2+  Ca14  1  0.07101023  0.33229491  0.82925170  1
  Ca2+  Ca15  1  0.08181858  0.83076777  0.16522281  1
  Ca2+  Ca16  1  0.08321530  0.83419052  0.50365656  1
  Ca2+  Ca17  1  0.07673730  0.82945524  0.82236056  1
  Ca2+  Ca18  1  0.57539843  0.33538644  0.16157098  1
  Ca2+  Ca19  1  0.58297660  0.32879101  0.49431565  1
  Ca2+  Ca20  1  0.58154647  0.31913640  0.83338271  1
  Ca2+  Ca21  1  0.58446552  0.82418923  0.16304794  1
  Ca2+  Ca22  1  0.57262550  0.82196258  0.49790445  1
  Ca2+  Ca23  1  0.58690875  0.82673606  0.82703835  1
  Ca2+  Ca24  1  0.34250023  0.41954188  0.17595578  1
  Ca2+  Ca25  1  0.33991466  0.42286712  0.49930312  1
  Ca2+  Ca26  1  0.33183236  0.41496561  0.83881521  1
  Ca2+  Ca27  1  0.33960877  0.92318985  0.17014629  1
  Ca2+  Ca28  1  0.33218552  0.91716960  0.51151410  1
  Ca2+  Ca29  1  0.33730791  0.92383259  0.83247129  1
  Ca2+  Ca30  1  0.82893567  0.41614567  0.17091361  1
  Ca2+  Ca31  1  0.82999040  0.41623063  0.50584786  1
  Ca2+  Ca32  1  0.83873243  0.42648690  0.83800977  1
  Ca2+  Ca33  1  0.82416911  0.92155457  0.16464140  1
  Ca2+  Ca34  1  0.83333435  0.91745107  0.50721006  1
  Ca2+  Ca35  1  0.82737920  0.92006541  0.84369229  1
  Ca2+  Ca36  1  0.41892651  0.17829053  0.15596980  1
  Ca2+  Ca37  1  0.41951929  0.16836075  0.49811849  1
  Ca2+  Ca38  1  0.42284446  0.15907819  0.83129847  1
  Ca2+  Ca39  1  0.42846540  0.66454329  0.16518833  1
  Ca2+  Ca40  1  0.41976035  0.67477088  0.49081813  1
  Ca2+  Ca41  1  0.43232892  0.67444561  0.82497590  1
  Ca2+  Ca42  1  0.91597906  0.17613958  0.16170708  1
  Ca2+  Ca43  1  0.92147085  0.17789653  0.49163130  1
  Ca2+  Ca44  1  0.90256708  0.17950933  0.83083385  1
  Ca2+  Ca45  1  0.91519431  0.66416298  0.16023545  1
  Ca2+  Ca46  1  0.91787305  0.66715634  0.50677559  1
  Ca2+  Ca47  1  0.91609967  0.67005283  0.82110578  1
  Al0+  Al48  1  0.00070697  -0.00045061  0.00502371  1
  Al0+  Al49  1  0.00105830  -0.00040743  0.32943655  1
  Al0+  Al50  1  0.00094005  0.00158608  0.66923574  1
  Al0+  Al51  1  0.00136945  0.49944038  0.00238637  1
  Al0+  Al52  1  0.00038259  0.50105348  0.33042338  1
  Al0+  Al53  1  -0.00076182  0.50022140  0.66160008  1
  Al0+  Al54  1  0.49736612  -0.00118866  0.00804664  1
  Al0+  Al55  1  0.50068458  -0.00167006  0.33255592  1
  Al0+  Al56  1  0.50183368  -0.00014306  0.66263904  1
  Al0+  Al57  1  0.50061843  0.50188432  -0.01100784  1
  Al0+  Al58  1  0.50241288  0.49986713  0.33712564  1
  Al0+  Al59  1  0.50080633  0.49642267  0.66883504  1
  Al0+  Al60  1  0.24617459  0.25019928  0.00060038  1
  Al0+  Al61  1  0.24929495  0.24994178  0.32897165  1
  Al0+  Al62  1  0.25043406  0.25143318  0.67186882  1
  Al0+  Al63  1  0.25034779  0.74832818  0.00100414  1
  Al0+  Al64  1  0.24962558  0.75191158  0.33282005  1
  Al0+  Al65  1  0.24902307  0.74983476  0.66706222  1
  Al0+  Al66  1  0.74858523  0.25186148  -0.00368149  1
  Al0+  Al67  1  0.75099275  0.25044962  0.33465152  1
  Al0+  Al68  1  0.74680396  0.25081633  0.65871944  1
  Al0+  Al69  1  0.75177616  0.75049459  0.00618922  1
  Al0+  Al70  1  0.75110791  0.75084202  0.33205452  1
  Al0+  Al71  1  0.75082816  0.74884652  0.66060120  1
  Al0+  Al72  1  0.43134072  0.31960869  0.32254776  1
  Al0+  Al73  1  0.57114641  0.67888347  0.31789737  1
  Al0+  Al74  1  0.82215578  0.57032358  0.01356056  1
  Al0+  Al75  1  0.56888210  0.17902911  0.65246037  1
  Al0+  Al76  1  0.07138001  0.67857006  0.65202981  1
  Al0+  Al77  1  0.32057279  0.57027894  0.34670966  1
  Al0+  Al78  1  0.68101386  0.42943120  0.34695248  1
  Al0+  Al79  1  0.57317415  0.67614792  0.65076804  1
  Al0+  Al80  1  0.67741584  0.92814081  0.01574745  1
  Al0+  Al81  1  0.81855239  0.56808493  0.67870566  1
  Al0+  Al82  1  0.17725481  0.92719034  0.68298970  1
  Al0+  Al83  1  0.56859329  0.17750639  0.98645802  1
  Al0+  Al84  1  0.07084125  0.17761559  0.31834706  1
  Al0+  Al85  1  0.82105697  0.07441975  0.01480957  1
  Al0+  Al86  1  0.57332075  0.68118454  0.98528903  1
  Al0+  Al87  1  0.92906892  0.32079191  0.98524451  1
  Al0+  Al88  1  0.32295896  0.07120654  0.68141544  1
  Al0+  Al89  1  0.92892067  0.32053881  0.65238985  1
  Al0+  Al90  1  0.42581831  0.32261701  0.98376167  1
  Al0+  Al91  1  0.31912146  0.07082904  0.01638332  1
  Al0+  Al92  1  0.42988655  0.82014551  0.65367114  1
  Al0+  Al93  1  0.92760884  0.32256024  0.31661455  1
  Al0+  Al94  1  0.92837089  0.82442931  0.65335763  1
  Al0+  Al95  1  0.42666246  0.82191991  0.31631674  1
  Si0+  Si96  1  0.07434414  0.17954983  0.65280695  1
  Si0+  Si97  1  0.32105001  0.07210086  0.34810394  1
  Si0+  Si98  1  0.82110179  0.06929289  0.34885141  1
  Si0+  Si99  1  0.82492148  0.57444964  0.35180904  1
  Si0+  Si100  1  0.17821852  0.42953216  0.01583557  1
  Si0+  Si101  1  0.07193739  0.67907132  0.98694581  1
  Si0+  Si102  1  0.93075969  0.82072977  0.98765216  1
  Si0+  Si103  1  0.67635719  0.42440277  0.68651729  1
  Si0+  Si104  1  0.42465951  0.32173301  0.64980207  1
  Si0+  Si105  1  0.82113555  0.07377979  0.67840538  1
  Si0+  Si106  1  0.17819843  0.92549653  0.01921459  1
  Si0+  Si107  1  0.17693722  0.42754569  0.35053965  1
  Si0+  Si108  1  0.57309135  0.17605751  0.31671525  1
  Si0+  Si109  1  0.07164689  0.67975052  0.31729512  1
  Si0+  Si110  1  0.67697744  0.43002750  0.01410062  1
  Si0+  Si111  1  0.32167974  0.56968529  0.01324825  1
  Si0+  Si112  1  0.67925299  0.92792330  0.35137181  1
  Si0+  Si113  1  0.32269430  0.57150869  0.68289639  1
  Si0+  Si114  1  0.17802540  0.92959714  0.34895641  1
  Si0+  Si115  1  0.17864859  0.43073055  0.68151152  1
  Si0+  Si116  1  0.92911595  0.82184202  0.31621816  1
  Si0+  Si117  1  0.42596722  0.82093730  0.98383111  1
  Si0+  Si118  1  0.68213793  0.92976143  0.67847719  1
  Si0+  Si119  1  0.07082775  0.17579393  0.98116022  1
  O2-  O120  1  0.24537718  -0.00504935  0.06423319  1
  O2-  O121  1  0.25068616  -0.00023224  0.38962327  1
  O2-  O122  1  0.25101572  -0.00161945  0.73121397  1
  O2-  O123  1  0.25553024  0.49450197  0.05682423  1
  O2-  O124  1  0.24597491  0.49560086  0.39523336  1
  O2-  O125  1  0.25051251  0.50085623  0.72482621  1
  O2-  O126  1  0.74644487  0.00461004  0.06500029  1
  O2-  O127  1  0.74868942  0.00095325  0.39353720  1
  O2-  O128  1  0.75561011  -0.00181212  0.72067871  1
  O2-  O129  1  0.74615834  0.49754052  0.05980354  1
  O2-  O130  1  0.75707876  0.50374950  0.39348212  1
  O2-  O131  1  0.74267758  0.49645703  0.72896799  1
  O2-  O132  1  -0.00052940  0.24983083  0.26784510  1
  O2-  O133  1  0.00210752  0.24358425  0.60759715  1
  O2-  O134  1  -0.00191811  0.24059285  0.93742802  1
  O2-  O135  1  -0.00289932  0.74708626  0.27490987  1
  O2-  O136  1  0.00257259  0.75441419  0.60282746  1
  O2-  O137  1  0.00158196  0.75015231  0.94535977  1
  O2-  O138  1  0.50337289  0.24393517  0.27387029  1
  O2-  O139  1  0.49349918  0.25302593  0.60656174  1
  O2-  O140  1  0.49378391  0.24625247  0.93514509  1
  O2-  O141  1  0.49907136  0.75039412  0.26673082  1
  O2-  O142  1  0.49508184  0.74247760  0.60271544  1
  O2-  O143  1  0.49982040  0.75785464  0.94002095  1
  O2-  O144  1  0.07210250  0.17901943  0.08674960  1
  O2-  O145  1  0.06859861  0.17644608  0.43230971  1
  O2-  O146  1  0.07614083  0.18309440  0.75819469  1
  O2-  O147  1  0.07315504  0.68027183  0.09243790  1
  O2-  O148  1  0.07326896  0.68076562  0.42177975  1
  O2-  O149  1  0.06782422  0.67632254  0.76613600  1
  O2-  O150  1  0.56817218  0.18174519  0.10019855  1
  O2-  O151  1  0.57159498  0.17552333  0.42259590  1
  O2-  O152  1  0.57118825  0.17767669  0.76504842  1
  O2-  O153  1  0.57069626  0.67827705  0.09811841  1
  O2-  O154  1  0.56966953  0.68041880  0.43111139  1
  O2-  O155  1  0.57524016  0.68167287  0.76456612  1
  O2-  O156  1  0.17629978  0.43070838  0.24472306  1
  O2-  O157  1  0.17975730  0.43004952  0.57653146  1
  O2-  O158  1  0.17451735  0.43373857  0.91055257  1
  O2-  O159  1  0.17608878  0.92901530  0.24378094  1
  O2-  O160  1  0.17676343  0.93076329  0.56881534  1
  O2-  O161  1  0.17758416  0.92362558  0.91420202  1
  O2-  O162  1  0.68058664  0.42993860  0.23364905  1
  O2-  O163  1  0.67770761  0.42270504  0.58073294  1
  O2-  O164  1  0.67864794  0.43067469  0.90867573  1
  O2-  O165  1  0.68118023  0.92733966  0.24658208  1
  O2-  O166  1  0.68280486  0.93258210  0.57298658  1
  O2-  O167  1  0.68181353  0.92569239  0.90162169  1
  O2-  O168  1  0.42899622  0.32479743  0.09761414  1
  O2-  O169  1  0.43133171  0.31716638  0.43565718  1
  O2-  O170  1  0.42337166  0.32231009  0.75510617  1
  O2-  O171  1  0.42181506  0.81547166  0.08914468  1
  O2-  O172  1  0.42618083  0.82198975  0.42967711  1
  O2-  O173  1  0.43470187  0.82109843  0.76752234  1
  O2-  O174  1  0.93258829  0.32263695  0.09788186  1
  O2-  O175  1  0.92928645  0.32061780  0.43038665  1
  O2-  O176  1  0.93035279  0.32092731  0.76566007  1
  O2-  O177  1  0.93289910  0.81913778  0.09326650  1
  O2-  O178  1  0.93013977  0.82538101  0.42087857  1
  O2-  O179  1  0.92625711  0.82250953  0.76725921  1
  O2-  O180  1  0.31936689  0.07199695  0.24312641  1
  O2-  O181  1  0.32021812  0.07291393  0.56727778  1
  O2-  O182  1  0.31856076  0.06898671  0.90355011  1
  O2-  O183  1  0.31896284  0.56819176  0.23300447  1
  O2-  O184  1  0.32233789  0.56977494  0.57776933  1
  O2-  O185  1  0.31689845  0.57182911  0.90819054  1
  O2-  O186  1  0.82033503  0.06772773  0.24406496  1
  O2-  O187  1  0.81926775  0.07338250  0.57283867  1
  O2-  O188  1  0.82144758  0.07053699  0.90069815  1
  O2-  O189  1  0.82526521  0.57514535  0.24592564  1
  O2-  O190  1  0.81961641  0.56555708  0.56580734  1
  O2-  O191  1  0.82470513  0.57142902  0.90055842  1
  O2-  O192  1  0.04319519  0.07975880  0.26324209  1
  O2-  O193  1  0.05319885  0.08449598  0.60888458  1
  O2-  O194  1  0.05139910  0.07913959  0.93945037  1
  O2-  O195  1  0.04816436  0.58720827  0.26896643  1
  O2-  O196  1  0.04030262  0.58292622  0.59528321  1
  O2-  O197  1  0.04514906  0.58711255  0.94056860  1
  O2-  O198  1  0.54989330  0.08189730  0.27201438  1
  O2-  O199  1  0.54044873  0.08371179  0.59516932  1
  O2-  O200  1  0.54252767  0.07626197  0.93770856  1
  O2-  O201  1  0.54176281  0.58054969  0.26636039  1
  O2-  O202  1  0.54989758  0.57384436  0.60474883  1
  O2-  O203  1  0.54190128  0.58731944  0.92729940  1
  O2-  O204  1  0.16823635  0.20640224  0.26371657  1
  O2-  O205  1  0.16617943  0.20963081  0.60546897  1
  O2-  O206  1  0.16206891  0.20683340  0.93407368  1
  O2-  O207  1  0.16097992  0.71171973  0.26737342  1
  O2-  O208  1  0.17063987  0.70261371  0.59945543  1
  O2-  O209  1  0.16357878  0.70579322  0.93849998  1
  O2-  O210  1  0.66719587  0.20144864  0.27326133  1
  O2-  O211  1  0.66305041  0.21073654  0.59365221  1
  O2-  O212  1  0.66621543  0.20678957  0.93214879  1
  O2-  O213  1  0.67063823  0.70798611  0.26659605  1
  O2-  O214  1  0.66815921  0.70815241  0.59490297  1
  O2-  O215  1  0.67144530  0.71281715  0.93480483  1
  O2-  O216  1  0.09099207  0.46477991  0.06768617  1
  O2-  O217  1  0.08354179  0.45566189  0.39618718  1
  O2-  O218  1  0.08747496  0.46083211  0.72912820  1
  O2-  O219  1  0.08442110  0.94930961  0.06659479  1
  O2-  O220  1  0.08590489  0.95795881  0.39608723  1
  O2-  O221  1  0.07904175  0.95647188  0.73775651  1
  O2-  O222  1  0.58263441  0.45827359  0.05797080  1
  O2-  O223  1  0.58616826  0.45991428  0.40468813  1
  O2-  O224  1  0.58113299  0.44374843  0.73192029  1
  O2-  O225  1  0.57853516  0.94943381  0.07036178  1
  O2-  O226  1  0.58658087  0.95465140  0.39801079  1
  O2-  O227  1  0.59158225  0.95979873  0.72596242  1
  O2-  O228  1  0.19718283  0.33575413  0.06218290  1
  O2-  O229  1  0.20118428  0.33291459  0.39484920  1
  O2-  O230  1  0.20508775  0.33995803  0.73208319  1
  O2-  O231  1  0.20450393  0.83135325  0.06573973  1
  O2-  O232  1  0.20363920  0.83741982  0.39628275  1
  O2-  O233  1  0.20120612  0.82715059  0.73533179  1
  O2-  O234  1  0.70108398  0.33638203  0.06008635  1
  O2-  O235  1  0.71012887  0.33195062  0.40253397  1
  O2-  O236  1  0.70638267  0.33123346  0.73103902  1
  O2-  O237  1  0.71463460  0.83431294  0.07332473  1
  O2-  O238  1  0.71083814  0.83713494  0.39845401  1
  O2-  O239  1  0.70842386  0.83718028  0.72446324  1
  O2-  O240  1  0.46335718  0.41572376  0.26937958  1
  O2-  O241  1  0.45098610  0.41541712  0.60476703  1
  O2-  O242  1  0.45487344  0.41903206  0.92740916  1
  O2-  O243  1  0.45728644  0.92035171  0.26450730  1
  O2-  O244  1  0.46227408  0.91570573  0.59811224  1
  O2-  O245  1  0.44540196  0.91747131  0.94367224  1
  O2-  O246  1  0.95585735  0.42157286  0.26469041  1
  O2-  O247  1  0.96339743  0.41406406  0.59652543  1
  O2-  O248  1  0.96788679  0.41612643  0.93269495  1
  O2-  O249  1  0.96119461  0.91090505  0.26624007  1
  O2-  O250  1  0.95455974  0.92403022  0.60020110  1
  O2-  O251  1  0.95734628  0.91318861  0.94132853  1
  O2-  O252  1  0.33368714  0.29426315  0.26809043  1
  O2-  O253  1  0.33076176  0.29786666  0.60360221  1
  O2-  O254  1  0.32396793  0.29967114  0.93557297  1
  O2-  O255  1  0.32712255  0.79663021  0.26416807  1
  O2-  O256  1  0.32929741  0.79746042  0.60368777  1
  O2-  O257  1  0.33432821  0.78966332  0.93615396  1
  O2-  O258  1  0.82973106  0.29151571  0.26472611  1
  O2-  O259  1  0.83315480  0.29054637  0.59750444  1
  O2-  O260  1  0.83159615  0.29597371  0.93062694  1
  O2-  O261  1  0.83707752  0.79637792  0.26863849  1
  O2-  O262  1  0.83342113  0.79299911  0.59573248  1
  O2-  O263  1  0.83910464  0.79312689  0.94160865  1
  O2-  O264  1  0.41444791  0.04276827  0.07379253  1
  O2-  O265  1  0.41433326  0.04580706  0.39379250  1
  O2-  O266  1  0.42160241  0.03979020  0.73290992  1
  O2-  O267  1  0.41565898  0.54494848  0.05728344  1
  O2-  O268  1  0.41557398  0.53883934  0.40249966  1
  O2-  O269  1  0.41399215  0.54237937  0.73120280  1
  O2-  O270  1  0.91885207  0.04341730  0.06900147  1
  O2-  O271  1  0.91292522  0.03798682  0.39466693  1
  O2-  O272  1  0.91478032  0.05510056  0.72526581  1
  O2-  O273  1  0.91874524  0.53952940  0.06882419  1
  O2-  O274  1  0.92024568  0.55107460  0.39545813  1
  O2-  O275  1  0.91636109  0.53684765  0.73140028  1
  O2-  O276  1  0.28566126  0.16807154  0.06896513  1
  O2-  O277  1  0.29227160  0.16387340  0.39515835  1
  O2-  O278  1  0.29469443  0.16965392  0.73535190  1
  O2-  O279  1  0.28914694  0.65918753  0.06298522  1
  O2-  O280  1  0.28650583  0.66697064  0.39897972  1
  O2-  O281  1  0.29538648  0.66277415  0.73096353  1
  O2-  O282  1  0.79388966  0.17385329  0.06654040  1
  O2-  O283  1  0.79627317  0.16189616  0.39624397  1
  O2-  O284  1  0.78669517  0.16397209  0.72475108  1
  O2-  O285  1  0.79492075  0.66646692  0.06974135  1
  O2-  O286  1  0.79994314  0.66907763  0.39624285  1
  O2-  O287  1  0.79099471  0.66742141  0.73049245  1
