# generated using pymatgen
data_Ca2Al2SiO7
_symmetry_space_group_name_H-M   'P 1'
_cell_length_a   15.45954294
_cell_length_b   15.45900856
_cell_length_c   15.28376483
_cell_angle_alpha   90.00310268
_cell_angle_beta   89.99562165
_cell_angle_gamma   90.01667125
_symmetry_Int_Tables_number   1
_chemical_formula_structural   Ca2Al2SiO7
_chemical_formula_sum   'Ca48 Al48 Si24 O168'
_cell_volume   3652.65466239
_cell_formula_units_Z   24
loop_
 _symmetry_equiv_pos_site_id
 _symmetry_equiv_pos_as_xyz
  1  'x, y, z'
loop_
 _atom_type_symbol
 _atom_type_oxidation_number
  Ca2+  2.0
  Al0+  0.0
  Si0+  0.0
  O2-  -2.0
loop_
 _atom_site_type_symbol
 _atom_site_label
 _atom_site_symmetry_multiplicity
 _atom_site_fract_x
 _atom_site_fract_y
 _atom_site_fract_z
 _atom_site_occupancy
  Ca2+  Ca0  1  0.16462343  0.07508211  0.17649684  1
  Ca2+  Ca1  1  0.16552488  0.07396094  0.50519105  1
  Ca2+  Ca2  1  0.17262598  0.07921123  0.82915818  1
  Ca2+  Ca3  1  0.16930758  0.58624699  0.17120436  1
  Ca2+  Ca4  1  0.16715127  0.57247188  0.50731886  1
  Ca2+  Ca5  1  0.17608750  0.58288558  0.83453500  1
  Ca2+  Ca6  1  0.67967741  0.08087809  0.17154704  1
  Ca2+  Ca7  1  0.67753162  0.08181980  0.50809119  1
  Ca2+  Ca8  1  0.67551714  0.07980304  0.83304875  1
  Ca2+  Ca9  1  0.66470104  0.58201857  0.17072025  1
  Ca2+  Ca10  1  0.67255350  0.57311228  0.50796217  1
  Ca2+  Ca11  1  0.66386388  0.58018217  0.83240246  1
  Ca2+  Ca12  1  0.08789605  0.32701791  0.16865553  1
  Ca2+  Ca13  1  0.08244225  0.33068380  0.49471327  1
  Ca2+  Ca14  1  0.07812109  0.33286408  0.82156210  1
  Ca2+  Ca15  1  0.08396047  0.82396105  0.16159554  1
  Ca2+  Ca16  1  0.08996154  0.82856127  0.49404834  1
  Ca2+  Ca17  1  0.08210274  0.82976025  0.83196957  1
  Ca2+  Ca18  1  0.57900827  0.33832860  0.16809990  1
  Ca2+  Ca19  1  0.57370402  0.34382319  0.49782786  1
  Ca2+  Ca20  1  0.57930169  0.33210523  0.82212944  1
  Ca2+  Ca21  1  0.57540477  0.82542970  0.15456135  1
  Ca2+  Ca22  1  0.57890750  0.83953656  0.50255127  1
  Ca2+  Ca23  1  0.57471650  0.83249684  0.82449882  1
  Ca2+  Ca24  1  0.32923977  0.42471415  0.17405681  1
  Ca2+  Ca25  1  0.32462359  0.41572529  0.50878156  1
  Ca2+  Ca26  1  0.33530288  0.42621163  0.83287537  1
  Ca2+  Ca27  1  0.32838308  0.91276999  0.17098110  1
  Ca2+  Ca28  1  0.32289968  0.92031728  0.51161440  1
  Ca2+  Ca29  1  0.33299799  0.91033534  0.83200414  1
  Ca2+  Ca30  1  0.82414210  0.41975858  0.17414781  1
  Ca2+  Ca31  1  0.82496317  0.41702971  0.51082275  1
  Ca2+  Ca32  1  0.83354730  0.42047796  0.82835589  1
  Ca2+  Ca33  1  0.84530702  0.92469188  0.16765834  1
  Ca2+  Ca34  1  0.83067010  0.92905241  0.50919879  1
  Ca2+  Ca35  1  0.83516994  0.92491886  0.83836598  1
  Ca2+  Ca36  1  0.41508824  0.17670637  0.16600645  1
  Ca2+  Ca37  1  0.40866674  0.17811908  0.49881733  1
  Ca2+  Ca38  1  0.41623401  0.17172897  0.81952440  1
  Ca2+  Ca39  1  0.42017012  0.67041934  0.15446197  1
  Ca2+  Ca40  1  0.41039813  0.66951990  0.50305276  1
  Ca2+  Ca41  1  0.41476550  0.67065503  0.83008841  1
  Ca2+  Ca42  1  0.91947493  0.16062308  0.16625305  1
  Ca2+  Ca43  1  0.91672628  0.16775314  0.49700067  1
  Ca2+  Ca44  1  0.91299374  0.16945825  0.82620239  1
  Ca2+  Ca45  1  0.93085699  0.67102766  0.15751741  1
  Ca2+  Ca46  1  0.92172377  0.66537550  0.49556712  1
  Ca2+  Ca47  1  0.92163304  0.66526041  0.82736531  1
  Al0+  Al48  1  0.00222060  0.00090116  0.00002093  1
  Al0+  Al49  1  0.00060834  0.00107138  0.33884763  1
  Al0+  Al50  1  0.00088319  -0.00128277  0.67414690  1
  Al0+  Al51  1  -0.00109900  0.49695281  -0.00163159  1
  Al0+  Al52  1  0.00089734  0.50032174  0.32968173  1
  Al0+  Al53  1  -0.00106096  0.49813746  0.66808167  1
  Al0+  Al54  1  0.50123930  0.00248669  -0.00069492  1
  Al0+  Al55  1  0.50100588  0.00260380  0.32992486  1
  Al0+  Al56  1  0.50062379  0.00016222  0.66626256  1
  Al0+  Al57  1  0.49740678  0.49985360  0.00143861  1
  Al0+  Al58  1  0.49999313  0.50201178  0.33217672  1
  Al0+  Al59  1  0.50052961  0.50042708  0.66807037  1
  Al0+  Al60  1  0.24902680  0.24931230  0.00005534  1
  Al0+  Al61  1  0.24972175  0.25199372  0.32546225  1
  Al0+  Al62  1  0.24849694  0.24770583  0.66912437  1
  Al0+  Al63  1  0.25029842  0.74872060  -0.00236789  1
  Al0+  Al64  1  0.25018533  0.75095371  0.33241907  1
  Al0+  Al65  1  0.24993203  0.74883225  0.66837959  1
  Al0+  Al66  1  0.74993142  0.24884654  0.00602919  1
  Al0+  Al67  1  0.74808234  0.25053671  0.33987615  1
  Al0+  Al68  1  0.75035993  0.25043685  0.66919463  1
  Al0+  Al69  1  0.74983998  0.74896250  -0.00504703  1
  Al0+  Al70  1  0.74893921  0.75229998  0.33158933  1
  Al0+  Al71  1  0.75064586  0.74975238  0.67016307  1
  Al0+  Al72  1  0.82151354  0.07108471  0.68313038  1
  Al0+  Al73  1  0.42934376  0.32224381  0.31846372  1
  Al0+  Al74  1  0.31846984  0.56969963  0.01533756  1
  Al0+  Al75  1  0.06927072  0.17902974  0.32041613  1
  Al0+  Al76  1  0.32088306  0.57036678  0.68075934  1
  Al0+  Al77  1  0.07110779  0.67615064  0.98213975  1
  Al0+  Al78  1  0.42863018  0.32155477  0.65351193  1
  Al0+  Al79  1  0.92905165  0.32055415  0.65252302  1
  Al0+  Al80  1  0.07119834  0.67811446  0.32054848  1
  Al0+  Al81  1  0.82093837  0.06959915  0.01643329  1
  Al0+  Al82  1  0.82240107  0.57165129  0.68095123  1
  Al0+  Al83  1  0.82091966  0.06940475  0.34834655  1
  Al0+  Al84  1  0.93074764  0.82262838  0.98449824  1
  Al0+  Al85  1  0.67846817  0.42935271  0.68259784  1
  Al0+  Al86  1  0.18122396  0.92892135  0.34562020  1
  Al0+  Al87  1  0.42979280  0.82298506  0.98431118  1
  Al0+  Al88  1  0.67795645  0.92807604  0.68168632  1
  Al0+  Al89  1  0.17779869  0.42657390  0.68088822  1
  Al0+  Al90  1  0.32088441  0.07062148  0.67919553  1
  Al0+  Al91  1  0.17878850  0.92632810  0.68400684  1
  Al0+  Al92  1  0.67818629  0.43153768  0.34698682  1
  Al0+  Al93  1  0.57130566  0.67578795  0.98364917  1
  Al0+  Al94  1  0.17893093  0.42878309  0.34564217  1
  Al0+  Al95  1  0.42887808  0.82063249  0.65045552  1
  Si0+  Si96  1  0.67923333  0.42967226  0.01584651  1
  Si0+  Si97  1  0.92828335  0.82212062  0.65139855  1
  Si0+  Si98  1  0.32317779  0.07466174  0.01667978  1
  Si0+  Si99  1  0.07167690  0.17926866  0.98429629  1
  Si0+  Si100  1  0.07122298  0.17615913  0.65018050  1
  Si0+  Si101  1  0.57383617  0.17799501  0.31508280  1
  Si0+  Si102  1  0.42940086  0.82262232  0.31927961  1
  Si0+  Si103  1  0.57275533  0.18136979  0.98602600  1
  Si0+  Si104  1  0.67504735  0.92700205  0.34862973  1
  Si0+  Si105  1  0.92669302  0.31872512  0.98667095  1
  Si0+  Si106  1  0.42866471  0.31911064  0.98479691  1
  Si0+  Si107  1  0.17587320  0.42555359  0.01824594  1
  Si0+  Si108  1  0.32360064  0.07329240  0.34685457  1
  Si0+  Si109  1  0.92758758  0.82223983  0.31930517  1
  Si0+  Si110  1  0.18195305  0.93102109  0.01572115  1
  Si0+  Si111  1  0.06995808  0.67932292  0.65095085  1
  Si0+  Si112  1  0.57247407  0.17820958  0.64932219  1
  Si0+  Si113  1  0.57372121  0.67837180  0.64734343  1
  Si0+  Si114  1  0.82253177  0.57385577  0.34639446  1
  Si0+  Si115  1  0.57140108  0.68056328  0.31929463  1
  Si0+  Si116  1  0.92535268  0.32180980  0.31642426  1
  Si0+  Si117  1  0.32180466  0.57287911  0.34959016  1
  Si0+  Si118  1  0.82299570  0.57167349  0.01588818  1
  Si0+  Si119  1  0.67716375  0.92694146  0.01707079  1
  O2-  O120  1  0.25600841  -0.00039628  0.05819697  1
  O2-  O121  1  0.25659891  0.00338696  0.39064389  1
  O2-  O122  1  0.25374777  -0.00379274  0.73281195  1
  O2-  O123  1  0.24140312  0.49739425  0.06232800  1
  O2-  O124  1  0.25260426  0.50412212  0.39204746  1
  O2-  O125  1  0.25121782  0.49625342  0.73128932  1
  O2-  O126  1  0.74990301  -0.00918734  0.06319434  1
  O2-  O127  1  0.74492625  -0.00527550  0.39160699  1
  O2-  O128  1  0.75160099  -0.00276323  0.73299202  1
  O2-  O129  1  0.74822530  0.50348346  0.05779165  1
  O2-  O130  1  0.75584758  0.50389847  0.39106233  1
  O2-  O131  1  0.74906779  0.50210668  0.73304888  1
  O2-  O132  1  -0.00581506  0.25325319  0.27131057  1
  O2-  O133  1  0.00299006  0.24520368  0.60608639  1
  O2-  O134  1  0.00120780  0.25136072  0.94464991  1
  O2-  O135  1  -0.00601961  0.75129900  0.27510282  1
  O2-  O136  1  -0.00079072  0.75108423  0.60847007  1
  O2-  O137  1  -0.00297838  0.74641583  0.93250273  1
  O2-  O138  1  0.50461041  0.24719133  0.27135721  1
  O2-  O139  1  0.50291013  0.24655725  0.60554714  1
  O2-  O140  1  0.49825898  0.24748472  0.94250877  1
  O2-  O141  1  0.50186244  0.75318666  0.27749014  1
  O2-  O142  1  0.50479674  0.74709190  0.60234414  1
  O2-  O143  1  0.50387287  0.75264350  0.93517093  1
  O2-  O144  1  0.07266258  0.17848143  0.08972343  1
  O2-  O145  1  0.06876411  0.17837234  0.43279501  1
  O2-  O146  1  0.07092520  0.17700279  0.75634199  1
  O2-  O147  1  0.07105375  0.67822381  0.09642194  1
  O2-  O148  1  0.07083539  0.67858154  0.43364037  1
  O2-  O149  1  0.06899778  0.67968081  0.75585928  1
  O2-  O150  1  0.57307886  0.18431264  0.09136129  1
  O2-  O151  1  0.57382078  0.17425125  0.41976458  1
  O2-  O152  1  0.57192473  0.18026205  0.75560777  1
  O2-  O153  1  0.56814331  0.67578494  0.09857286  1
  O2-  O154  1  0.57317534  0.67999790  0.42371295  1
  O2-  O155  1  0.57277837  0.67827731  0.75259029  1
  O2-  O156  1  0.18137618  0.42925801  0.23221711  1
  O2-  O157  1  0.17763284  0.42801985  0.56688532  1
  O2-  O158  1  0.17782622  0.42134905  0.91336296  1
  O2-  O159  1  0.18292002  0.92844873  0.23185078  1
  O2-  O160  1  0.17833432  0.92715069  0.57002870  1
  O2-  O161  1  0.18086589  0.93366877  0.91122586  1
  O2-  O162  1  0.67859038  0.43430224  0.23289352  1
  O2-  O163  1  0.67872139  0.43191307  0.56887417  1
  O2-  O164  1  0.68033594  0.42639770  0.91158393  1
  O2-  O165  1  0.67268240  0.92656767  0.24301260  1
  O2-  O166  1  0.68082990  0.93077819  0.56720916  1
  O2-  O167  1  0.67467984  0.93238609  0.91239170  1
  O2-  O168  1  0.42979147  0.31833125  0.09028258  1
  O2-  O169  1  0.42884581  0.32156664  0.43103118  1
  O2-  O170  1  0.43088952  0.31929256  0.76720599  1
  O2-  O171  1  0.43029862  0.82201832  0.09923309  1
  O2-  O172  1  0.42911409  0.82274248  0.42387773  1
  O2-  O173  1  0.42963859  0.81860420  0.76299248  1
  O2-  O174  1  0.92489500  0.31802261  0.09203416  1
  O2-  O175  1  0.92538359  0.32171987  0.42145411  1
  O2-  O176  1  0.93029994  0.31868728  0.76641268  1
  O2-  O177  1  0.93665097  0.82298898  0.09891329  1
  O2-  O178  1  0.92608954  0.82016988  0.42481160  1
  O2-  O179  1  0.92979414  0.82197809  0.75621900  1
  O2-  O180  1  0.32353328  0.07048311  0.24046292  1
  O2-  O181  1  0.31691245  0.07156150  0.56529263  1
  O2-  O182  1  0.32089734  0.08043101  0.91253142  1
  O2-  O183  1  0.32206669  0.57304378  0.24355789  1
  O2-  O184  1  0.31701382  0.57077033  0.56668284  1
  O2-  O185  1  0.32061036  0.56626239  0.90313299  1
  O2-  O186  1  0.82115096  0.06725884  0.23475126  1
  O2-  O187  1  0.82157697  0.06993925  0.56938960  1
  O2-  O188  1  0.81793599  0.07342316  0.90441859  1
  O2-  O189  1  0.81972433  0.57382810  0.24032358  1
  O2-  O190  1  0.82205828  0.57098348  0.56669483  1
  O2-  O191  1  0.82640621  0.56761170  0.91166362  1
  O2-  O192  1  0.03751293  0.08203511  0.26581491  1
  O2-  O193  1  0.04455860  0.08162542  0.60619135  1
  O2-  O194  1  0.04370661  0.08852320  0.93660285  1
  O2-  O195  1  0.04279629  0.58227281  0.26271356  1
  O2-  O196  1  0.04028344  0.58761711  0.60444369  1
  O2-  O197  1  0.04422794  0.57587809  0.93250274  1
  O2-  O198  1  0.54840097  0.08520041  0.26506300  1
  O2-  O199  1  0.54962836  0.08454232  0.60280195  1
  O2-  O200  1  0.55010057  0.08823166  0.93997157  1
  O2-  O201  1  0.54231518  0.59015504  0.26954398  1
  O2-  O202  1  0.54661789  0.58483822  0.60160667  1
  O2-  O203  1  0.53859432  0.57818675  0.93192893  1
  O2-  O204  1  0.16452232  0.20888508  0.26182315  1
  O2-  O205  1  0.16468013  0.20045571  0.60397005  1
  O2-  O206  1  0.16364740  0.20655218  0.93670918  1
  O2-  O207  1  0.16707757  0.71218502  0.26550421  1
  O2-  O208  1  0.16147806  0.70705431  0.60349387  1
  O2-  O209  1  0.16865084  0.70691446  0.93089086  1
  O2-  O210  1  0.66695036  0.20641571  0.26853343  1
  O2-  O211  1  0.66588988  0.20499925  0.60401293  1
  O2-  O212  1  0.66309755  0.21364351  0.93879127  1
  O2-  O213  1  0.66337756  0.70626749  0.26926559  1
  O2-  O214  1  0.66799924  0.70357099  0.60139980  1
  O2-  O215  1  0.67251252  0.69454748  0.93391763  1
  O2-  O216  1  0.08002128  0.44584423  0.06250403  1
  O2-  O217  1  0.08047575  0.45655305  0.39724914  1
  O2-  O218  1  0.08087987  0.45670629  0.73437967  1
  O2-  O219  1  0.09199947  0.96328483  0.06416972  1
  O2-  O220  1  0.08574393  0.95875569  0.40080352  1
  O2-  O221  1  0.08286259  0.95679436  0.73949578  1
  O2-  O222  1  0.58660083  0.45572446  0.06312714  1
  O2-  O223  1  0.58273652  0.46569504  0.40037032  1
  O2-  O224  1  0.58086469  0.45737387  0.73636236  1
  O2-  O225  1  0.58523163  0.95811545  0.06565006  1
  O2-  O226  1  0.58168357  0.95441396  0.39448618  1
  O2-  O227  1  0.58054446  0.95773007  0.73455676  1
  O2-  O228  1  0.20622539  0.33278065  0.06540734  1
  O2-  O229  1  0.21027360  0.33133947  0.39679096  1
  O2-  O230  1  0.20148343  0.32769570  0.73375773  1
  O2-  O231  1  0.20753394  0.83797675  0.06178964  1
  O2-  O232  1  0.21258056  0.83312863  0.40044781  1
  O2-  O233  1  0.20646407  0.82859400  0.73654606  1
  O2-  O234  1  0.71054064  0.33994375  0.06629679  1
  O2-  O235  1  0.70300582  0.33420952  0.40057308  1
  O2-  O236  1  0.70682586  0.33168378  0.73578281  1
  O2-  O237  1  0.69642212  0.83021228  0.05989643  1
  O2-  O238  1  0.69844670  0.83292458  0.39466644  1
  O2-  O239  1  0.70128187  0.82878516  0.73306033  1
  O2-  O240  1  0.46258244  0.41859819  0.26346299  1
  O2-  O241  1  0.45935307  0.41824770  0.59939339  1
  O2-  O242  1  0.45766462  0.41062410  0.93941428  1
  O2-  O243  1  0.45408508  0.91524324  0.27074941  1
  O2-  O244  1  0.45886381  0.91813564  0.59655130  1
  O2-  O245  1  0.45419779  0.92405280  0.93456074  1
  O2-  O246  1  0.95001005  0.41541071  0.26898876  1
  O2-  O247  1  0.95818938  0.41738396  0.59779568  1
  O2-  O248  1  0.95033231  0.41106484  0.93911256  1
  O2-  O249  1  0.95739210  0.91490733  0.27423200  1
  O2-  O250  1  0.95722632  0.91465526  0.60560941  1
  O2-  O251  1  0.96393546  0.91998242  0.93185939  1
  O2-  O252  1  0.33533103  0.29089681  0.25926307  1
  O2-  O253  1  0.33135818  0.28858532  0.60104744  1
  O2-  O254  1  0.33608785  0.29186015  0.93934530  1
  O2-  O255  1  0.33879608  0.79301650  0.27017398  1
  O2-  O256  1  0.33185507  0.78762494  0.59698491  1
  O2-  O257  1  0.33176643  0.79357175  0.93338625  1
  O2-  O258  1  0.83103663  0.29548257  0.27122600  1
  O2-  O259  1  0.83166607  0.29047557  0.59941959  1
  O2-  O260  1  0.83604089  0.28677464  0.93981902  1
  O2-  O261  1  0.83287738  0.80186816  0.27149714  1
  O2-  O262  1  0.83620865  0.79548947  0.60360499  1
  O2-  O263  1  0.82908331  0.80312320  0.93631441  1
  O2-  O264  1  0.41718792  0.05261954  0.06303154  1
  O2-  O265  1  0.41846358  0.05165963  0.39108663  1
  O2-  O266  1  0.42091126  0.04905130  0.73034626  1
  O2-  O267  1  0.41434390  0.53583350  0.07108727  1
  O2-  O268  1  0.41557519  0.54841139  0.39427629  1
  O2-  O269  1  0.41956158  0.54505374  0.73305039  1
  O2-  O270  1  0.91977735  0.04061163  0.06866438  1
  O2-  O271  1  0.91579610  0.03884512  0.40431299  1
  O2-  O272  1  0.91925287  0.04423822  0.73712253  1
  O2-  O273  1  0.91305746  0.53912975  0.06550344  1
  O2-  O274  1  0.91698847  0.55053635  0.39037490  1
  O2-  O275  1  0.91803851  0.53918108  0.73634846  1
  O2-  O276  1  0.29030302  0.16441575  0.06677854  1
  O2-  O277  1  0.29638602  0.16742139  0.38883057  1
  O2-  O278  1  0.28926388  0.16593121  0.73671882  1
  O2-  O279  1  0.29060767  0.66792100  0.06892187  1
  O2-  O280  1  0.29674314  0.66667994  0.39440550  1
  O2-  O281  1  0.28956805  0.66650072  0.73483856  1
  O2-  O282  1  0.78601051  0.16451258  0.07281620  1
  O2-  O283  1  0.79065185  0.16600442  0.40143079  1
  O2-  O284  1  0.79094684  0.16825090  0.73622894  1
  O2-  O285  1  0.79907329  0.66511262  0.06237652  1
  O2-  O286  1  0.79656649  0.66774156  0.39172799  1
  O2-  O287  1  0.79856253  0.67019380  0.73418330  1
