# generated using pymatgen
data_Ca2Al2SiO7
_symmetry_space_group_name_H-M   'P 1'
_cell_length_a   15.47174314
_cell_length_b   15.46868688
_cell_length_c   15.29256356
_cell_angle_alpha   90.00402420
_cell_angle_beta   90.00471955
_cell_angle_gamma   89.99101702
_symmetry_Int_Tables_number   1
_chemical_formula_structural   Ca2Al2SiO7
_chemical_formula_sum   'Ca48 Al48 Si24 O168'
_cell_volume   3659.93170512
_cell_formula_units_Z   24
loop_
 _symmetry_equiv_pos_site_id
 _symmetry_equiv_pos_as_xyz
  1  'x, y, z'
loop_
 _atom_type_symbol
 _atom_type_oxidation_number
  Ca2+  2.0
  Al0+  0.0
  Si0+  0.0
  O2-  -2.0
loop_
 _atom_site_type_symbol
 _atom_site_label
 _atom_site_symmetry_multiplicity
 _atom_site_fract_x
 _atom_site_fract_y
 _atom_site_fract_z
 _atom_site_occupancy
  Ca2+  Ca0  1  0.17643494  0.09108112  0.17723742  1
  Ca2+  Ca1  1  0.17151748  0.09396143  0.49895624  1
  Ca2+  Ca2  1  0.16975231  0.08332047  0.83668984  1
  Ca2+  Ca3  1  0.17054661  0.57522112  0.17496868  1
  Ca2+  Ca4  1  0.17286326  0.58058786  0.50731335  1
  Ca2+  Ca5  1  0.17351242  0.59227187  0.83321929  1
  Ca2+  Ca6  1  0.66975053  0.08085236  0.17387784  1
  Ca2+  Ca7  1  0.66682066  0.08076174  0.49628054  1
  Ca2+  Ca8  1  0.67160634  0.07690640  0.84677159  1
  Ca2+  Ca9  1  0.65931468  0.57464906  0.17008795  1
  Ca2+  Ca10  1  0.66587253  0.57452172  0.50838359  1
  Ca2+  Ca11  1  0.65970424  0.57266396  0.83308259  1
  Ca2+  Ca12  1  0.07203452  0.33165465  0.16829069  1
  Ca2+  Ca13  1  0.07056462  0.33631353  0.49099067  1
  Ca2+  Ca14  1  0.06722863  0.33394686  0.82868770  1
  Ca2+  Ca15  1  0.08152786  0.83357164  0.16396847  1
  Ca2+  Ca16  1  0.07893477  0.82678825  0.50309870  1
  Ca2+  Ca17  1  0.07391771  0.82764187  0.82227979  1
  Ca2+  Ca18  1  0.59922895  0.32122415  0.16541541  1
  Ca2+  Ca19  1  0.58042463  0.33743463  0.49371088  1
  Ca2+  Ca20  1  0.58902534  0.33013921  0.82924497  1
  Ca2+  Ca21  1  0.58961302  0.82619937  0.15988674  1
  Ca2+  Ca22  1  0.59149034  0.81934088  0.49287478  1
  Ca2+  Ca23  1  0.59008315  0.82117879  0.83186288  1
  Ca2+  Ca24  1  0.32370224  0.41343840  0.17502902  1
  Ca2+  Ca25  1  0.32680335  0.41556716  0.50880285  1
  Ca2+  Ca26  1  0.33881576  0.42119185  0.83047434  1
  Ca2+  Ca27  1  0.33587087  0.91971125  0.17220022  1
  Ca2+  Ca28  1  0.33559610  0.92420475  0.50029193  1
  Ca2+  Ca29  1  0.33182896  0.91066194  0.83861812  1
  Ca2+  Ca30  1  0.82589165  0.41237356  0.17039093  1
  Ca2+  Ca31  1  0.82402067  0.41448581  0.50600387  1
  Ca2+  Ca32  1  0.82663446  0.41687624  0.83613610  1
  Ca2+  Ca33  1  0.82132811  0.92909678  0.17239273  1
  Ca2+  Ca34  1  0.83397489  0.92159465  0.50067036  1
  Ca2+  Ca35  1  0.83005372  0.92123699  0.84141013  1
  Ca2+  Ca36  1  0.42919136  0.16206021  0.16600924  1
  Ca2+  Ca37  1  0.42154919  0.17251559  0.49324825  1
  Ca2+  Ca38  1  0.42692966  0.17308571  0.82992570  1
  Ca2+  Ca39  1  0.43022573  0.67310553  0.16073268  1
  Ca2+  Ca40  1  0.42854175  0.65910942  0.49891279  1
  Ca2+  Ca41  1  0.42702813  0.66743499  0.82972665  1
  Ca2+  Ca42  1  0.90278248  0.17678386  0.16664972  1
  Ca2+  Ca43  1  0.91740150  0.17865282  0.48961785  1
  Ca2+  Ca44  1  0.90613142  0.17799368  0.83287179  1
  Ca2+  Ca45  1  0.91713950  0.66786944  0.16371909  1
  Ca2+  Ca46  1  0.90851059  0.66996417  0.50125736  1
  Ca2+  Ca47  1  0.91818798  0.67077417  0.81893731  1
  Al0+  Al48  1  0.00200917  0.00077923  0.00470997  1
  Al0+  Al49  1  0.00229208  -0.00074224  0.33334681  1
  Al0+  Al50  1  0.00162033  -0.00078897  0.66405728  1
  Al0+  Al51  1  0.00120250  0.49900295  -0.00345790  1
  Al0+  Al52  1  0.00070472  0.50111725  0.33228172  1
  Al0+  Al53  1  0.00063559  0.49867421  0.66179596  1
  Al0+  Al54  1  0.49773743  -0.00056498  -0.00525036  1
  Al0+  Al55  1  0.49798419  0.00019646  0.34039878  1
  Al0+  Al56  1  0.49991127  -0.00011206  0.66932047  1
  Al0+  Al57  1  0.49836213  0.50058993  0.00336800  1
  Al0+  Al58  1  0.49919172  0.50202536  0.33004034  1
  Al0+  Al59  1  0.49715125  0.49866611  0.66757596  1
  Al0+  Al60  1  0.24820507  0.25000228  -0.00059637  1
  Al0+  Al61  1  0.24782451  0.25129447  0.34002978  1
  Al0+  Al62  1  0.25282808  0.24995739  0.66840162  1
  Al0+  Al63  1  0.25159114  0.74984539  0.00069609  1
  Al0+  Al64  1  0.25026458  0.75075502  0.33368191  1
  Al0+  Al65  1  0.24983901  0.75149960  0.66696727  1
  Al0+  Al66  1  0.74985621  0.25179427  -0.00352046  1
  Al0+  Al67  1  0.74850168  0.25098289  0.33582780  1
  Al0+  Al68  1  0.75036564  0.24642004  0.66525864  1
  Al0+  Al69  1  0.75214609  0.74846897  -0.00213523  1
  Al0+  Al70  1  0.75066886  0.75022033  0.32848039  1
  Al0+  Al71  1  0.75013633  0.75056629  0.66080871  1
  Al0+  Al72  1  0.17861544  0.43005320  0.34792842  1
  Al0+  Al73  1  0.56919710  0.67962878  0.65214126  1
  Al0+  Al74  1  0.57313144  0.67722601  0.98277326  1
  Al0+  Al75  1  0.31934613  0.57152090  0.68131348  1
  Al0+  Al76  1  0.82159235  0.57172203  0.67972182  1
  Al0+  Al77  1  0.67834491  0.92748134  0.34928311  1
  Al0+  Al78  1  0.92931487  0.32007196  0.98513020  1
  Al0+  Al79  1  0.92760855  0.32002232  0.65172742  1
  Al0+  Al80  1  0.57233939  0.67865335  0.31819569  1
  Al0+  Al81  1  0.67851149  0.43134008  0.01409181  1
  Al0+  Al82  1  0.56872962  0.17967562  0.32141147  1
  Al0+  Al83  1  0.57050314  0.18035695  0.98720352  1
  Al0+  Al84  1  0.82089377  0.07201714  0.01489004  1
  Al0+  Al85  1  0.07190783  0.17852709  0.31909629  1
  Al0+  Al86  1  0.67713329  0.92670702  0.01326971  1
  Al0+  Al87  1  0.07290568  0.67793349  0.65124895  1
  Al0+  Al88  1  0.82154298  0.07164918  0.34997936  1
  Al0+  Al89  1  0.67873192  0.42738045  0.68149064  1
  Al0+  Al90  1  0.42824129  0.82103524  0.98513774  1
  Al0+  Al91  1  0.43115548  0.31972740  0.65370406  1
  Al0+  Al92  1  0.31987734  0.07063309  0.34796740  1
  Al0+  Al93  1  0.92788428  0.82205637  0.65028832  1
  Al0+  Al94  1  0.67901799  0.43057000  0.34619483  1
  Al0+  Al95  1  0.92766848  0.32189038  0.31699511  1
  Si0+  Si96  1  0.82313087  0.06868339  0.68136307  1
  Si0+  Si97  1  0.17985332  0.93071588  0.68266967  1
  Si0+  Si98  1  0.42685035  0.32318434  0.31761695  1
  Si0+  Si99  1  0.07450909  0.17725522  0.98289702  1
  Si0+  Si100  1  0.57213613  0.17532092  0.64927673  1
  Si0+  Si101  1  0.82619650  0.57151602  0.01521831  1
  Si0+  Si102  1  0.18010148  0.92783006  0.01512132  1
  Si0+  Si103  1  0.42746985  0.82382883  0.64882167  1
  Si0+  Si104  1  0.07252123  0.68064649  0.31720223  1
  Si0+  Si105  1  0.42785848  0.82169974  0.31886411  1
  Si0+  Si106  1  0.17757682  0.92460645  0.35240085  1
  Si0+  Si107  1  0.17773571  0.42921377  0.01452819  1
  Si0+  Si108  1  0.31962097  0.07213709  0.01395207  1
  Si0+  Si109  1  0.67857538  0.92892641  0.68141797  1
  Si0+  Si110  1  0.07128113  0.67933509  0.98656279  1
  Si0+  Si111  1  0.82323715  0.57314432  0.34751614  1
  Si0+  Si112  1  0.32072554  0.57290814  0.34946220  1
  Si0+  Si113  1  0.42285046  0.32133130  0.98510737  1
  Si0+  Si114  1  0.17793289  0.42621913  0.68558036  1
  Si0+  Si115  1  0.07310710  0.17838951  0.65191243  1
  Si0+  Si116  1  0.31951995  0.57172480  0.01728172  1
  Si0+  Si117  1  0.32204011  0.07195447  0.68523335  1
  Si0+  Si118  1  0.92925443  0.82201194  0.31518896  1
  Si0+  Si119  1  0.93140446  0.82191943  0.98681657  1
  O2-  O120  1  0.25037821  -0.00066757  0.05641747  1
  O2-  O121  1  0.24270185  -0.00244695  0.39497640  1
  O2-  O122  1  0.25100354  0.00064341  0.72696199  1
  O2-  O123  1  0.25100758  0.49749918  0.05788963  1
  O2-  O124  1  0.25498321  0.50254366  0.39448394  1
  O2-  O125  1  0.24235887  0.49916349  0.73029408  1
  O2-  O126  1  0.74595432  0.00184771  0.06310341  1
  O2-  O127  1  0.75052196  -0.00120403  0.40073899  1
  O2-  O128  1  0.75079285  -0.00114774  0.72321900  1
  O2-  O129  1  0.75330499  0.50754861  0.05909024  1
  O2-  O130  1  0.75413809  0.50524680  0.39093577  1
  O2-  O131  1  0.75133445  0.49929458  0.73188189  1
  O2-  O132  1  -0.00379222  0.24518436  0.26740341  1
  O2-  O133  1  0.00549543  0.24705678  0.60797955  1
  O2-  O134  1  0.00207999  0.24182904  0.93968134  1
  O2-  O135  1  0.00145894  0.75082746  0.27371202  1
  O2-  O136  1  -0.00472863  0.74426262  0.60142222  1
  O2-  O137  1  -0.00045582  0.74857738  0.94403122  1
  O2-  O138  1  0.49640707  0.25634297  0.27262118  1
  O2-  O139  1  0.50779049  0.24831607  0.60627296  1
  O2-  O140  1  0.49620310  0.25690122  0.94236423  1
  O2-  O141  1  0.49963964  0.75714961  0.27437958  1
  O2-  O142  1  0.49565730  0.75575123  0.60442748  1
  O2-  O143  1  0.50358215  0.75326581  0.93462388  1
  O2-  O144  1  0.08305809  0.17992086  0.08731877  1
  O2-  O145  1  0.07246424  0.18300263  0.43281171  1
  O2-  O146  1  0.07321266  0.17717077  0.75791069  1
  O2-  O147  1  0.07158553  0.68054293  0.09209161  1
  O2-  O148  1  0.07519662  0.68235160  0.42147106  1
  O2-  O149  1  0.07511359  0.68528298  0.76549402  1
  O2-  O150  1  0.56867312  0.17960677  0.10026655  1
  O2-  O151  1  0.56569765  0.18017489  0.43437522  1
  O2-  O152  1  0.56923089  0.17246174  0.75511856  1
  O2-  O153  1  0.56921779  0.67700881  0.09632799  1
  O2-  O154  1  0.56991647  0.67712974  0.43126455  1
  O2-  O155  1  0.56801997  0.68061022  0.76500475  1
  O2-  O156  1  0.17973218  0.43281532  0.23387447  1
  O2-  O157  1  0.18244228  0.42392775  0.58028588  1
  O2-  O158  1  0.17673956  0.43082799  0.90978149  1
  O2-  O159  1  0.18124659  0.91890366  0.24662122  1
  O2-  O160  1  0.18030848  0.93138743  0.57802103  1
  O2-  O161  1  0.17918224  0.92733839  0.90997134  1
  O2-  O162  1  0.68014668  0.43141736  0.23290366  1
  O2-  O163  1  0.67792437  0.42822795  0.56795156  1
  O2-  O164  1  0.67913140  0.42999155  0.90123658  1
  O2-  O165  1  0.67961691  0.92697500  0.23578544  1
  O2-  O166  1  0.67607042  0.93125767  0.57675109  1
  O2-  O167  1  0.68281961  0.92690407  0.89906947  1
  O2-  O168  1  0.41347636  0.31684125  0.09001148  1
  O2-  O169  1  0.42760601  0.32268563  0.42326492  1
  O2-  O170  1  0.42876886  0.31591337  0.76707094  1
  O2-  O171  1  0.42025050  0.81693262  0.09838153  1
  O2-  O172  1  0.42397492  0.81875567  0.42427343  1
  O2-  O173  1  0.42799913  0.82447161  0.75428958  1
  O2-  O174  1  0.93193258  0.32261881  0.09753193  1
  O2-  O175  1  0.92967855  0.32316168  0.43038374  1
  O2-  O176  1  0.92790141  0.31732132  0.76523444  1
  O2-  O177  1  0.93535174  0.82112652  0.09195723  1
  O2-  O178  1  0.92924592  0.82071113  0.41992408  1
  O2-  O179  1  0.93221384  0.82625514  0.76444502  1
  O2-  O180  1  0.32027207  0.06825104  0.23440715  1
  O2-  O181  1  0.32135426  0.07201734  0.58050684  1
  O2-  O182  1  0.31534916  0.07413509  0.90878582  1
  O2-  O183  1  0.31646869  0.57392088  0.24348139  1
  O2-  O184  1  0.31845305  0.56977961  0.56834117  1
  O2-  O185  1  0.31747282  0.57375456  0.91230491  1
  O2-  O186  1  0.81856749  0.07022109  0.23652152  1
  O2-  O187  1  0.82451768  0.06789750  0.57672584  1
  O2-  O188  1  0.82217328  0.06838172  0.90050565  1
  O2-  O189  1  0.82506484  0.57359985  0.24151991  1
  O2-  O190  1  0.81742748  0.57178433  0.56614942  1
  O2-  O191  1  0.83236530  0.56985803  0.91033150  1
  O2-  O192  1  0.05692311  0.07533041  0.27014607  1
  O2-  O193  1  0.04998570  0.08464238  0.60584306  1
  O2-  O194  1  0.05341600  0.08095767  0.93965427  1
  O2-  O195  1  0.04510663  0.58952450  0.26826467  1
  O2-  O196  1  0.05609949  0.57689684  0.60123620  1
  O2-  O197  1  0.04804204  0.58721145  0.93883097  1
  O2-  O198  1  0.53454011  0.08264941  0.26972518  1
  O2-  O199  1  0.53991899  0.08356549  0.60319004  1
  O2-  O200  1  0.53855153  0.08511233  0.93096128  1
  O2-  O201  1  0.53648829  0.58465653  0.26165393  1
  O2-  O202  1  0.53477366  0.58359470  0.60030275  1
  O2-  O203  1  0.53709649  0.57971869  0.93202768  1
  O2-  O204  1  0.16973234  0.21241839  0.26687955  1
  O2-  O205  1  0.16800362  0.20272445  0.60862737  1
  O2-  O206  1  0.16553894  0.20686089  0.93227445  1
  O2-  O207  1  0.16380783  0.70982006  0.26799083  1
  O2-  O208  1  0.16840179  0.71515552  0.59714984  1
  O2-  O209  1  0.16228809  0.70983651  0.93994545  1
  O2-  O210  1  0.66534547  0.20950429  0.26795715  1
  O2-  O211  1  0.66737302  0.19393164  0.60567932  1
  O2-  O212  1  0.66544769  0.21064311  0.93040914  1
  O2-  O213  1  0.66916741  0.70639129  0.26298290  1
  O2-  O214  1  0.66488153  0.70990324  0.59734657  1
  O2-  O215  1  0.67351339  0.70136319  0.93121843  1
  O2-  O216  1  0.08788265  0.46055671  0.06351541  1
  O2-  O217  1  0.08330311  0.46455791  0.40109514  1
  O2-  O218  1  0.08229129  0.44710042  0.72820139  1
  O2-  O219  1  0.08897912  0.95324026  0.06476715  1
  O2-  O220  1  0.08270860  0.94436829  0.39663773  1
  O2-  O221  1  0.08850026  0.95945771  0.73153865  1
  O2-  O222  1  0.58060452  0.45778252  0.06845696  1
  O2-  O223  1  0.58050085  0.46109146  0.39708620  1
  O2-  O224  1  0.57991985  0.45586068  0.73369687  1
  O2-  O225  1  0.57510017  0.94943079  0.06065711  1
  O2-  O226  1  0.58011003  0.95340827  0.40315011  1
  O2-  O227  1  0.58699292  0.95684926  0.73010555  1
  O2-  O228  1  0.20454181  0.33668005  0.06109454  1
  O2-  O229  1  0.20722759  0.33529787  0.40494025  1
  O2-  O230  1  0.20923116  0.33448903  0.73344408  1
  O2-  O231  1  0.20813088  0.83648173  0.06415438  1
  O2-  O232  1  0.20851309  0.83339446  0.40110567  1
  O2-  O233  1  0.20744843  0.83967944  0.73172667  1
  O2-  O234  1  0.71317879  0.33519906  0.06578905  1
  O2-  O235  1  0.70638006  0.33450159  0.40154545  1
  O2-  O236  1  0.70647072  0.32673350  0.73169334  1
  O2-  O237  1  0.70937077  0.82858767  0.06501575  1
  O2-  O238  1  0.71050056  0.82862211  0.39950119  1
  O2-  O239  1  0.70634884  0.83674107  0.72683814  1
  O2-  O240  1  0.44710021  0.41759904  0.27115389  1
  O2-  O241  1  0.45505768  0.41680766  0.59904951  1
  O2-  O242  1  0.44483530  0.41740116  0.94393737  1
  O2-  O243  1  0.44846008  0.91723513  0.27594079  1
  O2-  O244  1  0.45243030  0.91863883  0.60463071  1
  O2-  O245  1  0.44505958  0.92140444  0.93184327  1
  O2-  O246  1  0.96097135  0.41968480  0.26427847  1
  O2-  O247  1  0.95564084  0.41645501  0.59751695  1
  O2-  O248  1  0.96514442  0.41512417  0.93025862  1
  O2-  O249  1  0.95899319  0.91266607  0.26718521  1
  O2-  O250  1  0.96518018  0.91730683  0.59568839  1
  O2-  O251  1  0.96259363  0.91312477  0.93976611  1
  O2-  O252  1  0.33286921  0.29546242  0.27425384  1
  O2-  O253  1  0.33502212  0.28559708  0.59981233  1
  O2-  O254  1  0.33208263  0.29203175  0.93406740  1
  O2-  O255  1  0.33510980  0.79353732  0.27068047  1
  O2-  O256  1  0.33312711  0.80080551  0.60433225  1
  O2-  O257  1  0.33056081  0.78744914  0.93055592  1
  O2-  O258  1  0.82854881  0.29390314  0.26579561  1
  O2-  O259  1  0.83254016  0.28517796  0.59774569  1
  O2-  O260  1  0.83416061  0.29008462  0.92885987  1
  O2-  O261  1  0.83950113  0.79255119  0.26520819  1
  O2-  O262  1  0.82977237  0.79918949  0.59528345  1
  O2-  O263  1  0.83980637  0.79731583  0.93868393  1
  O2-  O264  1  0.41191610  0.04630321  0.06000962  1
  O2-  O265  1  0.41286323  0.03848679  0.40752759  1
  O2-  O266  1  0.41347283  0.04338287  0.73311876  1
  O2-  O267  1  0.41102033  0.54678401  0.06560235  1
  O2-  O268  1  0.41516166  0.54941301  0.39281142  1
  O2-  O269  1  0.41319074  0.53682110  0.73769697  1
  O2-  O270  1  0.92015593  0.04440486  0.06727470  1
  O2-  O271  1  0.92179948  0.04305751  0.39963056  1
  O2-  O272  1  0.91526169  0.04073022  0.72857444  1
  O2-  O273  1  0.91893616  0.54337988  0.06370025  1
  O2-  O274  1  0.91739468  0.55057012  0.39310319  1
  O2-  O275  1  0.92345091  0.54815345  0.72902502  1
  O2-  O276  1  0.28897787  0.16267898  0.06240869  1
  O2-  O277  1  0.28948888  0.16627050  0.40423015  1
  O2-  O278  1  0.29309565  0.16258490  0.73458097  1
  O2-  O279  1  0.28633117  0.66124011  0.06626603  1
  O2-  O280  1  0.29244982  0.66540986  0.39601164  1
  O2-  O281  1  0.28937376  0.66921241  0.73541299  1
  O2-  O282  1  0.79199024  0.17088619  0.06419805  1
  O2-  O283  1  0.79162641  0.16915485  0.40282642  1
  O2-  O284  1  0.79448906  0.15987355  0.72917032  1
  O2-  O285  1  0.80600340  0.66711864  0.05961656  1
  O2-  O286  1  0.79883417  0.66752768  0.39141907  1
  O2-  O287  1  0.79639475  0.67300331  0.72973945  1
