# generated using pymatgen
data_Ca2Al2SiO7
_symmetry_space_group_name_H-M   'P 1'
_cell_length_a   15.46706182
_cell_length_b   15.46695044
_cell_length_c   15.28917849
_cell_angle_alpha   89.99198394
_cell_angle_beta   90.01530708
_cell_angle_gamma   89.98577595
_symmetry_Int_Tables_number   1
_chemical_formula_structural   Ca2Al2SiO7
_chemical_formula_sum   'Ca48 Al48 Si24 O168'
_cell_volume   3657.60357240
_cell_formula_units_Z   24
loop_
 _symmetry_equiv_pos_site_id
 _symmetry_equiv_pos_as_xyz
  1  'x, y, z'
loop_
 _atom_type_symbol
 _atom_type_oxidation_number
  Ca2+  2.0
  Al0+  0.0
  Si0+  0.0
  O2-  -2.0
loop_
 _atom_site_type_symbol
 _atom_site_label
 _atom_site_symmetry_multiplicity
 _atom_site_fract_x
 _atom_site_fract_y
 _atom_site_fract_z
 _atom_site_occupancy
  Ca2+  Ca0  1  0.15899306  0.07984027  0.17258849  1
  Ca2+  Ca1  1  0.16569530  0.07871635  0.50429964  1
  Ca2+  Ca2  1  0.17182346  0.08681653  0.84082261  1
  Ca2+  Ca3  1  0.16780737  0.58240530  0.16116110  1
  Ca2+  Ca4  1  0.16448284  0.57605135  0.50923098  1
  Ca2+  Ca5  1  0.16545044  0.57717154  0.84354931  1
  Ca2+  Ca6  1  0.66363165  0.08750116  0.16957505  1
  Ca2+  Ca7  1  0.67161647  0.08131436  0.51009726  1
  Ca2+  Ca8  1  0.66818183  0.07950426  0.83697020  1
  Ca2+  Ca9  1  0.66168598  0.57388747  0.16834345  1
  Ca2+  Ca10  1  0.67104930  0.57839332  0.50257465  1
  Ca2+  Ca11  1  0.67728827  0.58161116  0.84607709  1
  Ca2+  Ca12  1  0.07518825  0.32885731  0.15715144  1
  Ca2+  Ca13  1  0.07585867  0.32830772  0.49308063  1
  Ca2+  Ca14  1  0.08121702  0.34171300  0.83255434  1
  Ca2+  Ca15  1  0.07997449  0.83025610  0.15617207  1
  Ca2+  Ca16  1  0.08540861  0.82899334  0.49666096  1
  Ca2+  Ca17  1  0.07613205  0.81908904  0.83487843  1
  Ca2+  Ca18  1  0.58625114  0.32839335  0.15652031  1
  Ca2+  Ca19  1  0.58418637  0.32695742  0.48843296  1
  Ca2+  Ca20  1  0.58098231  0.33742368  0.83866897  1
  Ca2+  Ca21  1  0.57824429  0.81911366  0.15655181  1
  Ca2+  Ca22  1  0.58744198  0.82921462  0.49594384  1
  Ca2+  Ca23  1  0.58338885  0.83064256  0.83480256  1
  Ca2+  Ca24  1  0.33374051  0.41630410  0.16040656  1
  Ca2+  Ca25  1  0.32460163  0.41699512  0.50636043  1
  Ca2+  Ca26  1  0.32190387  0.41850737  0.84571233  1
  Ca2+  Ca27  1  0.32811685  0.91367311  0.16952174  1
  Ca2+  Ca28  1  0.32793449  0.92454930  0.50425537  1
  Ca2+  Ca29  1  0.33777355  0.92171716  0.83944824  1
  Ca2+  Ca30  1  0.82894501  0.41349816  0.16434374  1
  Ca2+  Ca31  1  0.82946671  0.41702009  0.50163478  1
  Ca2+  Ca32  1  0.83158239  0.42587129  0.84458558  1
  Ca2+  Ca33  1  0.83714635  0.91720878  0.16756145  1
  Ca2+  Ca34  1  0.82549815  0.92694130  0.51059168  1
  Ca2+  Ca35  1  0.83552578  0.92128511  0.83563982  1
  Ca2+  Ca36  1  0.42972851  0.17260783  0.15713794  1
  Ca2+  Ca37  1  0.42119445  0.16451235  0.49750109  1
  Ca2+  Ca38  1  0.41795526  0.17077962  0.83449852  1
  Ca2+  Ca39  1  0.42401114  0.66706923  0.15466938  1
  Ca2+  Ca40  1  0.42537066  0.66886569  0.49223825  1
  Ca2+  Ca41  1  0.41810284  0.66479046  0.83732129  1
  Ca2+  Ca42  1  0.92507817  0.17856486  0.16125942  1
  Ca2+  Ca43  1  0.91718171  0.17269095  0.48971576  1
  Ca2+  Ca44  1  0.91968913  0.17292391  0.83552328  1
  Ca2+  Ca45  1  0.92024447  0.67336010  0.15262194  1
  Ca2+  Ca46  1  0.91866154  0.66232424  0.50315590  1
  Ca2+  Ca47  1  0.92331248  0.65449423  0.83090618  1
  Al0+  Al48  1  0.00080195  0.00022525  -0.00733215  1
  Al0+  Al49  1  -0.00019630  -0.00131847  0.33807649  1
  Al0+  Al50  1  -0.00002230  -0.00160506  0.67059164  1
  Al0+  Al51  1  -0.00022223  0.49941609  0.00385323  1
  Al0+  Al52  1  -0.00019076  0.50192579  0.33033843  1
  Al0+  Al53  1  -0.00083371  0.49827722  0.66559393  1
  Al0+  Al54  1  0.50115504  -0.00012790  -0.00406112  1
  Al0+  Al55  1  0.49841440  -0.00102366  0.33087887  1
  Al0+  Al56  1  0.49855434  -0.00009012  0.67211451  1
  Al0+  Al57  1  0.50008398  0.49928857  -0.00176145  1
  Al0+  Al58  1  0.50088829  0.50016271  0.33651388  1
  Al0+  Al59  1  0.49780341  0.50002373  0.66256846  1
  Al0+  Al60  1  0.25326598  0.24857903  0.00149374  1
  Al0+  Al61  1  0.25110031  0.24994333  0.33231159  1
  Al0+  Al62  1  0.24936426  0.24974886  0.67176343  1
  Al0+  Al63  1  0.24896595  0.75179671  -0.00402742  1
  Al0+  Al64  1  0.24983775  0.75091513  0.34027810  1
  Al0+  Al65  1  0.25106703  0.74990554  0.65960684  1
  Al0+  Al66  1  0.75366765  0.24806367  -0.00492875  1
  Al0+  Al67  1  0.74950771  0.25133041  0.33050681  1
  Al0+  Al68  1  0.74931176  0.24942049  0.66960642  1
  Al0+  Al69  1  0.74902175  0.75437307  -0.00275537  1
  Al0+  Al70  1  0.75119211  0.74907884  0.33067401  1
  Al0+  Al71  1  0.75025522  0.74959441  0.67147207  1
  Al0+  Al72  1  0.32007833  0.57322545  0.01404744  1
  Al0+  Al73  1  0.82157654  0.57444258  0.01662998  1
  Al0+  Al74  1  0.68046457  0.42828217  0.01422937  1
  Al0+  Al75  1  0.92857866  0.32334487  0.31790787  1
  Al0+  Al76  1  0.17823846  0.92949651  0.34759489  1
  Al0+  Al77  1  0.81883263  0.56761102  0.67858033  1
  Al0+  Al78  1  0.06974203  0.67815251  0.65124867  1
  Al0+  Al79  1  0.67863944  0.92905768  0.68243974  1
  Al0+  Al80  1  0.42986372  0.32164600  0.98473206  1
  Al0+  Al81  1  0.93108313  0.32170454  0.98299854  1
  Al0+  Al82  1  0.17855159  0.42669439  0.01772784  1
  Al0+  Al83  1  0.67965774  0.42897285  0.34737007  1
  Al0+  Al84  1  0.18012261  0.43069462  0.67827500  1
  Al0+  Al85  1  0.07291739  0.17889526  0.98482020  1
  Al0+  Al86  1  0.07157061  0.17707460  0.32127614  1
  Al0+  Al87  1  0.82323410  0.07368307  0.68341557  1
  Al0+  Al88  1  0.57123098  0.67734887  0.98374608  1
  Al0+  Al89  1  0.42788060  0.82061100  0.98505539  1
  Al0+  Al90  1  0.31827351  0.06954507  0.68130864  1
  Al0+  Al91  1  0.57174475  0.67908231  0.32061053  1
  Al0+  Al92  1  0.06892495  0.67860671  0.98681068  1
  Al0+  Al93  1  0.56982272  0.17810596  0.32220940  1
  Al0+  Al94  1  0.57361376  0.17845957  0.98242226  1
  Al0+  Al95  1  0.92690101  0.82315863  0.98463501  1
  Si0+  Si96  1  0.67703331  0.93112645  0.01790364  1
  Si0+  Si97  1  0.42687350  0.32093733  0.65036242  1
  Si0+  Si98  1  0.17781783  0.42912690  0.34853151  1
  Si0+  Si99  1  0.32355545  0.57371152  0.68127775  1
  Si0+  Si100  1  0.92847611  0.31936385  0.65092847  1
  Si0+  Si101  1  0.17978497  0.93225990  0.01342683  1
  Si0+  Si102  1  0.67421062  0.42697995  0.68201925  1
  Si0+  Si103  1  0.32352346  0.07248224  0.34919055  1
  Si0+  Si104  1  0.92726993  0.82232018  0.64778822  1
  Si0+  Si105  1  0.82302013  0.57454031  0.35061323  1
  Si0+  Si106  1  0.67844069  0.92726277  0.34545449  1
  Si0+  Si107  1  0.43019742  0.82290460  0.64879686  1
  Si0+  Si108  1  0.07254614  0.17830292  0.65256177  1
  Si0+  Si109  1  0.42715125  0.32361181  0.31832923  1
  Si0+  Si110  1  0.42689404  0.82058603  0.31822254  1
  Si0+  Si111  1  0.17769546  0.92460286  0.68555082  1
  Si0+  Si112  1  0.92991205  0.82040898  0.32120827  1
  Si0+  Si113  1  0.07318539  0.67984211  0.31926160  1
  Si0+  Si114  1  0.57207302  0.67858430  0.65024087  1
  Si0+  Si115  1  0.82289510  0.06887778  0.01670144  1
  Si0+  Si116  1  0.32070288  0.57107606  0.34977623  1
  Si0+  Si117  1  0.56906763  0.17967513  0.65182513  1
  Si0+  Si118  1  0.81889692  0.07000467  0.34614264  1
  Si0+  Si119  1  0.32423739  0.07075522  0.01756246  1
  O2-  O120  1  0.25014662  0.00253174  0.05875895  1
  O2-  O121  1  0.25075515  0.00740006  0.39312130  1
  O2-  O122  1  0.24361082  -0.00436535  0.72939937  1
  O2-  O123  1  0.25004966  0.50055857  0.06683062  1
  O2-  O124  1  0.24926096  0.49993137  0.39170945  1
  O2-  O125  1  0.25304629  0.50715332  0.72334889  1
  O2-  O126  1  0.75000302  0.00013265  0.06052671  1
  O2-  O127  1  0.74487814  0.00190312  0.38882932  1
  O2-  O128  1  0.75195498  0.00004651  0.73179145  1
  O2-  O129  1  0.74857935  0.50317378  0.06641852  1
  O2-  O130  1  0.75534852  0.50354065  0.39333134  1
  O2-  O131  1  0.74106333  0.49701398  0.72458860  1
  O2-  O132  1  0.00428780  0.25293264  0.27174577  1
  O2-  O133  1  -0.00394259  0.24362561  0.60989498  1
  O2-  O134  1  0.00804897  0.25536061  0.93215132  1
  O2-  O135  1  0.00131105  0.75027817  0.27909073  1
  O2-  O136  1  -0.00282796  0.75497302  0.60242424  1
  O2-  O137  1  -0.01055314  0.74228573  0.93622848  1
  O2-  O138  1  0.49555781  0.25337147  0.27715113  1
  O2-  O139  1  0.50136177  0.25333519  0.60767765  1
  O2-  O140  1  0.50304430  0.25177878  0.93279193  1
  O2-  O141  1  0.49624698  0.75310679  0.27505184  1
  O2-  O142  1  0.50096336  0.75047404  0.60768522  1
  O2-  O143  1  0.49772564  0.74784497  0.93322667  1
  O2-  O144  1  0.06727217  0.17481851  0.09848602  1
  O2-  O145  1  0.06836108  0.17682047  0.43574205  1
  O2-  O146  1  0.07524105  0.18165313  0.75680767  1
  O2-  O147  1  0.07221584  0.68559178  0.10107448  1
  O2-  O148  1  0.07271943  0.67943299  0.42467762  1
  O2-  O149  1  0.06902730  0.67785773  0.76317452  1
  O2-  O150  1  0.57066701  0.17701353  0.09656521  1
  O2-  O151  1  0.56873470  0.17721272  0.43617420  1
  O2-  O152  1  0.56803873  0.17955670  0.75601616  1
  O2-  O153  1  0.56981455  0.68007148  0.09779210  1
  O2-  O154  1  0.57095039  0.68223804  0.43463942  1
  O2-  O155  1  0.57041480  0.67629399  0.75433560  1
  O2-  O156  1  0.17809203  0.42981634  0.24443516  1
  O2-  O157  1  0.18161054  0.43015630  0.56398273  1
  O2-  O158  1  0.18032618  0.42849211  0.90393289  1
  O2-  O159  1  0.17918614  0.92692858  0.23472635  1
  O2-  O160  1  0.17932331  0.92623937  0.57920702  1
  O2-  O161  1  0.18117677  0.93405509  0.90853898  1
  O2-  O162  1  0.67725192  0.42832150  0.23556105  1
  O2-  O163  1  0.67463587  0.42615862  0.57582236  1
  O2-  O164  1  0.68249373  0.42953502  0.90023076  1
  O2-  O165  1  0.68087640  0.92639087  0.24089681  1
  O2-  O166  1  0.67897213  0.93156645  0.56722756  1
  O2-  O167  1  0.67475051  0.93355111  0.91314455  1
  O2-  O168  1  0.42989747  0.31718376  0.09873639  1
  O2-  O169  1  0.42663532  0.32288854  0.42479212  1
  O2-  O170  1  0.42666817  0.32141758  0.75448156  1
  O2-  O171  1  0.42986648  0.82168638  0.09924532  1
  O2-  O172  1  0.42778494  0.82063568  0.42431134  1
  O2-  O173  1  0.42862076  0.82330597  0.75308224  1
  O2-  O174  1  0.92928749  0.31697578  0.09648991  1
  O2-  O175  1  0.92898405  0.32095900  0.43274132  1
  O2-  O176  1  0.92958651  0.32152472  0.75514632  1
  O2-  O177  1  0.93356017  0.82741363  0.09921823  1
  O2-  O178  1  0.92867548  0.82048145  0.42628074  1
  O2-  O179  1  0.92820827  0.82315394  0.75246271  1
  O2-  O180  1  0.32740968  0.06943544  0.24435537  1
  O2-  O181  1  0.31818755  0.06841342  0.56746576  1
  O2-  O182  1  0.32439452  0.06854914  0.91228705  1
  O2-  O183  1  0.32058584  0.57418902  0.24558585  1
  O2-  O184  1  0.32550471  0.57094889  0.57481848  1
  O2-  O185  1  0.31686852  0.57325781  0.90022463  1
  O2-  O186  1  0.82080030  0.06675300  0.24141021  1
  O2-  O187  1  0.81997551  0.07464171  0.56845400  1
  O2-  O188  1  0.82289556  0.06659900  0.91180142  1
  O2-  O189  1  0.82284687  0.58038354  0.24630807  1
  O2-  O190  1  0.81775413  0.56549592  0.56466919  1
  O2-  O191  1  0.82028936  0.57088770  0.90266896  1
  O2-  O192  1  0.04002992  0.07875975  0.27020795  1
  O2-  O193  1  0.05075709  0.08274471  0.60891458  1
  O2-  O194  1  0.03948534  0.08412098  0.92814848  1
  O2-  O195  1  0.04854262  0.58804200  0.27208739  1
  O2-  O196  1  0.03532452  0.58251287  0.59525686  1
  O2-  O197  1  0.04781765  0.57823110  0.93683580  1
  O2-  O198  1  0.54088587  0.08128701  0.26725466  1
  O2-  O199  1  0.53785324  0.08804375  0.60510031  1
  O2-  O200  1  0.54099085  0.08184274  0.92959801  1
  O2-  O201  1  0.53998458  0.58227409  0.26973020  1
  O2-  O202  1  0.54274181  0.58708184  0.60056728  1
  O2-  O203  1  0.54618165  0.57926564  0.93052808  1
  O2-  O204  1  0.17283700  0.19769031  0.27194437  1
  O2-  O205  1  0.16263522  0.21048074  0.60350935  1
  O2-  O206  1  0.17523978  0.19701137  0.93810661  1
  O2-  O207  1  0.16525965  0.70961463  0.27463831  1
  O2-  O208  1  0.16751130  0.70653154  0.59559399  1
  O2-  O209  1  0.16348311  0.71421366  0.93157275  1
  O2-  O210  1  0.66612237  0.20624113  0.26826046  1
  O2-  O211  1  0.66258909  0.20475964  0.60516367  1
  O2-  O212  1  0.67255220  0.20168105  0.93039073  1
  O2-  O213  1  0.66747045  0.71028072  0.26667139  1
  O2-  O214  1  0.66406001  0.70706898  0.60304502  1
  O2-  O215  1  0.66771574  0.71098982  0.93103885  1
  O2-  O216  1  0.08072956  0.45433486  0.07118771  1
  O2-  O217  1  0.08603762  0.45865512  0.39615165  1
  O2-  O218  1  0.08353962  0.46017267  0.73040086  1
  O2-  O219  1  0.08780798  0.96115164  0.06058175  1
  O2-  O220  1  0.08207758  0.95752533  0.40562124  1
  O2-  O221  1  0.08263264  0.94492436  0.72892581  1
  O2-  O222  1  0.57998699  0.45171553  0.06497955  1
  O2-  O223  1  0.58325669  0.45950176  0.40439517  1
  O2-  O224  1  0.57902851  0.45129540  0.72461086  1
  O2-  O225  1  0.58620062  0.96133661  0.06643503  1
  O2-  O226  1  0.58430106  0.94988823  0.39140739  1
  O2-  O227  1  0.58141748  0.95824598  0.73522960  1
  O2-  O228  1  0.21026563  0.32846878  0.07050628  1
  O2-  O229  1  0.20533048  0.33650797  0.39618252  1
  O2-  O230  1  0.21123109  0.33584507  0.73308619  1
  O2-  O231  1  0.20737623  0.84073458  0.06119977  1
  O2-  O232  1  0.21145886  0.83490088  0.40616804  1
  O2-  O233  1  0.20740373  0.83104168  0.72777924  1
  O2-  O234  1  0.71220819  0.32862968  0.06423267  1
  O2-  O235  1  0.71066340  0.33192638  0.40272880  1
  O2-  O236  1  0.69884555  0.33363028  0.72712357  1
  O2-  O237  1  0.70239917  0.83882516  0.06514645  1
  O2-  O238  1  0.71053908  0.83740979  0.39503456  1
  O2-  O239  1  0.70390064  0.83040769  0.73427162  1
  O2-  O240  1  0.45284739  0.41711479  0.27428457  1
  O2-  O241  1  0.45006128  0.41403980  0.60135398  1
  O2-  O242  1  0.45398388  0.41969609  0.93014836  1
  O2-  O243  1  0.44906048  0.91446922  0.27227396  1
  O2-  O244  1  0.45956501  0.91458782  0.60101439  1
  O2-  O245  1  0.45983157  0.91728587  0.93126041  1
  O2-  O246  1  0.95392487  0.42263990  0.26673695  1
  O2-  O247  1  0.96063667  0.40833499  0.60048944  1
  O2-  O248  1  0.95482234  0.42178959  0.93296822  1
  O2-  O249  1  0.95722151  0.91226092  0.27445515  1
  O2-  O250  1  0.95240017  0.91720386  0.60197680  1
  O2-  O251  1  0.96540116  0.91549914  0.92720139  1
  O2-  O252  1  0.33348800  0.30064644  0.27216866  1
  O2-  O253  1  0.33638077  0.28826119  0.60222149  1
  O2-  O254  1  0.33295245  0.28949021  0.93143910  1
  O2-  O255  1  0.33291899  0.79358828  0.27439502  1
  O2-  O256  1  0.33890569  0.79623374  0.59856506  1
  O2-  O257  1  0.32975454  0.79716261  0.93014401  1
  O2-  O258  1  0.83208067  0.29148716  0.26533368  1
  O2-  O259  1  0.83462762  0.29438681  0.60442703  1
  O2-  O260  1  0.83624749  0.28731087  0.92758468  1
  O2-  O261  1  0.83898543  0.79395472  0.27163930  1
  O2-  O262  1  0.83323313  0.79510326  0.60226293  1
  O2-  O263  1  0.82497764  0.81056174  0.93563738  1
  O2-  O264  1  0.41503574  0.03869988  0.06464054  1
  O2-  O265  1  0.41497017  0.04106025  0.39899505  1
  O2-  O266  1  0.41369728  0.03869674  0.73578051  1
  O2-  O267  1  0.41914518  0.54519576  0.06581661  1
  O2-  O268  1  0.41178957  0.54303394  0.39943214  1
  O2-  O269  1  0.41687697  0.54710128  0.72661054  1
  O2-  O270  1  0.91396125  0.03643783  0.06313210  1
  O2-  O271  1  0.90833145  0.03930955  0.39706030  1
  O2-  O272  1  0.92194738  0.04622085  0.73539776  1
  O2-  O273  1  0.91975633  0.54731755  0.06977989  1
  O2-  O274  1  0.91767756  0.54940953  0.39646008  1
  O2-  O275  1  0.91410484  0.53361782  0.73103923  1
  O2-  O276  1  0.30180303  0.16288438  0.06541131  1
  O2-  O277  1  0.30386161  0.16795720  0.39491270  1
  O2-  O278  1  0.28889330  0.16541121  0.73592525  1
  O2-  O279  1  0.29047226  0.67226634  0.06694763  1
  O2-  O280  1  0.29332273  0.66213127  0.40023379  1
  O2-  O281  1  0.30146003  0.66933458  0.72271541  1
  O2-  O282  1  0.79661737  0.16112732  0.06296019  1
  O2-  O283  1  0.79301257  0.16222945  0.39332270  1
  O2-  O284  1  0.79353471  0.17108958  0.73634283  1
  O2-  O285  1  0.79725587  0.67664060  0.06449592  1
  O2-  O286  1  0.79465647  0.66709585  0.39947787  1
  O2-  O287  1  0.79489334  0.66556293  0.73111026  1
