# generated using pymatgen
data_Ca2Al2SiO7
_symmetry_space_group_name_H-M   'P 1'
_cell_length_a   15.45419344
_cell_length_b   15.45404088
_cell_length_c   15.28128797
_cell_angle_alpha   90.00640716
_cell_angle_beta   89.99471306
_cell_angle_gamma   89.99788850
_symmetry_Int_Tables_number   1
_chemical_formula_structural   Ca2Al2SiO7
_chemical_formula_sum   'Ca48 Al48 Si24 O168'
_cell_volume   3649.62595170
_cell_formula_units_Z   24
loop_
 _symmetry_equiv_pos_site_id
 _symmetry_equiv_pos_as_xyz
  1  'x, y, z'
loop_
 _atom_type_symbol
 _atom_type_oxidation_number
  Ca2+  2.0
  Al0+  0.0
  Si0+  0.0
  O2-  -2.0
loop_
 _atom_site_type_symbol
 _atom_site_label
 _atom_site_symmetry_multiplicity
 _atom_site_fract_x
 _atom_site_fract_y
 _atom_site_fract_z
 _atom_site_occupancy
  Ca2+  Ca0  1  0.16986205  0.07515281  0.18060033  1
  Ca2+  Ca1  1  0.17357896  0.07648394  0.50274274  1
  Ca2+  Ca2  1  0.17279779  0.07782685  0.83003182  1
  Ca2+  Ca3  1  0.15535255  0.58014423  0.17055088  1
  Ca2+  Ca4  1  0.17199382  0.58426763  0.50289104  1
  Ca2+  Ca5  1  0.17220649  0.58310484  0.83750059  1
  Ca2+  Ca6  1  0.67558147  0.08188111  0.17142651  1
  Ca2+  Ca7  1  0.66908512  0.08967747  0.49715883  1
  Ca2+  Ca8  1  0.67428533  0.07347605  0.84439623  1
  Ca2+  Ca9  1  0.67498506  0.57759179  0.17275192  1
  Ca2+  Ca10  1  0.66777524  0.57973672  0.50611875  1
  Ca2+  Ca11  1  0.65714629  0.57348543  0.83512252  1
  Ca2+  Ca12  1  0.07929274  0.32929788  0.16589102  1
  Ca2+  Ca13  1  0.07950585  0.32392333  0.48730706  1
  Ca2+  Ca14  1  0.08534465  0.33397426  0.83286611  1
  Ca2+  Ca15  1  0.08289533  0.82275403  0.16132960  1
  Ca2+  Ca16  1  0.08680656  0.83267262  0.49594077  1
  Ca2+  Ca17  1  0.07273413  0.83715734  0.82925440  1
  Ca2+  Ca18  1  0.58342567  0.32868663  0.16800435  1
  Ca2+  Ca19  1  0.57352425  0.33085531  0.49464628  1
  Ca2+  Ca20  1  0.58166551  0.33562468  0.82428684  1
  Ca2+  Ca21  1  0.57760392  0.84213465  0.16491926  1
  Ca2+  Ca22  1  0.57006401  0.83236034  0.49761101  1
  Ca2+  Ca23  1  0.58157196  0.82698907  0.82318558  1
  Ca2+  Ca24  1  0.32806305  0.41672143  0.17022744  1
  Ca2+  Ca25  1  0.34008137  0.41915377  0.50785555  1
  Ca2+  Ca26  1  0.33303580  0.42306307  0.83494514  1
  Ca2+  Ca27  1  0.32725555  0.92020782  0.18159552  1
  Ca2+  Ca28  1  0.32766727  0.92054598  0.50495167  1
  Ca2+  Ca29  1  0.33344861  0.91634116  0.83102123  1
  Ca2+  Ca30  1  0.83232290  0.41954926  0.17544534  1
  Ca2+  Ca31  1  0.83169936  0.42135902  0.50143127  1
  Ca2+  Ca32  1  0.81790881  0.41754272  0.83975761  1
  Ca2+  Ca33  1  0.83373304  0.92229731  0.16934073  1
  Ca2+  Ca34  1  0.84006473  0.92390587  0.50318465  1
  Ca2+  Ca35  1  0.83190355  0.91569954  0.84210895  1
  Ca2+  Ca36  1  0.41893258  0.16578576  0.17009616  1
  Ca2+  Ca37  1  0.41459974  0.17244046  0.49039477  1
  Ca2+  Ca38  1  0.41715430  0.17334917  0.82390494  1
  Ca2+  Ca39  1  0.41572050  0.67532612  0.16686037  1
  Ca2+  Ca40  1  0.41555965  0.67354649  0.50014790  1
  Ca2+  Ca41  1  0.42186413  0.67054398  0.82022360  1
  Ca2+  Ca42  1  0.91565118  0.16275182  0.16824512  1
  Ca2+  Ca43  1  0.92143372  0.17229108  0.48765088  1
  Ca2+  Ca44  1  0.91649182  0.16353608  0.83134374  1
  Ca2+  Ca45  1  0.92477109  0.66793655  0.16159691  1
  Ca2+  Ca46  1  0.92110339  0.67193266  0.49209925  1
  Ca2+  Ca47  1  0.91979909  0.67772261  0.82992241  1
  Al0+  Al48  1  0.00287086  0.00104304  -0.00076785  1
  Al0+  Al49  1  -0.00181409  -0.00101083  0.33826635  1
  Al0+  Al50  1  0.00153095  0.00090606  0.66711552  1
  Al0+  Al51  1  0.00131084  0.49817521  -0.00377737  1
  Al0+  Al52  1  -0.00110471  0.50047837  0.33275173  1
  Al0+  Al53  1  -0.00156683  0.50100778  0.66858668  1
  Al0+  Al54  1  0.50132659  0.00252626  0.00044715  1
  Al0+  Al55  1  0.49983684  0.00082956  0.32931432  1
  Al0+  Al56  1  0.50241978  0.00071196  0.66747095  1
  Al0+  Al57  1  0.49798584  0.50035581  0.00696089  1
  Al0+  Al58  1  0.49935976  0.50033378  0.32803822  1
  Al0+  Al59  1  0.50046596  0.49875532  0.66699551  1
  Al0+  Al60  1  0.24983800  0.25249647  0.00227205  1
  Al0+  Al61  1  0.24884823  0.24990096  0.32782583  1
  Al0+  Al62  1  0.24975043  0.24871684  0.66678501  1
  Al0+  Al63  1  0.25188341  0.75018517  -0.00498020  1
  Al0+  Al64  1  0.24959208  0.74795933  0.32792078  1
  Al0+  Al65  1  0.24835335  0.74949097  0.67378447  1
  Al0+  Al66  1  0.74946002  0.24962637  0.00620704  1
  Al0+  Al67  1  0.74761331  0.25014066  0.33114633  1
  Al0+  Al68  1  0.75101937  0.25140694  0.67121895  1
  Al0+  Al69  1  0.74779892  0.74920467  0.00060638  1
  Al0+  Al70  1  0.74948932  0.74845198  0.33852560  1
  Al0+  Al71  1  0.75306618  0.75085473  0.65715929  1
  Al0+  Al72  1  0.82224126  0.57070493  0.34763010  1
  Al0+  Al73  1  0.06996043  0.17621871  0.31817909  1
  Al0+  Al74  1  0.17916042  0.43017214  0.01455203  1
  Al0+  Al75  1  0.07228921  0.67628529  0.98134740  1
  Al0+  Al76  1  0.42993014  0.81927146  0.32017448  1
  Al0+  Al77  1  0.42913448  0.31888937  0.65548910  1
  Al0+  Al78  1  0.07018051  0.68051336  0.32111656  1
  Al0+  Al79  1  0.42706789  0.32357955  0.31574509  1
  Al0+  Al80  1  0.17869518  0.92879122  0.68426519  1
  Al0+  Al81  1  0.32397190  0.07223458  0.68193803  1
  Al0+  Al82  1  0.68123281  0.43125869  0.67890854  1
  Al0+  Al83  1  0.32172409  0.07208906  0.34762914  1
  Al0+  Al84  1  0.57073083  0.17857602  0.31698537  1
  Al0+  Al85  1  0.42717847  0.82277292  0.65235384  1
  Al0+  Al86  1  0.81912426  0.07054591  0.34891350  1
  Al0+  Al87  1  0.92890573  0.32118484  0.31884126  1
  Al0+  Al88  1  0.32016433  0.56957507  0.67874945  1
  Al0+  Al89  1  0.17858018  0.92541912  0.34730282  1
  Al0+  Al90  1  0.67749189  0.92617437  0.01461612  1
  Al0+  Al91  1  0.57147569  0.67713849  0.65118436  1
  Al0+  Al92  1  0.82357081  0.06963234  0.01541735  1
  Al0+  Al93  1  0.93077712  0.82262385  0.65062144  1
  Al0+  Al94  1  0.67657720  0.42899168  0.01640298  1
  Al0+  Al95  1  0.92926131  0.82151080  0.98652549  1
  Si0+  Si96  1  0.07311652  0.17990749  0.98330852  1
  Si0+  Si97  1  0.92719017  0.32136819  0.65428812  1
  Si0+  Si98  1  0.82373435  0.57473708  0.68471969  1
  Si0+  Si99  1  0.82165741  0.57065882  0.01462328  1
  Si0+  Si100  1  0.92748498  0.32000328  0.98362050  1
  Si0+  Si101  1  0.18168608  0.92917294  0.01450181  1
  Si0+  Si102  1  0.56900164  0.67760851  0.98691301  1
  Si0+  Si103  1  0.67669617  0.42916279  0.35080610  1
  Si0+  Si104  1  0.07151348  0.67645484  0.65013230  1
  Si0+  Si105  1  0.92538340  0.82232741  0.31754993  1
  Si0+  Si106  1  0.57171062  0.18078047  0.98321830  1
  Si0+  Si107  1  0.82080530  0.07109904  0.68143779  1
  Si0+  Si108  1  0.42874558  0.32089297  0.98391095  1
  Si0+  Si109  1  0.07004030  0.18086553  0.65260384  1
  Si0+  Si110  1  0.17540577  0.42659382  0.68146278  1
  Si0+  Si111  1  0.17884572  0.42940966  0.34736885  1
  Si0+  Si112  1  0.68030671  0.92766260  0.67915856  1
  Si0+  Si113  1  0.32175892  0.57002949  0.34707613  1
  Si0+  Si114  1  0.57520442  0.17808286  0.65270682  1
  Si0+  Si115  1  0.32102869  0.57377690  0.01898394  1
  Si0+  Si116  1  0.67656763  0.92694043  0.35267891  1
  Si0+  Si117  1  0.32111728  0.07245250  0.01473469  1
  Si0+  Si118  1  0.43032553  0.82362050  0.98419057  1
  Si0+  Si119  1  0.57376393  0.67787978  0.31516811  1
  O2-  O120  1  0.25418607  -0.00192368  0.05696715  1
  O2-  O121  1  0.24944990  -0.00041853  0.39602688  1
  O2-  O122  1  0.25563099  -0.00292207  0.73351015  1
  O2-  O123  1  0.24809491  0.50944190  0.06263580  1
  O2-  O124  1  0.25419382  0.49564805  0.38943255  1
  O2-  O125  1  0.24415258  0.49542922  0.72507070  1
  O2-  O126  1  0.75299084  -0.00490431  0.06340745  1
  O2-  O127  1  0.74636619  -0.00539117  0.39750026  1
  O2-  O128  1  0.75059222  -0.00081613  0.72242534  1
  O2-  O129  1  0.75395997  0.50175231  0.06046561  1
  O2-  O130  1  0.74590269  0.49747099  0.39444757  1
  O2-  O131  1  0.75310053  0.50779836  0.72861825  1
  O2-  O132  1  -0.00275620  0.24690023  0.26656481  1
  O2-  O133  1  0.00195404  0.25528052  0.61205288  1
  O2-  O134  1  -0.00160325  0.24816548  0.94114644  1
  O2-  O135  1  -0.00400316  0.75554162  0.27410771  1
  O2-  O136  1  0.00439511  0.74614334  0.60580719  1
  O2-  O137  1  0.00055176  0.74983998  0.93365390  1
  O2-  O138  1  0.49755136  0.24974435  0.26627537  1
  O2-  O139  1  0.50084237  0.24104664  0.60997853  1
  O2-  O140  1  0.50153909  0.25235329  0.94040454  1
  O2-  O141  1  0.50766653  0.74869224  0.27040572  1
  O2-  O142  1  0.49882466  0.74967571  0.60301754  1
  O2-  O143  1  0.50183034  0.75211998  0.94413643  1
  O2-  O144  1  0.07521546  0.18031282  0.08769909  1
  O2-  O145  1  0.06940571  0.18030627  0.43236233  1
  O2-  O146  1  0.06872619  0.18129043  0.75841060  1
  O2-  O147  1  0.07027200  0.67724321  0.09501269  1
  O2-  O148  1  0.07088077  0.67911068  0.43421612  1
  O2-  O149  1  0.06825692  0.67372060  0.75547496  1
  O2-  O150  1  0.56985145  0.17995388  0.08767021  1
  O2-  O151  1  0.57165272  0.18216312  0.43108949  1
  O2-  O152  1  0.57838245  0.18119166  0.75870560  1
  O2-  O153  1  0.56631481  0.67615218  0.09182082  1
  O2-  O154  1  0.57154252  0.67608113  0.42040379  1
  O2-  O155  1  0.57012470  0.67810044  0.76580763  1
  O2-  O156  1  0.17730619  0.43225141  0.24220348  1
  O2-  O157  1  0.17294978  0.42646380  0.57599007  1
  O2-  O158  1  0.18435508  0.42675756  0.90121430  1
  O2-  O159  1  0.18132782  0.92438949  0.23274141  1
  O2-  O160  1  0.17656070  0.93199897  0.57127315  1
  O2-  O161  1  0.18197847  0.93153286  0.90957810  1
  O2-  O162  1  0.67728601  0.43202993  0.24484048  1
  O2-  O163  1  0.68497881  0.42888816  0.56640026  1
  O2-  O164  1  0.67544268  0.42996377  0.90285476  1
  O2-  O165  1  0.67836740  0.92643560  0.24699568  1
  O2-  O166  1  0.68005974  0.92956058  0.57441838  1
  O2-  O167  1  0.67525323  0.92872385  0.90036299  1
  O2-  O168  1  0.42749447  0.31880247  0.08847210  1
  O2-  O169  1  0.43000371  0.32701729  0.42946309  1
  O2-  O170  1  0.43095058  0.31959069  0.76935888  1
  O2-  O171  1  0.42870921  0.82311136  0.08928477  1
  O2-  O172  1  0.42880636  0.81647857  0.43275677  1
  O2-  O173  1  0.43241403  0.82128572  0.76676877  1
  O2-  O174  1  0.92848901  0.32164329  0.08815058  1
  O2-  O175  1  0.93244875  0.32150250  0.43333080  1
  O2-  O176  1  0.92532819  0.31817839  0.75966895  1
  O2-  O177  1  0.93201288  0.82119776  0.09992102  1
  O2-  O178  1  0.92560570  0.82017629  0.42329177  1
  O2-  O179  1  0.92922993  0.82295263  0.76384665  1
  O2-  O180  1  0.32015471  0.06854236  0.23300408  1
  O2-  O181  1  0.31991266  0.07635705  0.56936900  1
  O2-  O182  1  0.32043707  0.07321358  0.90962943  1
  O2-  O183  1  0.32089299  0.57063863  0.24185114  1
  O2-  O184  1  0.31868786  0.56819204  0.56536365  1
  O2-  O185  1  0.32483931  0.57068295  0.91346071  1
  O2-  O186  1  0.81888602  0.06807355  0.23620150  1
  O2-  O187  1  0.82030942  0.07393153  0.57668181  1
  O2-  O188  1  0.82035371  0.07124018  0.90083596  1
  O2-  O189  1  0.82095119  0.56953573  0.23406124  1
  O2-  O190  1  0.82719488  0.57055974  0.57939353  1
  O2-  O191  1  0.81905027  0.56897652  0.90888091  1
  O2-  O192  1  0.04176815  0.07682835  0.26720746  1
  O2-  O193  1  0.03878123  0.09098943  0.60533501  1
  O2-  O194  1  0.04797631  0.08800378  0.93459988  1
  O2-  O195  1  0.03665854  0.58505289  0.26662355  1
  O2-  O196  1  0.04561849  0.58232076  0.60367273  1
  O2-  O197  1  0.04557966  0.57719264  0.92827572  1
  O2-  O198  1  0.54524115  0.08043859  0.26187887  1
  O2-  O199  1  0.55798550  0.08257345  0.60853132  1
  O2-  O200  1  0.54317414  0.08896208  0.93492174  1
  O2-  O201  1  0.54574939  0.58600201  0.26687695  1
  O2-  O202  1  0.54220349  0.57950795  0.59840038  1
  O2-  O203  1  0.53616462  0.58656472  0.93960318  1
  O2-  O204  1  0.16674155  0.20539473  0.26321053  1
  O2-  O205  1  0.16186253  0.20620653  0.60504010  1
  O2-  O206  1  0.16317685  0.21356020  0.93466670  1
  O2-  O207  1  0.16559502  0.70711273  0.26252722  1
  O2-  O208  1  0.16636715  0.70043436  0.60721479  1
  O2-  O209  1  0.17245464  0.70357404  0.93092381  1
  O2-  O210  1  0.66735805  0.20943356  0.26169792  1
  O2-  O211  1  0.66682326  0.21028145  0.60570924  1
  O2-  O212  1  0.66455437  0.20780300  0.93719303  1
  O2-  O213  1  0.66880433  0.70101321  0.27078394  1
  O2-  O214  1  0.66981712  0.70342419  0.59796613  1
  O2-  O215  1  0.66195025  0.69925318  0.93918436  1
  O2-  O216  1  0.08003647  0.45515647  0.06640909  1
  O2-  O217  1  0.08916222  0.46083954  0.39646982  1
  O2-  O218  1  0.08179418  0.45165464  0.72966168  1
  O2-  O219  1  0.09057840  0.95808499  0.06127591  1
  O2-  O220  1  0.07954181  0.95002900  0.39968295  1
  O2-  O221  1  0.08275917  0.96689399  0.73879296  1
  O2-  O222  1  0.58141389  0.46108176  0.07179793  1
  O2-  O223  1  0.58271266  0.45747444  0.39488076  1
  O2-  O224  1  0.58491484  0.46000022  0.73493753  1
  O2-  O225  1  0.58059060  0.96072556  0.06809461  1
  O2-  O226  1  0.58336027  0.95547787  0.39707739  1
  O2-  O227  1  0.58903858  0.95300818  0.72910563  1
  O2-  O228  1  0.21359907  0.33530030  0.07007992  1
  O2-  O229  1  0.20191143  0.33575037  0.39253430  1
  O2-  O230  1  0.20085315  0.33355701  0.72859184  1
  O2-  O231  1  0.20854645  0.83570510  0.05902616  1
  O2-  O232  1  0.21029289  0.82722035  0.39886232  1
  O2-  O233  1  0.20006608  0.82964048  0.73858920  1
  O2-  O234  1  0.70663151  0.33283322  0.06967383  1
  O2-  O235  1  0.70046630  0.33518117  0.39530890  1
  O2-  O236  1  0.71488428  0.33618286  0.73704625  1
  O2-  O237  1  0.69807473  0.82601614  0.06735576  1
  O2-  O238  1  0.69867655  0.83235754  0.39815164  1
  O2-  O239  1  0.70967447  0.83533535  0.72499089  1
  O2-  O240  1  0.45666600  0.42117594  0.26025331  1
  O2-  O241  1  0.46268991  0.41352196  0.60091203  1
  O2-  O242  1  0.45528064  0.41518842  0.94051719  1
  O2-  O243  1  0.45835408  0.91559244  0.26469525  1
  O2-  O244  1  0.45730864  0.92138359  0.60060934  1
  O2-  O245  1  0.45721723  0.91614729  0.93750057  1
  O2-  O246  1  0.96110536  0.41758290  0.26470059  1
  O2-  O247  1  0.94971115  0.41558330  0.60941556  1
  O2-  O248  1  0.95592766  0.41033751  0.93351724  1
  O2-  O249  1  0.94741747  0.91708531  0.27413171  1
  O2-  O250  1  0.96266197  0.91975333  0.59829656  1
  O2-  O251  1  0.95962852  0.92009779  0.93268871  1
  O2-  O252  1  0.32839466  0.29790727  0.26248892  1
  O2-  O253  1  0.33075433  0.29384557  0.60209197  1
  O2-  O254  1  0.33745788  0.29088570  0.93622956  1
  O2-  O255  1  0.33656707  0.78384841  0.26223718  1
  O2-  O256  1  0.32707620  0.79390003  0.60465318  1
  O2-  O257  1  0.33934576  0.79574567  0.93542253  1
  O2-  O258  1  0.82918089  0.29766918  0.26810070  1
  O2-  O259  1  0.83767819  0.28945947  0.60534710  1
  O2-  O260  1  0.83481997  0.29150072  0.93718078  1
  O2-  O261  1  0.83156483  0.79480240  0.27283630  1
  O2-  O262  1  0.83549496  0.79511587  0.59329135  1
  O2-  O263  1  0.82883635  0.79409595  0.93484310  1
  O2-  O264  1  0.41460116  0.04851026  0.05985171  1
  O2-  O265  1  0.42134701  0.04568191  0.39784263  1
  O2-  O266  1  0.42449344  0.04897638  0.73492146  1
  O2-  O267  1  0.41158978  0.54377593  0.06868555  1
  O2-  O268  1  0.41514895  0.54566471  0.39310642  1
  O2-  O269  1  0.41541650  0.53691899  0.73482053  1
  O2-  O270  1  0.92386153  0.04561355  0.06629929  1
  O2-  O271  1  0.91532557  0.04201688  0.40536099  1
  O2-  O272  1  0.91258677  0.04391560  0.72884830  1
  O2-  O273  1  0.91583288  0.54403771  0.05812843  1
  O2-  O274  1  0.91713473  0.53718751  0.40383613  1
  O2-  O275  1  0.91606524  0.54716420  0.73330792  1
  O2-  O276  1  0.29049220  0.16310284  0.06163725  1
  O2-  O277  1  0.29370057  0.17228465  0.39711381  1
  O2-  O278  1  0.28913595  0.16893435  0.73760541  1
  O2-  O279  1  0.30033329  0.66999389  0.06196863  1
  O2-  O280  1  0.28943678  0.65993797  0.39430249  1
  O2-  O281  1  0.29159436  0.66443085  0.73731336  1
  O2-  O282  1  0.79293073  0.16689159  0.06841778  1
  O2-  O283  1  0.78732218  0.16820666  0.40175069  1
  O2-  O284  1  0.79317165  0.16213350  0.73132772  1
  O2-  O285  1  0.79583741  0.66358024  0.06132937  1
  O2-  O286  1  0.79318360  0.66689480  0.40368475  1
  O2-  O287  1  0.80006318  0.67031525  0.72667320  1
