# generated using pymatgen
data_Ca2Al2SiO7
_symmetry_space_group_name_H-M   'P 1'
_cell_length_a   15.46907727
_cell_length_b   15.47186757
_cell_length_c   15.29332531
_cell_angle_alpha   89.97425485
_cell_angle_beta   90.00838578
_cell_angle_gamma   89.98139003
_symmetry_Int_Tables_number   1
_chemical_formula_structural   Ca2Al2SiO7
_chemical_formula_sum   'Ca48 Al48 Si24 O168'
_cell_volume   3660.23528773
_cell_formula_units_Z   24
loop_
 _symmetry_equiv_pos_site_id
 _symmetry_equiv_pos_as_xyz
  1  'x, y, z'
loop_
 _atom_type_symbol
 _atom_type_oxidation_number
  Ca2+  2.0
  Al0+  0.0
  Si0+  0.0
  O2-  -2.0
loop_
 _atom_site_type_symbol
 _atom_site_label
 _atom_site_symmetry_multiplicity
 _atom_site_fract_x
 _atom_site_fract_y
 _atom_site_fract_z
 _atom_site_occupancy
  Ca2+  Ca0  1  0.16738890  0.08710500  0.17320417  1
  Ca2+  Ca1  1  0.16461897  0.07676194  0.51007412  1
  Ca2+  Ca2  1  0.17294553  0.08759930  0.83516589  1
  Ca2+  Ca3  1  0.16989370  0.58686735  0.16776036  1
  Ca2+  Ca4  1  0.16997710  0.58128614  0.51201386  1
  Ca2+  Ca5  1  0.17419075  0.59332542  0.83650162  1
  Ca2+  Ca6  1  0.67183043  0.07354911  0.17695434  1
  Ca2+  Ca7  1  0.67669422  0.09147694  0.50413315  1
  Ca2+  Ca8  1  0.67471991  0.08172310  0.83539470  1
  Ca2+  Ca9  1  0.66885594  0.58052061  0.17484327  1
  Ca2+  Ca10  1  0.66119782  0.58381963  0.50512839  1
  Ca2+  Ca11  1  0.66640428  0.58295030  0.83498132  1
  Ca2+  Ca12  1  0.07333628  0.32207845  0.16091822  1
  Ca2+  Ca13  1  0.07564377  0.31977310  0.49703516  1
  Ca2+  Ca14  1  0.07531848  0.32336970  0.82879766  1
  Ca2+  Ca15  1  0.08587583  0.83223365  0.16386619  1
  Ca2+  Ca16  1  0.08547327  0.83826954  0.50162156  1
  Ca2+  Ca17  1  0.08694448  0.82587866  0.82295079  1
  Ca2+  Ca18  1  0.58362411  0.32433881  0.16858135  1
  Ca2+  Ca19  1  0.58155748  0.31949979  0.49961115  1
  Ca2+  Ca20  1  0.57954362  0.32501198  0.82555188  1
  Ca2+  Ca21  1  0.59081700  0.83327350  0.16341970  1
  Ca2+  Ca22  1  0.57993174  0.82827648  0.49576094  1
  Ca2+  Ca23  1  0.57643475  0.83192496  0.82248075  1
  Ca2+  Ca24  1  0.33259004  0.42423040  0.16865657  1
  Ca2+  Ca25  1  0.33276490  0.42355585  0.50841115  1
  Ca2+  Ca26  1  0.33373731  0.43169249  0.83830320  1
  Ca2+  Ca27  1  0.32357037  0.92276846  0.16854688  1
  Ca2+  Ca28  1  0.32234207  0.91682331  0.50863858  1
  Ca2+  Ca29  1  0.33086877  0.92319128  0.83021725  1
  Ca2+  Ca30  1  0.84217427  0.41423133  0.17000362  1
  Ca2+  Ca31  1  0.83750802  0.41234640  0.50540300  1
  Ca2+  Ca32  1  0.83887759  0.41181602  0.83447768  1
  Ca2+  Ca33  1  0.82382015  0.92164312  0.17628463  1
  Ca2+  Ca34  1  0.83146344  0.92856617  0.50537974  1
  Ca2+  Ca35  1  0.83182137  0.91823837  0.83129804  1
  Ca2+  Ca36  1  0.42143914  0.15771143  0.16348715  1
  Ca2+  Ca37  1  0.42975586  0.14952750  0.50100027  1
  Ca2+  Ca38  1  0.42052997  0.15733367  0.82533882  1
  Ca2+  Ca39  1  0.42103024  0.66883300  0.16346786  1
  Ca2+  Ca40  1  0.42081864  0.67146423  0.50167850  1
  Ca2+  Ca41  1  0.41695190  0.67252219  0.82093188  1
  Ca2+  Ca42  1  0.92473064  0.16617682  0.16474066  1
  Ca2+  Ca43  1  0.92167916  0.16565759  0.49487207  1
  Ca2+  Ca44  1  0.92590141  0.16958972  0.82329986  1
  Ca2+  Ca45  1  0.92467991  0.67067057  0.15867657  1
  Ca2+  Ca46  1  0.91904834  0.67730489  0.50348182  1
  Ca2+  Ca47  1  0.92899793  0.67489065  0.82490260  1
  Al0+  Al48  1  -0.00105467  -0.00026319  -0.00389867  1
  Al0+  Al49  1  -0.00080561  -0.00094338  0.33480341  1
  Al0+  Al50  1  -0.00196991  -0.00124979  0.67067020  1
  Al0+  Al51  1  0.00116351  0.50067113  -0.00663788  1
  Al0+  Al52  1  0.00156687  0.50078866  0.33170673  1
  Al0+  Al53  1  -0.00118717  0.50035013  0.66197642  1
  Al0+  Al54  1  0.49910925  -0.00227079  0.00779088  1
  Al0+  Al55  1  0.49763178  -0.00333585  0.32931671  1
  Al0+  Al56  1  0.49948304  -0.00270585  0.65987014  1
  Al0+  Al57  1  0.50106490  0.49948100  0.00655161  1
  Al0+  Al58  1  0.50168166  0.50257082  0.32958298  1
  Al0+  Al59  1  0.50029368  0.49804431  0.66896941  1
  Al0+  Al60  1  0.25130417  0.25289335  0.00235168  1
  Al0+  Al61  1  0.25040079  0.25391125  0.33211681  1
  Al0+  Al62  1  0.24877924  0.25227934  0.66815784  1
  Al0+  Al63  1  0.25372497  0.75162203  0.00241212  1
  Al0+  Al64  1  0.25262818  0.75142018  0.33579978  1
  Al0+  Al65  1  0.25193431  0.74943440  0.66597562  1
  Al0+  Al66  1  0.74789876  0.25005873  -0.00087002  1
  Al0+  Al67  1  0.74647775  0.25276319  0.32873518  1
  Al0+  Al68  1  0.74764078  0.25031741  0.66711907  1
  Al0+  Al69  1  0.75048221  0.74677500  0.00349707  1
  Al0+  Al70  1  0.75039284  0.74798736  0.33272770  1
  Al0+  Al71  1  0.75182191  0.74712211  0.66121580  1
  Al0+  Al72  1  0.17946963  0.93020116  0.34643151  1
  Al0+  Al73  1  0.81952344  0.07248161  0.68142611  1
  Al0+  Al74  1  0.92823270  0.82278145  0.65115704  1
  Al0+  Al75  1  0.68067081  0.92839100  0.01149872  1
  Al0+  Al76  1  0.07281016  0.68039485  0.65089590  1
  Al0+  Al77  1  0.67682700  0.92597098  0.35058407  1
  Al0+  Al78  1  0.56881215  0.17766504  0.65594122  1
  Al0+  Al79  1  0.17774224  0.92910727  0.68290622  1
  Al0+  Al80  1  0.57126239  0.67641007  0.65368591  1
  Al0+  Al81  1  0.32051295  0.56887900  0.67962388  1
  Al0+  Al82  1  0.92741796  0.31959149  0.98370376  1
  Al0+  Al83  1  0.07135980  0.17645986  0.31875974  1
  Al0+  Al84  1  0.57106480  0.68082988  0.31686745  1
  Al0+  Al85  1  0.07274506  0.17769278  0.65195826  1
  Al0+  Al86  1  0.92752287  0.31968864  0.65130753  1
  Al0+  Al87  1  0.92875178  0.32262912  0.31826198  1
  Al0+  Al88  1  0.81789534  0.07250702  0.34760819  1
  Al0+  Al89  1  0.32193823  0.57298004  0.01628547  1
  Al0+  Al90  1  0.07310432  0.68265153  0.98760561  1
  Al0+  Al91  1  0.07363325  0.17667019  0.98367190  1
  Al0+  Al92  1  0.42884718  0.82158241  0.65042386  1
  Al0+  Al93  1  0.31933694  0.07247031  0.01423567  1
  Al0+  Al94  1  0.32199248  0.07220215  0.67954373  1
  Al0+  Al95  1  0.56802413  0.17758040  0.31815234  1
  Si0+  Si96  1  0.82188167  0.57151986  0.68241977  1
  Si0+  Si97  1  0.17469063  0.42872065  0.68493932  1
  Si0+  Si98  1  0.42603826  0.82024861  0.31166328  1
  Si0+  Si99  1  0.42753302  0.32267834  0.65322002  1
  Si0+  Si100  1  0.17780449  0.43055342  0.01807754  1
  Si0+  Si101  1  0.67821620  0.42758908  0.01734670  1
  Si0+  Si102  1  0.82158597  0.07351454  0.01621798  1
  Si0+  Si103  1  0.07309752  0.67971979  0.31895420  1
  Si0+  Si104  1  0.43213058  0.82055651  0.98531234  1
  Si0+  Si105  1  0.57220972  0.67698065  0.98596417  1
  Si0+  Si106  1  0.17841743  0.43068851  0.34902456  1
  Si0+  Si107  1  0.67957002  0.42929146  0.68266269  1
  Si0+  Si108  1  0.67901806  0.92515750  0.68017811  1
  Si0+  Si109  1  0.82150940  0.56834112  0.01453365  1
  Si0+  Si110  1  0.67781528  0.43125373  0.34936817  1
  Si0+  Si111  1  0.43030399  0.32405861  0.98623591  1
  Si0+  Si112  1  0.82342048  0.56998834  0.34883474  1
  Si0+  Si113  1  0.32162467  0.57030264  0.34909123  1
  Si0+  Si114  1  0.32107172  0.07545407  0.34868792  1
  Si0+  Si115  1  0.17718748  0.92846862  0.01498384  1
  Si0+  Si116  1  0.92928777  0.81985391  0.31795179  1
  Si0+  Si117  1  0.92492507  0.82083871  0.98486331  1
  Si0+  Si118  1  0.42853924  0.32541305  0.31625260  1
  Si0+  Si119  1  0.56714993  0.17772301  0.98608932  1
  O2-  O120  1  0.23759180  0.00452727  0.05961698  1
  O2-  O121  1  0.24835612  0.01095775  0.39115409  1
  O2-  O122  1  0.24726037  0.00453898  0.73191930  1
  O2-  O123  1  0.24553971  0.50042473  0.06387859  1
  O2-  O124  1  0.25094062  0.50001820  0.39159320  1
  O2-  O125  1  0.24342850  0.49805636  0.72887781  1
  O2-  O126  1  0.75675812  0.00071587  0.05943512  1
  O2-  O127  1  0.74381629  0.00279994  0.39918693  1
  O2-  O128  1  0.74557909  -0.00504757  0.72594987  1
  O2-  O129  1  0.75287460  0.49559982  0.05829083  1
  O2-  O130  1  0.75309379  0.49796857  0.39061685  1
  O2-  O131  1  0.75108553  0.49990225  0.72476615  1
  O2-  O132  1  -0.00269028  0.24723514  0.26924953  1
  O2-  O133  1  -0.00245410  0.24648267  0.60206456  1
  O2-  O134  1  -0.00305907  0.24501996  0.93551812  1
  O2-  O135  1  0.00275909  0.75069714  0.27576378  1
  O2-  O136  1  0.00457772  0.75532906  0.60036387  1
  O2-  O137  1  0.00076048  0.75958471  0.94210734  1
  O2-  O138  1  0.48968660  0.24983776  0.27184249  1
  O2-  O139  1  0.48756364  0.24630342  0.60971545  1
  O2-  O140  1  0.49598839  0.24857118  0.94342723  1
  O2-  O141  1  0.50057277  0.75752929  0.26718662  1
  O2-  O142  1  0.50268925  0.74996537  0.60239876  1
  O2-  O143  1  0.50285845  0.74845313  0.94380027  1
  O2-  O144  1  0.07315930  0.17846242  0.09742566  1
  O2-  O145  1  0.07283187  0.17793382  0.43156990  1
  O2-  O146  1  0.07384025  0.18178453  0.76548371  1
  O2-  O147  1  0.07045789  0.68308609  0.10169795  1
  O2-  O148  1  0.07271273  0.67761197  0.42310650  1
  O2-  O149  1  0.07079984  0.68033804  0.76483083  1
  O2-  O150  1  0.56675550  0.18006427  0.09116496  1
  O2-  O151  1  0.56853456  0.18155616  0.43099790  1
  O2-  O152  1  0.57008400  0.18053041  0.76962366  1
  O2-  O153  1  0.57224598  0.67708295  0.09105775  1
  O2-  O154  1  0.56672111  0.67614191  0.42905682  1
  O2-  O155  1  0.57033859  0.67634081  0.76806691  1
  O2-  O156  1  0.17901460  0.43345509  0.24386946  1
  O2-  O157  1  0.17707441  0.43026289  0.57890853  1
  O2-  O158  1  0.18089380  0.43158679  0.91291952  1
  O2-  O159  1  0.18260793  0.92538241  0.23286386  1
  O2-  O160  1  0.18090313  0.92926290  0.56920625  1
  O2-  O161  1  0.18230366  0.92313275  0.91051911  1
  O2-  O162  1  0.67493787  0.43391698  0.24395200  1
  O2-  O163  1  0.67742752  0.42982181  0.57766459  1
  O2-  O164  1  0.67303634  0.42920590  0.91256127  1
  O2-  O165  1  0.68251985  0.92626180  0.23625079  1
  O2-  O166  1  0.68101750  0.92498052  0.57507119  1
  O2-  O167  1  0.67907384  0.92929915  0.89851698  1
  O2-  O168  1  0.43445095  0.32713933  0.09121634  1
  O2-  O169  1  0.43208421  0.33244382  0.42131267  1
  O2-  O170  1  0.43391902  0.32799257  0.75882613  1
  O2-  O171  1  0.43191507  0.81911583  0.09038623  1
  O2-  O172  1  0.42192281  0.81550056  0.41650334  1
  O2-  O173  1  0.43138539  0.82140209  0.76494936  1
  O2-  O174  1  0.92882986  0.32002608  0.09710512  1
  O2-  O175  1  0.93270755  0.32628450  0.43090110  1
  O2-  O176  1  0.92849291  0.31871306  0.76483723  1
  O2-  O177  1  0.92239252  0.81640681  0.09087069  1
  O2-  O178  1  0.92799991  0.81752488  0.42213338  1
  O2-  O179  1  0.92371480  0.81618165  0.76503802  1
  O2-  O180  1  0.32040587  0.07326004  0.24252545  1
  O2-  O181  1  0.32320698  0.06927339  0.56616429  1
  O2-  O182  1  0.32570900  0.06845790  0.90210071  1
  O2-  O183  1  0.32023240  0.56963734  0.24361747  1
  O2-  O184  1  0.32250979  0.56415271  0.56614984  1
  O2-  O185  1  0.32513329  0.57169591  0.90381711  1
  O2-  O186  1  0.81838887  0.06849093  0.23331357  1
  O2-  O187  1  0.81671196  0.07616898  0.56880270  1
  O2-  O188  1  0.81787208  0.07555427  0.91086205  1
  O2-  O189  1  0.82319825  0.56996872  0.24309658  1
  O2-  O190  1  0.82154420  0.57137321  0.57729301  1
  O2-  O191  1  0.81771351  0.57081717  0.90987835  1
  O2-  O192  1  0.04422279  0.07752793  0.26527684  1
  O2-  O193  1  0.04622957  0.07771130  0.60446419  1
  O2-  O194  1  0.05086114  0.07614677  0.93254622  1
  O2-  O195  1  0.04427945  0.58905591  0.26963503  1
  O2-  O196  1  0.04066749  0.58339078  0.59771908  1
  O2-  O197  1  0.04202394  0.58720846  0.93326623  1
  O2-  O198  1  0.53976325  0.08026404  0.26329437  1
  O2-  O199  1  0.54503531  0.08189609  0.59848281  1
  O2-  O200  1  0.53837179  0.08540841  0.94171889  1
  O2-  O201  1  0.53755210  0.58521278  0.26075720  1
  O2-  O202  1  0.54082952  0.57822229  0.60115653  1
  O2-  O203  1  0.54452743  0.58398666  0.94154396  1
  O2-  O204  1  0.17025451  0.20901598  0.26709453  1
  O2-  O205  1  0.17079817  0.20881227  0.59897891  1
  O2-  O206  1  0.17252482  0.20991078  0.93423780  1
  O2-  O207  1  0.16549869  0.70767575  0.27226083  1
  O2-  O208  1  0.17213922  0.70282870  0.59902988  1
  O2-  O209  1  0.17141429  0.71098666  0.93627141  1
  O2-  O210  1  0.66144762  0.21399808  0.26148091  1
  O2-  O211  1  0.66059056  0.21814683  0.60055690  1
  O2-  O212  1  0.65874693  0.20671365  0.93950448  1
  O2-  O213  1  0.67013309  0.70541338  0.26335088  1
  O2-  O214  1  0.67020319  0.69857922  0.60061624  1
  O2-  O215  1  0.66552501  0.70114419  0.94020135  1
  O2-  O216  1  0.08386347  0.45787855  0.06274938  1
  O2-  O217  1  0.08817590  0.46183399  0.39679042  1
  O2-  O218  1  0.08082640  0.45496491  0.72941694  1
  O2-  O219  1  0.07939967  0.94333737  0.05728093  1
  O2-  O220  1  0.08073827  0.95214899  0.39850136  1
  O2-  O221  1  0.07741985  0.94785384  0.73510110  1
  O2-  O222  1  0.58960334  0.45916979  0.06903230  1
  O2-  O223  1  0.58789084  0.46500771  0.39688620  1
  O2-  O224  1  0.58914875  0.45790359  0.73315050  1
  O2-  O225  1  0.58598196  0.95922313  0.06933910  1
  O2-  O226  1  0.57346598  0.94576624  0.39490339  1
  O2-  O227  1  0.58415158  0.94935705  0.72355918  1
  O2-  O228  1  0.20601166  0.33868835  0.06643678  1
  O2-  O229  1  0.20559434  0.33909157  0.39702083  1
  O2-  O230  1  0.20055827  0.33608472  0.73200914  1
  O2-  O231  1  0.21202938  0.83901693  0.06542299  1
  O2-  O232  1  0.21512266  0.83482602  0.40074355  1
  O2-  O233  1  0.21169641  0.83131358  0.73443345  1
  O2-  O234  1  0.70227747  0.33461380  0.06470520  1
  O2-  O235  1  0.69974145  0.33801253  0.39538876  1
  O2-  O236  1  0.70631352  0.33880380  0.73314722  1
  O2-  O237  1  0.70922034  0.83040542  0.06630458  1
  O2-  O238  1  0.70773231  0.82702189  0.40020731  1
  O2-  O239  1  0.70591599  0.83131906  0.72631330  1
  O2-  O240  1  0.46240519  0.41499961  0.26590539  1
  O2-  O241  1  0.46306528  0.41107801  0.60281807  1
  O2-  O242  1  0.46449859  0.41398342  0.93814939  1
  O2-  O243  1  0.44424442  0.91548495  0.26644475  1
  O2-  O244  1  0.45517103  0.91754063  0.59301718  1
  O2-  O245  1  0.46218800  0.91186517  0.93905133  1
  O2-  O246  1  0.96192197  0.42050899  0.26389495  1
  O2-  O247  1  0.95399977  0.41863262  0.59921530  1
  O2-  O248  1  0.95633113  0.41827822  0.93134133  1
  O2-  O249  1  0.95513774  0.91111409  0.26915316  1
  O2-  O250  1  0.94984425  0.92250057  0.60028180  1
  O2-  O251  1  0.94016776  0.91722676  0.94220360  1
  O2-  O252  1  0.33255947  0.30859978  0.27178351  1
  O2-  O253  1  0.33114744  0.30950439  0.61020387  1
  O2-  O254  1  0.33620122  0.30480641  0.94162372  1
  O2-  O255  1  0.33561417  0.78588787  0.26298730  1
  O2-  O256  1  0.33331596  0.78843850  0.59641829  1
  O2-  O257  1  0.34072289  0.79266085  0.93857493  1
  O2-  O258  1  0.82706838  0.30403553  0.26813892  1
  O2-  O259  1  0.82698789  0.29625988  0.60149422  1
  O2-  O260  1  0.82533974  0.29808162  0.93422509  1
  O2-  O261  1  0.83952080  0.78738183  0.26872348  1
  O2-  O262  1  0.83397393  0.78649681  0.59481771  1
  O2-  O263  1  0.83497290  0.78584018  0.93733043  1
  O2-  O264  1  0.41228346  0.03387392  0.07186114  1
  O2-  O265  1  0.41392261  0.04429129  0.39184709  1
  O2-  O266  1  0.42118541  0.03980335  0.73124570  1
  O2-  O267  1  0.41720364  0.53803677  0.07212216  1
  O2-  O268  1  0.41387298  0.54072330  0.39364955  1
  O2-  O269  1  0.41588169  0.53455206  0.73553391  1
  O2-  O270  1  0.91742548  0.05155212  0.05940125  1
  O2-  O271  1  0.91594136  0.04155205  0.39885621  1
  O2-  O272  1  0.91463529  0.04224154  0.73763857  1
  O2-  O273  1  0.91466481  0.54314435  0.06107605  1
  O2-  O274  1  0.91566828  0.54394151  0.39582718  1
  O2-  O275  1  0.91355327  0.54344238  0.73012803  1
  O2-  O276  1  0.29924006  0.17240966  0.06755071  1
  O2-  O277  1  0.30565138  0.17244513  0.39111008  1
  O2-  O278  1  0.30105332  0.17374319  0.73110324  1
  O2-  O279  1  0.29301445  0.66942959  0.07181657  1
  O2-  O280  1  0.29432380  0.66191356  0.39528019  1
  O2-  O281  1  0.29364382  0.66588207  0.73348843  1
  O2-  O282  1  0.79091662  0.16539278  0.06306126  1
  O2-  O283  1  0.78888927  0.17274609  0.39662638  1
  O2-  O284  1  0.78272340  0.16697703  0.73693589  1
  O2-  O285  1  0.79208266  0.65818884  0.06582625  1
  O2-  O286  1  0.79388629  0.66077511  0.39587826  1
  O2-  O287  1  0.79279717  0.66212729  0.73163958  1
