# generated using pymatgen
data_Ca2Al2SiO7
_symmetry_space_group_name_H-M   'P 1'
_cell_length_a   15.45460305
_cell_length_b   15.45465038
_cell_length_c   15.28166914
_cell_angle_alpha   90.00686085
_cell_angle_beta   89.99802124
_cell_angle_gamma   90.00596053
_symmetry_Int_Tables_number   1
_chemical_formula_structural   Ca2Al2SiO7
_chemical_formula_sum   'Ca48 Al48 Si24 O168'
_cell_volume   3649.95765941
_cell_formula_units_Z   24
loop_
 _symmetry_equiv_pos_site_id
 _symmetry_equiv_pos_as_xyz
  1  'x, y, z'
loop_
 _atom_type_symbol
 _atom_type_oxidation_number
  Ca2+  2.0
  Al0+  0.0
  Si0+  0.0
  O2-  -2.0
loop_
 _atom_site_type_symbol
 _atom_site_label
 _atom_site_symmetry_multiplicity
 _atom_site_fract_x
 _atom_site_fract_y
 _atom_site_fract_z
 _atom_site_occupancy
  Ca2+  Ca0  1  0.16373805  0.07817807  0.16771892  1
  Ca2+  Ca1  1  0.17042589  0.08097129  0.50838542  1
  Ca2+  Ca2  1  0.16867026  0.07049156  0.83487554  1
  Ca2+  Ca3  1  0.16685316  0.57614283  0.16622222  1
  Ca2+  Ca4  1  0.16324768  0.57918437  0.50991152  1
  Ca2+  Ca5  1  0.15361379  0.57217442  0.83502808  1
  Ca2+  Ca6  1  0.67289781  0.07923162  0.16883205  1
  Ca2+  Ca7  1  0.67726052  0.07841053  0.50178431  1
  Ca2+  Ca8  1  0.67782465  0.07974401  0.84143998  1
  Ca2+  Ca9  1  0.67143528  0.57831831  0.16872134  1
  Ca2+  Ca10  1  0.67037912  0.57836525  0.50696998  1
  Ca2+  Ca11  1  0.67792768  0.59151458  0.83465139  1
  Ca2+  Ca12  1  0.08024315  0.32553821  0.16446543  1
  Ca2+  Ca13  1  0.07225916  0.32926383  0.49534772  1
  Ca2+  Ca14  1  0.08075242  0.33466954  0.82531143  1
  Ca2+  Ca15  1  0.07569454  0.83340685  0.15606210  1
  Ca2+  Ca16  1  0.08037657  0.83543217  0.50357997  1
  Ca2+  Ca17  1  0.07504709  0.83408667  0.82655815  1
  Ca2+  Ca18  1  0.58344175  0.32795950  0.15722925  1
  Ca2+  Ca19  1  0.58528513  0.33282984  0.49396412  1
  Ca2+  Ca20  1  0.58076007  0.32775849  0.83317022  1
  Ca2+  Ca21  1  0.57570890  0.84690991  0.16087465  1
  Ca2+  Ca22  1  0.58228434  0.83123346  0.49549555  1
  Ca2+  Ca23  1  0.58249247  0.83377431  0.83097510  1
  Ca2+  Ca24  1  0.33065144  0.41050910  0.16480920  1
  Ca2+  Ca25  1  0.32319829  0.41842997  0.50963999  1
  Ca2+  Ca26  1  0.32161398  0.41478557  0.84034896  1
  Ca2+  Ca27  1  0.33079633  0.90859037  0.16907510  1
  Ca2+  Ca28  1  0.32845712  0.92140303  0.50835487  1
  Ca2+  Ca29  1  0.32301912  0.91228250  0.83736654  1
  Ca2+  Ca30  1  0.83065055  0.42063230  0.17215100  1
  Ca2+  Ca31  1  0.83467533  0.41641689  0.50553018  1
  Ca2+  Ca32  1  0.84298212  0.43120761  0.83517552  1
  Ca2+  Ca33  1  0.82442922  0.92409132  0.16903411  1
  Ca2+  Ca34  1  0.83782531  0.92788902  0.50610129  1
  Ca2+  Ca35  1  0.83539473  0.92316732  0.84344534  1
  Ca2+  Ca36  1  0.42872220  0.17136638  0.15336316  1
  Ca2+  Ca37  1  0.41545767  0.16398377  0.49750347  1
  Ca2+  Ca38  1  0.42032747  0.16394905  0.83381288  1
  Ca2+  Ca39  1  0.42135587  0.67773089  0.16073225  1
  Ca2+  Ca40  1  0.42287289  0.67279805  0.49544555  1
  Ca2+  Ca41  1  0.42445254  0.67140956  0.82911622  1
  Ca2+  Ca42  1  0.91285923  0.16503034  0.16677100  1
  Ca2+  Ca43  1  0.91426278  0.17297711  0.49352769  1
  Ca2+  Ca44  1  0.91266318  0.17002159  0.82574298  1
  Ca2+  Ca45  1  0.91323513  0.67299896  0.15797683  1
  Ca2+  Ca46  1  0.91815760  0.66876387  0.50639249  1
  Ca2+  Ca47  1  0.91366914  0.67789248  0.82415415  1
  Al0+  Al48  1  0.00179262  0.00079702  0.00414034  1
  Al0+  Al49  1  0.00124603  -0.00077640  0.33333833  1
  Al0+  Al50  1  0.00129694  0.00147105  0.66993618  1
  Al0+  Al51  1  0.00096910  0.49866113  0.01256565  1
  Al0+  Al52  1  0.00035632  0.49942451  0.32915660  1
  Al0+  Al53  1  -0.00209139  0.50040204  0.66560532  1
  Al0+  Al54  1  0.49981199  0.00090785  -0.00890546  1
  Al0+  Al55  1  0.49914443  0.00016399  0.33331816  1
  Al0+  Al56  1  0.50126950  0.00187419  0.66839078  1
  Al0+  Al57  1  0.49875964  0.50035808  -0.00480118  1
  Al0+  Al58  1  0.49968940  0.50191294  0.33641499  1
  Al0+  Al59  1  0.49908201  0.49894364  0.66256492  1
  Al0+  Al60  1  0.24864596  0.24955552  0.00115874  1
  Al0+  Al61  1  0.24787461  0.24929252  0.33039970  1
  Al0+  Al62  1  0.25126485  0.25032025  0.67420924  1
  Al0+  Al63  1  0.25057162  0.74681165  -0.00019708  1
  Al0+  Al64  1  0.25090054  0.74887786  0.33029923  1
  Al0+  Al65  1  0.25072673  0.74905543  0.66642631  1
  Al0+  Al66  1  0.75135417  0.25151925  -0.00251192  1
  Al0+  Al67  1  0.74940746  0.25178532  0.33603340  1
  Al0+  Al68  1  0.74748217  0.24916946  0.66591571  1
  Al0+  Al69  1  0.75023185  0.75161317  0.00594057  1
  Al0+  Al70  1  0.74981035  0.74758879  0.33626400  1
  Al0+  Al71  1  0.74866381  0.74937150  0.65880530  1
  Al0+  Al72  1  0.57383985  0.17911722  0.98276626  1
  Al0+  Al73  1  0.32368531  0.07184365  0.68313553  1
  Al0+  Al74  1  0.92857464  0.32038042  0.65496225  1
  Al0+  Al75  1  0.42722094  0.32178901  0.98363050  1
  Al0+  Al76  1  0.18098736  0.92684224  0.01506245  1
  Al0+  Al77  1  0.67611281  0.92816784  0.34974279  1
  Al0+  Al78  1  0.67865304  0.43051850  0.34610564  1
  Al0+  Al79  1  0.82069708  0.57209160  0.01369824  1
  Al0+  Al80  1  0.43075020  0.82061240  0.32006939  1
  Al0+  Al81  1  0.67743805  0.92973476  0.01335670  1
  Al0+  Al82  1  0.07181844  0.17732190  0.31753729  1
  Al0+  Al83  1  0.07114591  0.67884043  0.65348915  1
  Al0+  Al84  1  0.17942534  0.92692214  0.68162031  1
  Al0+  Al85  1  0.81841597  0.56980532  0.67894306  1
  Al0+  Al86  1  0.17945614  0.42738253  0.01704254  1
  Al0+  Al87  1  0.42755267  0.82089516  0.98422969  1
  Al0+  Al88  1  0.92720589  0.32101721  0.31591597  1
  Al0+  Al89  1  0.82298389  0.07405864  0.01562516  1
  Al0+  Al90  1  0.57093381  0.67830072  0.65178658  1
  Al0+  Al91  1  0.92867638  0.82469984  0.65127586  1
  Al0+  Al92  1  0.82065481  0.07160130  0.68033827  1
  Al0+  Al93  1  0.92943768  0.82100775  0.98884452  1
  Al0+  Al94  1  0.82180216  0.06963853  0.34984335  1
  Al0+  Al95  1  0.17846223  0.43172501  0.67866971  1
  Si0+  Si96  1  0.93051467  0.32264382  0.98528242  1
  Si0+  Si97  1  0.42782333  0.31984048  0.65031992  1
  Si0+  Si98  1  0.67710635  0.42931956  0.01328155  1
  Si0+  Si99  1  0.42876324  0.82305228  0.64987605  1
  Si0+  Si100  1  0.57047287  0.17896599  0.64835570  1
  Si0+  Si101  1  0.32019538  0.07161716  0.34521843  1
  Si0+  Si102  1  0.57244833  0.67646387  0.31540815  1
  Si0+  Si103  1  0.67910639  0.92716476  0.68209711  1
  Si0+  Si104  1  0.57285239  0.67769697  0.98411594  1
  Si0+  Si105  1  0.17981663  0.42857160  0.34901373  1
  Si0+  Si106  1  0.82474736  0.57165863  0.35228000  1
  Si0+  Si107  1  0.32450072  0.57080764  0.01771937  1
  Si0+  Si108  1  0.07073656  0.17883550  0.98332664  1
  Si0+  Si109  1  0.42742667  0.32299779  0.32048460  1
  Si0+  Si110  1  0.32113479  0.07065462  0.01733573  1
  Si0+  Si111  1  0.07391078  0.17908359  0.65268423  1
  Si0+  Si112  1  0.31939584  0.57189839  0.34880196  1
  Si0+  Si113  1  0.07214626  0.67858162  0.31668406  1
  Si0+  Si114  1  0.07079621  0.67570896  0.98561306  1
  Si0+  Si115  1  0.56935915  0.18047588  0.31995328  1
  Si0+  Si116  1  0.92908784  0.82044807  0.31827670  1
  Si0+  Si117  1  0.32441302  0.57190001  0.68297674  1
  Si0+  Si118  1  0.17975599  0.92653888  0.34761391  1
  Si0+  Si119  1  0.67494173  0.42688654  0.68445049  1
  O2-  O120  1  0.25786002  -0.00156796  0.06438245  1
  O2-  O121  1  0.24921413  0.00043214  0.38751433  1
  O2-  O122  1  0.25371013  -0.00278823  0.73105477  1
  O2-  O123  1  0.25706288  0.50048891  0.06237703  1
  O2-  O124  1  0.24997499  0.49989211  0.39182727  1
  O2-  O125  1  0.25147588  0.50781053  0.72674337  1
  O2-  O126  1  0.74897115  0.00253160  0.06293442  1
  O2-  O127  1  0.75222455  -0.00484339  0.40041337  1
  O2-  O128  1  0.75116261  -0.00805312  0.72611250  1
  O2-  O129  1  0.74505787  0.49758197  0.05895980  1
  O2-  O130  1  0.75518435  0.50245334  0.39400588  1
  O2-  O131  1  0.74335273  0.49599559  0.72776566  1
  O2-  O132  1  -0.00257845  0.24668314  0.26652634  1
  O2-  O133  1  0.00223446  0.24439718  0.60815320  1
  O2-  O134  1  -0.00151425  0.24927389  0.94230669  1
  O2-  O135  1  -0.00085867  0.74784406  0.27579139  1
  O2-  O136  1  0.00284827  0.75347836  0.60152825  1
  O2-  O137  1  0.00392348  0.74575367  0.94228278  1
  O2-  O138  1  0.49974846  0.25382776  0.27840138  1
  O2-  O139  1  0.49814160  0.24936687  0.60587648  1
  O2-  O140  1  0.49980991  0.25070987  0.93367297  1
  O2-  O141  1  0.50963726  0.75072669  0.27174524  1
  O2-  O142  1  0.49651366  0.75369841  0.60516650  1
  O2-  O143  1  0.50525267  0.74796434  0.94033407  1
  O2-  O144  1  0.07238107  0.18015991  0.08852491  1
  O2-  O145  1  0.07861993  0.18169871  0.43094946  1
  O2-  O146  1  0.07447117  0.18133278  0.75839927  1
  O2-  O147  1  0.07008088  0.67679929  0.09209437  1
  O2-  O148  1  0.07497638  0.67765739  0.42141674  1
  O2-  O149  1  0.06681242  0.67649689  0.76672315  1
  O2-  O150  1  0.57262474  0.18182632  0.09737671  1
  O2-  O151  1  0.56619319  0.18061139  0.42538069  1
  O2-  O152  1  0.57154304  0.18066067  0.75280243  1
  O2-  O153  1  0.56968069  0.67301862  0.08969166  1
  O2-  O154  1  0.56714686  0.67302101  0.42078468  1
  O2-  O155  1  0.56966595  0.67913556  0.76496466  1
  O2-  O156  1  0.18259259  0.42906437  0.24403489  1
  O2-  O157  1  0.18161276  0.43108998  0.56495346  1
  O2-  O158  1  0.17665794  0.43014921  0.90406950  1
  O2-  O159  1  0.18112591  0.92412749  0.24255535  1
  O2-  O160  1  0.18181595  0.92900014  0.56699095  1
  O2-  O161  1  0.18011158  0.92823225  0.90267546  1
  O2-  O162  1  0.67570840  0.43342610  0.23290174  1
  O2-  O163  1  0.67427721  0.42770319  0.57846894  1
  O2-  O164  1  0.67740025  0.43012096  0.90792153  1
  O2-  O165  1  0.67381376  0.93344526  0.23668092  1
  O2-  O166  1  0.67623254  0.93107508  0.57639831  1
  O2-  O167  1  0.68059648  0.92776639  0.89965370  1
  O2-  O168  1  0.42990160  0.31984250  0.09836609  1
  O2-  O169  1  0.42548671  0.32110036  0.42581162  1
  O2-  O170  1  0.42891467  0.32138143  0.75469912  1
  O2-  O171  1  0.42752788  0.81823769  0.09781253  1
  O2-  O172  1  0.42721784  0.81728220  0.43301240  1
  O2-  O173  1  0.42976877  0.82162776  0.75527731  1
  O2-  O174  1  0.93154553  0.32334923  0.09029557  1
  O2-  O175  1  0.93071865  0.32274346  0.42967633  1
  O2-  O176  1  0.93144413  0.32151671  0.76840800  1
  O2-  O177  1  0.93089197  0.81859544  0.10272237  1
  O2-  O178  1  0.93210464  0.82124238  0.42316429  1
  O2-  O179  1  0.92726336  0.82339063  0.76484912  1
  O2-  O180  1  0.32140397  0.07232745  0.24055208  1
  O2-  O181  1  0.32238833  0.07216070  0.56824914  1
  O2-  O182  1  0.31655713  0.07134944  0.91214632  1
  O2-  O183  1  0.31859269  0.57206320  0.24388974  1
  O2-  O184  1  0.32584516  0.56796683  0.57673056  1
  O2-  O185  1  0.32558364  0.57128944  0.91249949  1
  O2-  O186  1  0.81950649  0.06858202  0.23663840  1
  O2-  O187  1  0.81781403  0.07392693  0.56728033  1
  O2-  O188  1  0.82296660  0.07362452  0.90187015  1
  O2-  O189  1  0.82412652  0.57252067  0.24644168  1
  O2-  O190  1  0.81792180  0.56684448  0.56580745  1
  O2-  O191  1  0.82198092  0.57184159  0.90064631  1
  O2-  O192  1  0.04787789  0.07707085  0.26561443  1
  O2-  O193  1  0.05286346  0.08456942  0.60748849  1
  O2-  O194  1  0.04464699  0.08659248  0.93686041  1
  O2-  O195  1  0.04692623  0.58620335  0.26872136  1
  O2-  O196  1  0.03829618  0.58280531  0.59703339  1
  O2-  O197  1  0.04274247  0.58101532  0.94373270  1
  O2-  O198  1  0.53834986  0.09040175  0.27168792  1
  O2-  O199  1  0.54280704  0.08701635  0.60040971  1
  O2-  O200  1  0.54494000  0.08285221  0.92666541  1
  O2-  O201  1  0.53906080  0.58547850  0.26748358  1
  O2-  O202  1  0.53895340  0.58163322  0.59641334  1
  O2-  O203  1  0.54647374  0.58566639  0.93506998  1
  O2-  O204  1  0.16869140  0.20969437  0.26119854  1
  O2-  O205  1  0.16740224  0.20777180  0.60716580  1
  O2-  O206  1  0.16183710  0.20852389  0.93647781  1
  O2-  O207  1  0.16307524  0.70745741  0.26771451  1
  O2-  O208  1  0.17215597  0.70076176  0.60032926  1
  O2-  O209  1  0.16590463  0.69537088  0.94141419  1
  O2-  O210  1  0.66094657  0.20792701  0.27348948  1
  O2-  O211  1  0.66035231  0.20942936  0.59860741  1
  O2-  O212  1  0.67092151  0.21110576  0.92844736  1
  O2-  O213  1  0.66942953  0.69311449  0.27337541  1
  O2-  O214  1  0.66522643  0.70677254  0.59281864  1
  O2-  O215  1  0.66672393  0.70424553  0.94015355  1
  O2-  O216  1  0.08686707  0.46087216  0.07705313  1
  O2-  O217  1  0.08715070  0.45722332  0.39352386  1
  O2-  O218  1  0.08249164  0.46194584  0.73339310  1
  O2-  O219  1  0.08674604  0.96174396  0.07104663  1
  O2-  O220  1  0.08803200  0.95228255  0.39504727  1
  O2-  O221  1  0.08278735  0.95783015  0.73579083  1
  O2-  O222  1  0.58271575  0.45384479  0.05913374  1
  O2-  O223  1  0.58191113  0.46129324  0.40245050  1
  O2-  O224  1  0.58037204  0.45189270  0.72843950  1
  O2-  O225  1  0.57728088  0.95919318  0.06283455  1
  O2-  O226  1  0.57844901  0.96030842  0.40349924  1
  O2-  O227  1  0.58672580  0.95615541  0.72853026  1
  O2-  O228  1  0.21066061  0.33108028  0.07186392  1
  O2-  O229  1  0.20889607  0.33693962  0.39585778  1
  O2-  O230  1  0.21093130  0.33712581  0.73463425  1
  O2-  O231  1  0.20865731  0.82834452  0.06807812  1
  O2-  O232  1  0.21049102  0.83541853  0.39489890  1
  O2-  O233  1  0.20560708  0.82743863  0.73378853  1
  O2-  O234  1  0.70389326  0.33654233  0.05995180  1
  O2-  O235  1  0.70479386  0.33384211  0.40198566  1
  O2-  O236  1  0.69940364  0.33303325  0.72883366  1
  O2-  O237  1  0.70320324  0.83235835  0.06988093  1
  O2-  O238  1  0.69777717  0.82584392  0.39760918  1
  O2-  O239  1  0.69860963  0.83105575  0.72378024  1
  O2-  O240  1  0.45260879  0.41624258  0.27479424  1
  O2-  O241  1  0.45415494  0.41137154  0.60061093  1
  O2-  O242  1  0.45225874  0.42082367  0.93034237  1
  O2-  O243  1  0.45591811  0.91905439  0.26624114  1
  O2-  O244  1  0.45534951  0.91719291  0.60463197  1
  O2-  O245  1  0.45292594  0.91746808  0.92901015  1
  O2-  O246  1  0.95855538  0.41910536  0.26259262  1
  O2-  O247  1  0.96053982  0.41513444  0.59893362  1
  O2-  O248  1  0.96376635  0.41460995  0.94119466  1
  O2-  O249  1  0.95864509  0.91120800  0.27065330  1
  O2-  O250  1  0.96003586  0.92285018  0.59806558  1
  O2-  O251  1  0.96202051  0.91783659  0.93699721  1
  O2-  O252  1  0.33658043  0.29442178  0.27203325  1
  O2-  O253  1  0.33558098  0.29137356  0.60305664  1
  O2-  O254  1  0.32819351  0.29229163  0.93292756  1
  O2-  O255  1  0.33562073  0.78471455  0.26472950  1
  O2-  O256  1  0.33507692  0.79820055  0.60359376  1
  O2-  O257  1  0.33230871  0.78479200  0.93032576  1
  O2-  O258  1  0.82672963  0.29649922  0.26522878  1
  O2-  O259  1  0.83064323  0.29179859  0.60162915  1
  O2-  O260  1  0.83777925  0.30109719  0.93767576  1
  O2-  O261  1  0.83597364  0.79267364  0.27315884  1
  O2-  O262  1  0.83204235  0.79437905  0.59582307  1
  O2-  O263  1  0.83219782  0.79062118  0.93675978  1
  O2-  O264  1  0.41776164  0.05037962  0.05820148  1
  O2-  O265  1  0.41095149  0.04446844  0.39496476  1
  O2-  O266  1  0.42323853  0.04690453  0.73495461  1
  O2-  O267  1  0.41814974  0.54592234  0.06502099  1
  O2-  O268  1  0.41129392  0.54578251  0.39691073  1
  O2-  O269  1  0.41602423  0.54097802  0.72982889  1
  O2-  O270  1  0.92067512  0.04573152  0.06911232  1
  O2-  O271  1  0.92208395  0.04296916  0.40117105  1
  O2-  O272  1  0.91936316  0.04887716  0.73252432  1
  O2-  O273  1  0.91439990  0.54005308  0.07261217  1
  O2-  O274  1  0.91924931  0.54536753  0.39616957  1
  O2-  O275  1  0.91386647  0.53833514  0.73377747  1
  O2-  O276  1  0.29212945  0.16297383  0.06452993  1
  O2-  O277  1  0.29269182  0.16364295  0.39378453  1
  O2-  O278  1  0.29605017  0.16910125  0.73768123  1
  O2-  O279  1  0.29572285  0.66255895  0.06623726  1
  O2-  O280  1  0.28947824  0.66267201  0.39730321  1
  O2-  O281  1  0.30614821  0.66750805  0.72619613  1
  O2-  O282  1  0.79477102  0.17371084  0.06684116  1
  O2-  O283  1  0.79117597  0.16841428  0.40062742  1
  O2-  O284  1  0.78457201  0.16677015  0.73419874  1
  O2-  O285  1  0.78928196  0.66617338  0.07168813  1
  O2-  O286  1  0.79967785  0.66490252  0.39875399  1
  O2-  O287  1  0.78666138  0.66772533  0.73001204  1
