# generated using pymatgen
data_Ca2Al2SiO7
_symmetry_space_group_name_H-M   'P 1'
_cell_length_a   15.46089095
_cell_length_b   15.46305487
_cell_length_c   15.28581688
_cell_angle_alpha   89.99299256
_cell_angle_beta   89.99419723
_cell_angle_gamma   89.99261998
_symmetry_Int_Tables_number   1
_chemical_formula_structural   Ca2Al2SiO7
_chemical_formula_sum   'Ca48 Al48 Si24 O168'
_cell_volume   3654.41998653
_cell_formula_units_Z   24
loop_
 _symmetry_equiv_pos_site_id
 _symmetry_equiv_pos_as_xyz
  1  'x, y, z'
loop_
 _atom_type_symbol
 _atom_type_oxidation_number
  Ca2+  2.0
  Al0+  0.0
  Si0+  0.0
  O2-  -2.0
loop_
 _atom_site_type_symbol
 _atom_site_label
 _atom_site_symmetry_multiplicity
 _atom_site_fract_x
 _atom_site_fract_y
 _atom_site_fract_z
 _atom_site_occupancy
  Ca2+  Ca0  1  0.17580064  0.08846009  0.17391330  1
  Ca2+  Ca1  1  0.17513298  0.09445361  0.50357651  1
  Ca2+  Ca2  1  0.17724291  0.09308478  0.83314732  1
  Ca2+  Ca3  1  0.16959733  0.57782541  0.17872464  1
  Ca2+  Ca4  1  0.16806207  0.57195491  0.49862514  1
  Ca2+  Ca5  1  0.16699143  0.57735439  0.83721926  1
  Ca2+  Ca6  1  0.66704033  0.07906537  0.17513559  1
  Ca2+  Ca7  1  0.67214739  0.09571140  0.49746199  1
  Ca2+  Ca8  1  0.66403042  0.07516384  0.84223719  1
  Ca2+  Ca9  1  0.67237993  0.58335789  0.17089818  1
  Ca2+  Ca10  1  0.66972702  0.58756921  0.49764758  1
  Ca2+  Ca11  1  0.67360823  0.57697596  0.84745387  1
  Ca2+  Ca12  1  0.08062009  0.33223697  0.16568469  1
  Ca2+  Ca13  1  0.08725325  0.32868034  0.49878780  1
  Ca2+  Ca14  1  0.07223528  0.33263674  0.82570009  1
  Ca2+  Ca15  1  0.08469860  0.81856124  0.16324473  1
  Ca2+  Ca16  1  0.08376189  0.82534185  0.49121561  1
  Ca2+  Ca17  1  0.08737636  0.82444980  0.83366771  1
  Ca2+  Ca18  1  0.57137327  0.33513006  0.16188397  1
  Ca2+  Ca19  1  0.56811212  0.32973065  0.49093125  1
  Ca2+  Ca20  1  0.57158458  0.33975618  0.83183091  1
  Ca2+  Ca21  1  0.58864636  0.82250637  0.16259950  1
  Ca2+  Ca22  1  0.57602021  0.82840097  0.49532795  1
  Ca2+  Ca23  1  0.58339199  0.83020313  0.83237368  1
  Ca2+  Ca24  1  0.32914292  0.41708879  0.17727605  1
  Ca2+  Ca25  1  0.32387258  0.40789815  0.50022911  1
  Ca2+  Ca26  1  0.32744791  0.40610057  0.83456908  1
  Ca2+  Ca27  1  0.33565115  0.93007663  0.17145310  1
  Ca2+  Ca28  1  0.33777961  0.92820980  0.50550968  1
  Ca2+  Ca29  1  0.34046737  0.92873012  0.83670180  1
  Ca2+  Ca30  1  0.83060847  0.42152094  0.16723776  1
  Ca2+  Ca31  1  0.83593603  0.42044049  0.50222627  1
  Ca2+  Ca32  1  0.82885423  0.41516244  0.84451480  1
  Ca2+  Ca33  1  0.82663845  0.91993303  0.17215268  1
  Ca2+  Ca34  1  0.83424501  0.92515788  0.49868703  1
  Ca2+  Ca35  1  0.82627483  0.92007666  0.84171614  1
  Ca2+  Ca36  1  0.41039618  0.17609864  0.16562281  1
  Ca2+  Ca37  1  0.41317283  0.17357497  0.49233629  1
  Ca2+  Ca38  1  0.41088597  0.17384116  0.82979262  1
  Ca2+  Ca39  1  0.42937071  0.65703993  0.16364825  1
  Ca2+  Ca40  1  0.41506701  0.67246084  0.49022908  1
  Ca2+  Ca41  1  0.42568847  0.67279608  0.82850572  1
  Ca2+  Ca42  1  0.92102486  0.16872993  0.16340478  1
  Ca2+  Ca43  1  0.92769667  0.17044119  0.49129762  1
  Ca2+  Ca44  1  0.91991313  0.17986477  0.82418474  1
  Ca2+  Ca45  1  0.92582732  0.65179717  0.16342936  1
  Ca2+  Ca46  1  0.92175366  0.66599936  0.49017231  1
  Ca2+  Ca47  1  0.92035045  0.66029188  0.83698958  1
  Al0+  Al48  1  0.00347195  -0.00281380  -0.00167204  1
  Al0+  Al49  1  -0.00208454  0.00042801  0.33208142  1
  Al0+  Al50  1  0.00091970  -0.00162815  0.66667331  1
  Al0+  Al51  1  0.00110736  0.49747987  -0.00594184  1
  Al0+  Al52  1  -0.00113473  0.49987192  0.33862753  1
  Al0+  Al53  1  0.00079887  0.50103575  0.66756493  1
  Al0+  Al54  1  0.50032187  0.00068413  0.01098998  1
  Al0+  Al55  1  0.49941355  -0.00082131  0.33570050  1
  Al0+  Al56  1  0.50153450  -0.00179100  0.66702055  1
  Al0+  Al57  1  0.49950879  0.49985481  -0.00828543  1
  Al0+  Al58  1  0.49960671  0.50225819  0.33039723  1
  Al0+  Al59  1  0.50190633  0.50067614  0.66172058  1
  Al0+  Al60  1  0.25005660  0.25016138  0.00079931  1
  Al0+  Al61  1  0.24738905  0.24929184  0.33243268  1
  Al0+  Al62  1  0.24936364  0.25098095  0.66978911  1
  Al0+  Al63  1  0.25049683  0.75077848  -0.00564320  1
  Al0+  Al64  1  0.24836943  0.75071886  0.33098216  1
  Al0+  Al65  1  0.25193967  0.75055752  0.66328730  1
  Al0+  Al66  1  0.74851868  0.24967696  0.00071542  1
  Al0+  Al67  1  0.74857692  0.24987487  0.33501642  1
  Al0+  Al68  1  0.75064708  0.25292953  0.66555661  1
  Al0+  Al69  1  0.75279346  0.75027026  0.00318882  1
  Al0+  Al70  1  0.74836394  0.75105890  0.33606508  1
  Al0+  Al71  1  0.75225734  0.75068819  0.66748008  1
  Al0+  Al72  1  0.06939540  0.67840846  0.32057326  1
  Al0+  Al73  1  0.82265349  0.56858456  0.01496294  1
  Al0+  Al74  1  0.67519890  0.42735692  0.01557178  1
  Al0+  Al75  1  0.57192409  0.17792745  0.31810760  1
  Al0+  Al76  1  0.17870523  0.42849443  0.34815670  1
  Al0+  Al77  1  0.43032431  0.82144923  0.65326374  1
  Al0+  Al78  1  0.92837675  0.31809336  0.98805547  1
  Al0+  Al79  1  0.57307319  0.67988208  0.98569898  1
  Al0+  Al80  1  0.92701554  0.32375079  0.64949904  1
  Al0+  Al81  1  0.32311684  0.57291156  0.34650043  1
  Al0+  Al82  1  0.42922319  0.32033957  0.65230420  1
  Al0+  Al83  1  0.06968257  0.17896845  0.65221792  1
  Al0+  Al84  1  0.82083314  0.07253553  0.34684033  1
  Al0+  Al85  1  0.31843265  0.07115281  0.01550766  1
  Al0+  Al86  1  0.32059202  0.06951191  0.68072901  1
  Al0+  Al87  1  0.31963937  0.06942023  0.34856893  1
  Al0+  Al88  1  0.57062203  0.68043431  0.31946489  1
  Al0+  Al89  1  0.07211578  0.67769526  0.98535912  1
  Al0+  Al90  1  0.42778305  0.32001236  0.31780303  1
  Al0+  Al91  1  0.68021415  0.92905615  0.01499167  1
  Al0+  Al92  1  0.06940796  0.17875976  0.31837054  1
  Al0+  Al93  1  0.81933887  0.57036002  0.34798268  1
  Al0+  Al94  1  0.18072049  0.43100426  0.68307895  1
  Al0+  Al95  1  0.42833738  0.32053616  0.98471232  1
  Si0+  Si96  1  0.57265437  0.17613810  0.65254073  1
  Si0+  Si97  1  0.68181580  0.92895623  0.68177507  1
  Si0+  Si98  1  0.82034666  0.57230984  0.68253021  1
  Si0+  Si99  1  0.57426262  0.67946732  0.64973506  1
  Si0+  Si100  1  0.32414174  0.57469617  0.68369669  1
  Si0+  Si101  1  0.42979938  0.82409544  0.98464500  1
  Si0+  Si102  1  0.07255271  0.17614048  0.98341132  1
  Si0+  Si103  1  0.42625560  0.82254567  0.31522861  1
  Si0+  Si104  1  0.17637588  0.92787159  0.34896345  1
  Si0+  Si105  1  0.67812292  0.92817035  0.35325106  1
  Si0+  Si106  1  0.57092745  0.17617749  0.98493004  1
  Si0+  Si107  1  0.92710999  0.82197994  0.31666251  1
  Si0+  Si108  1  0.32082150  0.57349151  0.01094133  1
  Si0+  Si109  1  0.17795819  0.92440914  0.01765706  1
  Si0+  Si110  1  0.07134122  0.67975964  0.65098345  1
  Si0+  Si111  1  0.92771529  0.82067725  0.65179122  1
  Si0+  Si112  1  0.82442561  0.07233798  0.01433135  1
  Si0+  Si113  1  0.92937708  0.82329570  0.98276404  1
  Si0+  Si114  1  0.82240917  0.07206677  0.68147355  1
  Si0+  Si115  1  0.67624667  0.42799289  0.35116011  1
  Si0+  Si116  1  0.92648074  0.32298008  0.31677877  1
  Si0+  Si117  1  0.18025133  0.43053301  0.01397084  1
  Si0+  Si118  1  0.17670310  0.92421628  0.68403887  1
  Si0+  Si119  1  0.67813036  0.42945634  0.68123753  1
  O2-  O120  1  0.24349935  -0.00416739  0.06115644  1
  O2-  O121  1  0.24439072  -0.00469186  0.39555380  1
  O2-  O122  1  0.24449508  -0.00533945  0.72710497  1
  O2-  O123  1  0.25080192  0.50240006  0.05433254  1
  O2-  O124  1  0.25386956  0.49875067  0.39709004  1
  O2-  O125  1  0.25777051  0.50450486  0.72967959  1
  O2-  O126  1  0.75558738  0.00429366  0.05917917  1
  O2-  O127  1  0.74340323  0.00108136  0.39625171  1
  O2-  O128  1  0.74969147  0.00301031  0.72460838  1
  O2-  O129  1  0.74724154  0.50006105  0.06462611  1
  O2-  O130  1  0.74532226  0.49630782  0.39681528  1
  O2-  O131  1  0.75053899  0.49974860  0.72319448  1
  O2-  O132  1  -0.00632113  0.25275634  0.27260171  1
  O2-  O133  1  -0.00312300  0.24943821  0.60086121  1
  O2-  O134  1  -0.00161370  0.23916511  0.94068108  1
  O2-  O135  1  -0.00614019  0.75174069  0.27259983  1
  O2-  O136  1  0.00145750  0.75273134  0.61004605  1
  O2-  O137  1  -0.00278625  0.75311247  0.93886485  1
  O2-  O138  1  0.50050453  0.24902455  0.26666814  1
  O2-  O139  1  0.50348059  0.24397864  0.60876133  1
  O2-  O140  1  0.50506473  0.24648535  0.93903206  1
  O2-  O141  1  0.49248412  0.75128269  0.27176220  1
  O2-  O142  1  0.50118763  0.74338518  0.60637719  1
  O2-  O143  1  0.49863596  0.75555935  0.93961873  1
  O2-  O144  1  0.07283119  0.17720180  0.08897056  1
  O2-  O145  1  0.06902195  0.17811281  0.43114431  1
  O2-  O146  1  0.06661373  0.17993019  0.76629382  1
  O2-  O147  1  0.07245418  0.67783503  0.09808787  1
  O2-  O148  1  0.06729800  0.68110182  0.43415631  1
  O2-  O149  1  0.06993200  0.68020963  0.75639586  1
  O2-  O150  1  0.56962668  0.17512787  0.08987108  1
  O2-  O151  1  0.57120253  0.18160713  0.43232907  1
  O2-  O152  1  0.57373157  0.17448300  0.75835627  1
  O2-  O153  1  0.57166451  0.68025086  0.09844154  1
  O2-  O154  1  0.57303287  0.68558433  0.43289432  1
  O2-  O155  1  0.57673525  0.68194626  0.75542811  1
  O2-  O156  1  0.17693065  0.43090455  0.23391017  1
  O2-  O157  1  0.17967746  0.43246852  0.57062337  1
  O2-  O158  1  0.18073126  0.43054750  0.90860752  1
  O2-  O159  1  0.17765429  0.92775578  0.24333727  1
  O2-  O160  1  0.17568915  0.92032746  0.57896114  1
  O2-  O161  1  0.17868224  0.92188834  0.91198236  1
  O2-  O162  1  0.67695148  0.42866560  0.24583938  1
  O2-  O163  1  0.67708058  0.43050312  0.57643403  1
  O2-  O164  1  0.67646980  0.42974273  0.90105847  1
  O2-  O165  1  0.68133774  0.92580819  0.24773126  1
  O2-  O166  1  0.68468115  0.92539297  0.57735061  1
  O2-  O167  1  0.68069810  0.93071311  0.90080783  1
  O2-  O168  1  0.42460380  0.32057197  0.09701848  1
  O2-  O169  1  0.42797441  0.31757942  0.43161826  1
  O2-  O170  1  0.43094346  0.31921475  0.76560549  1
  O2-  O171  1  0.42892320  0.82275443  0.08981395  1
  O2-  O172  1  0.42869913  0.82282062  0.42129096  1
  O2-  O173  1  0.43484679  0.82215075  0.76658629  1
  O2-  O174  1  0.93183039  0.31884539  0.10102447  1
  O2-  O175  1  0.92706122  0.32202539  0.42239967  1
  O2-  O176  1  0.92548814  0.32179778  0.76340286  1
  O2-  O177  1  0.93110342  0.82867907  0.08758810  1
  O2-  O178  1  0.92885586  0.82170313  0.42302888  1
  O2-  O179  1  0.92396815  0.81933014  0.75668641  1
  O2-  O180  1  0.31784893  0.06850125  0.23542642  1
  O2-  O181  1  0.32079092  0.06790816  0.56804840  1
  O2-  O182  1  0.31813055  0.07035999  0.90196906  1
  O2-  O183  1  0.32093636  0.57230574  0.23221812  1
  O2-  O184  1  0.32140982  0.57808308  0.57875365  1
  O2-  O185  1  0.31829225  0.57483822  0.90556914  1
  O2-  O186  1  0.82212072  0.06770534  0.23378737  1
  O2-  O187  1  0.82195497  0.06958427  0.57667764  1
  O2-  O188  1  0.82265138  0.06972410  0.90805380  1
  O2-  O189  1  0.82034166  0.56869638  0.23550969  1
  O2-  O190  1  0.81839075  0.57610655  0.57754538  1
  O2-  O191  1  0.82198023  0.56691521  0.90052019  1
  O2-  O192  1  0.03882359  0.08190787  0.26413589  1
  O2-  O193  1  0.04563727  0.07802124  0.60180988  1
  O2-  O194  1  0.05601460  0.07963339  0.93905109  1
  O2-  O195  1  0.03746035  0.58161704  0.26825322  1
  O2-  O196  1  0.04049963  0.58948297  0.60402416  1
  O2-  O197  1  0.03995953  0.58319942  0.92811749  1
  O2-  O198  1  0.54715510  0.07680406  0.26965774  1
  O2-  O199  1  0.55115176  0.08197532  0.60643249  1
  O2-  O200  1  0.54278200  0.08217972  0.93962637  1
  O2-  O201  1  0.54518337  0.58358558  0.26418493  1
  O2-  O202  1  0.55489519  0.58480773  0.60433545  1
  O2-  O203  1  0.54091542  0.58576942  0.92767737  1
  O2-  O204  1  0.16410685  0.21111070  0.26289013  1
  O2-  O205  1  0.16767269  0.21038265  0.60183280  1
  O2-  O206  1  0.16312872  0.20963785  0.93665722  1
  O2-  O207  1  0.16497849  0.71009291  0.26484063  1
  O2-  O208  1  0.16340234  0.70579016  0.60429874  1
  O2-  O209  1  0.16713167  0.71060365  0.92782831  1
  O2-  O210  1  0.67224913  0.20195294  0.26697027  1
  O2-  O211  1  0.66613352  0.20348219  0.60713613  1
  O2-  O212  1  0.66611007  0.19625639  0.93909229  1
  O2-  O213  1  0.66648441  0.71556459  0.26618307  1
  O2-  O214  1  0.66639897  0.71134988  0.60363132  1
  O2-  O215  1  0.67049213  0.71133123  0.93297799  1
  O2-  O216  1  0.08855287  0.45826068  0.05989582  1
  O2-  O217  1  0.08234233  0.45953813  0.40349456  1
  O2-  O218  1  0.08386039  0.46486937  0.73680396  1
  O2-  O219  1  0.08283556  0.94561451  0.06253401  1
  O2-  O220  1  0.08173740  0.95080055  0.39399953  1
  O2-  O221  1  0.08187042  0.94654410  0.73064001  1
  O2-  O222  1  0.57552395  0.45696772  0.06438312  1
  O2-  O223  1  0.58346417  0.45629193  0.39710424  1
  O2-  O224  1  0.58642486  0.45852198  0.72911017  1
  O2-  O225  1  0.58533250  0.95745623  0.07227584  1
  O2-  O226  1  0.58323873  0.94898965  0.39809125  1
  O2-  O227  1  0.58985014  0.95425268  0.72988547  1
  O2-  O228  1  0.20771601  0.33890449  0.06119600  1
  O2-  O229  1  0.20667121  0.33044886  0.40134683  1
  O2-  O230  1  0.21011564  0.33481800  0.73853086  1
  O2-  O231  1  0.20644715  0.83146035  0.06387262  1
  O2-  O232  1  0.20112529  0.83411318  0.39533733  1
  O2-  O233  1  0.20480269  0.83126712  0.73132208  1
  O2-  O234  1  0.70193987  0.32817512  0.06727959  1
  O2-  O235  1  0.70103022  0.33463814  0.39798862  1
  O2-  O236  1  0.70396906  0.33719588  0.72948680  1
  O2-  O237  1  0.71314178  0.83407262  0.06988616  1
  O2-  O238  1  0.70896572  0.83764785  0.40273968  1
  O2-  O239  1  0.71387788  0.83864670  0.73113638  1
  O2-  O240  1  0.45430469  0.41978776  0.26711803  1
  O2-  O241  1  0.45951202  0.41740542  0.59871187  1
  O2-  O242  1  0.45604578  0.41631241  0.92698885  1
  O2-  O243  1  0.45553250  0.91504338  0.26976187  1
  O2-  O244  1  0.46580258  0.91562650  0.59734037  1
  O2-  O245  1  0.45839266  0.91802976  0.94047137  1
  O2-  O246  1  0.95464023  0.41596271  0.27207797  1
  O2-  O247  1  0.95646162  0.42285161  0.59947360  1
  O2-  O248  1  0.96355181  0.41129700  0.93008009  1
  O2-  O249  1  0.95253026  0.91451469  0.26940653  1
  O2-  O250  1  0.95200520  0.91336146  0.60473851  1
  O2-  O251  1  0.95621808  0.91551127  0.93213047  1
  O2-  O252  1  0.32982737  0.29037491  0.26536455  1
  O2-  O253  1  0.33236528  0.28935837  0.60133835  1
  O2-  O254  1  0.33232161  0.28538819  0.93073531  1
  O2-  O255  1  0.33140211  0.80269229  0.27024650  1
  O2-  O256  1  0.33285182  0.79549134  0.59859315  1
  O2-  O257  1  0.33685341  0.79968902  0.93624214  1
  O2-  O258  1  0.83214284  0.29892364  0.27253889  1
  O2-  O259  1  0.82735039  0.29872357  0.59755503  1
  O2-  O260  1  0.83011993  0.29181217  0.93339313  1
  O2-  O261  1  0.83248325  0.79833514  0.27341744  1
  O2-  O262  1  0.83785672  0.79009384  0.60170026  1
  O2-  O263  1  0.83609399  0.79775481  0.93606733  1
  O2-  O264  1  0.41376746  0.04115715  0.07141561  1
  O2-  O265  1  0.41639485  0.03858358  0.40274798  1
  O2-  O266  1  0.41788658  0.03684432  0.73409950  1
  O2-  O267  1  0.41353590  0.54586978  0.05493016  1
  O2-  O268  1  0.42356672  0.55224853  0.39858568  1
  O2-  O269  1  0.42058598  0.55181076  0.72581290  1
  O2-  O270  1  0.91924415  0.04636645  0.05779804  1
  O2-  O271  1  0.91544695  0.03672990  0.40285578  1
  O2-  O272  1  0.91288214  0.04143291  0.72996707  1
  O2-  O273  1  0.92096216  0.53508795  0.06512890  1
  O2-  O274  1  0.91455914  0.54041917  0.40498872  1
  O2-  O275  1  0.91341399  0.54770393  0.72836121  1
  O2-  O276  1  0.28471462  0.16687816  0.06930838  1
  O2-  O277  1  0.28690525  0.16568273  0.40055571  1
  O2-  O278  1  0.28851984  0.16509364  0.73612940  1
  O2-  O279  1  0.29481280  0.66582798  0.05754553  1
  O2-  O280  1  0.29185010  0.67150758  0.39870767  1
  O2-  O281  1  0.29659646  0.66795396  0.73084019  1
  O2-  O282  1  0.80091991  0.16567249  0.06015371  1
  O2-  O283  1  0.79269752  0.16898700  0.40338055  1
  O2-  O284  1  0.79656283  0.16530753  0.72734428  1
  O2-  O285  1  0.80198102  0.66938806  0.06500189  1
  O2-  O286  1  0.78888047  0.66768119  0.40248368  1
  O2-  O287  1  0.79173149  0.66388413  0.73121726  1
