# generated using pymatgen
data_Ca2Al2SiO7
_symmetry_space_group_name_H-M   'P 1'
_cell_length_a   15.46705637
_cell_length_b   15.46448093
_cell_length_c   15.29046480
_cell_angle_alpha   90.00498755
_cell_angle_beta   90.00715742
_cell_angle_gamma   89.98253037
_symmetry_Int_Tables_number   1
_chemical_formula_structural   Ca2Al2SiO7
_chemical_formula_sum   'Ca48 Al48 Si24 O168'
_cell_volume   3657.32603476
_cell_formula_units_Z   24
loop_
 _symmetry_equiv_pos_site_id
 _symmetry_equiv_pos_as_xyz
  1  'x, y, z'
loop_
 _atom_type_symbol
 _atom_type_oxidation_number
  Ca2+  2.0
  Al0+  0.0
  Si0+  0.0
  O2-  -2.0
loop_
 _atom_site_type_symbol
 _atom_site_label
 _atom_site_symmetry_multiplicity
 _atom_site_fract_x
 _atom_site_fract_y
 _atom_site_fract_z
 _atom_site_occupancy
  Ca2+  Ca0  1  0.17556505  0.07313337  0.16813919  1
  Ca2+  Ca1  1  0.16713207  0.07525839  0.50760438  1
  Ca2+  Ca2  1  0.17197994  0.07637276  0.84074396  1
  Ca2+  Ca3  1  0.17322109  0.58488081  0.17163910  1
  Ca2+  Ca4  1  0.18310197  0.58121282  0.50633746  1
  Ca2+  Ca5  1  0.17151575  0.58342685  0.83628048  1
  Ca2+  Ca6  1  0.66582022  0.08283570  0.16814471  1
  Ca2+  Ca7  1  0.65792135  0.08355276  0.50133107  1
  Ca2+  Ca8  1  0.67129012  0.09323206  0.84114135  1
  Ca2+  Ca9  1  0.65847938  0.57713244  0.17044027  1
  Ca2+  Ca10  1  0.65851662  0.57913682  0.50971399  1
  Ca2+  Ca11  1  0.65528073  0.57037070  0.83432227  1
  Ca2+  Ca12  1  0.08027785  0.33212246  0.16101268  1
  Ca2+  Ca13  1  0.07981506  0.33052092  0.50198981  1
  Ca2+  Ca14  1  0.07471881  0.32348177  0.82275764  1
  Ca2+  Ca15  1  0.08621862  0.83207388  0.15598537  1
  Ca2+  Ca16  1  0.08661771  0.83871111  0.49776119  1
  Ca2+  Ca17  1  0.08461270  0.83790253  0.83396937  1
  Ca2+  Ca18  1  0.57402294  0.32612831  0.16036448  1
  Ca2+  Ca19  1  0.57820487  0.32706884  0.49937785  1
  Ca2+  Ca20  1  0.57992842  0.32686804  0.82913986  1
  Ca2+  Ca21  1  0.58342504  0.82822518  0.16131695  1
  Ca2+  Ca22  1  0.57821412  0.82432493  0.49317852  1
  Ca2+  Ca23  1  0.56662321  0.83239062  0.82525301  1
  Ca2+  Ca24  1  0.34273189  0.42068275  0.17197216  1
  Ca2+  Ca25  1  0.35116673  0.42560736  0.50324702  1
  Ca2+  Ca26  1  0.34720419  0.42167833  0.83477559  1
  Ca2+  Ca27  1  0.33015450  0.91619654  0.16574797  1
  Ca2+  Ca28  1  0.32253300  0.91146392  0.50786407  1
  Ca2+  Ca29  1  0.32868610  0.91735222  0.84114105  1
  Ca2+  Ca30  1  0.82387282  0.41727619  0.16748446  1
  Ca2+  Ca31  1  0.82560025  0.41654400  0.51197773  1
  Ca2+  Ca32  1  0.81947801  0.40844040  0.83691391  1
  Ca2+  Ca33  1  0.83010177  0.91977009  0.16840970  1
  Ca2+  Ca34  1  0.82126797  0.91576289  0.50136635  1
  Ca2+  Ca35  1  0.83114687  0.92354829  0.84226463  1
  Ca2+  Ca36  1  0.42462411  0.17048189  0.15555059  1
  Ca2+  Ca37  1  0.42500176  0.17671837  0.49329949  1
  Ca2+  Ca38  1  0.42217719  0.17360688  0.82610999  1
  Ca2+  Ca39  1  0.41766738  0.67135236  0.16569016  1
  Ca2+  Ca40  1  0.42180154  0.66326475  0.50109944  1
  Ca2+  Ca41  1  0.41519363  0.67729316  0.82618502  1
  Ca2+  Ca42  1  0.91635465  0.16213829  0.16162794  1
  Ca2+  Ca43  1  0.92041634  0.16901368  0.50568332  1
  Ca2+  Ca44  1  0.92039657  0.16663224  0.82561532  1
  Ca2+  Ca45  1  0.92682652  0.67721199  0.15498555  1
  Ca2+  Ca46  1  0.91975425  0.66794434  0.49614629  1
  Ca2+  Ca47  1  0.92334189  0.67043199  0.83551060  1
  Al0+  Al48  1  -0.00103247  -0.00081323  0.00486459  1
  Al0+  Al49  1  -0.00144650  0.00178371  0.33786559  1
  Al0+  Al50  1  -0.00172430  -0.00116128  0.66557110  1
  Al0+  Al51  1  0.00021783  0.50091385  -0.00313930  1
  Al0+  Al52  1  0.00069118  0.50078227  0.33273411  1
  Al0+  Al53  1  0.00001936  0.50200816  0.66363992  1
  Al0+  Al54  1  0.50189985  -0.00059593  -0.00376540  1
  Al0+  Al55  1  0.49928027  -0.00005167  0.33451005  1
  Al0+  Al56  1  0.49660062  -0.00150331  0.65863317  1
  Al0+  Al57  1  0.50013348  0.49836990  0.00464141  1
  Al0+  Al58  1  0.50141613  0.50102040  0.33045887  1
  Al0+  Al59  1  0.50148586  0.50091074  0.67181871  1
  Al0+  Al60  1  0.24989936  0.25159375  0.00052442  1
  Al0+  Al61  1  0.24610366  0.25080675  0.32976803  1
  Al0+  Al62  1  0.24900269  0.25027601  0.65718952  1
  Al0+  Al63  1  0.25131334  0.74680170  -0.00334026  1
  Al0+  Al64  1  0.25055465  0.74778785  0.34201388  1
  Al0+  Al65  1  0.24787304  0.74880630  0.67218832  1
  Al0+  Al66  1  0.74915776  0.25089409  0.00954104  1
  Al0+  Al67  1  0.75118118  0.25084148  0.33133084  1
  Al0+  Al68  1  0.75039163  0.25041472  0.66272112  1
  Al0+  Al69  1  0.75350344  0.74782687  -0.00583886  1
  Al0+  Al70  1  0.75095782  0.75091957  0.33211893  1
  Al0+  Al71  1  0.75159487  0.75012185  0.66669959  1
  Al0+  Al72  1  0.43091308  0.82030885  0.98839983  1
  Al0+  Al73  1  0.18021978  0.93035283  0.34733174  1
  Al0+  Al74  1  0.32409699  0.07326815  0.01329176  1
  Al0+  Al75  1  0.18150813  0.92795876  0.01471734  1
  Al0+  Al76  1  0.07296178  0.67833555  0.98413741  1
  Al0+  Al77  1  0.57185980  0.17676083  0.31520340  1
  Al0+  Al78  1  0.42881062  0.32105337  0.31716831  1
  Al0+  Al79  1  0.68131184  0.42977421  0.68041324  1
  Al0+  Al80  1  0.57209465  0.68086720  0.31884397  1
  Al0+  Al81  1  0.42735989  0.32170471  0.98370240  1
  Al0+  Al82  1  0.67827031  0.92860667  0.34594688  1
  Al0+  Al83  1  0.57258193  0.17922762  0.98519448  1
  Al0+  Al84  1  0.67919033  0.43106676  0.01705804  1
  Al0+  Al85  1  0.57092197  0.68109250  0.65417099  1
  Al0+  Al86  1  0.32037551  0.56734090  0.68312969  1
  Al0+  Al87  1  0.07107521  0.17634132  0.65208872  1
  Al0+  Al88  1  0.42446574  0.82035784  0.64976561  1
  Al0+  Al89  1  0.82030172  0.07058630  0.01301922  1
  Al0+  Al90  1  0.92950648  0.82359504  0.98406442  1
  Al0+  Al91  1  0.57219443  0.17752976  0.65136177  1
  Al0+  Al92  1  0.32129404  0.56745444  0.34754489  1
  Al0+  Al93  1  0.92849213  0.32203379  0.65315522  1
  Al0+  Al94  1  0.42902638  0.32258532  0.65187540  1
  Al0+  Al95  1  0.17820006  0.93062909  0.68285107  1
  Si0+  Si96  1  0.67658579  0.92692215  0.68053692  1
  Si0+  Si97  1  0.07057278  0.17888831  0.98802718  1
  Si0+  Si98  1  0.82544926  0.57512308  0.68519570  1
  Si0+  Si99  1  0.06828260  0.17765907  0.31598550  1
  Si0+  Si100  1  0.82157057  0.07357134  0.35333818  1
  Si0+  Si101  1  0.82343613  0.57147992  0.34754968  1
  Si0+  Si102  1  0.42534495  0.82090817  0.31796629  1
  Si0+  Si103  1  0.81747625  0.06856720  0.67976050  1
  Si0+  Si104  1  0.17548505  0.42873222  0.01385779  1
  Si0+  Si105  1  0.82473345  0.57200379  0.01759061  1
  Si0+  Si106  1  0.07169030  0.68065182  0.32064594  1
  Si0+  Si107  1  0.57341707  0.67631503  0.98449316  1
  Si0+  Si108  1  0.32014143  0.56901615  0.01621415  1
  Si0+  Si109  1  0.17486903  0.42673025  0.68288257  1
  Si0+  Si110  1  0.92888767  0.32087226  0.98779099  1
  Si0+  Si111  1  0.32129447  0.07492534  0.35021003  1
  Si0+  Si112  1  0.32229504  0.07415289  0.68074887  1
  Si0+  Si113  1  0.92964736  0.82196312  0.31932458  1
  Si0+  Si114  1  0.68190095  0.43105278  0.34953770  1
  Si0+  Si115  1  0.17405787  0.42698918  0.35066152  1
  Si0+  Si116  1  0.07058795  0.67917954  0.64942089  1
  Si0+  Si117  1  0.92903882  0.82145394  0.64938626  1
  Si0+  Si118  1  0.67810367  0.92447621  0.01310229  1
  Si0+  Si119  1  0.92985117  0.32307467  0.31659123  1
  O2-  O120  1  0.25450545  -0.00124401  0.06465343  1
  O2-  O121  1  0.25539320  0.00355990  0.39514361  1
  O2-  O122  1  0.25379324  0.00549903  0.72617138  1
  O2-  O123  1  0.24918019  0.49667158  0.05672978  1
  O2-  O124  1  0.24952829  0.48848152  0.39318415  1
  O2-  O125  1  0.24771918  0.48931088  0.72907649  1
  O2-  O126  1  0.74615992  -0.00583384  0.05747709  1
  O2-  O127  1  0.74833162  0.00808556  0.39466941  1
  O2-  O128  1  0.74223864  0.00291922  0.72267534  1
  O2-  O129  1  0.75215691  0.50880743  0.06362555  1
  O2-  O130  1  0.75279200  0.50222400  0.39205636  1
  O2-  O131  1  0.75694529  0.50532594  0.72704853  1
  O2-  O132  1  -0.00046364  0.25131201  0.27351326  1
  O2-  O133  1  0.00277666  0.25285648  0.60242354  1
  O2-  O134  1  -0.00131290  0.24916543  0.94591216  1
  O2-  O135  1  0.00364816  0.75384453  0.27780260  1
  O2-  O136  1  -0.00041386  0.75019862  0.60664160  1
  O2-  O137  1  0.00358397  0.75335693  0.93451036  1
  O2-  O138  1  0.49575698  0.24501140  0.26656102  1
  O2-  O139  1  0.49789160  0.24754491  0.60255610  1
  O2-  O140  1  0.49638266  0.24641842  0.93547048  1
  O2-  O141  1  0.49943786  0.75805416  0.27324208  1
  O2-  O142  1  0.50064760  0.75229542  0.60063609  1
  O2-  O143  1  0.50952912  0.74937524  0.94196161  1
  O2-  O144  1  0.06893748  0.18151305  0.09360341  1
  O2-  O145  1  0.06592842  0.17696921  0.42066985  1
  O2-  O146  1  0.06652133  0.17519993  0.76608177  1
  O2-  O147  1  0.07135904  0.67702241  0.09861913  1
  O2-  O148  1  0.06842571  0.67933304  0.42569076  1
  O2-  O149  1  0.06899583  0.67737727  0.75400647  1
  O2-  O150  1  0.57365223  0.18168385  0.09859407  1
  O2-  O151  1  0.57301257  0.18092200  0.42858069  1
  O2-  O152  1  0.57576773  0.17976102  0.76449779  1
  O2-  O153  1  0.57167170  0.67693231  0.09057268  1
  O2-  O154  1  0.57338114  0.67938650  0.43134965  1
  O2-  O155  1  0.56972257  0.68319753  0.76778780  1
  O2-  O156  1  0.16595180  0.43181536  0.24520673  1
  O2-  O157  1  0.16919296  0.43324571  0.57755848  1
  O2-  O158  1  0.16954980  0.43001524  0.90947547  1
  O2-  O159  1  0.17905232  0.92975750  0.23468291  1
  O2-  O160  1  0.17730684  0.93166868  0.56920843  1
  O2-  O161  1  0.18086289  0.93154306  0.90143836  1
  O2-  O162  1  0.68472932  0.43269825  0.24444211  1
  O2-  O163  1  0.68348161  0.43154472  0.56679976  1
  O2-  O164  1  0.68116690  0.43061572  0.90413560  1
  O2-  O165  1  0.68506897  0.92409459  0.23314095  1
  O2-  O166  1  0.68212450  0.92405370  0.57540251  1
  O2-  O167  1  0.68008828  0.92390288  0.90750504  1
  O2-  O168  1  0.42930803  0.32378266  0.09724325  1
  O2-  O169  1  0.43409399  0.32241509  0.43032164  1
  O2-  O170  1  0.43112817  0.32121955  0.76515583  1
  O2-  O171  1  0.43020669  0.81658894  0.10194257  1
  O2-  O172  1  0.42365575  0.81669497  0.42316085  1
  O2-  O173  1  0.42540053  0.81999838  0.76352507  1
  O2-  O174  1  0.93229368  0.32237509  0.09345887  1
  O2-  O175  1  0.93074371  0.32527452  0.42118663  1
  O2-  O176  1  0.92782431  0.31793670  0.76706966  1
  O2-  O177  1  0.92940320  0.82137308  0.09829146  1
  O2-  O178  1  0.92871177  0.81926644  0.42470706  1
  O2-  O179  1  0.92856829  0.82289204  0.75385830  1
  O2-  O180  1  0.31798183  0.07498916  0.24468588  1
  O2-  O181  1  0.31988485  0.07275717  0.57500748  1
  O2-  O182  1  0.31939893  0.07535530  0.89990411  1
  O2-  O183  1  0.31684169  0.57054966  0.23418729  1
  O2-  O184  1  0.31946949  0.56713270  0.56983885  1
  O2-  O185  1  0.32035138  0.56878576  0.91141286  1
  O2-  O186  1  0.82641702  0.07121423  0.24794155  1
  O2-  O187  1  0.81968654  0.06551090  0.57464165  1
  O2-  O188  1  0.82123293  0.07247553  0.89960368  1
  O2-  O189  1  0.82668714  0.56861681  0.24281943  1
  O2-  O190  1  0.82681178  0.57586547  0.57896607  1
  O2-  O191  1  0.82810530  0.56871517  0.91253461  1
  O2-  O192  1  0.03557031  0.08715884  0.26876319  1
  O2-  O193  1  0.03363429  0.08149554  0.59643591  1
  O2-  O194  1  0.04222817  0.08733135  0.94238597  1
  O2-  O195  1  0.04223192  0.58942387  0.27238820  1
  O2-  O196  1  0.04285996  0.58858454  0.59933997  1
  O2-  O197  1  0.03965847  0.58174352  0.92930160  1
  O2-  O198  1  0.54921369  0.07503258  0.26600344  1
  O2-  O199  1  0.54677124  0.07871028  0.59786473  1
  O2-  O200  1  0.55500917  0.07803631  0.93467349  1
  O2-  O201  1  0.53879196  0.58597993  0.26373743  1
  O2-  O202  1  0.54110403  0.58285250  0.60291814  1
  O2-  O203  1  0.54129905  0.58440668  0.94048947  1
  O2-  O204  1  0.16001823  0.20268988  0.26756881  1
  O2-  O205  1  0.16799956  0.20049675  0.59495371  1
  O2-  O206  1  0.16089290  0.20757691  0.93973332  1
  O2-  O207  1  0.16428875  0.70661040  0.27485206  1
  O2-  O208  1  0.16172152  0.70830187  0.60289915  1
  O2-  O209  1  0.17100122  0.70194158  0.93038623  1
  O2-  O210  1  0.67189318  0.20706063  0.26558085  1
  O2-  O211  1  0.66958358  0.20692885  0.59692096  1
  O2-  O212  1  0.67127183  0.21426590  0.93603009  1
  O2-  O213  1  0.67000926  0.70855737  0.26454738  1
  O2-  O214  1  0.67154487  0.70519353  0.60234156  1
  O2-  O215  1  0.66964441  0.69163735  0.94074313  1
  O2-  O216  1  0.08513302  0.45944444  0.06449899  1
  O2-  O217  1  0.08349871  0.45996230  0.39990031  1
  O2-  O218  1  0.08271853  0.45748869  0.73048144  1
  O2-  O219  1  0.08310567  0.95655320  0.06773502  1
  O2-  O220  1  0.08294856  0.96190937  0.40109143  1
  O2-  O221  1  0.07991109  0.96108604  0.73409939  1
  O2-  O222  1  0.58365364  0.46250586  0.07344355  1
  O2-  O223  1  0.59033587  0.46045726  0.39457111  1
  O2-  O224  1  0.58710599  0.46161325  0.73731918  1
  O2-  O225  1  0.58487923  0.94751720  0.06019868  1
  O2-  O226  1  0.57963762  0.95156544  0.39991348  1
  O2-  O227  1  0.58132963  0.94846876  0.72258241  1
  O2-  O228  1  0.19863806  0.33652034  0.06271812  1
  O2-  O229  1  0.18960401  0.32974008  0.39219871  1
  O2-  O230  1  0.19251901  0.32893672  0.72247497  1
  O2-  O231  1  0.20892180  0.82751740  0.06483903  1
  O2-  O232  1  0.20780035  0.83343480  0.40285522  1
  O2-  O233  1  0.20510832  0.83293713  0.73543484  1
  O2-  O234  1  0.71480247  0.33818565  0.07498216  1
  O2-  O235  1  0.71184882  0.33903178  0.39500024  1
  O2-  O236  1  0.71562275  0.33335599  0.73342913  1
  O2-  O237  1  0.70568981  0.83032660  0.05853612  1
  O2-  O238  1  0.71652254  0.83418763  0.40186557  1
  O2-  O239  1  0.71069144  0.83800770  0.72953879  1
  O2-  O240  1  0.46247342  0.41798854  0.26426304  1
  O2-  O241  1  0.46441760  0.41960604  0.60141542  1
  O2-  O242  1  0.46106578  0.42005440  0.93411051  1
  O2-  O243  1  0.44359897  0.91720433  0.27579325  1
  O2-  O244  1  0.44734182  0.91887343  0.59568704  1
  O2-  O245  1  0.45724261  0.91648050  0.93188016  1
  O2-  O246  1  0.95883073  0.41459787  0.26812797  1
  O2-  O247  1  0.95350581  0.42157287  0.59973509  1
  O2-  O248  1  0.95616649  0.41158392  0.93939999  1
  O2-  O249  1  0.95409159  0.91585400  0.27525646  1
  O2-  O250  1  0.95697804  0.91176505  0.59964506  1
  O2-  O251  1  0.95600239  0.92285417  0.93213635  1
  O2-  O252  1  0.32484524  0.30372796  0.26980782  1
  O2-  O253  1  0.32870481  0.30381101  0.59831628  1
  O2-  O254  1  0.32554580  0.30207671  0.93388216  1
  O2-  O255  1  0.33379531  0.78703177  0.27199696  1
  O2-  O256  1  0.32648472  0.78683588  0.59956333  1
  O2-  O257  1  0.33700209  0.78496167  0.93317735  1
  O2-  O258  1  0.83835050  0.29585272  0.26876970  1
  O2-  O259  1  0.83412488  0.28944625  0.59560587  1
  O2-  O260  1  0.83667467  0.29250184  0.94396867  1
  O2-  O261  1  0.84048348  0.79106238  0.26980994  1
  O2-  O262  1  0.83786018  0.79250569  0.60088965  1
  O2-  O263  1  0.83276837  0.79319119  0.92782070  1
  O2-  O264  1  0.42328839  0.04494111  0.06502336  1
  O2-  O265  1  0.41643807  0.05412477  0.39408660  1
  O2-  O266  1  0.41671554  0.04877051  0.72515743  1
  O2-  O267  1  0.41130288  0.54213411  0.06548506  1
  O2-  O268  1  0.41934262  0.53897011  0.40028293  1
  O2-  O269  1  0.41672361  0.54050078  0.73886960  1
  O2-  O270  1  0.91533652  0.04014826  0.07116826  1
  O2-  O271  1  0.91263078  0.04322972  0.40228272  1
  O2-  O272  1  0.90749277  0.03594367  0.72779238  1
  O2-  O273  1  0.91669053  0.54168092  0.06586481  1
  O2-  O274  1  0.91510715  0.54331712  0.39656118  1
  O2-  O275  1  0.91971538  0.55041750  0.73008544  1
  O2-  O276  1  0.29158379  0.17064277  0.06790810  1
  O2-  O277  1  0.29067636  0.16785340  0.39546846  1
  O2-  O278  1  0.29694500  0.16914719  0.72419717  1
  O2-  O279  1  0.29041988  0.65954253  0.06469333  1
  O2-  O280  1  0.28654667  0.66081263  0.40513436  1
  O2-  O281  1  0.28404051  0.66207798  0.73723774  1
  O2-  O282  1  0.79177905  0.16539242  0.07209908  1
  O2-  O283  1  0.80104553  0.16968375  0.39661801  1
  O2-  O284  1  0.79578615  0.16241764  0.72535100  1
  O2-  O285  1  0.80459432  0.66827170  0.06100039  1
  O2-  O286  1  0.79891538  0.66440567  0.39380048  1
  O2-  O287  1  0.80106147  0.66901162  0.73133270  1
