# generated using pymatgen
data_Ca2Al2SiO7
_symmetry_space_group_name_H-M   'P 1'
_cell_length_a   15.45752204
_cell_length_b   15.45665698
_cell_length_c   15.28350219
_cell_angle_alpha   89.99933871
_cell_angle_beta   90.00177791
_cell_angle_gamma   89.99770289
_symmetry_Int_Tables_number   1
_chemical_formula_structural   Ca2Al2SiO7
_chemical_formula_sum   'Ca48 Al48 Si24 O168'
_cell_volume   3651.55903346
_cell_formula_units_Z   24
loop_
 _symmetry_equiv_pos_site_id
 _symmetry_equiv_pos_as_xyz
  1  'x, y, z'
loop_
 _atom_type_symbol
 _atom_type_oxidation_number
  Ca2+  2.0
  Al0+  0.0
  Si0+  0.0
  O2-  -2.0
loop_
 _atom_site_type_symbol
 _atom_site_label
 _atom_site_symmetry_multiplicity
 _atom_site_fract_x
 _atom_site_fract_y
 _atom_site_fract_z
 _atom_site_occupancy
  Ca2+  Ca0  1  0.16782718  0.07592919  0.16613446  1
  Ca2+  Ca1  1  0.16899779  0.07385305  0.50695782  1
  Ca2+  Ca2  1  0.16907973  0.07076840  0.84261903  1
  Ca2+  Ca3  1  0.16330880  0.58043722  0.17618269  1
  Ca2+  Ca4  1  0.16417045  0.57937764  0.50201726  1
  Ca2+  Ca5  1  0.15688266  0.58231119  0.83324421  1
  Ca2+  Ca6  1  0.67729931  0.08136069  0.17227078  1
  Ca2+  Ca7  1  0.67281137  0.07474414  0.50543411  1
  Ca2+  Ca8  1  0.67084158  0.08397614  0.83587966  1
  Ca2+  Ca9  1  0.67283051  0.58728901  0.17312231  1
  Ca2+  Ca10  1  0.67704027  0.58576963  0.50004458  1
  Ca2+  Ca11  1  0.66718718  0.58094906  0.84055866  1
  Ca2+  Ca12  1  0.07870797  0.33400497  0.16266887  1
  Ca2+  Ca13  1  0.08499590  0.33573057  0.49885590  1
  Ca2+  Ca14  1  0.07229043  0.33357365  0.82647154  1
  Ca2+  Ca15  1  0.07490491  0.82480224  0.15957062  1
  Ca2+  Ca16  1  0.08208401  0.82446292  0.49117920  1
  Ca2+  Ca17  1  0.08800467  0.82988585  0.83014921  1
  Ca2+  Ca18  1  0.57628380  0.32935171  0.16068170  1
  Ca2+  Ca19  1  0.57812540  0.32513687  0.49505340  1
  Ca2+  Ca20  1  0.58295528  0.31692712  0.82775345  1
  Ca2+  Ca21  1  0.58190708  0.83245334  0.16588678  1
  Ca2+  Ca22  1  0.57962925  0.84199929  0.49254102  1
  Ca2+  Ca23  1  0.58542107  0.83305064  0.83080540  1
  Ca2+  Ca24  1  0.32807460  0.42439815  0.18070639  1
  Ca2+  Ca25  1  0.32428191  0.41788537  0.49908732  1
  Ca2+  Ca26  1  0.32493242  0.41618740  0.83559269  1
  Ca2+  Ca27  1  0.33177450  0.91632126  0.16698297  1
  Ca2+  Ca28  1  0.32840809  0.91026088  0.50527213  1
  Ca2+  Ca29  1  0.32148982  0.91881119  0.83890033  1
  Ca2+  Ca30  1  0.83457674  0.42278498  0.17141274  1
  Ca2+  Ca31  1  0.84262302  0.42455241  0.50261332  1
  Ca2+  Ca32  1  0.83800018  0.41406888  0.83712379  1
  Ca2+  Ca33  1  0.83428229  0.92073478  0.17570279  1
  Ca2+  Ca34  1  0.82798750  0.92279198  0.50418476  1
  Ca2+  Ca35  1  0.83467498  0.92911490  0.84043423  1
  Ca2+  Ca36  1  0.42011776  0.16951924  0.15986187  1
  Ca2+  Ca37  1  0.42370114  0.16805539  0.49296597  1
  Ca2+  Ca38  1  0.42757446  0.15275821  0.83209785  1
  Ca2+  Ca39  1  0.41808389  0.66998574  0.16584590  1
  Ca2+  Ca40  1  0.41721963  0.67164493  0.49037766  1
  Ca2+  Ca41  1  0.42380005  0.66573752  0.83315485  1
  Ca2+  Ca42  1  0.91154169  0.16917608  0.16041818  1
  Ca2+  Ca43  1  0.90950727  0.16817558  0.49999304  1
  Ca2+  Ca44  1  0.90381051  0.17596591  0.82988513  1
  Ca2+  Ca45  1  0.92110185  0.67541946  0.16306107  1
  Ca2+  Ca46  1  0.92640662  0.67149549  0.49045148  1
  Ca2+  Ca47  1  0.92781694  0.67809119  0.83135828  1
  Al0+  Al48  1  -0.00021180  0.00118273  0.00655840  1
  Al0+  Al49  1  0.00087047  0.00164697  0.33495552  1
  Al0+  Al50  1  -0.00066168  0.00197366  0.67535971  1
  Al0+  Al51  1  -0.00152489  0.50097845  -0.00631181  1
  Al0+  Al52  1  -0.00058241  0.49782073  0.33722176  1
  Al0+  Al53  1  0.00151022  0.50092769  0.66355387  1
  Al0+  Al54  1  0.49966160  -0.00049665  -0.00015136  1
  Al0+  Al55  1  0.50097928  -0.00007091  0.32949016  1
  Al0+  Al56  1  0.50184531  -0.00119135  0.66456295  1
  Al0+  Al57  1  0.49837391  0.49889837  -0.00466798  1
  Al0+  Al58  1  0.49861752  0.49910292  0.33419518  1
  Al0+  Al59  1  0.50050825  0.50073653  0.66565193  1
  Al0+  Al60  1  0.24844448  0.25101226  0.00340187  1
  Al0+  Al61  1  0.25010069  0.24962964  0.33248064  1
  Al0+  Al62  1  0.24953113  0.25258242  0.67254012  1
  Al0+  Al63  1  0.25078923  0.74775063  -0.00009436  1
  Al0+  Al64  1  0.25205839  0.74855578  0.32772794  1
  Al0+  Al65  1  0.25242886  0.74855593  0.66815167  1
  Al0+  Al66  1  0.74674491  0.25032318  -0.00200666  1
  Al0+  Al67  1  0.75029620  0.24907036  0.33608244  1
  Al0+  Al68  1  0.74797596  0.25203442  0.65776015  1
  Al0+  Al69  1  0.75103644  0.74958540  -0.00861892  1
  Al0+  Al70  1  0.74996574  0.75029688  0.33945876  1
  Al0+  Al71  1  0.75089879  0.74947372  0.67050111  1
  Al0+  Al72  1  0.17833360  0.92593712  0.01830696  1
  Al0+  Al73  1  0.17940314  0.92773537  0.67849926  1
  Al0+  Al74  1  0.56888369  0.17817082  0.64965590  1
  Al0+  Al75  1  0.17881193  0.43049446  0.68300491  1
  Al0+  Al76  1  0.42830340  0.32039418  0.32007399  1
  Al0+  Al77  1  0.92937997  0.31940097  0.98813654  1
  Al0+  Al78  1  0.32165108  0.57297072  0.34839308  1
  Al0+  Al79  1  0.07142416  0.68220531  0.65044434  1
  Al0+  Al80  1  0.42898225  0.82211934  0.31906364  1
  Al0+  Al81  1  0.67769894  0.92789951  0.68447426  1
  Al0+  Al82  1  0.92894711  0.82503048  0.98416980  1
  Al0+  Al83  1  0.67852110  0.92921271  0.34705922  1
  Al0+  Al84  1  0.82051691  0.57028334  0.34594585  1
  Al0+  Al85  1  0.81844203  0.07268026  0.01485644  1
  Al0+  Al86  1  0.92788995  0.82278552  0.32075460  1
  Al0+  Al87  1  0.17821599  0.42747187  0.34852664  1
  Al0+  Al88  1  0.57119553  0.67839113  0.98723326  1
  Al0+  Al89  1  0.32234122  0.07093761  0.01600502  1
  Al0+  Al90  1  0.07021687  0.67715840  0.31828629  1
  Al0+  Al91  1  0.81889512  0.07347398  0.68363267  1
  Al0+  Al92  1  0.07215668  0.67946214  0.98400661  1
  Al0+  Al93  1  0.56838127  0.17921389  0.98718988  1
  Al0+  Al94  1  0.82390591  0.07252383  0.35035147  1
  Al0+  Al95  1  0.93019797  0.31987145  0.65047251  1
  Si0+  Si96  1  0.67678782  0.42696334  0.34972581  1
  Si0+  Si97  1  0.32391321  0.57187845  0.68563573  1
  Si0+  Si98  1  0.32380155  0.56857691  0.01504865  1
  Si0+  Si99  1  0.07443851  0.17710903  0.65202554  1
  Si0+  Si100  1  0.57212617  0.17898938  0.31456545  1
  Si0+  Si101  1  0.32235541  0.07252081  0.68040830  1
  Si0+  Si102  1  0.43215746  0.81821461  0.65314825  1
  Si0+  Si103  1  0.42852233  0.82139581  0.98168785  1
  Si0+  Si104  1  0.81995841  0.57025221  0.01258925  1
  Si0+  Si105  1  0.07355640  0.17852796  0.98430871  1
  Si0+  Si106  1  0.67885836  0.92514001  0.01663061  1
  Si0+  Si107  1  0.18094081  0.92895164  0.34692341  1
  Si0+  Si108  1  0.92863666  0.31979797  0.31885082  1
  Si0+  Si109  1  0.82236783  0.57004963  0.68368127  1
  Si0+  Si110  1  0.67800988  0.43122386  0.68108340  1
  Si0+  Si111  1  0.57372272  0.67646807  0.65037948  1
  Si0+  Si112  1  0.32139296  0.07110274  0.34735101  1
  Si0+  Si113  1  0.67747783  0.42923996  0.01335886  1
  Si0+  Si114  1  0.07258271  0.17802240  0.31873677  1
  Si0+  Si115  1  0.17654500  0.43169986  0.01442617  1
  Si0+  Si116  1  0.42646860  0.32404498  0.64986610  1
  Si0+  Si117  1  0.42531414  0.32223219  0.98189155  1
  Si0+  Si118  1  0.92761532  0.82482365  0.65051733  1
  Si0+  Si119  1  0.57266339  0.67718153  0.31942870  1
  O2-  O120  1  0.25097488  -0.00099821  0.06709731  1
  O2-  O121  1  0.25367803  -0.00210936  0.39091617  1
  O2-  O122  1  0.24989256  0.00771515  0.72356507  1
  O2-  O123  1  0.24951229  0.50059469  0.05628176  1
  O2-  O124  1  0.24830586  0.50215933  0.39774967  1
  O2-  O125  1  0.25482762  0.50387918  0.73014921  1
  O2-  O126  1  0.74805914  -0.00691090  0.06054857  1
  O2-  O127  1  0.75248267  -0.00124924  0.39737581  1
  O2-  O128  1  0.75028982  -0.00132484  0.73467024  1
  O2-  O129  1  0.74632068  0.50196873  0.05586080  1
  O2-  O130  1  0.74580096  0.49522857  0.39400755  1
  O2-  O131  1  0.74918432  0.50065564  0.72578933  1
  O2-  O132  1  -0.00118443  0.24769845  0.27764141  1
  O2-  O133  1  0.00448442  0.24345444  0.60560843  1
  O2-  O134  1  0.00183371  0.24362800  0.93974467  1
  O2-  O135  1  -0.00152693  0.74988113  0.26979325  1
  O2-  O136  1  -0.00097250  0.75961591  0.60520939  1
  O2-  O137  1  0.00608121  0.75750822  0.93481597  1
  O2-  O138  1  0.50433173  0.24884450  0.27097183  1
  O2-  O139  1  0.49077707  0.25143743  0.60563812  1
  O2-  O140  1  0.48924453  0.24922892  0.93819248  1
  O2-  O141  1  0.50421091  0.74606521  0.27532379  1
  O2-  O142  1  0.50590418  0.75050382  0.60976821  1
  O2-  O143  1  0.49893249  0.75394438  0.93770151  1
  O2-  O144  1  0.07574149  0.18309249  0.09019970  1
  O2-  O145  1  0.07624973  0.17708060  0.42375914  1
  O2-  O146  1  0.07720455  0.18007965  0.75729558  1
  O2-  O147  1  0.06768805  0.67410056  0.09700756  1
  O2-  O148  1  0.07012965  0.67927788  0.43215203  1
  O2-  O149  1  0.06958883  0.68271538  0.76346679  1
  O2-  O150  1  0.56888444  0.18541123  0.09996483  1
  O2-  O151  1  0.56972513  0.17928308  0.42028916  1
  O2-  O152  1  0.56767148  0.17953316  0.76302634  1
  O2-  O153  1  0.57002803  0.67679955  0.10007167  1
  O2-  O154  1  0.57175042  0.67619035  0.42522658  1
  O2-  O155  1  0.57063832  0.67248203  0.75553361  1
  O2-  O156  1  0.17845333  0.42690834  0.23431250  1
  O2-  O157  1  0.18072013  0.43024418  0.57052931  1
  O2-  O158  1  0.17724481  0.43254654  0.90923226  1
  O2-  O159  1  0.18133595  0.93211573  0.24239335  1
  O2-  O160  1  0.18335845  0.92682743  0.56484692  1
  O2-  O161  1  0.18204661  0.92690535  0.90421684  1
  O2-  O162  1  0.67790633  0.42655927  0.24371774  1
  O2-  O163  1  0.67584436  0.43505390  0.57616614  1
  O2-  O164  1  0.67797250  0.42973789  0.90801016  1
  O2-  O165  1  0.67668130  0.93115234  0.23333611  1
  O2-  O166  1  0.67554707  0.92898343  0.57127617  1
  O2-  O167  1  0.67868071  0.92635358  0.91108530  1
  O2-  O168  1  0.42842449  0.32594718  0.08732496  1
  O2-  O169  1  0.42915090  0.31592644  0.43335879  1
  O2-  O170  1  0.42978979  0.32709364  0.75545737  1
  O2-  O171  1  0.42905998  0.82011675  0.08716163  1
  O2-  O172  1  0.42892718  0.82226298  0.43271107  1
  O2-  O173  1  0.43189583  0.81598366  0.75818091  1
  O2-  O174  1  0.93110875  0.32228034  0.10146472  1
  O2-  O175  1  0.92904501  0.32008525  0.42373607  1
  O2-  O176  1  0.92980793  0.32052761  0.76379756  1
  O2-  O177  1  0.92534072  0.81967553  0.09761519  1
  O2-  O178  1  0.93161390  0.82241559  0.43469414  1
  O2-  O179  1  0.92741584  0.82150675  0.75599716  1
  O2-  O180  1  0.31917086  0.07232554  0.24268523  1
  O2-  O181  1  0.32219390  0.07131649  0.57429593  1
  O2-  O182  1  0.32127553  0.06814788  0.90187508  1
  O2-  O183  1  0.32333456  0.57019173  0.23439456  1
  O2-  O184  1  0.32683751  0.57247166  0.58066665  1
  O2-  O185  1  0.32826525  0.56522326  0.90989395  1
  O2-  O186  1  0.82075709  0.07648245  0.23675517  1
  O2-  O187  1  0.81757813  0.07203747  0.57031722  1
  O2-  O188  1  0.81346618  0.07696995  0.90221135  1
  O2-  O189  1  0.81878630  0.56806536  0.23229671  1
  O2-  O190  1  0.82050809  0.56947230  0.57843055  1
  O2-  O191  1  0.81880884  0.56678962  0.90730195  1
  O2-  O192  1  0.04632489  0.08679932  0.26978125  1
  O2-  O193  1  0.05131355  0.08182807  0.60770137  1
  O2-  O194  1  0.05283872  0.08274164  0.94280986  1
  O2-  O195  1  0.04069731  0.57748483  0.26840619  1
  O2-  O196  1  0.03770213  0.58625674  0.59796521  1
  O2-  O197  1  0.03607325  0.58440636  0.92799384  1
  O2-  O198  1  0.54510699  0.08677359  0.26786378  1
  O2-  O199  1  0.53832658  0.08160209  0.59531376  1
  O2-  O200  1  0.54130332  0.08148167  0.93270077  1
  O2-  O201  1  0.54853058  0.58334921  0.27290320  1
  O2-  O202  1  0.54329814  0.58614356  0.60134821  1
  O2-  O203  1  0.53771269  0.58280866  0.93018866  1
  O2-  O204  1  0.16248807  0.20788722  0.26878213  1
  O2-  O205  1  0.16830836  0.20451139  0.60562148  1
  O2-  O206  1  0.16611388  0.20665503  0.93673010  1
  O2-  O207  1  0.16896680  0.70334343  0.26607742  1
  O2-  O208  1  0.17114292  0.70862624  0.60016259  1
  O2-  O209  1  0.17364433  0.69947564  0.93282281  1
  O2-  O210  1  0.66640013  0.20590805  0.27051884  1
  O2-  O211  1  0.66156684  0.21489094  0.59298312  1
  O2-  O212  1  0.66108161  0.21689369  0.93049413  1
  O2-  O213  1  0.66612704  0.70269779  0.27364337  1
  O2-  O214  1  0.66783352  0.69981789  0.60582434  1
  O2-  O215  1  0.66677487  0.70428424  0.92917948  1
  O2-  O216  1  0.08488539  0.46143784  0.06096703  1
  O2-  O217  1  0.07966384  0.45161976  0.40216676  1
  O2-  O218  1  0.08244863  0.46412459  0.73599881  1
  O2-  O219  1  0.08110527  0.95572890  0.07235114  1
  O2-  O220  1  0.09084905  0.95925946  0.39580426  1
  O2-  O221  1  0.08331806  0.95405404  0.73479671  1
  O2-  O222  1  0.58429813  0.45554312  0.05931075  1
  O2-  O223  1  0.58365325  0.45166975  0.39663548  1
  O2-  O224  1  0.58670277  0.45963364  0.73030564  1
  O2-  O225  1  0.58393538  0.94959121  0.06021617  1
  O2-  O226  1  0.58003529  0.96121225  0.39983852  1
  O2-  O227  1  0.57849040  0.95687477  0.73644734  1
  O2-  O228  1  0.20032108  0.33867909  0.06117280  1
  O2-  O229  1  0.21048713  0.32971558  0.40189363  1
  O2-  O230  1  0.20750584  0.33396260  0.73986760  1
  O2-  O231  1  0.20860998  0.82686882  0.06902029  1
  O2-  O232  1  0.20907587  0.83662359  0.39213814  1
  O2-  O233  1  0.21743787  0.83411628  0.73399000  1
  O2-  O234  1  0.70679340  0.33962035  0.06293136  1
  O2-  O235  1  0.70208373  0.33378079  0.39641223  1
  O2-  O236  1  0.70562066  0.33860978  0.72574688  1
  O2-  O237  1  0.70279371  0.82959594  0.05966327  1
  O2-  O238  1  0.69990315  0.83018595  0.40185840  1
  O2-  O239  1  0.70102828  0.82660504  0.73490482  1
  O2-  O240  1  0.45774539  0.41765173  0.26594453  1
  O2-  O241  1  0.45701719  0.41605810  0.60275081  1
  O2-  O242  1  0.45520515  0.41306237  0.93243563  1
  O2-  O243  1  0.45933652  0.91787194  0.26268024  1
  O2-  O244  1  0.45564874  0.91060299  0.60483846  1
  O2-  O245  1  0.45241682  0.91509503  0.93552796  1
  O2-  O246  1  0.95674255  0.41098923  0.27082425  1
  O2-  O247  1  0.96402119  0.41582544  0.59718173  1
  O2-  O248  1  0.96090800  0.41413252  0.93102629  1
  O2-  O249  1  0.95697344  0.92165155  0.26902524  1
  O2-  O250  1  0.94912480  0.92122899  0.60932745  1
  O2-  O251  1  0.95272340  0.92626294  0.93548902  1
  O2-  O252  1  0.33275743  0.28856769  0.26471861  1
  O2-  O253  1  0.33055385  0.30246926  0.60736807  1
  O2-  O254  1  0.32924634  0.30157696  0.93880185  1
  O2-  O255  1  0.33488038  0.79097434  0.26135241  1
  O2-  O256  1  0.34183088  0.78743129  0.60458394  1
  O2-  O257  1  0.33635548  0.79226802  0.93496197  1
  O2-  O258  1  0.83539907  0.29464263  0.27192487  1
  O2-  O259  1  0.83314886  0.29470678  0.59473238  1
  O2-  O260  1  0.83175856  0.29189841  0.93420848  1
  O2-  O261  1  0.82820543  0.79463146  0.27050931  1
  O2-  O262  1  0.83420661  0.79447245  0.60605456  1
  O2-  O263  1  0.83366448  0.79172326  0.92745005  1
  O2-  O264  1  0.42111922  0.04309760  0.06914782  1
  O2-  O265  1  0.41460367  0.04618248  0.39271672  1
  O2-  O266  1  0.41378918  0.04053298  0.72638155  1
  O2-  O267  1  0.41415686  0.53727558  0.06387725  1
  O2-  O268  1  0.41999497  0.54373544  0.40211891  1
  O2-  O269  1  0.41776165  0.54419542  0.73218392  1
  O2-  O270  1  0.91757397  0.05099964  0.06748017  1
  O2-  O271  1  0.92361195  0.04837218  0.40308468  1
  O2-  O272  1  0.91922241  0.05278292  0.73672634  1
  O2-  O273  1  0.91026188  0.53805395  0.05977729  1
  O2-  O274  1  0.91432722  0.53635384  0.40296593  1
  O2-  O275  1  0.91266858  0.53845436  0.73016808  1
  O2-  O276  1  0.29507406  0.17101980  0.06765075  1
  O2-  O277  1  0.29113399  0.16109834  0.39652063  1
  O2-  O278  1  0.30425669  0.16753024  0.72660441  1
  O2-  O279  1  0.30175713  0.66242458  0.05963251  1
  O2-  O280  1  0.29622701  0.67260897  0.40040829  1
  O2-  O281  1  0.29926947  0.66478753  0.73320574  1
  O2-  O282  1  0.78255798  0.16863266  0.06887493  1
  O2-  O283  1  0.79332923  0.17076365  0.40327713  1
  O2-  O284  1  0.78530907  0.17352330  0.73100974  1
  O2-  O285  1  0.79267158  0.66284946  0.05798194  1
  O2-  O286  1  0.78992566  0.66446262  0.40442360  1
  O2-  O287  1  0.79576343  0.66182549  0.73146685  1
