# generated using pymatgen
data_Ca2Al2SiO7
_symmetry_space_group_name_H-M   'P 1'
_cell_length_a   15.46838917
_cell_length_b   15.46892746
_cell_length_c   15.29094136
_cell_angle_alpha   89.98327954
_cell_angle_beta   90.01690330
_cell_angle_gamma   89.96438480
_symmetry_Int_Tables_number   1
_chemical_formula_structural   Ca2Al2SiO7
_chemical_formula_sum   'Ca48 Al48 Si24 O168'
_cell_volume   3658.80609665
_cell_formula_units_Z   24
loop_
 _symmetry_equiv_pos_site_id
 _symmetry_equiv_pos_as_xyz
  1  'x, y, z'
loop_
 _atom_type_symbol
 _atom_type_oxidation_number
  Ca2+  2.0
  Al0+  0.0
  Si0+  0.0
  O2-  -2.0
loop_
 _atom_site_type_symbol
 _atom_site_label
 _atom_site_symmetry_multiplicity
 _atom_site_fract_x
 _atom_site_fract_y
 _atom_site_fract_z
 _atom_site_occupancy
  Ca2+  Ca0  1  0.16238401  0.07532418  0.16933657  1
  Ca2+  Ca1  1  0.15815015  0.07836423  0.50164461  1
  Ca2+  Ca2  1  0.16783935  0.07718357  0.84492732  1
  Ca2+  Ca3  1  0.16858377  0.58156794  0.17928922  1
  Ca2+  Ca4  1  0.16642842  0.58205886  0.50212377  1
  Ca2+  Ca5  1  0.16213426  0.58754380  0.83841610  1
  Ca2+  Ca6  1  0.66870970  0.08065046  0.17391486  1
  Ca2+  Ca7  1  0.67318034  0.08641757  0.50996825  1
  Ca2+  Ca8  1  0.67337877  0.08402501  0.83410319  1
  Ca2+  Ca9  1  0.66727742  0.58653692  0.16772576  1
  Ca2+  Ca10  1  0.66358614  0.58767083  0.50294734  1
  Ca2+  Ca11  1  0.66947654  0.58542178  0.84538414  1
  Ca2+  Ca12  1  0.09079608  0.32567242  0.16461574  1
  Ca2+  Ca13  1  0.08110084  0.32205426  0.48946901  1
  Ca2+  Ca14  1  0.08578618  0.31955558  0.82858310  1
  Ca2+  Ca15  1  0.07742076  0.83671820  0.16040435  1
  Ca2+  Ca16  1  0.07290787  0.83683620  0.49524690  1
  Ca2+  Ca17  1  0.07778635  0.82775743  0.83254597  1
  Ca2+  Ca18  1  0.58555718  0.33038856  0.16454609  1
  Ca2+  Ca19  1  0.58738558  0.32023750  0.49538732  1
  Ca2+  Ca20  1  0.58492923  0.33112905  0.83058084  1
  Ca2+  Ca21  1  0.57659941  0.82143136  0.16553411  1
  Ca2+  Ca22  1  0.57124045  0.82638573  0.49325358  1
  Ca2+  Ca23  1  0.57785243  0.82379983  0.82674033  1
  Ca2+  Ca24  1  0.32619550  0.42567332  0.17699533  1
  Ca2+  Ca25  1  0.33046200  0.42178219  0.49636766  1
  Ca2+  Ca26  1  0.33209577  0.41980282  0.83775767  1
  Ca2+  Ca27  1  0.32017655  0.91509127  0.17278285  1
  Ca2+  Ca28  1  0.33000070  0.90824275  0.50103952  1
  Ca2+  Ca29  1  0.32873654  0.92119683  0.84111649  1
  Ca2+  Ca30  1  0.83320605  0.42222431  0.16905660  1
  Ca2+  Ca31  1  0.83576427  0.41518665  0.50317695  1
  Ca2+  Ca32  1  0.82428720  0.42751970  0.84464193  1
  Ca2+  Ca33  1  0.83714453  0.91236604  0.17122479  1
  Ca2+  Ca34  1  0.83607767  0.91911655  0.50655457  1
  Ca2+  Ca35  1  0.84282688  0.91787027  0.83426853  1
  Ca2+  Ca36  1  0.41791298  0.16288813  0.16397882  1
  Ca2+  Ca37  1  0.43134780  0.16087996  0.49533416  1
  Ca2+  Ca38  1  0.41996476  0.16517046  0.82849192  1
  Ca2+  Ca39  1  0.41920800  0.66515167  0.16617095  1
  Ca2+  Ca40  1  0.42224599  0.67295035  0.49348898  1
  Ca2+  Ca41  1  0.42761538  0.67087205  0.82516337  1
  Ca2+  Ca42  1  0.92937676  0.17346433  0.16763412  1
  Ca2+  Ca43  1  0.92478298  0.16736647  0.49363799  1
  Ca2+  Ca44  1  0.92833312  0.16136213  0.82849909  1
  Ca2+  Ca45  1  0.92057552  0.67700316  0.15669357  1
  Ca2+  Ca46  1  0.91966921  0.67816898  0.49736603  1
  Ca2+  Ca47  1  0.92205001  0.67388892  0.83209709  1
  Al0+  Al48  1  0.00019164  0.00231413  -0.00256012  1
  Al0+  Al49  1  -0.00044054  0.00204891  0.33031768  1
  Al0+  Al50  1  0.00022310  0.00041754  0.66590789  1
  Al0+  Al51  1  -0.00207766  0.49966846  0.00145834  1
  Al0+  Al52  1  -0.00305498  0.50017000  0.33769586  1
  Al0+  Al53  1  -0.00113438  0.49898376  0.66745681  1
  Al0+  Al54  1  0.50228271  0.00154440  0.00280879  1
  Al0+  Al55  1  0.50014304  -0.00351363  0.32518718  1
  Al0+  Al56  1  0.50002629  0.00032927  0.66146198  1
  Al0+  Al57  1  0.49905220  0.49738438  0.00021981  1
  Al0+  Al58  1  0.50202750  0.49740937  0.33645921  1
  Al0+  Al59  1  0.49791932  0.49881615  0.66472217  1
  Al0+  Al60  1  0.25309354  0.25126278  -0.00147729  1
  Al0+  Al61  1  0.25318267  0.24841828  0.33511776  1
  Al0+  Al62  1  0.24983322  0.25006265  0.66258799  1
  Al0+  Al63  1  0.24961336  0.75195657  0.00081285  1
  Al0+  Al64  1  0.25007044  0.75153330  0.34088106  1
  Al0+  Al65  1  0.24998722  0.74815263  0.66418250  1
  Al0+  Al66  1  0.74947683  0.25032678  0.00391040  1
  Al0+  Al67  1  0.75210788  0.25004253  0.32564416  1
  Al0+  Al68  1  0.75042186  0.25000701  0.67131924  1
  Al0+  Al69  1  0.74947503  0.75152955  -0.00360729  1
  Al0+  Al70  1  0.74896130  0.75021420  0.32863671  1
  Al0+  Al71  1  0.74974586  0.75002201  0.66240091  1
  Al0+  Al72  1  0.82059740  0.57339555  0.01639209  1
  Al0+  Al73  1  0.07195649  0.17904305  0.65305036  1
  Al0+  Al74  1  0.32202473  0.57139575  0.35031160  1
  Al0+  Al75  1  0.42522503  0.81969869  0.31522326  1
  Al0+  Al76  1  0.93056693  0.82141413  0.65122561  1
  Al0+  Al77  1  0.57009044  0.67651872  0.31708338  1
  Al0+  Al78  1  0.57186228  0.17781961  0.31853715  1
  Al0+  Al79  1  0.17649268  0.42729191  0.34941440  1
  Al0+  Al80  1  0.67710453  0.42906192  0.01725675  1
  Al0+  Al81  1  0.57127601  0.18163581  0.65576723  1
  Al0+  Al82  1  0.07328379  0.67668373  0.98834161  1
  Al0+  Al83  1  0.92852246  0.82256037  0.98451478  1
  Al0+  Al84  1  0.82127140  0.07065333  0.68083719  1
  Al0+  Al85  1  0.42829465  0.82223582  0.65286950  1
  Al0+  Al86  1  0.92966700  0.82110140  0.31956150  1
  Al0+  Al87  1  0.57146032  0.67682960  0.65185243  1
  Al0+  Al88  1  0.17875926  0.92992058  0.01485339  1
  Al0+  Al89  1  0.56748828  0.67847176  0.98671704  1
  Al0+  Al90  1  0.17752581  0.93185252  0.34943044  1
  Al0+  Al91  1  0.92898592  0.32386049  0.31811985  1
  Al0+  Al92  1  0.07165920  0.18279555  0.98563624  1
  Al0+  Al93  1  0.07378123  0.18000218  0.31729018  1
  Al0+  Al94  1  0.07088430  0.67562209  0.65075882  1
  Al0+  Al95  1  0.32317088  0.07327745  0.01461561  1
  Si0+  Si96  1  0.42807948  0.82407024  0.98399833  1
  Si0+  Si97  1  0.57326335  0.17764422  0.98404107  1
  Si0+  Si98  1  0.17912747  0.92894162  0.68192886  1
  Si0+  Si99  1  0.82151694  0.07142931  0.01675946  1
  Si0+  Si100  1  0.67663072  0.92841657  0.68261012  1
  Si0+  Si101  1  0.17857907  0.42796627  0.68290366  1
  Si0+  Si102  1  0.92575433  0.32212685  0.98210849  1
  Si0+  Si103  1  0.81834702  0.07086485  0.34718881  1
  Si0+  Si104  1  0.32034067  0.57070095  0.01149083  1
  Si0+  Si105  1  0.32226385  0.07169312  0.67957135  1
  Si0+  Si106  1  0.67825087  0.42886612  0.68075266  1
  Si0+  Si107  1  0.43047420  0.31983342  0.98463436  1
  Si0+  Si108  1  0.32549603  0.07056522  0.35159290  1
  Si0+  Si109  1  0.42626200  0.32247960  0.64822246  1
  Si0+  Si110  1  0.67882869  0.92956575  0.01539849  1
  Si0+  Si111  1  0.82042445  0.57187628  0.68156758  1
  Si0+  Si112  1  0.17900835  0.42909610  0.01153526  1
  Si0+  Si113  1  0.07102191  0.67852007  0.32046160  1
  Si0+  Si114  1  0.68147163  0.42676187  0.35027913  1
  Si0+  Si115  1  0.32042606  0.56997248  0.68375047  1
  Si0+  Si116  1  0.67884154  0.92783736  0.34777734  1
  Si0+  Si117  1  0.92827983  0.32080693  0.65355941  1
  Si0+  Si118  1  0.43012504  0.32061176  0.31642095  1
  Si0+  Si119  1  0.81908344  0.57344525  0.35045224  1
  O2-  O120  1  0.25191022  0.00133598  0.06458256  1
  O2-  O121  1  0.25374162  0.00588701  0.39682934  1
  O2-  O122  1  0.25152015  0.00062004  0.72195826  1
  O2-  O123  1  0.24081374  0.50861571  0.05240415  1
  O2-  O124  1  0.24639181  0.50164471  0.39973545  1
  O2-  O125  1  0.24741813  0.50069628  0.72659794  1
  O2-  O126  1  0.75197649  -0.00133794  0.05806676  1
  O2-  O127  1  0.74734164  0.00077086  0.39085173  1
  O2-  O128  1  0.74761091  -0.00551743  0.72823524  1
  O2-  O129  1  0.74817069  0.50163573  0.06723510  1
  O2-  O130  1  0.75003180  0.49969410  0.39306822  1
  O2-  O131  1  0.74445786  0.50443850  0.72234054  1
  O2-  O132  1  0.00807608  0.25913010  0.26908308  1
  O2-  O133  1  -0.00329976  0.25344710  0.60810329  1
  O2-  O134  1  -0.00377884  0.25606188  0.93701562  1
  O2-  O135  1  0.00504606  0.74751842  0.27377418  1
  O2-  O136  1  0.00236643  0.75011183  0.60029820  1
  O2-  O137  1  0.00088488  0.74861134  0.93844759  1
  O2-  O138  1  0.49554555  0.24985231  0.27059666  1
  O2-  O139  1  0.49626776  0.25413538  0.60638452  1
  O2-  O140  1  0.50120074  0.24802687  0.94281556  1
  O2-  O141  1  0.49423359  0.74398338  0.26706182  1
  O2-  O142  1  0.50036120  0.74990943  0.60375467  1
  O2-  O143  1  0.49348160  0.75292827  0.93892145  1
  O2-  O144  1  0.07185894  0.18472407  0.09806374  1
  O2-  O145  1  0.06795495  0.17794292  0.43096998  1
  O2-  O146  1  0.07369257  0.18058521  0.76635718  1
  O2-  O147  1  0.07411704  0.67522860  0.10174371  1
  O2-  O148  1  0.06661152  0.67894716  0.42602421  1
  O2-  O149  1  0.06854714  0.67495141  0.76423820  1
  O2-  O150  1  0.57391368  0.17791578  0.08888561  1
  O2-  O151  1  0.57381660  0.18034453  0.43198705  1
  O2-  O152  1  0.57020850  0.18356171  0.76900104  1
  O2-  O153  1  0.56447132  0.67816779  0.09919245  1
  O2-  O154  1  0.57120343  0.68013430  0.43053209  1
  O2-  O155  1  0.56946988  0.67588345  0.76580792  1
  O2-  O156  1  0.18015415  0.42909064  0.23502304  1
  O2-  O157  1  0.18004651  0.42663342  0.57847646  1
  O2-  O158  1  0.18403355  0.42547333  0.90616360  1
  O2-  O159  1  0.17584581  0.93322212  0.23669854  1
  O2-  O160  1  0.17772385  0.93108614  0.57691231  1
  O2-  O161  1  0.18049506  0.93096348  0.90053002  1
  O2-  O162  1  0.68186887  0.42527337  0.24569675  1
  O2-  O163  1  0.68109026  0.42503697  0.57574023  1
  O2-  O164  1  0.67768751  0.42828133  0.90287439  1
  O2-  O165  1  0.68136918  0.92892206  0.24239573  1
  O2-  O166  1  0.67593866  0.93201523  0.57704732  1
  O2-  O167  1  0.67454218  0.93334220  0.91038382  1
  O2-  O168  1  0.42963834  0.32111442  0.08920017  1
  O2-  O169  1  0.43353053  0.32032099  0.42213550  1
  O2-  O170  1  0.42543428  0.32307020  0.75421426  1
  O2-  O171  1  0.42941554  0.82299163  0.08901419  1
  O2-  O172  1  0.43003353  0.82166984  0.42868344  1
  O2-  O173  1  0.42961410  0.82148376  0.76706675  1
  O2-  O174  1  0.92599203  0.32036072  0.08729820  1
  O2-  O175  1  0.92458417  0.31778921  0.43211174  1
  O2-  O176  1  0.92993550  0.32082752  0.75904851  1
  O2-  O177  1  0.92981843  0.82239090  0.09812406  1
  O2-  O178  1  0.92800454  0.82091377  0.43244367  1
  O2-  O179  1  0.93238494  0.82074607  0.76436046  1
  O2-  O180  1  0.32636348  0.06938989  0.24626304  1
  O2-  O181  1  0.32360418  0.07303808  0.57492705  1
  O2-  O182  1  0.32359461  0.07266482  0.90008555  1
  O2-  O183  1  0.32122420  0.56823884  0.23575202  1
  O2-  O184  1  0.32292823  0.56672699  0.57940541  1
  O2-  O185  1  0.32355669  0.56593598  0.90621351  1
  O2-  O186  1  0.81679573  0.07020558  0.24186796  1
  O2-  O187  1  0.81865548  0.07345742  0.56767335  1
  O2-  O188  1  0.81973023  0.07323568  0.91144687  1
  O2-  O189  1  0.81784871  0.57473385  0.24588795  1
  O2-  O190  1  0.82180500  0.56887659  0.57640719  1
  O2-  O191  1  0.81808632  0.57112305  0.90201489  1
  O2-  O192  1  0.03541726  0.08611436  0.26294359  1
  O2-  O193  1  0.03990483  0.08378941  0.59974548  1
  O2-  O194  1  0.03946465  0.08711299  0.93157988  1
  O2-  O195  1  0.04590824  0.58415961  0.27663905  1
  O2-  O196  1  0.04082936  0.57719733  0.59881848  1
  O2-  O197  1  0.04629801  0.57722448  0.93502324  1
  O2-  O198  1  0.54449960  0.08142001  0.26380943  1
  O2-  O199  1  0.54283650  0.08587728  0.60018962  1
  O2-  O200  1  0.54685600  0.08588072  0.93598254  1
  O2-  O201  1  0.54797847  0.57496871  0.26862419  1
  O2-  O202  1  0.54260072  0.57812635  0.60000882  1
  O2-  O203  1  0.53681848  0.58109663  0.93366106  1
  O2-  O204  1  0.17534429  0.20099030  0.26828598  1
  O2-  O205  1  0.16760453  0.20944269  0.59789699  1
  O2-  O206  1  0.16844333  0.21482531  0.93181817  1
  O2-  O207  1  0.16664424  0.70032737  0.27925541  1
  O2-  O208  1  0.17138526  0.69784986  0.60161292  1
  O2-  O209  1  0.17194615  0.70449711  0.93357606  1
  O2-  O210  1  0.66604238  0.21105921  0.26267178  1
  O2-  O211  1  0.66734558  0.21467441  0.60205697  1
  O2-  O212  1  0.66473684  0.20739736  0.93693855  1
  O2-  O213  1  0.66580283  0.71115894  0.26315386  1
  O2-  O214  1  0.67010519  0.70154578  0.59954104  1
  O2-  O215  1  0.66375175  0.71003516  0.93348343  1
  O2-  O216  1  0.08424783  0.44480761  0.05656816  1
  O2-  O217  1  0.07673382  0.45160683  0.40238923  1
  O2-  O218  1  0.08568923  0.45236411  0.73040851  1
  O2-  O219  1  0.08056380  0.96197951  0.06620043  1
  O2-  O220  1  0.08092550  0.96647561  0.40297769  1
  O2-  O221  1  0.08854663  0.95895576  0.72979301  1
  O2-  O222  1  0.57762228  0.45457790  0.06925327  1
  O2-  O223  1  0.58911834  0.44993815  0.39888518  1
  O2-  O224  1  0.58341545  0.45022183  0.72585028  1
  O2-  O225  1  0.58936137  0.96027593  0.06588997  1
  O2-  O226  1  0.58551764  0.95392364  0.39235056  1
  O2-  O227  1  0.58400335  0.95767762  0.72957018  1
  O2-  O228  1  0.21692687  0.34194410  0.06092453  1
  O2-  O229  1  0.20902190  0.32909825  0.40198529  1
  O2-  O230  1  0.21058601  0.33655483  0.73052607  1
  O2-  O231  1  0.20508302  0.83089473  0.06842757  1
  O2-  O232  1  0.20528085  0.83526043  0.40492229  1
  O2-  O233  1  0.20623264  0.83604056  0.72783066  1
  O2-  O234  1  0.70544815  0.32999937  0.06956865  1
  O2-  O235  1  0.71315815  0.33498599  0.39681882  1
  O2-  O236  1  0.70914766  0.33987102  0.73240474  1
  O2-  O237  1  0.70471059  0.83750981  0.06209890  1
  O2-  O238  1  0.70873765  0.83699719  0.39552408  1
  O2-  O239  1  0.69957715  0.83303148  0.72653277  1
  O2-  O240  1  0.45904777  0.41270989  0.26999380  1
  O2-  O241  1  0.45168627  0.41521961  0.60179763  1
  O2-  O242  1  0.45933519  0.40981476  0.93360878  1
  O2-  O243  1  0.45735522  0.91546593  0.25992558  1
  O2-  O244  1  0.45494416  0.91979281  0.59778592  1
  O2-  O245  1  0.45840002  0.91707622  0.93866004  1
  O2-  O246  1  0.94712556  0.42579237  0.26905588  1
  O2-  O247  1  0.95187963  0.41418494  0.60687170  1
  O2-  O248  1  0.94778609  0.41687903  0.93751044  1
  O2-  O249  1  0.95820502  0.91790986  0.26628240  1
  O2-  O250  1  0.95879197  0.91966301  0.59848576  1
  O2-  O251  1  0.95722005  0.92085049  0.93173997  1
  O2-  O252  1  0.33573565  0.29861519  0.27108610  1
  O2-  O253  1  0.33407544  0.29660404  0.60086751  1
  O2-  O254  1  0.34028697  0.29309117  0.93298468  1
  O2-  O255  1  0.32494535  0.79362552  0.26592147  1
  O2-  O256  1  0.33074646  0.79315547  0.60049219  1
  O2-  O257  1  0.33340969  0.80243446  0.93925076  1
  O2-  O258  1  0.83535903  0.28837205  0.26053134  1
  O2-  O259  1  0.83445753  0.29563045  0.60841161  1
  O2-  O260  1  0.83214525  0.29377104  0.93695425  1
  O2-  O261  1  0.83378203  0.79018050  0.26548702  1
  O2-  O262  1  0.83114561  0.79580602  0.59946575  1
  O2-  O263  1  0.82979739  0.79730785  0.93073350  1
  O2-  O264  1  0.42324324  0.04886045  0.06625138  1
  O2-  O265  1  0.41940100  0.04075258  0.39617269  1
  O2-  O266  1  0.41456776  0.04480166  0.72770068  1
  O2-  O267  1  0.40725224  0.53294238  0.06125097  1
  O2-  O268  1  0.41928472  0.53643127  0.40358888  1
  O2-  O269  1  0.41144312  0.53793644  0.73240002  1
  O2-  O270  1  0.91360354  0.04574273  0.06336707  1
  O2-  O271  1  0.90997662  0.04288028  0.39392748  1
  O2-  O272  1  0.91801205  0.03995059  0.73551466  1
  O2-  O273  1  0.91891060  0.54385533  0.06970354  1
  O2-  O274  1  0.91055566  0.54828459  0.40006042  1
  O2-  O275  1  0.91036623  0.53972018  0.73073085  1
  O2-  O276  1  0.29725984  0.17296272  0.06622115  1
  O2-  O277  1  0.30743995  0.16641125  0.39630180  1
  O2-  O278  1  0.29583613  0.16497301  0.72611573  1
  O2-  O279  1  0.30308278  0.66524785  0.05661998  1
  O2-  O280  1  0.29750915  0.66962657  0.40424925  1
  O2-  O281  1  0.29590972  0.66260749  0.73122609  1
  O2-  O282  1  0.79088725  0.16184281  0.06485038  1
  O2-  O283  1  0.78977592  0.16313725  0.39330322  1
  O2-  O284  1  0.78837658  0.16591451  0.73785326  1
  O2-  O285  1  0.79198893  0.67274663  0.06673019  1
  O2-  O286  1  0.78708271  0.66416447  0.39827555  1
  O2-  O287  1  0.79581755  0.66495199  0.72767205  1
