# generated using pymatgen
data_Ca2Al2SiO7
_symmetry_space_group_name_H-M   'P 1'
_cell_length_a   15.46125743
_cell_length_b   15.46574570
_cell_length_c   15.28667109
_cell_angle_alpha   89.98504593
_cell_angle_beta   89.98974211
_cell_angle_gamma   89.98097303
_symmetry_Int_Tables_number   1
_chemical_formula_structural   Ca2Al2SiO7
_chemical_formula_sum   'Ca48 Al48 Si24 O168'
_cell_volume   3655.34650440
_cell_formula_units_Z   24
loop_
 _symmetry_equiv_pos_site_id
 _symmetry_equiv_pos_as_xyz
  1  'x, y, z'
loop_
 _atom_type_symbol
 _atom_type_oxidation_number
  Ca2+  2.0
  Al0+  0.0
  Si0+  0.0
  O2-  -2.0
loop_
 _atom_site_type_symbol
 _atom_site_label
 _atom_site_symmetry_multiplicity
 _atom_site_fract_x
 _atom_site_fract_y
 _atom_site_fract_z
 _atom_site_occupancy
  Ca2+  Ca0  1  0.17025253  0.08267264  0.17747019  1
  Ca2+  Ca1  1  0.16723315  0.09268268  0.50469638  1
  Ca2+  Ca2  1  0.16118702  0.08557945  0.83445961  1
  Ca2+  Ca3  1  0.17281297  0.58873788  0.17270775  1
  Ca2+  Ca4  1  0.17630845  0.59481366  0.50359073  1
  Ca2+  Ca5  1  0.17665514  0.59598388  0.83701794  1
  Ca2+  Ca6  1  0.67195633  0.08269335  0.17715006  1
  Ca2+  Ca7  1  0.66910068  0.08003202  0.50348432  1
  Ca2+  Ca8  1  0.66502409  0.07295788  0.83402069  1
  Ca2+  Ca9  1  0.67771736  0.58180471  0.16410491  1
  Ca2+  Ca10  1  0.67251112  0.58036440  0.50840459  1
  Ca2+  Ca11  1  0.66893661  0.57655584  0.84075847  1
  Ca2+  Ca12  1  0.07809499  0.32825913  0.16406339  1
  Ca2+  Ca13  1  0.07899526  0.32643241  0.50005532  1
  Ca2+  Ca14  1  0.06876026  0.33421315  0.82752310  1
  Ca2+  Ca15  1  0.07699535  0.82185193  0.16101716  1
  Ca2+  Ca16  1  0.08062573  0.82392599  0.50071289  1
  Ca2+  Ca17  1  0.07253447  0.82262569  0.83109675  1
  Ca2+  Ca18  1  0.58120172  0.33187263  0.16047124  1
  Ca2+  Ca19  1  0.57862702  0.33693355  0.49888006  1
  Ca2+  Ca20  1  0.57487640  0.34918767  0.82948124  1
  Ca2+  Ca21  1  0.57986100  0.82498736  0.16029697  1
  Ca2+  Ca22  1  0.58770286  0.82997519  0.50298238  1
  Ca2+  Ca23  1  0.58796395  0.81862768  0.82730647  1
  Ca2+  Ca24  1  0.33461759  0.42410095  0.16647484  1
  Ca2+  Ca25  1  0.33200610  0.42488055  0.50771242  1
  Ca2+  Ca26  1  0.33443867  0.42226708  0.83763423  1
  Ca2+  Ca27  1  0.32970999  0.92252446  0.17562125  1
  Ca2+  Ca28  1  0.33273822  0.92583603  0.50273011  1
  Ca2+  Ca29  1  0.33030112  0.91965710  0.83707427  1
  Ca2+  Ca30  1  0.83655481  0.42551175  0.16704730  1
  Ca2+  Ca31  1  0.82898257  0.41935437  0.50583406  1
  Ca2+  Ca32  1  0.82612383  0.41653248  0.84165437  1
  Ca2+  Ca33  1  0.83573318  0.91981161  0.17060321  1
  Ca2+  Ca34  1  0.83465764  0.92282292  0.50745814  1
  Ca2+  Ca35  1  0.83668000  0.91032890  0.83375519  1
  Ca2+  Ca36  1  0.42125808  0.17028467  0.16346180  1
  Ca2+  Ca37  1  0.42147312  0.17314737  0.49254365  1
  Ca2+  Ca38  1  0.41740222  0.18368352  0.82767932  1
  Ca2+  Ca39  1  0.42097262  0.65693874  0.15990763  1
  Ca2+  Ca40  1  0.42164518  0.65813717  0.49925065  1
  Ca2+  Ca41  1  0.42827561  0.65105568  0.83033053  1
  Ca2+  Ca42  1  0.91735602  0.16994675  0.16342336  1
  Ca2+  Ca43  1  0.92093851  0.16982922  0.49572587  1
  Ca2+  Ca44  1  0.91794295  0.18055237  0.82658555  1
  Ca2+  Ca45  1  0.92408148  0.66221505  0.15696840  1
  Ca2+  Ca46  1  0.92434535  0.66686854  0.49292048  1
  Ca2+  Ca47  1  0.92146705  0.66931612  0.82564871  1
  Al0+  Al48  1  0.00118625  -0.00303733  -0.00109346  1
  Al0+  Al49  1  -0.00129993  -0.00089033  0.33429415  1
  Al0+  Al50  1  0.00186312  -0.00019658  0.66268795  1
  Al0+  Al51  1  0.00329505  0.49668750  -0.00540973  1
  Al0+  Al52  1  0.00030982  0.49973722  0.33378638  1
  Al0+  Al53  1  0.00325203  0.49926749  0.65687899  1
  Al0+  Al54  1  0.50044929  -0.00027554  0.00119477  1
  Al0+  Al55  1  0.49813370  0.00048433  0.33332675  1
  Al0+  Al56  1  0.50055354  0.00023841  0.67360645  1
  Al0+  Al57  1  0.49944175  0.49813405  0.00227471  1
  Al0+  Al58  1  0.49863298  0.50020432  0.33487067  1
  Al0+  Al59  1  0.50090321  0.50111251  0.66287662  1
  Al0+  Al60  1  0.25296601  0.25016990  -0.00210024  1
  Al0+  Al61  1  0.24899077  0.25137806  0.33275460  1
  Al0+  Al62  1  0.25173973  0.25399079  0.66180975  1
  Al0+  Al63  1  0.25021593  0.75345982  0.00317520  1
  Al0+  Al64  1  0.24954412  0.75159292  0.33435529  1
  Al0+  Al65  1  0.25187495  0.75505867  0.66944054  1
  Al0+  Al66  1  0.74938022  0.24582743  -0.00036024  1
  Al0+  Al67  1  0.74777693  0.24884820  0.33379018  1
  Al0+  Al68  1  0.74849028  0.24922745  0.66869605  1
  Al0+  Al69  1  0.74863280  0.75030741  -0.00117881  1
  Al0+  Al70  1  0.74799640  0.74885185  0.33581931  1
  Al0+  Al71  1  0.74934828  0.75134637  0.66193649  1
  Al0+  Al72  1  0.56852853  0.67936370  0.98807337  1
  Al0+  Al73  1  0.82088900  0.07075845  0.34704415  1
  Al0+  Al74  1  0.92811266  0.81972832  0.64954931  1
  Al0+  Al75  1  0.67983563  0.92841544  0.68152358  1
  Al0+  Al76  1  0.82187056  0.57113372  0.34710684  1
  Al0+  Al77  1  0.07030681  0.18053777  0.65313668  1
  Al0+  Al78  1  0.56910844  0.67982636  0.65218417  1
  Al0+  Al79  1  0.43144794  0.31922584  0.98654230  1
  Al0+  Al80  1  0.43162862  0.32237381  0.65131290  1
  Al0+  Al81  1  0.32006318  0.07240487  0.34729357  1
  Al0+  Al82  1  0.67831640  0.42668435  0.01570491  1
  Al0+  Al83  1  0.68061094  0.42919302  0.67920248  1
  Al0+  Al84  1  0.56984740  0.17857779  0.32032460  1
  Al0+  Al85  1  0.31838711  0.57053730  0.01360769  1
  Al0+  Al86  1  0.31981247  0.57109057  0.34780055  1
  Al0+  Al87  1  0.07021300  0.17834452  0.31904256  1
  Al0+  Al88  1  0.07090517  0.67929528  0.31825471  1
  Al0+  Al89  1  0.07353508  0.67671806  0.98587889  1
  Al0+  Al90  1  0.92416702  0.32234806  0.64997946  1
  Al0+  Al91  1  0.92793165  0.31981155  0.98799930  1
  Al0+  Al92  1  0.82363720  0.57102245  0.01139700  1
  Al0+  Al93  1  0.92840940  0.82054409  0.98626674  1
  Al0+  Al94  1  0.31916963  0.57192452  0.68075822  1
  Al0+  Al95  1  0.07447488  0.67921045  0.65064641  1
  Si0+  Si96  1  0.42853499  0.82641248  0.65040724  1
  Si0+  Si97  1  0.57021585  0.17433001  0.65119552  1
  Si0+  Si98  1  0.42921706  0.82118014  0.31968159  1
  Si0+  Si99  1  0.17793660  0.92922033  0.35195611  1
  Si0+  Si100  1  0.17862097  0.42668553  0.68388603  1
  Si0+  Si101  1  0.57042993  0.67772041  0.31717462  1
  Si0+  Si102  1  0.17809419  0.42386051  0.01658065  1
  Si0+  Si103  1  0.17673984  0.42746598  0.35075466  1
  Si0+  Si104  1  0.82400590  0.07078341  0.68504585  1
  Si0+  Si105  1  0.82185865  0.06850326  0.01415795  1
  Si0+  Si106  1  0.67771712  0.92817193  0.01654416  1
  Si0+  Si107  1  0.92531448  0.82042464  0.31675058  1
  Si0+  Si108  1  0.67797344  0.42859221  0.34949724  1
  Si0+  Si109  1  0.07263012  0.17729758  0.98606043  1
  Si0+  Si110  1  0.17906884  0.93107125  0.01710367  1
  Si0+  Si111  1  0.17890479  0.93131777  0.68416310  1
  Si0+  Si112  1  0.67610725  0.92777569  0.34944505  1
  Si0+  Si113  1  0.42809585  0.32337663  0.31517587  1
  Si0+  Si114  1  0.82464891  0.57142640  0.67995618  1
  Si0+  Si115  1  0.32076249  0.07412800  0.68309826  1
  Si0+  Si116  1  0.42788937  0.82508139  0.98414136  1
  Si0+  Si117  1  0.57307680  0.17452517  0.98185392  1
  Si0+  Si118  1  0.32139788  0.07203948  0.01512811  1
  Si0+  Si119  1  0.92612437  0.32122314  0.31608959  1
  O2-  O120  1  0.25018828  0.00240859  0.05884483  1
  O2-  O121  1  0.24224038  0.00235056  0.39643284  1
  O2-  O122  1  0.24791583  0.00538937  0.72618332  1
  O2-  O123  1  0.24060764  0.49887934  0.06047840  1
  O2-  O124  1  0.24362334  0.49851565  0.39422384  1
  O2-  O125  1  0.24124970  0.50098330  0.72816719  1
  O2-  O126  1  0.74994472  -0.00162978  0.05740548  1
  O2-  O127  1  0.74672159  -0.00516804  0.39256846  1
  O2-  O128  1  0.75602700  0.00115354  0.72967522  1
  O2-  O129  1  0.75375976  0.49672666  0.06335635  1
  O2-  O130  1  0.74715825  0.49647502  0.39343745  1
  O2-  O131  1  0.76014453  0.49934511  0.72489135  1
  O2-  O132  1  -0.00575131  0.25106781  0.27204325  1
  O2-  O133  1  -0.00408832  0.24878998  0.60195093  1
  O2-  O134  1  0.00453420  0.24589302  0.94264045  1
  O2-  O135  1  -0.00885556  0.74924275  0.27247750  1
  O2-  O136  1  -0.00344358  0.74448024  0.59977180  1
  O2-  O137  1  -0.00626336  0.74158131  0.93781287  1
  O2-  O138  1  0.49605694  0.25325170  0.27214842  1
  O2-  O139  1  0.50603336  0.24656604  0.60643582  1
  O2-  O140  1  0.50868742  0.24725024  0.93865031  1
  O2-  O141  1  0.49806366  0.74858068  0.27665819  1
  O2-  O142  1  0.49436040  0.75547187  0.60587129  1
  O2-  O143  1  0.49244815  0.75296861  0.94071797  1
  O2-  O144  1  0.07235087  0.17625599  0.09179243  1
  O2-  O145  1  0.07030341  0.18150978  0.43142163  1
  O2-  O146  1  0.06926004  0.18164525  0.76733120  1
  O2-  O147  1  0.07528295  0.68201784  0.09978616  1
  O2-  O148  1  0.07318406  0.68417669  0.43082020  1
  O2-  O149  1  0.07591109  0.68354380  0.76395974  1
  O2-  O150  1  0.57015353  0.17028303  0.08750357  1
  O2-  O151  1  0.56784764  0.17800715  0.43324080  1
  O2-  O152  1  0.56558065  0.16941375  0.75667470  1
  O2-  O153  1  0.56762598  0.68256121  0.10182577  1
  O2-  O154  1  0.57061038  0.67792107  0.42212765  1
  O2-  O155  1  0.56804835  0.67932642  0.76526101  1
  O2-  O156  1  0.17738580  0.42612014  0.24491417  1
  O2-  O157  1  0.18336234  0.42145742  0.57850403  1
  O2-  O158  1  0.18192576  0.41652304  0.91171683  1
  O2-  O159  1  0.18172413  0.92906702  0.24596818  1
  O2-  O160  1  0.18191973  0.93036697  0.57919431  1
  O2-  O161  1  0.17959253  0.93305240  0.91205146  1
  O2-  O162  1  0.67681623  0.42948829  0.24406754  1
  O2-  O163  1  0.67909912  0.43207417  0.56569629  1
  O2-  O164  1  0.67804939  0.43059928  0.90218432  1
  O2-  O165  1  0.67538623  0.92794557  0.24343470  1
  O2-  O166  1  0.67732836  0.93361157  0.56843387  1
  O2-  O167  1  0.67385941  0.93028686  0.91187165  1
  O2-  O168  1  0.42949893  0.31506539  0.09967884  1
  O2-  O169  1  0.43015433  0.32432125  0.42073682  1
  O2-  O170  1  0.43093998  0.32080902  0.76451440  1
  O2-  O171  1  0.43074585  0.83030280  0.08995462  1
  O2-  O172  1  0.43035622  0.82345505  0.42452023  1
  O2-  O173  1  0.42918073  0.83050580  0.75580827  1
  O2-  O174  1  0.92894398  0.31618853  0.10128260  1
  O2-  O175  1  0.92584791  0.31998485  0.42135377  1
  O2-  O176  1  0.92465481  0.32032140  0.76392502  1
  O2-  O177  1  0.93296563  0.82695538  0.09977307  1
  O2-  O178  1  0.92584696  0.82068927  0.42198564  1
  O2-  O179  1  0.93054000  0.81906405  0.76316257  1
  O2-  O180  1  0.32019514  0.06809587  0.23372386  1
  O2-  O181  1  0.32220889  0.07172543  0.57802879  1
  O2-  O182  1  0.32090123  0.07119489  0.90995537  1
  O2-  O183  1  0.32150708  0.56919338  0.23456786  1
  O2-  O184  1  0.31891177  0.57001263  0.56735794  1
  O2-  O185  1  0.31983482  0.56864273  0.90075038  1
  O2-  O186  1  0.81975145  0.06871665  0.23321839  1
  O2-  O187  1  0.82288916  0.07041960  0.57940786  1
  O2-  O188  1  0.82199752  0.06810220  0.90932467  1
  O2-  O189  1  0.82121242  0.57138607  0.23400192  1
  O2-  O190  1  0.82030478  0.57105331  0.57398930  1
  O2-  O191  1  0.82160263  0.57192621  0.89798129  1
  O2-  O192  1  0.04251395  0.07986265  0.26641333  1
  O2-  O193  1  0.04857635  0.08104982  0.60035063  1
  O2-  O194  1  0.04712963  0.08391047  0.94014210  1
  O2-  O195  1  0.04558467  0.58009203  0.26705699  1
  O2-  O196  1  0.05772589  0.57872113  0.59807275  1
  O2-  O197  1  0.05991902  0.57501723  0.93568724  1
  O2-  O198  1  0.53809222  0.08222729  0.26505643  1
  O2-  O199  1  0.53973988  0.08275505  0.60378187  1
  O2-  O200  1  0.54214564  0.08243243  0.93487230  1
  O2-  O201  1  0.54107882  0.58627683  0.27031702  1
  O2-  O202  1  0.53645474  0.58622478  0.59452400  1
  O2-  O203  1  0.53747210  0.58291372  0.93538825  1
  O2-  O204  1  0.16732398  0.20935963  0.26477295  1
  O2-  O205  1  0.16825532  0.21051746  0.60003342  1
  O2-  O206  1  0.16692569  0.20057756  0.94077115  1
  O2-  O207  1  0.16710887  0.71509515  0.26534048  1
  O2-  O208  1  0.17094752  0.71857049  0.59915299  1
  O2-  O209  1  0.16920082  0.71688309  0.93408183  1
  O2-  O210  1  0.66653674  0.20743092  0.26502142  1
  O2-  O211  1  0.66606172  0.19471018  0.60911993  1
  O2-  O212  1  0.66841832  0.19193358  0.93742757  1
  O2-  O213  1  0.66177133  0.70724937  0.26962041  1
  O2-  O214  1  0.66414193  0.71190415  0.59630389  1
  O2-  O215  1  0.66366369  0.71160154  0.93351626  1
  O2-  O216  1  0.08250335  0.44193970  0.06098876  1
  O2-  O217  1  0.08253552  0.44916062  0.39635409  1
  O2-  O218  1  0.08138368  0.44640102  0.72465101  1
  O2-  O219  1  0.08792738  0.95894761  0.06610406  1
  O2-  O220  1  0.08275570  0.94918873  0.39563212  1
  O2-  O221  1  0.08712449  0.95864088  0.73194003  1
  O2-  O222  1  0.58147180  0.45728281  0.07030326  1
  O2-  O223  1  0.58462617  0.45599359  0.39549034  1
  O2-  O224  1  0.58539552  0.46639966  0.73166149  1
  O2-  O225  1  0.58620688  0.95750343  0.06555745  1
  O2-  O226  1  0.58351261  0.95542447  0.39588765  1
  O2-  O227  1  0.58433648  0.96056205  0.73876351  1
  O2-  O228  1  0.21107401  0.33289953  0.06614230  1
  O2-  O229  1  0.20549196  0.33533226  0.39797424  1
  O2-  O230  1  0.21044131  0.33573407  0.73246679  1
  O2-  O231  1  0.20834567  0.84129533  0.06756884  1
  O2-  O232  1  0.21056400  0.83870848  0.39961772  1
  O2-  O233  1  0.21107221  0.84278939  0.73521299  1
  O2-  O234  1  0.70138341  0.32469531  0.06482073  1
  O2-  O235  1  0.70118767  0.33450309  0.39527407  1
  O2-  O236  1  0.70121805  0.32974378  0.73315374  1
  O2-  O237  1  0.70310723  0.83686606  0.06557097  1
  O2-  O238  1  0.69849308  0.83349728  0.39512503  1
  O2-  O239  1  0.70856547  0.83068684  0.73453657  1
  O2-  O240  1  0.45649696  0.41625406  0.26856964  1
  O2-  O241  1  0.46432721  0.41633502  0.59469850  1
  O2-  O242  1  0.46005140  0.41592587  0.93288839  1
  O2-  O243  1  0.45818873  0.91158636  0.26943945  1
  O2-  O244  1  0.45773797  0.91904875  0.60350244  1
  O2-  O245  1  0.45573034  0.91747492  0.93604693  1
  O2-  O246  1  0.95484018  0.41399846  0.27025007  1
  O2-  O247  1  0.95349888  0.41890857  0.59452883  1
  O2-  O248  1  0.95747213  0.41430152  0.93030553  1
  O2-  O249  1  0.95371606  0.91352933  0.27101406  1
  O2-  O250  1  0.96084595  0.91731929  0.59749951  1
  O2-  O251  1  0.96419861  0.91615933  0.93044898  1
  O2-  O252  1  0.33413418  0.29875875  0.27034404  1
  O2-  O253  1  0.33633166  0.29145831  0.59612327  1
  O2-  O254  1  0.33635210  0.28560279  0.93037183  1
  O2-  O255  1  0.33682089  0.79670057  0.27190964  1
  O2-  O256  1  0.33416540  0.80500419  0.60515300  1
  O2-  O257  1  0.33229503  0.80550034  0.94119950  1
  O2-  O258  1  0.83243097  0.29596121  0.27077146  1
  O2-  O259  1  0.82537617  0.29313563  0.59806409  1
  O2-  O260  1  0.83243850  0.28555601  0.93372435  1
  O2-  O261  1  0.82954689  0.79920492  0.27242500  1
  O2-  O262  1  0.82827503  0.79988647  0.59679663  1
  O2-  O263  1  0.82684871  0.80313693  0.93690446  1
  O2-  O264  1  0.41323212  0.04291930  0.06249208  1
  O2-  O265  1  0.41483328  0.03693144  0.40211965  1
  O2-  O266  1  0.41037724  0.04356847  0.73302558  1
  O2-  O267  1  0.41322626  0.53532035  0.06862207  1
  O2-  O268  1  0.41657974  0.53960217  0.40158326  1
  O2-  O269  1  0.41544731  0.53577669  0.73130891  1
  O2-  O270  1  0.91389096  0.03991690  0.06170073  1
  O2-  O271  1  0.91725187  0.04073039  0.40186092  1
  O2-  O272  1  0.91825254  0.04516741  0.72972739  1
  O2-  O273  1  0.92378887  0.54255117  0.06249345  1
  O2-  O274  1  0.91875950  0.54172803  0.40076138  1
  O2-  O275  1  0.92178099  0.55144580  0.72053964  1
  O2-  O276  1  0.29505126  0.16367747  0.06315541  1
  O2-  O277  1  0.29395153  0.17064613  0.39954487  1
  O2-  O278  1  0.29345487  0.16675288  0.72899412  1
  O2-  O279  1  0.29476608  0.67032691  0.06650413  1
  O2-  O280  1  0.29225573  0.66950415  0.40002366  1
  O2-  O281  1  0.29553482  0.67160691  0.73315672  1
  O2-  O282  1  0.79443984  0.15927140  0.06344019  1
  O2-  O283  1  0.78883831  0.16673428  0.40121036  1
  O2-  O284  1  0.79628244  0.16363410  0.73154611  1
  O2-  O285  1  0.79217122  0.66913219  0.06558163  1
  O2-  O286  1  0.78966869  0.66731276  0.40138244  1
  O2-  O287  1  0.79568103  0.66493980  0.72328522  1
