# generated using pymatgen
data_Ca2Al2SiO7
_symmetry_space_group_name_H-M   'P 1'
_cell_length_a   15.46897752
_cell_length_b   15.47206144
_cell_length_c   15.29175869
_cell_angle_alpha   89.98675984
_cell_angle_beta   90.01209479
_cell_angle_gamma   89.97771695
_symmetry_Int_Tables_number   1
_chemical_formula_structural   Ca2Al2SiO7
_chemical_formula_sum   'Ca48 Al48 Si24 O168'
_cell_volume   3659.88274241
_cell_formula_units_Z   24
loop_
 _symmetry_equiv_pos_site_id
 _symmetry_equiv_pos_as_xyz
  1  'x, y, z'
loop_
 _atom_type_symbol
 _atom_type_oxidation_number
  Ca2+  2.0
  Al0+  0.0
  Si0+  0.0
  O2-  -2.0
loop_
 _atom_site_type_symbol
 _atom_site_label
 _atom_site_symmetry_multiplicity
 _atom_site_fract_x
 _atom_site_fract_y
 _atom_site_fract_z
 _atom_site_occupancy
  Ca2+  Ca0  1  0.15532184  0.07121464  0.16930749  1
  Ca2+  Ca1  1  0.16022326  0.07439276  0.50417679  1
  Ca2+  Ca2  1  0.15782376  0.07263149  0.83765470  1
  Ca2+  Ca3  1  0.17871054  0.59584910  0.17032391  1
  Ca2+  Ca4  1  0.16930517  0.59260326  0.50284468  1
  Ca2+  Ca5  1  0.16780666  0.59029357  0.84190895  1
  Ca2+  Ca6  1  0.66222026  0.07763754  0.16494835  1
  Ca2+  Ca7  1  0.67091307  0.07613458  0.51030910  1
  Ca2+  Ca8  1  0.66776867  0.07255309  0.84166463  1
  Ca2+  Ca9  1  0.67164122  0.59631226  0.16785478  1
  Ca2+  Ca10  1  0.67302880  0.58564405  0.50579807  1
  Ca2+  Ca11  1  0.68057870  0.58911397  0.84088026  1
  Ca2+  Ca12  1  0.09119040  0.31870832  0.16301796  1
  Ca2+  Ca13  1  0.08201348  0.32232361  0.49858806  1
  Ca2+  Ca14  1  0.08276064  0.32103593  0.82594475  1
  Ca2+  Ca15  1  0.08339699  0.82846519  0.15751012  1
  Ca2+  Ca16  1  0.08685776  0.82730789  0.49844722  1
  Ca2+  Ca17  1  0.07691350  0.82764594  0.82859422  1
  Ca2+  Ca18  1  0.57749950  0.32904416  0.16217801  1
  Ca2+  Ca19  1  0.57737523  0.33348112  0.49286038  1
  Ca2+  Ca20  1  0.58668530  0.32690464  0.83480046  1
  Ca2+  Ca21  1  0.57584310  0.82466207  0.15457342  1
  Ca2+  Ca22  1  0.57900282  0.83112438  0.49913903  1
  Ca2+  Ca23  1  0.57418828  0.83945446  0.83050111  1
  Ca2+  Ca24  1  0.33738858  0.42858902  0.17151396  1
  Ca2+  Ca25  1  0.33591532  0.42303120  0.49920935  1
  Ca2+  Ca26  1  0.32888051  0.42700905  0.84113692  1
  Ca2+  Ca27  1  0.32057135  0.90893034  0.16640428  1
  Ca2+  Ca28  1  0.32083892  0.91166074  0.50595457  1
  Ca2+  Ca29  1  0.32253046  0.90675017  0.83811071  1
  Ca2+  Ca30  1  0.83374610  0.42468856  0.16631846  1
  Ca2+  Ca31  1  0.83766838  0.42272764  0.50996150  1
  Ca2+  Ca32  1  0.84405079  0.42912095  0.83525220  1
  Ca2+  Ca33  1  0.82869409  0.90773570  0.16283690  1
  Ca2+  Ca34  1  0.82720790  0.91169929  0.50906111  1
  Ca2+  Ca35  1  0.82441790  0.90297473  0.83880420  1
  Ca2+  Ca36  1  0.41585961  0.17504332  0.16079558  1
  Ca2+  Ca37  1  0.41468441  0.17503128  0.49475988  1
  Ca2+  Ca38  1  0.42351434  0.15999032  0.83361315  1
  Ca2+  Ca39  1  0.42355519  0.66507030  0.15859909  1
  Ca2+  Ca40  1  0.42003341  0.67196173  0.49366960  1
  Ca2+  Ca41  1  0.41705223  0.67732768  0.83602789  1
  Ca2+  Ca42  1  0.92647001  0.16628187  0.16167102  1
  Ca2+  Ca43  1  0.92724407  0.16535667  0.49995701  1
  Ca2+  Ca44  1  0.92652300  0.17124753  0.82827462  1
  Ca2+  Ca45  1  0.92837305  0.67104780  0.15717051  1
  Ca2+  Ca46  1  0.92546829  0.66890130  0.50147096  1
  Ca2+  Ca47  1  0.91999009  0.67210924  0.82850415  1
  Al0+  Al48  1  -0.00260134  0.00045626  -0.00336095  1
  Al0+  Al49  1  -0.00339839  0.00053501  0.33482102  1
  Al0+  Al50  1  -0.00184640  -0.00049509  0.66418105  1
  Al0+  Al51  1  0.00066673  0.49787237  0.00625082  1
  Al0+  Al52  1  0.00069090  0.50003488  0.33007988  1
  Al0+  Al53  1  0.00222651  0.49851944  0.66369835  1
  Al0+  Al54  1  0.49886799  0.00189857  -0.00109603  1
  Al0+  Al55  1  0.49917843  0.00049175  0.33557632  1
  Al0+  Al56  1  0.49934862  0.00004240  0.66361072  1
  Al0+  Al57  1  0.49991238  0.49902814  -0.00159453  1
  Al0+  Al58  1  0.50083355  0.49999352  0.33084423  1
  Al0+  Al59  1  0.50103341  0.49922177  0.66941204  1
  Al0+  Al60  1  0.25002920  0.24990096  -0.00594198  1
  Al0+  Al61  1  0.25017771  0.25071505  0.32478939  1
  Al0+  Al62  1  0.25295825  0.25070100  0.66386084  1
  Al0+  Al63  1  0.25148106  0.74973600  0.00261384  1
  Al0+  Al64  1  0.25037482  0.75070502  0.33979972  1
  Al0+  Al65  1  0.25275638  0.75169617  0.66401110  1
  Al0+  Al66  1  0.74930510  0.25028458  -0.00238805  1
  Al0+  Al67  1  0.75047473  0.25031319  0.33484746  1
  Al0+  Al68  1  0.74924140  0.25000962  0.66383860  1
  Al0+  Al69  1  0.74989346  0.74847385  0.00603585  1
  Al0+  Al70  1  0.74981414  0.75009005  0.33336601  1
  Al0+  Al71  1  0.74978867  0.74791310  0.67105912  1
  Al0+  Al72  1  0.92555314  0.81988587  0.65163136  1
  Al0+  Al73  1  0.82196165  0.57096100  0.01664794  1
  Al0+  Al74  1  0.17790271  0.93085107  0.01244817  1
  Al0+  Al75  1  0.17826961  0.93071595  0.34781307  1
  Al0+  Al76  1  0.67897820  0.92962764  0.68061832  1
  Al0+  Al77  1  0.92908978  0.32124092  0.65223036  1
  Al0+  Al78  1  0.07194534  0.68018798  0.31871253  1
  Al0+  Al79  1  0.31998972  0.57009550  0.01328141  1
  Al0+  Al80  1  0.92853008  0.82033216  0.98598754  1
  Al0+  Al81  1  0.17859665  0.92974280  0.68137716  1
  Al0+  Al82  1  0.43017667  0.82162848  0.65100194  1
  Al0+  Al83  1  0.82228413  0.56834234  0.67970046  1
  Al0+  Al84  1  0.07277193  0.67964400  0.65198895  1
  Al0+  Al85  1  0.42983391  0.32083514  0.31901807  1
  Al0+  Al86  1  0.07289528  0.17743676  0.65061395  1
  Al0+  Al87  1  0.57083173  0.68095379  0.32109402  1
  Al0+  Al88  1  0.42924503  0.82173892  0.98635839  1
  Al0+  Al89  1  0.07103524  0.17875993  0.98524888  1
  Al0+  Al90  1  0.57085163  0.17956163  0.98675293  1
  Al0+  Al91  1  0.67717727  0.92940279  0.01510411  1
  Al0+  Al92  1  0.07258145  0.67797117  0.98738671  1
  Al0+  Al93  1  0.32170965  0.56961357  0.34873652  1
  Al0+  Al94  1  0.06883875  0.17860178  0.31825426  1
  Al0+  Al95  1  0.57184912  0.67681147  0.98401774  1
  Si0+  Si96  1  0.92688518  0.82196285  0.31697926  1
  Si0+  Si97  1  0.17818172  0.42508661  0.01705738  1
  Si0+  Si98  1  0.57024338  0.17911573  0.65082468  1
  Si0+  Si99  1  0.43061149  0.32317513  0.65144546  1
  Si0+  Si100  1  0.92710253  0.32178096  0.98478331  1
  Si0+  Si101  1  0.32153997  0.07422692  0.01625306  1
  Si0+  Si102  1  0.82208721  0.57105846  0.34957327  1
  Si0+  Si103  1  0.18159545  0.42747705  0.68009632  1
  Si0+  Si104  1  0.67621234  0.42602165  0.68408175  1
  Si0+  Si105  1  0.57126070  0.67669602  0.65141284  1
  Si0+  Si106  1  0.68042440  0.42850161  0.34809413  1
  Si0+  Si107  1  0.42773716  0.82348250  0.31728709  1
  Si0+  Si108  1  0.92609412  0.32273780  0.31509651  1
  Si0+  Si109  1  0.57356728  0.17738126  0.31810879  1
  Si0+  Si110  1  0.67822672  0.92885498  0.34885796  1
  Si0+  Si111  1  0.67845962  0.42663870  0.01752832  1
  Si0+  Si112  1  0.81998689  0.07383712  0.01721822  1
  Si0+  Si113  1  0.42787232  0.32199614  0.98039214  1
  Si0+  Si114  1  0.81887309  0.07272052  0.34957297  1
  Si0+  Si115  1  0.82112801  0.07387543  0.68407343  1
  Si0+  Si116  1  0.17829750  0.42590384  0.34992421  1
  Si0+  Si117  1  0.32278172  0.07447934  0.34879608  1
  Si0+  Si118  1  0.32177349  0.07456804  0.68260879  1
  Si0+  Si119  1  0.32236241  0.57106777  0.68185340  1
  O2-  O120  1  0.25207397  0.00670535  0.06028606  1
  O2-  O121  1  0.25441474  0.00602670  0.39306719  1
  O2-  O122  1  0.25097798  0.00852336  0.72625603  1
  O2-  O123  1  0.24327084  0.49723663  0.06066495  1
  O2-  O124  1  0.24360923  0.49750735  0.39558459  1
  O2-  O125  1  0.24766258  0.50305689  0.72243280  1
  O2-  O126  1  0.75275256  0.00379072  0.06230857  1
  O2-  O127  1  0.74692871  0.00207236  0.39091123  1
  O2-  O128  1  0.75631491  0.00156568  0.72773983  1
  O2-  O129  1  0.74367454  0.49794130  0.06276821  1
  O2-  O130  1  0.75184844  0.49837725  0.39121584  1
  O2-  O131  1  0.74776130  0.49205685  0.72605371  1
  O2-  O132  1  -0.00361677  0.25585451  0.27133001  1
  O2-  O133  1  -0.00097634  0.24823312  0.60108454  1
  O2-  O134  1  -0.00187917  0.25584466  0.94099393  1
  O2-  O135  1  -0.00185214  0.75605131  0.27376548  1
  O2-  O136  1  0.00155131  0.75252586  0.60106330  1
  O2-  O137  1  -0.00035083  0.74763969  0.93648841  1
  O2-  O138  1  0.50250480  0.24317510  0.27411542  1
  O2-  O139  1  0.50133981  0.25205568  0.60877882  1
  O2-  O140  1  0.49592850  0.25245016  0.93691460  1
  O2-  O141  1  0.49667037  0.75525438  0.27396505  1
  O2-  O142  1  0.50411893  0.74557089  0.60542397  1
  O2-  O143  1  0.50390301  0.75277912  0.93497430  1
  O2-  O144  1  0.06934319  0.17950159  0.09868071  1
  O2-  O145  1  0.06738058  0.17940596  0.43093058  1
  O2-  O146  1  0.07343721  0.18085323  0.76396371  1
  O2-  O147  1  0.07260538  0.68145352  0.10126189  1
  O2-  O148  1  0.06960069  0.67983078  0.43162887  1
  O2-  O149  1  0.07327119  0.67852575  0.76499477  1
  O2-  O150  1  0.56933093  0.18251219  0.10012633  1
  O2-  O151  1  0.57463317  0.17931927  0.42395230  1
  O2-  O152  1  0.56940470  0.17926212  0.75558873  1
  O2-  O153  1  0.56865261  0.67837818  0.09811502  1
  O2-  O154  1  0.57281044  0.68277194  0.43454266  1
  O2-  O155  1  0.56898552  0.67429449  0.75621316  1
  O2-  O156  1  0.18107220  0.42343964  0.24465460  1
  O2-  O157  1  0.18605983  0.42355275  0.57513934  1
  O2-  O158  1  0.18077979  0.42256144  0.91114646  1
  O2-  O159  1  0.17802769  0.93142618  0.23472420  1
  O2-  O160  1  0.18195542  0.93033880  0.56789391  1
  O2-  O161  1  0.17846592  0.93131827  0.89968322  1
  O2-  O162  1  0.68202834  0.42479260  0.24346094  1
  O2-  O163  1  0.67156174  0.42734336  0.57816361  1
  O2-  O164  1  0.68073656  0.42385073  0.91206402  1
  O2-  O165  1  0.67790327  0.92950719  0.24416676  1
  O2-  O166  1  0.67873752  0.93313651  0.56652882  1
  O2-  O167  1  0.67682034  0.93237022  0.90222882  1
  O2-  O168  1  0.42862985  0.32143241  0.08602998  1
  O2-  O169  1  0.43304083  0.32005155  0.43277080  1
  O2-  O170  1  0.43121288  0.32445248  0.75601954  1
  O2-  O171  1  0.42879359  0.82032725  0.10027191  1
  O2-  O172  1  0.43061311  0.82337380  0.42314557  1
  O2-  O173  1  0.42951485  0.82114410  0.76346147  1
  O2-  O174  1  0.92480657  0.31885351  0.09063568  1
  O2-  O175  1  0.92383742  0.32154209  0.42036711  1
  O2-  O176  1  0.93200383  0.32052432  0.76577115  1
  O2-  O177  1  0.93061224  0.82022078  0.10027006  1
  O2-  O178  1  0.92291518  0.82014239  0.42235291  1
  O2-  O179  1  0.92356369  0.81610183  0.76443963  1
  O2-  O180  1  0.32649612  0.07450050  0.24370409  1
  O2-  O181  1  0.32312367  0.07675886  0.57680634  1
  O2-  O182  1  0.32152827  0.07592080  0.91071847  1
  O2-  O183  1  0.32307100  0.56811386  0.23603524  1
  O2-  O184  1  0.32603528  0.56763131  0.57661573  1
  O2-  O185  1  0.31975309  0.56757431  0.89969158  1
  O2-  O186  1  0.81801501  0.07599837  0.24485417  1
  O2-  O187  1  0.81584502  0.07677128  0.57790996  1
  O2-  O188  1  0.81725716  0.07787846  0.91205022  1
  O2-  O189  1  0.82038330  0.57070167  0.24483518  1
  O2-  O190  1  0.81876046  0.56706819  0.56584936  1
  O2-  O191  1  0.82352934  0.56723673  0.90369523  1
  O2-  O192  1  0.03210763  0.08351220  0.26516401  1
  O2-  O193  1  0.04306769  0.08019518  0.59717233  1
  O2-  O194  1  0.03630739  0.08495691  0.93059136  1
  O2-  O195  1  0.04336482  0.58227821  0.26623433  1
  O2-  O196  1  0.04678275  0.58043890  0.59923461  1
  O2-  O197  1  0.04922594  0.57554507  0.94082790  1
  O2-  O198  1  0.55057385  0.08235772  0.27423201  1
  O2-  O199  1  0.54071531  0.08952826  0.60060688  1
  O2-  O200  1  0.53974537  0.08484315  0.93065290  1
  O2-  O201  1  0.54352755  0.58379688  0.26805437  1
  O2-  O202  1  0.54490109  0.58260877  0.60491202  1
  O2-  O203  1  0.54334511  0.57855816  0.93157164  1
  O2-  O204  1  0.16542295  0.20692851  0.26344788  1
  O2-  O205  1  0.17131635  0.20910786  0.59842660  1
  O2-  O206  1  0.16727708  0.20816062  0.93019853  1
  O2-  O207  1  0.17046101  0.71103500  0.26941768  1
  O2-  O208  1  0.17107661  0.70841530  0.59868089  1
  O2-  O209  1  0.17063457  0.70623684  0.93582759  1
  O2-  O210  1  0.66593079  0.20595571  0.27168044  1
  O2-  O211  1  0.66178936  0.20513492  0.60197086  1
  O2-  O212  1  0.66595842  0.21196390  0.93079062  1
  O2-  O213  1  0.66732839  0.71219228  0.26721654  1
  O2-  O214  1  0.66479372  0.70185074  0.60599086  1
  O2-  O215  1  0.67274121  0.70104899  0.93746696  1
  O2-  O216  1  0.08351899  0.44161220  0.06385251  1
  O2-  O217  1  0.08219588  0.44738750  0.39295640  1
  O2-  O218  1  0.08827450  0.44909082  0.72589045  1
  O2-  O219  1  0.08083219  0.96283615  0.06587500  1
  O2-  O220  1  0.08064203  0.96158707  0.40029211  1
  O2-  O221  1  0.07956624  0.95710453  0.73201466  1
  O2-  O222  1  0.58278867  0.44746304  0.06094424  1
  O2-  O223  1  0.58913013  0.45711872  0.39586320  1
  O2-  O224  1  0.58370994  0.45209943  0.73264498  1
  O2-  O225  1  0.58146971  0.96418321  0.06956615  1
  O2-  O226  1  0.58555327  0.95438992  0.39679995  1
  O2-  O227  1  0.58276021  0.96536379  0.73207882  1
  O2-  O228  1  0.20984918  0.33263474  0.06314080  1
  O2-  O229  1  0.20857839  0.33313019  0.39592294  1
  O2-  O230  1  0.21531067  0.33818759  0.73000260  1
  O2-  O231  1  0.21166915  0.83571981  0.06767958  1
  O2-  O232  1  0.21083699  0.83587031  0.40418258  1
  O2-  O233  1  0.21515936  0.83392388  0.73322111  1
  O2-  O234  1  0.70712621  0.33413634  0.06558854  1
  O2-  O235  1  0.70571392  0.33617056  0.39754112  1
  O2-  O236  1  0.69854546  0.33067939  0.72795707  1
  O2-  O237  1  0.70751286  0.83387814  0.07135457  1
  O2-  O238  1  0.70907783  0.83820354  0.39710451  1
  O2-  O239  1  0.70447225  0.83179429  0.73336804  1
  O2-  O240  1  0.46529238  0.41457564  0.26378153  1
  O2-  O241  1  0.46010645  0.41415358  0.60263613  1
  O2-  O242  1  0.45543884  0.41393116  0.93314553  1
  O2-  O243  1  0.45161114  0.91831913  0.27314091  1
  O2-  O244  1  0.46127719  0.91770382  0.59536078  1
  O2-  O245  1  0.45302175  0.92132348  0.93434683  1
  O2-  O246  1  0.94907872  0.41680992  0.26951387  1
  O2-  O247  1  0.95984102  0.41710450  0.59613187  1
  O2-  O248  1  0.95207830  0.41601236  0.94157759  1
  O2-  O249  1  0.94696913  0.91733361  0.27321488  1
  O2-  O250  1  0.94523691  0.92128091  0.60145832  1
  O2-  O251  1  0.95149539  0.91940265  0.93332745  1
  O2-  O252  1  0.33470265  0.29326440  0.26170548  1
  O2-  O253  1  0.34028697  0.29531431  0.60166951  1
  O2-  O254  1  0.33515585  0.29706982  0.93278654  1
  O2-  O255  1  0.33377109  0.79711073  0.27460170  1
  O2-  O256  1  0.33597885  0.78864043  0.59481660  1
  O2-  O257  1  0.33322567  0.78784148  0.93281141  1
  O2-  O258  1  0.83287247  0.29442701  0.26913042  1
  O2-  O259  1  0.82855760  0.29705778  0.59965405  1
  O2-  O260  1  0.83502987  0.29535111  0.93693008  1
  O2-  O261  1  0.83448166  0.79299728  0.27012361  1
  O2-  O262  1  0.82791333  0.78709801  0.59768649  1
  O2-  O263  1  0.82916830  0.79122398  0.93762381  1
  O2-  O264  1  0.41530783  0.05125680  0.06287375  1
  O2-  O265  1  0.41718222  0.05171513  0.39710357  1
  O2-  O266  1  0.41543068  0.04661577  0.72718824  1
  O2-  O267  1  0.41643968  0.53535799  0.06661283  1
  O2-  O268  1  0.41786078  0.53442470  0.40256722  1
  O2-  O269  1  0.41219935  0.53814068  0.73028793  1
  O2-  O270  1  0.91348910  0.04801777  0.06303493  1
  O2-  O271  1  0.90917539  0.04371106  0.39869479  1
  O2-  O272  1  0.91689803  0.05488832  0.72630054  1
  O2-  O273  1  0.91677682  0.53640319  0.07386977  1
  O2-  O274  1  0.91445866  0.54322023  0.39568093  1
  O2-  O275  1  0.91928955  0.53653422  0.73265117  1
  O2-  O276  1  0.29692060  0.16917961  0.06082750  1
  O2-  O277  1  0.29702309  0.16920347  0.39304615  1
  O2-  O278  1  0.30218231  0.16978592  0.72877093  1
  O2-  O279  1  0.29246540  0.66590815  0.06981484  1
  O2-  O280  1  0.29396911  0.66641748  0.40386910  1
  O2-  O281  1  0.29756835  0.66381665  0.72691168  1
  O2-  O282  1  0.79200085  0.16656974  0.06507804  1
  O2-  O283  1  0.79138125  0.16412334  0.39918205  1
  O2-  O284  1  0.79082104  0.16634689  0.73037881  1
  O2-  O285  1  0.79228503  0.66587511  0.07438016  1
  O2-  O286  1  0.79157563  0.66232549  0.39664611  1
  O2-  O287  1  0.78928383  0.66268631  0.73533751  1
