# generated using pymatgen
data_Ca2Al2SiO7
_symmetry_space_group_name_H-M   'P 1'
_cell_length_a   15.46336192
_cell_length_b   15.46319787
_cell_length_c   15.28788127
_cell_angle_alpha   89.99623874
_cell_angle_beta   90.00092295
_cell_angle_gamma   90.00821274
_symmetry_Int_Tables_number   1
_chemical_formula_structural   Ca2Al2SiO7
_chemical_formula_sum   'Ca48 Al48 Si24 O168'
_cell_volume   3655.53149054
_cell_formula_units_Z   24
loop_
 _symmetry_equiv_pos_site_id
 _symmetry_equiv_pos_as_xyz
  1  'x, y, z'
loop_
 _atom_type_symbol
 _atom_type_oxidation_number
  Ca2+  2.0
  Al0+  0.0
  Si0+  0.0
  O2-  -2.0
loop_
 _atom_site_type_symbol
 _atom_site_label
 _atom_site_symmetry_multiplicity
 _atom_site_fract_x
 _atom_site_fract_y
 _atom_site_fract_z
 _atom_site_occupancy
  Ca2+  Ca0  1  0.17138989  0.07967359  0.17292728  1
  Ca2+  Ca1  1  0.15916498  0.07892613  0.50306536  1
  Ca2+  Ca2  1  0.17188521  0.09171508  0.83970815  1
  Ca2+  Ca3  1  0.16825658  0.57390220  0.17673158  1
  Ca2+  Ca4  1  0.16220573  0.58060225  0.49641831  1
  Ca2+  Ca5  1  0.15869737  0.57658893  0.83667825  1
  Ca2+  Ca6  1  0.66537799  0.08530237  0.16537889  1
  Ca2+  Ca7  1  0.67192371  0.08796002  0.50312108  1
  Ca2+  Ca8  1  0.67861262  0.08192558  0.84280069  1
  Ca2+  Ca9  1  0.67902619  0.57976495  0.17724903  1
  Ca2+  Ca10  1  0.67434381  0.57400557  0.50308630  1
  Ca2+  Ca11  1  0.67897442  0.57433375  0.83678484  1
  Ca2+  Ca12  1  0.07458937  0.34619188  0.16370275  1
  Ca2+  Ca13  1  0.07038401  0.33511912  0.49482374  1
  Ca2+  Ca14  1  0.07230300  0.33078927  0.82906632  1
  Ca2+  Ca15  1  0.08013562  0.82837060  0.16603795  1
  Ca2+  Ca16  1  0.08358399  0.82227963  0.49194337  1
  Ca2+  Ca17  1  0.07475314  0.82742129  0.82829208  1
  Ca2+  Ca18  1  0.58398526  0.32664166  0.16746851  1
  Ca2+  Ca19  1  0.58432596  0.33599178  0.48627165  1
  Ca2+  Ca20  1  0.58850141  0.32855591  0.83107256  1
  Ca2+  Ca21  1  0.59075013  0.82673388  0.16187105  1
  Ca2+  Ca22  1  0.58123201  0.82438776  0.49130787  1
  Ca2+  Ca23  1  0.58700044  0.83697646  0.83518316  1
  Ca2+  Ca24  1  0.32118433  0.41566518  0.17652923  1
  Ca2+  Ca25  1  0.33316621  0.41781243  0.49612244  1
  Ca2+  Ca26  1  0.32162377  0.41639695  0.84035434  1
  Ca2+  Ca27  1  0.32945090  0.92368286  0.17154281  1
  Ca2+  Ca28  1  0.32486130  0.91375200  0.49873206  1
  Ca2+  Ca29  1  0.32820883  0.92431873  0.84199750  1
  Ca2+  Ca30  1  0.83619301  0.42406513  0.17431533  1
  Ca2+  Ca31  1  0.82981162  0.41945179  0.50191425  1
  Ca2+  Ca32  1  0.84323140  0.42348268  0.83462270  1
  Ca2+  Ca33  1  0.83580618  0.92169493  0.16369240  1
  Ca2+  Ca34  1  0.83382073  0.92624669  0.50501047  1
  Ca2+  Ca35  1  0.83406969  0.92823677  0.84366437  1
  Ca2+  Ca36  1  0.42451667  0.16786512  0.16294807  1
  Ca2+  Ca37  1  0.42804740  0.17761482  0.48792782  1
  Ca2+  Ca38  1  0.42263417  0.16130511  0.83497165  1
  Ca2+  Ca39  1  0.42395905  0.65688664  0.16978604  1
  Ca2+  Ca40  1  0.42339417  0.66202200  0.48763688  1
  Ca2+  Ca41  1  0.41969903  0.66933757  0.82884598  1
  Ca2+  Ca42  1  0.91370379  0.18199375  0.15980272  1
  Ca2+  Ca43  1  0.91202291  0.17882921  0.49826738  1
  Ca2+  Ca44  1  0.91193287  0.17527479  0.82725731  1
  Ca2+  Ca45  1  0.91859013  0.66406137  0.16082820  1
  Ca2+  Ca46  1  0.92324788  0.65641890  0.49565898  1
  Ca2+  Ca47  1  0.91315111  0.66851718  0.83107136  1
  Al0+  Al48  1  0.00023893  -0.00121227  0.00031904  1
  Al0+  Al49  1  0.00020811  0.00016863  0.33814513  1
  Al0+  Al50  1  0.00014652  -0.00189963  0.66939930  1
  Al0+  Al51  1  0.00078812  0.49945018  0.00231072  1
  Al0+  Al52  1  0.00219274  0.50133108  0.33241838  1
  Al0+  Al53  1  0.00043360  0.50015005  0.66314825  1
  Al0+  Al54  1  0.49919192  -0.00092952  0.00285364  1
  Al0+  Al55  1  0.50053243  -0.00024954  0.33212008  1
  Al0+  Al56  1  0.49707466  -0.00001374  0.66396820  1
  Al0+  Al57  1  0.49992468  0.49945531  -0.00424167  1
  Al0+  Al58  1  0.49961686  0.49962007  0.32832166  1
  Al0+  Al59  1  0.49916319  0.50018803  0.67296538  1
  Al0+  Al60  1  0.25065184  0.25064031  0.00987695  1
  Al0+  Al61  1  0.25022479  0.24883077  0.33637322  1
  Al0+  Al62  1  0.25158280  0.24888669  0.66360717  1
  Al0+  Al63  1  0.25236781  0.74881986  -0.00176067  1
  Al0+  Al64  1  0.24882045  0.75162810  0.33535046  1
  Al0+  Al65  1  0.24961816  0.75122887  0.66497120  1
  Al0+  Al66  1  0.74921170  0.25056807  -0.00630385  1
  Al0+  Al67  1  0.75161085  0.25019119  0.32721826  1
  Al0+  Al68  1  0.74849526  0.24820738  0.66974498  1
  Al0+  Al69  1  0.75164139  0.74937314  0.00060040  1
  Al0+  Al70  1  0.75062771  0.75317618  0.33433677  1
  Al0+  Al71  1  0.74774741  0.74898459  0.66836253  1
  Al0+  Al72  1  0.92987274  0.32170211  0.98575946  1
  Al0+  Al73  1  0.32079848  0.57062815  0.34727581  1
  Al0+  Al74  1  0.67649281  0.42782676  0.68278951  1
  Al0+  Al75  1  0.17794339  0.42677981  0.35184259  1
  Al0+  Al76  1  0.92762223  0.31971022  0.65019177  1
  Al0+  Al77  1  0.06984783  0.68090538  0.31830154  1
  Al0+  Al78  1  0.17873042  0.93100092  0.34777137  1
  Al0+  Al79  1  0.68123874  0.42838303  0.34414241  1
  Al0+  Al80  1  0.93185215  0.32072664  0.31857270  1
  Al0+  Al81  1  0.92914706  0.82120697  0.98628084  1
  Al0+  Al82  1  0.68000758  0.92943105  0.01535053  1
  Al0+  Al83  1  0.57281006  0.17800359  0.31721805  1
  Al0+  Al84  1  0.56872899  0.17852623  0.98360898  1
  Al0+  Al85  1  0.18021444  0.43123045  0.01254648  1
  Al0+  Al86  1  0.07066992  0.68038435  0.65221155  1
  Al0+  Al87  1  0.82292852  0.07402374  0.01676392  1
  Al0+  Al88  1  0.32017051  0.07016130  0.01472437  1
  Al0+  Al89  1  0.82308387  0.57010828  0.68280030  1
  Al0+  Al90  1  0.82255370  0.57419826  0.34816545  1
  Al0+  Al91  1  0.57227226  0.67964412  0.31980946  1
  Al0+  Al92  1  0.07373177  0.17751529  0.65252905  1
  Al0+  Al93  1  0.81971287  0.56874481  0.01406745  1
  Al0+  Al94  1  0.42708286  0.32235991  0.31681539  1
  Al0+  Al95  1  0.82102697  0.06942784  0.68004302  1
  Si0+  Si96  1  0.32484420  0.57393214  0.01519511  1
  Si0+  Si97  1  0.07130701  0.17516321  0.31763233  1
  Si0+  Si98  1  0.18011588  0.92730028  0.68339232  1
  Si0+  Si99  1  0.42590026  0.32149097  0.98180192  1
  Si0+  Si100  1  0.82002347  0.07092747  0.34753947  1
  Si0+  Si101  1  0.56893532  0.67836248  0.65272002  1
  Si0+  Si102  1  0.32408822  0.07127174  0.35289703  1
  Si0+  Si103  1  0.07354224  0.17740000  0.98769904  1
  Si0+  Si104  1  0.07270185  0.67873160  0.98398726  1
  Si0+  Si105  1  0.32072855  0.07029649  0.68123528  1
  Si0+  Si106  1  0.67495787  0.42725865  0.01698168  1
  Si0+  Si107  1  0.92760314  0.82601282  0.31721484  1
  Si0+  Si108  1  0.32130807  0.57294273  0.68233416  1
  Si0+  Si109  1  0.56886201  0.17861413  0.65279211  1
  Si0+  Si110  1  0.67706142  0.92892767  0.34932421  1
  Si0+  Si111  1  0.17782803  0.92471252  0.01572023  1
  Si0+  Si112  1  0.92548069  0.82168349  0.65021855  1
  Si0+  Si113  1  0.42768951  0.82191943  0.31568125  1
  Si0+  Si114  1  0.42904581  0.82031490  0.98451928  1
  Si0+  Si115  1  0.42873489  0.82167217  0.65106125  1
  Si0+  Si116  1  0.42877981  0.32239971  0.65319769  1
  Si0+  Si117  1  0.18079836  0.42870095  0.68048296  1
  Si0+  Si118  1  0.57221462  0.67794727  0.98293186  1
  Si0+  Si119  1  0.67493732  0.92820564  0.68120243  1
  O2-  O120  1  0.24300730  -0.00307066  0.05918882  1
  O2-  O121  1  0.25245276  0.00575380  0.39744089  1
  O2-  O122  1  0.24596700  0.00359848  0.72499197  1
  O2-  O123  1  0.25656614  0.50507022  0.05710505  1
  O2-  O124  1  0.25138647  0.49854446  0.40104641  1
  O2-  O125  1  0.24930513  0.50273719  0.72361696  1
  O2-  O126  1  0.75023456  0.00220361  0.06666434  1
  O2-  O127  1  0.74717155  0.00113107  0.39007115  1
  O2-  O128  1  0.74646957  -0.00676736  0.72487894  1
  O2-  O129  1  0.74496223  0.49441520  0.06004117  1
  O2-  O130  1  0.75033762  0.50154432  0.39649329  1
  O2-  O131  1  0.75316146  0.49544142  0.73237798  1
  O2-  O132  1  0.00967493  0.24850343  0.27187516  1
  O2-  O133  1  0.00000126  0.24656698  0.60152660  1
  O2-  O134  1  0.00165077  0.24172745  0.94227562  1
  O2-  O135  1  -0.00886591  0.75235124  0.27366735  1
  O2-  O136  1  -0.00835832  0.75113420  0.60572522  1
  O2-  O137  1  0.00551865  0.74820973  0.93907783  1
  O2-  O138  1  0.49891945  0.24899349  0.26880758  1
  O2-  O139  1  0.50410243  0.25556558  0.61187054  1
  O2-  O140  1  0.49562570  0.25504996  0.93539608  1
  O2-  O141  1  0.49659140  0.75370395  0.27156184  1
  O2-  O142  1  0.49944634  0.75078514  0.60974607  1
  O2-  O143  1  0.49946880  0.74881061  0.94136447  1
  O2-  O144  1  0.07449678  0.17765496  0.09303304  1
  O2-  O145  1  0.06499814  0.17190985  0.42306867  1
  O2-  O146  1  0.07969104  0.18260478  0.76619713  1
  O2-  O147  1  0.07452398  0.68066159  0.08910511  1
  O2-  O148  1  0.07009117  0.68358897  0.43158685  1
  O2-  O149  1  0.07527756  0.68387455  0.76554993  1
  O2-  O150  1  0.56600207  0.17813887  0.09593975  1
  O2-  O151  1  0.57178122  0.17687772  0.43174719  1
  O2-  O152  1  0.56400363  0.17348960  0.75755221  1
  O2-  O153  1  0.57084772  0.67749659  0.08768509  1
  O2-  O154  1  0.57059396  0.68331690  0.43351927  1
  O2-  O155  1  0.56608816  0.68026063  0.75806031  1
  O2-  O156  1  0.17789350  0.43054070  0.23828621  1
  O2-  O157  1  0.18363400  0.42823036  0.57620505  1
  O2-  O158  1  0.18111811  0.43205696  0.89835774  1
  O2-  O159  1  0.17993536  0.93307261  0.23453295  1
  O2-  O160  1  0.18405538  0.92490989  0.57863628  1
  O2-  O161  1  0.18172221  0.92201210  0.90974766  1
  O2-  O162  1  0.68417157  0.42853295  0.23062117  1
  O2-  O163  1  0.66975004  0.43202691  0.56990007  1
  O2-  O164  1  0.67168926  0.43151294  0.91125322  1
  O2-  O165  1  0.67602882  0.92686617  0.24490841  1
  O2-  O166  1  0.67221807  0.92973481  0.57549612  1
  O2-  O167  1  0.68012002  0.93098320  0.90106719  1
  O2-  O168  1  0.42576840  0.32129524  0.08649636  1
  O2-  O169  1  0.42969972  0.32030393  0.43158869  1
  O2-  O170  1  0.42476251  0.31976469  0.75830368  1
  O2-  O171  1  0.42599704  0.81936327  0.08884438  1
  O2-  O172  1  0.43034854  0.82307454  0.42199185  1
  O2-  O173  1  0.42811809  0.82268110  0.75635723  1
  O2-  O174  1  0.93232304  0.32416975  0.09859786  1
  O2-  O175  1  0.92831121  0.31767471  0.43150978  1
  O2-  O176  1  0.93181641  0.31998327  0.76399829  1
  O2-  O177  1  0.93099132  0.82018228  0.09918784  1
  O2-  O178  1  0.93002942  0.83090108  0.42289960  1
  O2-  O179  1  0.92826560  0.82256960  0.75581956  1
  O2-  O180  1  0.32440405  0.06758793  0.24729047  1
  O2-  O181  1  0.32471983  0.06629379  0.57692225  1
  O2-  O182  1  0.31903248  0.06818857  0.90059856  1
  O2-  O183  1  0.31827501  0.57142239  0.23355238  1
  O2-  O184  1  0.32561165  0.57342588  0.57816633  1
  O2-  O185  1  0.32485169  0.57550072  0.90889109  1
  O2-  O186  1  0.82212518  0.06896599  0.24301352  1
  O2-  O187  1  0.81750721  0.06901969  0.56632037  1
  O2-  O188  1  0.82175267  0.07191252  0.90291407  1
  O2-  O189  1  0.82086991  0.57452203  0.23446076  1
  O2-  O190  1  0.81973375  0.57225372  0.56988075  1
  O2-  O191  1  0.81953558  0.56912150  0.90087685  1
  O2-  O192  1  0.04204560  0.08298653  0.27041661  1
  O2-  O193  1  0.04930362  0.07569642  0.60442256  1
  O2-  O194  1  0.05579288  0.08163439  0.94226037  1
  O2-  O195  1  0.04358766  0.58404750  0.26409774  1
  O2-  O196  1  0.04545214  0.58274017  0.59897536  1
  O2-  O197  1  0.04407521  0.58628977  0.93782022  1
  O2-  O198  1  0.54403879  0.07869016  0.26587496  1
  O2-  O199  1  0.53540023  0.08908471  0.60302232  1
  O2-  O200  1  0.53380620  0.08170675  0.93090858  1
  O2-  O201  1  0.54184426  0.58503719  0.26294261  1
  O2-  O202  1  0.53701031  0.58733313  0.60717710  1
  O2-  O203  1  0.54347097  0.58705524  0.93313486  1
  O2-  O204  1  0.16907827  0.19162183  0.27792671  1
  O2-  O205  1  0.17277706  0.20310131  0.59829808  1
  O2-  O206  1  0.16710454  0.20711208  0.94252737  1
  O2-  O207  1  0.16556378  0.71656136  0.26535397  1
  O2-  O208  1  0.16653407  0.71549336  0.59855646  1
  O2-  O209  1  0.16762695  0.70167920  0.93738095  1
  O2-  O210  1  0.66968151  0.20570959  0.26240336  1
  O2-  O211  1  0.66252223  0.19923971  0.60748282  1
  O2-  O212  1  0.66501752  0.20766518  0.92798880  1
  O2-  O213  1  0.66783760  0.71457465  0.26591361  1
  O2-  O214  1  0.66089338  0.70473722  0.60548230  1
  O2-  O215  1  0.66219428  0.70876160  0.93455784  1
  O2-  O216  1  0.08652675  0.46529335  0.06813679  1
  O2-  O217  1  0.08154705  0.46051731  0.40455129  1
  O2-  O218  1  0.08891107  0.45613121  0.72727131  1
  O2-  O219  1  0.08359470  0.94568047  0.06057905  1
  O2-  O220  1  0.08308798  0.96079090  0.40516639  1
  O2-  O221  1  0.08643599  0.94765081  0.72951350  1
  O2-  O222  1  0.58055987  0.45360455  0.06108569  1
  O2-  O223  1  0.58099898  0.45432513  0.39357823  1
  O2-  O224  1  0.57985408  0.46024023  0.73997344  1
  O2-  O225  1  0.58028416  0.95314201  0.06693801  1
  O2-  O226  1  0.58473038  0.95457329  0.39786511  1
  O2-  O227  1  0.58130691  0.95617898  0.72720783  1
  O2-  O228  1  0.20870787  0.33631054  0.06955592  1
  O2-  O229  1  0.20291972  0.32678592  0.40359828  1
  O2-  O230  1  0.21334056  0.33802712  0.72795799  1
  O2-  O231  1  0.20892170  0.83269378  0.06204317  1
  O2-  O232  1  0.21244184  0.83648644  0.40403186  1
  O2-  O233  1  0.21512709  0.83865350  0.73312861  1
  O2-  O234  1  0.69765329  0.33182361  0.05752702  1
  O2-  O235  1  0.70992344  0.32950163  0.39708566  1
  O2-  O236  1  0.69822267  0.32713993  0.73293398  1
  O2-  O237  1  0.70894116  0.83097045  0.06703665  1
  O2-  O238  1  0.70588361  0.83913062  0.40025577  1
  O2-  O239  1  0.69484328  0.83308213  0.72624384  1
  O2-  O240  1  0.45218152  0.41987512  0.26196618  1
  O2-  O241  1  0.45197119  0.41681800  0.60921108  1
  O2-  O242  1  0.44801158  0.41655909  0.93503583  1
  O2-  O243  1  0.45338857  0.91549603  0.27031055  1
  O2-  O244  1  0.45585341  0.91264660  0.60123082  1
  O2-  O245  1  0.45712013  0.91118762  0.93513999  1
  O2-  O246  1  0.96217366  0.41751839  0.26567296  1
  O2-  O247  1  0.95754801  0.41777619  0.59841996  1
  O2-  O248  1  0.96762788  0.41634368  0.93121660  1
  O2-  O249  1  0.96031062  0.91698999  0.26952393  1
  O2-  O250  1  0.95383126  0.91455529  0.60421233  1
  O2-  O251  1  0.95961317  0.91794463  0.93063131  1
  O2-  O252  1  0.32768951  0.29213897  0.26635311  1
  O2-  O253  1  0.34012437  0.29050978  0.60280207  1
  O2-  O254  1  0.33224543  0.29226651  0.93668248  1
  O2-  O255  1  0.33374779  0.79860358  0.27079127  1
  O2-  O256  1  0.33736433  0.79413454  0.60337662  1
  O2-  O257  1  0.33798479  0.79261007  0.93305614  1
  O2-  O258  1  0.83777670  0.28678519  0.26267877  1
  O2-  O259  1  0.82803677  0.28961358  0.59996937  1
  O2-  O260  1  0.83256478  0.29635010  0.93079624  1
  O2-  O261  1  0.83181001  0.80781292  0.27382696  1
  O2-  O262  1  0.82935729  0.80170313  0.60642267  1
  O2-  O263  1  0.83326974  0.78938270  0.93097668  1
  O2-  O264  1  0.41364812  0.03424321  0.06949143  1
  O2-  O265  1  0.41665140  0.04141203  0.39964707  1
  O2-  O266  1  0.41055370  0.03677491  0.73064790  1
  O2-  O267  1  0.41924019  0.54889866  0.05912644  1
  O2-  O268  1  0.42032930  0.54348666  0.39908363  1
  O2-  O269  1  0.41090490  0.54472974  0.73425991  1
  O2-  O270  1  0.92177005  0.04430162  0.06828814  1
  O2-  O271  1  0.90976783  0.04072342  0.39764602  1
  O2-  O272  1  0.91791169  0.04027688  0.73475939  1
  O2-  O273  1  0.91674777  0.53975842  0.06663302  1
  O2-  O274  1  0.92062372  0.54445653  0.39867429  1
  O2-  O275  1  0.92332042  0.54442148  0.73468378  1
  O2-  O276  1  0.29326895  0.16554374  0.07139342  1
  O2-  O277  1  0.30286276  0.16559173  0.39813936  1
  O2-  O278  1  0.29739432  0.16337018  0.72865921  1
  O2-  O279  1  0.30177237  0.66795896  0.06083823  1
  O2-  O280  1  0.29471522  0.67012307  0.39989370  1
  O2-  O281  1  0.29464870  0.66597408  0.72910127  1
  O2-  O282  1  0.79259438  0.17334856  0.06567555  1
  O2-  O283  1  0.79096046  0.16208115  0.39457318  1
  O2-  O284  1  0.78858393  0.16413387  0.73534582  1
  O2-  O285  1  0.78920152  0.66525619  0.06671677  1
  O2-  O286  1  0.79611235  0.67395387  0.40017830  1
  O2-  O287  1  0.79114014  0.66922643  0.73475795  1
