# generated using pymatgen
data_Ca2Al2SiO7
_symmetry_space_group_name_H-M   'P 1'
_cell_length_a   15.45956121
_cell_length_b   15.45954559
_cell_length_c   15.28482848
_cell_angle_alpha   90.00514075
_cell_angle_beta   90.00785589
_cell_angle_gamma   89.99626816
_symmetry_Int_Tables_number   1
_chemical_formula_structural   Ca2Al2SiO7
_chemical_formula_sum   'Ca48 Al48 Si24 O168'
_cell_volume   3653.04019056
_cell_formula_units_Z   24
loop_
 _symmetry_equiv_pos_site_id
 _symmetry_equiv_pos_as_xyz
  1  'x, y, z'
loop_
 _atom_type_symbol
 _atom_type_oxidation_number
  Ca2+  2.0
  Al0+  0.0
  Si0+  0.0
  O2-  -2.0
loop_
 _atom_site_type_symbol
 _atom_site_label
 _atom_site_symmetry_multiplicity
 _atom_site_fract_x
 _atom_site_fract_y
 _atom_site_fract_z
 _atom_site_occupancy
  Ca2+  Ca0  1  0.17316145  0.08026186  0.16705051  1
  Ca2+  Ca1  1  0.16828158  0.07552484  0.50116048  1
  Ca2+  Ca2  1  0.17453530  0.08473609  0.84604233  1
  Ca2+  Ca3  1  0.16665442  0.58635224  0.16625139  1
  Ca2+  Ca4  1  0.16589250  0.57953528  0.50300855  1
  Ca2+  Ca5  1  0.16815847  0.57322189  0.84371169  1
  Ca2+  Ca6  1  0.66688470  0.08423340  0.16959693  1
  Ca2+  Ca7  1  0.66337725  0.07684385  0.50564561  1
  Ca2+  Ca8  1  0.67444663  0.08739745  0.83746675  1
  Ca2+  Ca9  1  0.66821527  0.57104278  0.17292787  1
  Ca2+  Ca10  1  0.66918673  0.58006856  0.49878413  1
  Ca2+  Ca11  1  0.66681037  0.57586863  0.84281107  1
  Ca2+  Ca12  1  0.08181408  0.32848867  0.15713524  1
  Ca2+  Ca13  1  0.08370701  0.33426286  0.49763179  1
  Ca2+  Ca14  1  0.09402135  0.32937446  0.83461706  1
  Ca2+  Ca15  1  0.08265138  0.82372356  0.15839384  1
  Ca2+  Ca16  1  0.07595865  0.83043022  0.49021629  1
  Ca2+  Ca17  1  0.07000569  0.83226350  0.83428147  1
  Ca2+  Ca18  1  0.58174478  0.32862495  0.15893953  1
  Ca2+  Ca19  1  0.58375168  0.32175317  0.48906062  1
  Ca2+  Ca20  1  0.58404008  0.32448081  0.83355275  1
  Ca2+  Ca21  1  0.57467415  0.83872352  0.16411322  1
  Ca2+  Ca22  1  0.58050840  0.84058459  0.49224098  1
  Ca2+  Ca23  1  0.57758030  0.84021223  0.83201021  1
  Ca2+  Ca24  1  0.33451426  0.41496713  0.16518261  1
  Ca2+  Ca25  1  0.33022122  0.41384276  0.50327190  1
  Ca2+  Ca26  1  0.32637705  0.41961296  0.84735378  1
  Ca2+  Ca27  1  0.33590721  0.91988514  0.17183286  1
  Ca2+  Ca28  1  0.32838628  0.91079553  0.49753568  1
  Ca2+  Ca29  1  0.33429699  0.92380747  0.84424666  1
  Ca2+  Ca30  1  0.82023681  0.41820077  0.17166234  1
  Ca2+  Ca31  1  0.83001775  0.42159045  0.49647320  1
  Ca2+  Ca32  1  0.82542224  0.41617466  0.84190280  1
  Ca2+  Ca33  1  0.83093397  0.91987427  0.16956729  1
  Ca2+  Ca34  1  0.82056582  0.91975826  0.51009236  1
  Ca2+  Ca35  1  0.83332015  0.92196017  0.83729095  1
  Ca2+  Ca36  1  0.42720150  0.17516526  0.15852622  1
  Ca2+  Ca37  1  0.42909010  0.17206895  0.49102131  1
  Ca2+  Ca38  1  0.42709801  0.16625010  0.83487807  1
  Ca2+  Ca39  1  0.41030122  0.67803209  0.15991643  1
  Ca2+  Ca40  1  0.41985968  0.67348876  0.49243265  1
  Ca2+  Ca41  1  0.41121156  0.66922461  0.83881155  1
  Ca2+  Ca42  1  0.92247706  0.16295351  0.15641618  1
  Ca2+  Ca43  1  0.91346335  0.16495703  0.50098285  1
  Ca2+  Ca44  1  0.91881799  0.16013705  0.83375910  1
  Ca2+  Ca45  1  0.92442987  0.66827499  0.15976955  1
  Ca2+  Ca46  1  0.92026030  0.66922168  0.49189281  1
  Ca2+  Ca47  1  0.91685671  0.67771390  0.83131758  1
  Al0+  Al48  1  -0.00039934  0.00058082  -0.00364573  1
  Al0+  Al49  1  0.00143926  -0.00072019  0.33804704  1
  Al0+  Al50  1  -0.00080663  -0.00067830  0.66342582  1
  Al0+  Al51  1  -0.00042629  0.49948095  -0.00092346  1
  Al0+  Al52  1  0.00123718  0.49970958  0.33293650  1
  Al0+  Al53  1  0.00047850  0.49885549  0.67102908  1
  Al0+  Al54  1  0.50059437  0.00081599  -0.00389821  1
  Al0+  Al55  1  0.50073581  0.00274512  0.33030149  1
  Al0+  Al56  1  0.49867641  -0.00016707  0.66440398  1
  Al0+  Al57  1  0.49812280  0.50080651  0.00489446  1
  Al0+  Al58  1  0.49841457  0.50012425  0.33686002  1
  Al0+  Al59  1  0.49883469  0.50166252  0.66618862  1
  Al0+  Al60  1  0.25096186  0.24960782  0.00205084  1
  Al0+  Al61  1  0.25095487  0.24972111  0.33218461  1
  Al0+  Al62  1  0.24974191  0.24950056  0.66777166  1
  Al0+  Al63  1  0.24847413  0.74851014  -0.00810376  1
  Al0+  Al64  1  0.24886123  0.74950800  0.33200958  1
  Al0+  Al65  1  0.24947732  0.74866270  0.66700619  1
  Al0+  Al66  1  0.75145690  0.24832167  0.00526111  1
  Al0+  Al67  1  0.75208130  0.25091031  0.33431650  1
  Al0+  Al68  1  0.75140617  0.24945946  0.66404517  1
  Al0+  Al69  1  0.74860147  0.75090601  -0.00298867  1
  Al0+  Al70  1  0.75054989  0.75140033  0.34026428  1
  Al0+  Al71  1  0.74833825  0.75017742  0.66648385  1
  Al0+  Al72  1  0.67693958  0.42823165  0.35031761  1
  Al0+  Al73  1  0.32356187  0.07058511  0.01405543  1
  Al0+  Al74  1  0.57151228  0.18026900  0.65143893  1
  Al0+  Al75  1  0.92659686  0.82181276  0.98574945  1
  Al0+  Al76  1  0.18016500  0.92747311  0.34579050  1
  Al0+  Al77  1  0.92831526  0.82128836  0.64955686  1
  Al0+  Al78  1  0.82283937  0.57052228  0.34739127  1
  Al0+  Al79  1  0.57362581  0.18020114  0.31649372  1
  Al0+  Al80  1  0.67608121  0.92794478  0.68385623  1
  Al0+  Al81  1  0.67927928  0.42892374  0.01241018  1
  Al0+  Al82  1  0.57382511  0.17946292  0.98349550  1
  Al0+  Al83  1  0.06950229  0.67882672  0.31986597  1
  Al0+  Al84  1  0.17776986  0.42828885  0.01807867  1
  Al0+  Al85  1  0.42961632  0.32279568  0.98431480  1
  Al0+  Al86  1  0.18002557  0.42906808  0.68043159  1
  Al0+  Al87  1  0.42919042  0.82146462  0.98621141  1
  Al0+  Al88  1  0.43021426  0.81967030  0.32064485  1
  Al0+  Al89  1  0.82078379  0.07143754  0.68281360  1
  Al0+  Al90  1  0.67848303  0.93173228  0.34556531  1
  Al0+  Al91  1  0.82164999  0.06876933  0.01458399  1
  Al0+  Al92  1  0.42725214  0.32318993  0.31795681  1
  Al0+  Al93  1  0.07075822  0.67648199  0.98200715  1
  Al0+  Al94  1  0.07159268  0.18011630  0.98761852  1
  Al0+  Al95  1  0.31963823  0.57256879  0.01720710  1
  Si0+  Si96  1  0.82495801  0.07235426  0.35068920  1
  Si0+  Si97  1  0.31882061  0.06921736  0.68039385  1
  Si0+  Si98  1  0.07318039  0.17923959  0.65057357  1
  Si0+  Si99  1  0.92672497  0.82311304  0.31770646  1
  Si0+  Si100  1  0.07115456  0.17693316  0.31987448  1
  Si0+  Si101  1  0.17811187  0.92712452  0.68172604  1
  Si0+  Si102  1  0.57074760  0.67667799  0.65112526  1
  Si0+  Si103  1  0.06988037  0.67742645  0.64917546  1
  Si0+  Si104  1  0.67908566  0.42932868  0.68031953  1
  Si0+  Si105  1  0.31979731  0.57277266  0.34938734  1
  Si0+  Si106  1  0.92780069  0.32088130  0.98448764  1
  Si0+  Si107  1  0.42823412  0.82045966  0.65089085  1
  Si0+  Si108  1  0.17968426  0.42757625  0.34859257  1
  Si0+  Si109  1  0.93173115  0.32084101  0.31916319  1
  Si0+  Si110  1  0.42760983  0.32241736  0.65071156  1
  Si0+  Si111  1  0.17840712  0.92880848  0.01376234  1
  Si0+  Si112  1  0.57140373  0.67780587  0.98496128  1
  Si0+  Si113  1  0.57429554  0.67775522  0.31818446  1
  Si0+  Si114  1  0.32304617  0.57324049  0.68379388  1
  Si0+  Si115  1  0.82131211  0.57460198  0.01473137  1
  Si0+  Si116  1  0.67753383  0.92703616  0.01684723  1
  Si0+  Si117  1  0.32102039  0.07220873  0.35085146  1
  Si0+  Si118  1  0.82075898  0.57074621  0.68228981  1
  Si0+  Si119  1  0.92943164  0.32238901  0.65133098  1
  O2-  O120  1  0.25020965  -0.00662379  0.05927817  1
  O2-  O121  1  0.25401069  0.00183931  0.39600865  1
  O2-  O122  1  0.24842895  -0.00181374  0.72401870  1
  O2-  O123  1  0.24806191  0.50115909  0.06909945  1
  O2-  O124  1  0.25251831  0.49708777  0.39066384  1
  O2-  O125  1  0.25563498  0.50268356  0.72554770  1
  O2-  O126  1  0.74721930  -0.00561351  0.06104728  1
  O2-  O127  1  0.75389232  0.00557582  0.39311770  1
  O2-  O128  1  0.74888927  -0.00053102  0.73295854  1
  O2-  O129  1  0.75329194  0.50524217  0.05789341  1
  O2-  O130  1  0.74793388  0.50223391  0.39983227  1
  O2-  O131  1  0.74863650  0.50083132  0.72427205  1
  O2-  O132  1  -0.00178895  0.24547407  0.27803709  1
  O2-  O133  1  0.00090682  0.25028472  0.60995361  1
  O2-  O134  1  -0.00013394  0.25674585  0.93870718  1
  O2-  O135  1  -0.00601780  0.75307042  0.27424662  1
  O2-  O136  1  0.00352011  0.74665953  0.60261533  1
  O2-  O137  1  -0.00351364  0.74771906  0.93486864  1
  O2-  O138  1  0.50431572  0.25623490  0.26950656  1
  O2-  O139  1  0.49859684  0.25744011  0.60541830  1
  O2-  O140  1  0.50177959  0.25175439  0.93335350  1
  O2-  O141  1  0.50651592  0.74683842  0.27372391  1
  O2-  O142  1  0.50089394  0.75009748  0.61030913  1
  O2-  O143  1  0.50401638  0.74702273  0.93887738  1
  O2-  O144  1  0.06859118  0.17837281  0.10113971  1
  O2-  O145  1  0.07198827  0.17871237  0.42561555  1
  O2-  O146  1  0.07670085  0.17950858  0.75511941  1
  O2-  O147  1  0.06976052  0.67905334  0.09593608  1
  O2-  O148  1  0.06931021  0.67896236  0.43367709  1
  O2-  O149  1  0.06815986  0.67772728  0.75404341  1
  O2-  O150  1  0.57401662  0.18033036  0.09657689  1
  O2-  O151  1  0.57059178  0.17926425  0.43083201  1
  O2-  O152  1  0.57147813  0.18206843  0.76391576  1
  O2-  O153  1  0.57336628  0.67975755  0.09029377  1
  O2-  O154  1  0.57106199  0.67813205  0.42448316  1
  O2-  O155  1  0.56957323  0.67134499  0.75577870  1
  O2-  O156  1  0.17693668  0.42594594  0.24455564  1
  O2-  O157  1  0.18035728  0.42995107  0.56642557  1
  O2-  O158  1  0.18011642  0.42891177  0.90407725  1
  O2-  O159  1  0.17954908  0.92955150  0.23325682  1
  O2-  O160  1  0.18037629  0.92695811  0.57626364  1
  O2-  O161  1  0.17928514  0.93285857  0.90743353  1
  O2-  O162  1  0.67994182  0.42873697  0.23706592  1
  O2-  O163  1  0.68057416  0.43123414  0.57548816  1
  O2-  O164  1  0.68207127  0.43052708  0.89819897  1
  O2-  O165  1  0.67977619  0.93081895  0.23278826  1
  O2-  O166  1  0.67541634  0.92987870  0.56997485  1
  O2-  O167  1  0.67771702  0.92659640  0.91136711  1
  O2-  O168  1  0.43184702  0.32136184  0.09753046  1
  O2-  O169  1  0.42383224  0.31832636  0.43247689  1
  O2-  O170  1  0.42714991  0.32228672  0.75562651  1
  O2-  O171  1  0.43042979  0.82174460  0.09922001  1
  O2-  O172  1  0.42941443  0.81666643  0.43455630  1
  O2-  O173  1  0.42626486  0.82030951  0.75565548  1
  O2-  O174  1  0.92794765  0.31829836  0.09028317  1
  O2-  O175  1  0.93441654  0.32204880  0.42494380  1
  O2-  O176  1  0.92755678  0.32485804  0.75587811  1
  O2-  O177  1  0.92740552  0.82085896  0.09955709  1
  O2-  O178  1  0.92953002  0.82292430  0.42357399  1
  O2-  O179  1  0.93023123  0.81989912  0.76225321  1
  O2-  O180  1  0.31835308  0.07231155  0.24570405  1
  O2-  O181  1  0.31620967  0.06892011  0.57508833  1
  O2-  O182  1  0.32162441  0.06845724  0.89990433  1
  O2-  O183  1  0.31743523  0.57748784  0.24532905  1
  O2-  O184  1  0.32320354  0.57555959  0.57788653  1
  O2-  O185  1  0.31871964  0.57124228  0.90293428  1
  O2-  O186  1  0.83002790  0.07024436  0.24547447  1
  O2-  O187  1  0.82020701  0.07129289  0.56892239  1
  O2-  O188  1  0.82212733  0.06904763  0.90179273  1
  O2-  O189  1  0.82354390  0.56655861  0.23410473  1
  O2-  O190  1  0.82193596  0.56874088  0.57730461  1
  O2-  O191  1  0.81837928  0.57375509  0.90838203  1
  O2-  O192  1  0.04522543  0.08440901  0.27353533  1
  O2-  O193  1  0.04597784  0.08763490  0.60198130  1
  O2-  O194  1  0.04002289  0.08535177  0.93074315  1
  O2-  O195  1  0.04094010  0.58169188  0.26633034  1
  O2-  O196  1  0.04278311  0.58310631  0.60427884  1
  O2-  O197  1  0.04280570  0.57745304  0.92957089  1
  O2-  O198  1  0.54235158  0.08348220  0.26334129  1
  O2-  O199  1  0.53637233  0.08405771  0.59836968  1
  O2-  O200  1  0.54410132  0.08195502  0.92984638  1
  O2-  O201  1  0.54829718  0.58364268  0.27468265  1
  O2-  O202  1  0.54055437  0.58657089  0.59977146  1
  O2-  O203  1  0.54417323  0.58519583  0.93784938  1
  O2-  O204  1  0.16222588  0.20598453  0.27315778  1
  O2-  O205  1  0.16362450  0.20896859  0.60027084  1
  O2-  O206  1  0.16788412  0.20912786  0.93242166  1
  O2-  O207  1  0.16484291  0.71132500  0.26621651  1
  O2-  O208  1  0.16564494  0.70096452  0.60522995  1
  O2-  O209  1  0.16701403  0.70536861  0.92573534  1
  O2-  O210  1  0.67476865  0.20436999  0.26755833  1
  O2-  O211  1  0.66848472  0.21019898  0.59737208  1
  O2-  O212  1  0.67261063  0.21049403  0.93235789  1
  O2-  O213  1  0.66913560  0.70134604  0.27481373  1
  O2-  O214  1  0.66308433  0.70126896  0.60370902  1
  O2-  O215  1  0.66465115  0.70096643  0.93622517  1
  O2-  O216  1  0.07670931  0.45341140  0.06794465  1
  O2-  O217  1  0.08931691  0.45787025  0.39797751  1
  O2-  O218  1  0.08339797  0.45786349  0.73502370  1
  O2-  O219  1  0.08652885  0.95782857  0.06009046  1
  O2-  O220  1  0.08510377  0.95990792  0.40383499  1
  O2-  O221  1  0.08606332  0.95528980  0.72654939  1
  O2-  O222  1  0.58419476  0.45980556  0.06726468  1
  O2-  O223  1  0.57818751  0.45499595  0.40454310  1
  O2-  O224  1  0.58621386  0.45677529  0.72580911  1
  O2-  O225  1  0.58424015  0.95451663  0.06149330  1
  O2-  O226  1  0.58165190  0.96284731  0.40050378  1
  O2-  O227  1  0.57580457  0.95527530  0.73354285  1
  O2-  O228  1  0.20536373  0.32957996  0.06987952  1
  O2-  O229  1  0.20620353  0.33532934  0.39757548  1
  O2-  O230  1  0.20867812  0.33128121  0.73291785  1
  O2-  O231  1  0.20032641  0.83304268  0.05485479  1
  O2-  O232  1  0.21219551  0.83230217  0.40294096  1
  O2-  O233  1  0.20549714  0.83491809  0.72804526  1
  O2-  O234  1  0.71396638  0.33523290  0.06839795  1
  O2-  O235  1  0.71185440  0.33144409  0.40389600  1
  O2-  O236  1  0.70977884  0.33845446  0.72653588  1
  O2-  O237  1  0.70075025  0.83237696  0.06235171  1
  O2-  O238  1  0.70496072  0.83478354  0.40224880  1
  O2-  O239  1  0.70101702  0.82730505  0.73405642  1
  O2-  O240  1  0.44691687  0.42553502  0.27075838  1
  O2-  O241  1  0.44858299  0.41839607  0.60618152  1
  O2-  O242  1  0.45591305  0.42279732  0.93313707  1
  O2-  O243  1  0.45769600  0.91729075  0.26850381  1
  O2-  O244  1  0.45317184  0.91210769  0.60198134  1
  O2-  O245  1  0.46067860  0.91630068  0.92923228  1
  O2-  O246  1  0.96408539  0.40970362  0.27030132  1
  O2-  O247  1  0.96001873  0.41343273  0.60276983  1
  O2-  O248  1  0.94647895  0.41617563  0.93914056  1
  O2-  O249  1  0.95463216  0.91705329  0.27388983  1
  O2-  O250  1  0.95983875  0.91763998  0.59486812  1
  O2-  O251  1  0.96004927  0.91736300  0.93012916  1
  O2-  O252  1  0.32966861  0.29145240  0.26514115  1
  O2-  O253  1  0.33472059  0.29278214  0.60398242  1
  O2-  O254  1  0.33108624  0.29283200  0.93318396  1
  O2-  O255  1  0.33442504  0.78743875  0.26749362  1
  O2-  O256  1  0.33626901  0.79047706  0.60312018  1
  O2-  O257  1  0.33389240  0.79181373  0.92883575  1
  O2-  O258  1  0.83863003  0.29803098  0.27310443  1
  O2-  O259  1  0.83926531  0.29431118  0.60057532  1
  O2-  O260  1  0.83641225  0.29073427  0.93708479  1
  O2-  O261  1  0.83187064  0.80009052  0.27414505  1
  O2-  O262  1  0.83036637  0.78996979  0.59830604  1
  O2-  O263  1  0.82814247  0.79507644  0.93072580  1
  O2-  O264  1  0.41995737  0.03957331  0.06720161  1
  O2-  O265  1  0.41469621  0.04688792  0.39611673  1
  O2-  O266  1  0.41013261  0.04047900  0.72687666  1
  O2-  O267  1  0.41859481  0.54887738  0.07043314  1
  O2-  O268  1  0.41223589  0.54983344  0.39883504  1
  O2-  O269  1  0.41741636  0.55045672  0.72961428  1
  O2-  O270  1  0.91874097  0.03785437  0.06821062  1
  O2-  O271  1  0.91752702  0.04661823  0.39994236  1
  O2-  O272  1  0.92174747  0.04425388  0.73174465  1
  O2-  O273  1  0.91524143  0.54994643  0.05892158  1
  O2-  O274  1  0.91928003  0.53572825  0.40306075  1
  O2-  O275  1  0.91145812  0.54145756  0.73054763  1
  O2-  O276  1  0.28993468  0.16480392  0.06890600  1
  O2-  O277  1  0.29119074  0.16427982  0.39895865  1
  O2-  O278  1  0.29055873  0.16067731  0.72758327  1
  O2-  O279  1  0.28947379  0.67266284  0.06645037  1
  O2-  O280  1  0.28697092  0.66143319  0.40067806  1
  O2-  O281  1  0.29617616  0.66650468  0.73028141  1
  O2-  O282  1  0.79380252  0.16490324  0.07050941  1
  O2-  O283  1  0.80337502  0.16759280  0.39511933  1
  O2-  O284  1  0.79525718  0.17190013  0.73347965  1
  O2-  O285  1  0.79572823  0.66787047  0.06094093  1
  O2-  O286  1  0.79835405  0.66925254  0.40220218  1
  O2-  O287  1  0.79234316  0.66220881  0.72896879  1
