# generated using pymatgen
data_Ca2Al2SiO7
_symmetry_space_group_name_H-M   'P 1'
_cell_length_a   15.45806966
_cell_length_b   15.45640853
_cell_length_c   15.28266793
_cell_angle_alpha   90.00842137
_cell_angle_beta   89.99839419
_cell_angle_gamma   89.99989638
_symmetry_Int_Tables_number   1
_chemical_formula_structural   Ca2Al2SiO7
_chemical_formula_sum   'Ca48 Al48 Si24 O168'
_cell_volume   3651.43033904
_cell_formula_units_Z   24
loop_
 _symmetry_equiv_pos_site_id
 _symmetry_equiv_pos_as_xyz
  1  'x, y, z'
loop_
 _atom_type_symbol
 _atom_type_oxidation_number
  Ca2+  2.0
  Al0+  0.0
  Si0+  0.0
  O2-  -2.0
loop_
 _atom_site_type_symbol
 _atom_site_label
 _atom_site_symmetry_multiplicity
 _atom_site_fract_x
 _atom_site_fract_y
 _atom_site_fract_z
 _atom_site_occupancy
  Ca2+  Ca0  1  0.16714799  0.08253920  0.16851917  1
  Ca2+  Ca1  1  0.16320699  0.08150875  0.50369721  1
  Ca2+  Ca2  1  0.17297903  0.07370383  0.84252745  1
  Ca2+  Ca3  1  0.16470066  0.57417147  0.16689024  1
  Ca2+  Ca4  1  0.16957700  0.58355905  0.50629446  1
  Ca2+  Ca5  1  0.16440592  0.57990469  0.83815628  1
  Ca2+  Ca6  1  0.67702848  0.08011552  0.17490412  1
  Ca2+  Ca7  1  0.66405691  0.07950119  0.49954018  1
  Ca2+  Ca8  1  0.67123930  0.07820212  0.83838699  1
  Ca2+  Ca9  1  0.67626956  0.58181411  0.17105584  1
  Ca2+  Ca10  1  0.67004038  0.58247727  0.50475340  1
  Ca2+  Ca11  1  0.66692275  0.57184459  0.83753763  1
  Ca2+  Ca12  1  0.07284228  0.32870395  0.16304812  1
  Ca2+  Ca13  1  0.07078558  0.32631107  0.49157246  1
  Ca2+  Ca14  1  0.06993995  0.33993281  0.83091603  1
  Ca2+  Ca15  1  0.07732944  0.83205424  0.15605773  1
  Ca2+  Ca16  1  0.08622762  0.82952636  0.50067946  1
  Ca2+  Ca17  1  0.08026067  0.83539905  0.82987112  1
  Ca2+  Ca18  1  0.58538944  0.32937026  0.16509776  1
  Ca2+  Ca19  1  0.57521867  0.33429395  0.49410990  1
  Ca2+  Ca20  1  0.58275037  0.33649771  0.82583275  1
  Ca2+  Ca21  1  0.58802795  0.82957901  0.16260373  1
  Ca2+  Ca22  1  0.59771501  0.82605882  0.49590578  1
  Ca2+  Ca23  1  0.58066258  0.82937270  0.82718181  1
  Ca2+  Ca24  1  0.32608691  0.40779034  0.16964757  1
  Ca2+  Ca25  1  0.33816695  0.41290741  0.50418265  1
  Ca2+  Ca26  1  0.32747049  0.41687864  0.84020815  1
  Ca2+  Ca27  1  0.33302277  0.91742406  0.16338541  1
  Ca2+  Ca28  1  0.32695399  0.92032753  0.50765112  1
  Ca2+  Ca29  1  0.32436594  0.91685673  0.84382649  1
  Ca2+  Ca30  1  0.83686412  0.42397146  0.16906307  1
  Ca2+  Ca31  1  0.83255456  0.41700581  0.50403318  1
  Ca2+  Ca32  1  0.82571636  0.41749869  0.84304056  1
  Ca2+  Ca33  1  0.83568005  0.92714325  0.17350537  1
  Ca2+  Ca34  1  0.82290474  0.92474654  0.50050691  1
  Ca2+  Ca35  1  0.83118603  0.92050039  0.83996771  1
  Ca2+  Ca36  1  0.42323719  0.16327551  0.16583465  1
  Ca2+  Ca37  1  0.42238305  0.17758853  0.49183965  1
  Ca2+  Ca38  1  0.41415676  0.17116540  0.83102932  1
  Ca2+  Ca39  1  0.42620763  0.67324412  0.16213107  1
  Ca2+  Ca40  1  0.43407727  0.66724526  0.49512591  1
  Ca2+  Ca41  1  0.42155144  0.67222503  0.82870136  1
  Ca2+  Ca42  1  0.91042255  0.17257900  0.16129859  1
  Ca2+  Ca43  1  0.91526321  0.17632376  0.49108855  1
  Ca2+  Ca44  1  0.90919544  0.17763801  0.83278246  1
  Ca2+  Ca45  1  0.90827230  0.67167984  0.15909421  1
  Ca2+  Ca46  1  0.91939498  0.66492918  0.49615254  1
  Ca2+  Ca47  1  0.91876376  0.66876620  0.83296240  1
  Al0+  Al48  1  0.00076879  -0.00059581  0.00134730  1
  Al0+  Al49  1  0.00020614  -0.00104156  0.33723708  1
  Al0+  Al50  1  0.00016543  0.00048493  0.67079285  1
  Al0+  Al51  1  0.00038402  0.49916809  0.00363441  1
  Al0+  Al52  1  0.00188063  0.49936906  0.33548046  1
  Al0+  Al53  1  0.00088464  0.50179484  0.65801956  1
  Al0+  Al54  1  0.49902176  -0.00108194  -0.00256930  1
  Al0+  Al55  1  0.49644580  -0.00039123  0.33595902  1
  Al0+  Al56  1  0.49973235  0.00120950  0.67135034  1
  Al0+  Al57  1  0.50005529  0.49828371  0.00375510  1
  Al0+  Al58  1  0.49874166  0.50343712  0.32307613  1
  Al0+  Al59  1  0.50062240  0.50210553  0.66355741  1
  Al0+  Al60  1  0.25114685  0.24859229  0.00708671  1
  Al0+  Al61  1  0.24715550  0.24859316  0.32900304  1
  Al0+  Al62  1  0.24884020  0.25111413  0.66395396  1
  Al0+  Al63  1  0.25181895  0.74917982  0.00060403  1
  Al0+  Al64  1  0.25110840  0.74778540  0.33380746  1
  Al0+  Al65  1  0.24991657  0.75054411  0.66674800  1
  Al0+  Al66  1  0.74832420  0.24824745  0.00177758  1
  Al0+  Al67  1  0.74806169  0.25217918  0.33029494  1
  Al0+  Al68  1  0.74869890  0.25129235  0.66510026  1
  Al0+  Al69  1  0.75069775  0.74748652  -0.00584258  1
  Al0+  Al70  1  0.75207158  0.74816744  0.33662669  1
  Al0+  Al71  1  0.75179769  0.75190914  0.66792901  1
  Al0+  Al72  1  0.92914517  0.32035268  0.98553342  1
  Al0+  Al73  1  0.17908472  0.92742500  0.01672333  1
  Al0+  Al74  1  0.42863781  0.32190564  0.31577249  1
  Al0+  Al75  1  0.17956843  0.92857791  0.68124780  1
  Al0+  Al76  1  0.43030920  0.82037060  0.98552455  1
  Al0+  Al77  1  0.67692464  0.42692585  0.01672385  1
  Al0+  Al78  1  0.67904160  0.92839900  0.68252593  1
  Al0+  Al79  1  0.67771800  0.92925220  0.34634812  1
  Al0+  Al80  1  0.67890945  0.43058268  0.67768927  1
  Al0+  Al81  1  0.82058815  0.57048728  0.01320616  1
  Al0+  Al82  1  0.42836345  0.32099456  0.65574158  1
  Al0+  Al83  1  0.82040641  0.06951892  0.01208840  1
  Al0+  Al84  1  0.32272427  0.07068604  0.01695457  1
  Al0+  Al85  1  0.92879761  0.82260239  0.98658102  1
  Al0+  Al86  1  0.92723193  0.32136209  0.65299644  1
  Al0+  Al87  1  0.92745536  0.32222599  0.31649508  1
  Al0+  Al88  1  0.57376878  0.68210277  0.31801289  1
  Al0+  Al89  1  0.17901643  0.42901962  0.01323510  1
  Al0+  Al90  1  0.82173183  0.07455944  0.34933553  1
  Al0+  Al91  1  0.82207846  0.56960596  0.34927816  1
  Al0+  Al92  1  0.07127308  0.68083734  0.65308389  1
  Al0+  Al93  1  0.06879653  0.17581290  0.31759331  1
  Al0+  Al94  1  0.57168620  0.68140372  0.65369637  1
  Al0+  Al95  1  0.57039407  0.17676016  0.31790104  1
  Si0+  Si96  1  0.32153964  0.57043712  0.68054945  1
  Si0+  Si97  1  0.57056756  0.17880824  0.98343148  1
  Si0+  Si98  1  0.32315055  0.57194107  0.01747268  1
  Si0+  Si99  1  0.18090054  0.42818651  0.35092651  1
  Si0+  Si100  1  0.17905930  0.92609128  0.34944340  1
  Si0+  Si101  1  0.42839962  0.82342634  0.65029481  1
  Si0+  Si102  1  0.82131470  0.07313909  0.68379700  1
  Si0+  Si103  1  0.07245891  0.67762430  0.98517541  1
  Si0+  Si104  1  0.32078089  0.07431477  0.68260611  1
  Si0+  Si105  1  0.31908489  0.07158434  0.35066874  1
  Si0+  Si106  1  0.67493890  0.43034979  0.34949470  1
  Si0+  Si107  1  0.93154059  0.81803905  0.32095405  1
  Si0+  Si108  1  0.57243500  0.67591623  0.98121931  1
  Si0+  Si109  1  0.42793251  0.32077154  0.98475120  1
  Si0+  Si110  1  0.32075471  0.57133989  0.34922699  1
  Si0+  Si111  1  0.42494461  0.82136322  0.31799441  1
  Si0+  Si112  1  0.07434968  0.67870392  0.31763658  1
  Si0+  Si113  1  0.67816126  0.92667075  0.01347054  1
  Si0+  Si114  1  0.92847694  0.82483267  0.64829288  1
  Si0+  Si115  1  0.17838918  0.42956416  0.67925711  1
  Si0+  Si116  1  0.07112843  0.17804598  0.65267442  1
  Si0+  Si117  1  0.82504737  0.57174574  0.68305304  1
  Si0+  Si118  1  0.57166200  0.17679223  0.65105839  1
  Si0+  Si119  1  0.07393185  0.17829545  0.98243570  1
  O2-  O120  1  0.24966864  -0.00003540  0.06785720  1
  O2-  O121  1  0.24809411  -0.00064220  0.39167979  1
  O2-  O122  1  0.25488036  0.00306070  0.72647543  1
  O2-  O123  1  0.25517646  0.50227934  0.06110865  1
  O2-  O124  1  0.25420969  0.49702588  0.39357545  1
  O2-  O125  1  0.25005556  0.49955662  0.72254683  1
  O2-  O126  1  0.74995112  -0.00925968  0.05837829  1
  O2-  O127  1  0.74492994  0.00587946  0.39728832  1
  O2-  O128  1  0.75332680  0.00364024  0.72813529  1
  O2-  O129  1  0.74939744  0.49903557  0.06499670  1
  O2-  O130  1  0.74761691  0.49426409  0.39514825  1
  O2-  O131  1  0.75592684  0.50276480  0.72543408  1
  O2-  O132  1  -0.00655098  0.24386587  0.26745516  1
  O2-  O133  1  0.00075409  0.24448233  0.60839407  1
  O2-  O134  1  0.00472522  0.24628120  0.93732138  1
  O2-  O135  1  0.00275525  0.74826396  0.27636173  1
  O2-  O136  1  -0.00267575  0.75538754  0.60465587  1
  O2-  O137  1  0.00570245  0.74840532  0.94151808  1
  O2-  O138  1  0.50103584  0.25069461  0.26573263  1
  O2-  O139  1  0.50230111  0.24611151  0.60898821  1
  O2-  O140  1  0.50019936  0.25172795  0.94181991  1
  O2-  O141  1  0.50099119  0.76053019  0.27455580  1
  O2-  O142  1  0.50150036  0.76046139  0.60505928  1
  O2-  O143  1  0.50415599  0.74555503  0.93771219  1
  O2-  O144  1  0.07330365  0.18002912  0.08778943  1
  O2-  O145  1  0.07111950  0.17922982  0.43197749  1
  O2-  O146  1  0.07383543  0.17993926  0.75795177  1
  O2-  O147  1  0.07280634  0.67789969  0.09109928  1
  O2-  O148  1  0.07744451  0.68113257  0.42280004  1
  O2-  O149  1  0.07084886  0.67884276  0.76590896  1
  O2-  O150  1  0.56959715  0.17720871  0.08811083  1
  O2-  O151  1  0.56522402  0.17652430  0.43198101  1
  O2-  O152  1  0.57151836  0.17659101  0.75688835  1
  O2-  O153  1  0.57247195  0.67793608  0.08687003  1
  O2-  O154  1  0.57167864  0.68090461  0.43146411  1
  O2-  O155  1  0.56605344  0.67974066  0.76651125  1
  O2-  O156  1  0.18058559  0.43118593  0.24588701  1
  O2-  O157  1  0.18030213  0.43040354  0.57421244  1
  O2-  O158  1  0.18007033  0.43165929  0.89921821  1
  O2-  O159  1  0.18058165  0.92220519  0.24503283  1
  O2-  O160  1  0.18180520  0.92923838  0.56744300  1
  O2-  O161  1  0.18107069  0.92805710  0.90293011  1
  O2-  O162  1  0.67419126  0.43407430  0.24419757  1
  O2-  O163  1  0.67693851  0.43243632  0.56486239  1
  O2-  O164  1  0.67521923  0.42877463  0.90240106  1
  O2-  O165  1  0.68218812  0.92715593  0.23263343  1
  O2-  O166  1  0.68070191  0.92932881  0.56970586  1
  O2-  O167  1  0.67801932  0.93004386  0.90754898  1
  O2-  O168  1  0.42756478  0.32014174  0.08929910  1
  O2-  O169  1  0.42925058  0.32136029  0.43007904  1
  O2-  O170  1  0.42593153  0.31995763  0.76897619  1
  O2-  O171  1  0.43241190  0.81846727  0.09880662  1
  O2-  O172  1  0.41732370  0.81614374  0.42338245  1
  O2-  O173  1  0.42701093  0.81951029  0.75577124  1
  O2-  O174  1  0.93059061  0.32071163  0.09786386  1
  O2-  O175  1  0.93214476  0.32374798  0.43065276  1
  O2-  O176  1  0.92837231  0.32258223  0.76629131  1
  O2-  O177  1  0.92895455  0.82113899  0.10013320  1
  O2-  O178  1  0.93442180  0.81657298  0.42615933  1
  O2-  O179  1  0.92939741  0.82516802  0.75387505  1
  O2-  O180  1  0.32020007  0.07052435  0.24611169  1
  O2-  O181  1  0.31921836  0.07450359  0.57680915  1
  O2-  O182  1  0.32091372  0.07164374  0.90278295  1
  O2-  O183  1  0.31596004  0.57527139  0.24460906  1
  O2-  O184  1  0.32106371  0.57009873  0.57525405  1
  O2-  O185  1  0.32377288  0.57058703  0.91129621  1
  O2-  O186  1  0.82421351  0.06883644  0.23592650  1
  O2-  O187  1  0.82168272  0.07278240  0.57843055  1
  O2-  O188  1  0.81614674  0.07087546  0.89856518  1
  O2-  O189  1  0.82167018  0.57259166  0.23661375  1
  O2-  O190  1  0.82492311  0.57068152  0.57721107  1
  O2-  O191  1  0.82058356  0.56985038  0.89926219  1
  O2-  O192  1  0.04900539  0.07382298  0.26851802  1
  O2-  O193  1  0.04826085  0.08318530  0.60737613  1
  O2-  O194  1  0.04992667  0.08381083  0.93788381  1
  O2-  O195  1  0.04909508  0.58551145  0.27313476  1
  O2-  O196  1  0.04310903  0.58581432  0.59403632  1
  O2-  O197  1  0.04512635  0.58488367  0.93831653  1
  O2-  O198  1  0.53821047  0.07838509  0.26594284  1
  O2-  O199  1  0.54494553  0.08329034  0.60498282  1
  O2-  O200  1  0.54104724  0.08790222  0.93457608  1
  O2-  O201  1  0.53796434  0.58959233  0.26042130  1
  O2-  O202  1  0.53572661  0.58787885  0.59700622  1
  O2-  O203  1  0.54302960  0.58202475  0.93723041  1
  O2-  O204  1  0.16547539  0.20733868  0.26369138  1
  O2-  O205  1  0.16329820  0.20515760  0.60361643  1
  O2-  O206  1  0.16868553  0.20452995  0.93847995  1
  O2-  O207  1  0.16530569  0.70727835  0.26897079  1
  O2-  O208  1  0.16827574  0.71128321  0.59757113  1
  O2-  O209  1  0.16740687  0.69913599  0.93989826  1
  O2-  O210  1  0.66924809  0.20192349  0.26536159  1
  O2-  O211  1  0.66453262  0.20170860  0.60435530  1
  O2-  O212  1  0.66147796  0.20615681  0.93427528  1
  O2-  O213  1  0.67077702  0.71155259  0.26464825  1
  O2-  O214  1  0.67029965  0.70855025  0.60153736  1
  O2-  O215  1  0.66513993  0.69939200  0.93301744  1
  O2-  O216  1  0.08543831  0.46203624  0.07066195  1
  O2-  O217  1  0.09108885  0.45984511  0.39974989  1
  O2-  O218  1  0.08703983  0.46086619  0.72546491  1
  O2-  O219  1  0.08060214  0.95432623  0.06886895  1
  O2-  O220  1  0.08763339  0.95107710  0.39890140  1
  O2-  O221  1  0.08253767  0.95751315  0.73517189  1
  O2-  O222  1  0.57823276  0.45356436  0.06986705  1
  O2-  O223  1  0.58117359  0.46162488  0.39302220  1
  O2-  O224  1  0.58281213  0.46406247  0.73273796  1
  O2-  O225  1  0.58554724  0.95430869  0.05893468  1
  O2-  O226  1  0.57634077  0.94946842  0.39877729  1
  O2-  O227  1  0.58114226  0.95697621  0.73624850  1
  O2-  O228  1  0.20984633  0.33408436  0.06916764  1
  O2-  O229  1  0.20648550  0.33513492  0.39693371  1
  O2-  O230  1  0.20437209  0.33750128  0.72689258  1
  O2-  O231  1  0.20826312  0.82845177  0.06863723  1
  O2-  O232  1  0.21051381  0.83484077  0.39765140  1
  O2-  O233  1  0.21034126  0.83178816  0.73481651  1
  O2-  O234  1  0.70348263  0.32831165  0.06755352  1
  O2-  O235  1  0.69346474  0.33423305  0.39267631  1
  O2-  O236  1  0.70492720  0.33236083  0.73148381  1
  O2-  O237  1  0.69901648  0.83046339  0.05451277  1
  O2-  O238  1  0.71441130  0.83387146  0.40100348  1
  O2-  O239  1  0.70999001  0.83199594  0.73712345  1
  O2-  O240  1  0.45064628  0.42134169  0.26259642  1
  O2-  O241  1  0.45825303  0.41712841  0.60055021  1
  O2-  O242  1  0.45255408  0.41450217  0.93867417  1
  O2-  O243  1  0.44084922  0.91791025  0.27628217  1
  O2-  O244  1  0.44725080  0.92026464  0.60824029  1
  O2-  O245  1  0.45873998  0.91667054  0.92936633  1
  O2-  O246  1  0.96576309  0.41894762  0.26545237  1
  O2-  O247  1  0.96073949  0.41579526  0.59702950  1
  O2-  O248  1  0.96245265  0.41730400  0.93267326  1
  O2-  O249  1  0.95882752  0.91029827  0.27508357  1
  O2-  O250  1  0.95569535  0.91837717  0.60274424  1
  O2-  O251  1  0.95934022  0.91865836  0.93079644  1
  O2-  O252  1  0.32991427  0.29153200  0.26576632  1
  O2-  O253  1  0.33175891  0.29228066  0.59925032  1
  O2-  O254  1  0.33587148  0.29150679  0.93775111  1
  O2-  O255  1  0.33564859  0.78628402  0.26788605  1
  O2-  O256  1  0.33651668  0.79343641  0.60329684  1
  O2-  O257  1  0.33355746  0.78799512  0.93141202  1
  O2-  O258  1  0.82638263  0.30414602  0.26680785  1
  O2-  O259  1  0.83068914  0.29214619  0.59824352  1
  O2-  O260  1  0.83182575  0.28740400  0.93304468  1
  O2-  O261  1  0.84091589  0.78887352  0.27346230  1
  O2-  O262  1  0.83535635  0.79854422  0.60239122  1
  O2-  O263  1  0.83370688  0.79064028  0.92913075  1
  O2-  O264  1  0.42046089  0.03818033  0.06908075  1
  O2-  O265  1  0.40953415  0.04446818  0.40134651  1
  O2-  O266  1  0.41523747  0.05356056  0.72860652  1
  O2-  O267  1  0.41624835  0.54759041  0.06431685  1
  O2-  O268  1  0.41477057  0.54665003  0.39377141  1
  O2-  O269  1  0.41200185  0.54231248  0.72947213  1
  O2-  O270  1  0.91800620  0.04369380  0.06496397  1
  O2-  O271  1  0.91852312  0.04057144  0.40427502  1
  O2-  O272  1  0.91504634  0.04890877  0.73024913  1
  O2-  O273  1  0.91916327  0.54569967  0.06693536  1
  O2-  O274  1  0.92062496  0.54180363  0.40263482  1
  O2-  O275  1  0.91975625  0.54631189  0.72667160  1
  O2-  O276  1  0.29765201  0.16860065  0.07145501  1
  O2-  O277  1  0.28880830  0.16325843  0.39764547  1
  O2-  O278  1  0.29186463  0.16711537  0.72947042  1
  O2-  O279  1  0.29695520  0.66433924  0.06479413  1
  O2-  O280  1  0.28870613  0.66083121  0.39989667  1
  O2-  O281  1  0.29292200  0.66179680  0.72831983  1
  O2-  O282  1  0.78548256  0.16327146  0.06718437  1
  O2-  O283  1  0.79611421  0.17498390  0.39961793  1
  O2-  O284  1  0.79341317  0.16636208  0.72947200  1
  O2-  O285  1  0.79104941  0.66963830  0.06522398  1
  O2-  O286  1  0.79129150  0.66525170  0.40515943  1
  O2-  O287  1  0.80183977  0.66662797  0.72690958  1
