# generated using pymatgen
data_Ca2Al2SiO7
_symmetry_space_group_name_H-M   'P 1'
_cell_length_a   15.47393477
_cell_length_b   15.47597965
_cell_length_c   15.29825667
_cell_angle_alpha   89.99730308
_cell_angle_beta   90.00035957
_cell_angle_gamma   90.01940000
_symmetry_Int_Tables_number   1
_chemical_formula_structural   Ca2Al2SiO7
_chemical_formula_sum   'Ca48 Al48 Si24 O168'
_cell_volume   3663.53908708
_cell_formula_units_Z   24
loop_
 _symmetry_equiv_pos_site_id
 _symmetry_equiv_pos_as_xyz
  1  'x, y, z'
loop_
 _atom_type_symbol
 _atom_type_oxidation_number
  Ca2+  2.0
  Al0+  0.0
  Si0+  0.0
  O2-  -2.0
loop_
 _atom_site_type_symbol
 _atom_site_label
 _atom_site_symmetry_multiplicity
 _atom_site_fract_x
 _atom_site_fract_y
 _atom_site_fract_z
 _atom_site_occupancy
  Ca2+  Ca0  1  0.17478942  0.09368984  0.16915837  1
  Ca2+  Ca1  1  0.16540888  0.08359842  0.51206452  1
  Ca2+  Ca2  1  0.17970716  0.09511098  0.83264406  1
  Ca2+  Ca3  1  0.17019118  0.57452663  0.16206604  1
  Ca2+  Ca4  1  0.17542301  0.58068035  0.50796375  1
  Ca2+  Ca5  1  0.17919766  0.57430838  0.83810683  1
  Ca2+  Ca6  1  0.66990926  0.09503323  0.16738143  1
  Ca2+  Ca7  1  0.65781997  0.08024848  0.50811194  1
  Ca2+  Ca8  1  0.66183365  0.08303517  0.83792587  1
  Ca2+  Ca9  1  0.67181017  0.56634405  0.16991607  1
  Ca2+  Ca10  1  0.67389370  0.56938715  0.50886895  1
  Ca2+  Ca11  1  0.66956506  0.56952485  0.83285029  1
  Ca2+  Ca12  1  0.07815084  0.33670205  0.16515281  1
  Ca2+  Ca13  1  0.07296069  0.32649371  0.49760029  1
  Ca2+  Ca14  1  0.07580450  0.33482927  0.82420424  1
  Ca2+  Ca15  1  0.08083491  0.82807868  0.16116730  1
  Ca2+  Ca16  1  0.08534857  0.83295253  0.49880723  1
  Ca2+  Ca17  1  0.08538256  0.83110358  0.82682955  1
  Ca2+  Ca18  1  0.58515070  0.32906077  0.15947351  1
  Ca2+  Ca19  1  0.58357699  0.33055319  0.50039902  1
  Ca2+  Ca20  1  0.57907160  0.32972882  0.82647025  1
  Ca2+  Ca21  1  0.58377893  0.82745737  0.16164008  1
  Ca2+  Ca22  1  0.59122556  0.82479942  0.50231749  1
  Ca2+  Ca23  1  0.58668650  0.82424591  0.82301018  1
  Ca2+  Ca24  1  0.33286766  0.41140923  0.16150049  1
  Ca2+  Ca25  1  0.33402617  0.41728624  0.51041228  1
  Ca2+  Ca26  1  0.33794338  0.41958026  0.84074854  1
  Ca2+  Ca27  1  0.33549128  0.92604370  0.16698089  1
  Ca2+  Ca28  1  0.32571483  0.92747760  0.51344428  1
  Ca2+  Ca29  1  0.33040586  0.93188147  0.83223278  1
  Ca2+  Ca30  1  0.82333166  0.41758030  0.17505620  1
  Ca2+  Ca31  1  0.82743156  0.41508503  0.50554140  1
  Ca2+  Ca32  1  0.82228418  0.41508779  0.83763468  1
  Ca2+  Ca33  1  0.83305479  0.92579075  0.16509138  1
  Ca2+  Ca34  1  0.82619840  0.92238731  0.50840930  1
  Ca2+  Ca35  1  0.82714195  0.92616072  0.83418781  1
  Ca2+  Ca36  1  0.42949382  0.17148062  0.15568387  1
  Ca2+  Ca37  1  0.42413039  0.16758040  0.50284592  1
  Ca2+  Ca38  1  0.42010982  0.17569358  0.82780135  1
  Ca2+  Ca39  1  0.41439438  0.66848858  0.15838145  1
  Ca2+  Ca40  1  0.42509798  0.66053959  0.50409682  1
  Ca2+  Ca41  1  0.42011102  0.66208644  0.82348478  1
  Ca2+  Ca42  1  0.91904563  0.17205493  0.16405885  1
  Ca2+  Ca43  1  0.92253557  0.17947160  0.49735523  1
  Ca2+  Ca44  1  0.92133469  0.17223503  0.82464331  1
  Ca2+  Ca45  1  0.90676391  0.66396114  0.16069909  1
  Ca2+  Ca46  1  0.90882463  0.66405491  0.49748181  1
  Ca2+  Ca47  1  0.90919607  0.66381593  0.82693828  1
  Al0+  Al48  1  -0.00216700  -0.00210072  0.00214536  1
  Al0+  Al49  1  0.00045375  -0.00288026  0.32865748  1
  Al0+  Al50  1  -0.00175779  -0.00381620  0.66651940  1
  Al0+  Al51  1  0.00249265  0.50196145  0.00371170  1
  Al0+  Al52  1  0.00360224  0.50209652  0.33254623  1
  Al0+  Al53  1  0.00121489  0.50382896  0.66313767  1
  Al0+  Al54  1  0.49811555  -0.00327367  0.00185016  1
  Al0+  Al55  1  0.49862244  -0.00009601  0.32994318  1
  Al0+  Al56  1  0.49661170  -0.00164660  0.67285018  1
  Al0+  Al57  1  0.50128000  0.50186420  0.00604826  1
  Al0+  Al58  1  0.50118849  0.50156106  0.33490347  1
  Al0+  Al59  1  0.50264371  0.50093418  0.66443634  1
  Al0+  Al60  1  0.25093207  0.24939991  0.00685544  1
  Al0+  Al61  1  0.25192612  0.25097745  0.33344739  1
  Al0+  Al62  1  0.24924323  0.25048456  0.66287235  1
  Al0+  Al63  1  0.24773466  0.75007801  0.00160374  1
  Al0+  Al64  1  0.24939851  0.75227087  0.33214344  1
  Al0+  Al65  1  0.24940879  0.75041770  0.67238980  1
  Al0+  Al66  1  0.75227977  0.24756541  0.00387762  1
  Al0+  Al67  1  0.75109552  0.24945582  0.33189994  1
  Al0+  Al68  1  0.75025263  0.24894668  0.66229169  1
  Al0+  Al69  1  0.74945574  0.75264814  0.00053180  1
  Al0+  Al70  1  0.74960010  0.75093464  0.33217801  1
  Al0+  Al71  1  0.74951527  0.75130943  0.66817362  1
  Al0+  Al72  1  0.57364052  0.17761913  0.98454064  1
  Al0+  Al73  1  0.68000357  0.42505987  0.68200704  1
  Al0+  Al74  1  0.42964702  0.32156011  0.98602235  1
  Al0+  Al75  1  0.56900506  0.17793052  0.31954265  1
  Al0+  Al76  1  0.42930423  0.32300905  0.65250927  1
  Al0+  Al77  1  0.67949424  0.42688757  0.01518470  1
  Al0+  Al78  1  0.82212646  0.57209243  0.34846897  1
  Al0+  Al79  1  0.57245393  0.67977812  0.65285469  1
  Al0+  Al80  1  0.32219546  0.56915443  0.67807549  1
  Al0+  Al81  1  0.82051931  0.57199352  0.01322603  1
  Al0+  Al82  1  0.31953852  0.07437454  0.68184114  1
  Al0+  Al83  1  0.92780079  0.32467748  0.65315897  1
  Al0+  Al84  1  0.07045459  0.17752843  0.65494346  1
  Al0+  Al85  1  0.17580261  0.92857239  0.68173078  1
  Al0+  Al86  1  0.57023620  0.17594206  0.65341151  1
  Al0+  Al87  1  0.32091916  0.07023913  0.01594831  1
  Al0+  Al88  1  0.82225111  0.57101317  0.68068324  1
  Al0+  Al89  1  0.67757216  0.93020098  0.67916216  1
  Al0+  Al90  1  0.17898743  0.42693716  0.01452470  1
  Al0+  Al91  1  0.93081392  0.32254800  0.31635553  1
  Al0+  Al92  1  0.32230341  0.57185533  0.01477468  1
  Al0+  Al93  1  0.07178513  0.17713128  0.31721033  1
  Al0+  Al94  1  0.82147434  0.07048289  0.01327956  1
  Al0+  Al95  1  0.67871843  0.42608192  0.35129844  1
  Si0+  Si96  1  0.42830029  0.81990078  0.31812284  1
  Si0+  Si97  1  0.92854815  0.82075150  0.98241868  1
  Si0+  Si98  1  0.92792690  0.81949161  0.65072851  1
  Si0+  Si99  1  0.18098016  0.42906055  0.35052518  1
  Si0+  Si100  1  0.07291182  0.68112900  0.65087274  1
  Si0+  Si101  1  0.82185203  0.07133203  0.68068931  1
  Si0+  Si102  1  0.17715057  0.92826248  0.01849280  1
  Si0+  Si103  1  0.82280670  0.06887310  0.34831223  1
  Si0+  Si104  1  0.17803303  0.42871423  0.68005160  1
  Si0+  Si105  1  0.67765819  0.92997516  0.34718129  1
  Si0+  Si106  1  0.67753130  0.92833753  0.01746955  1
  Si0+  Si107  1  0.42518372  0.82024934  0.98351423  1
  Si0+  Si108  1  0.92787101  0.81913147  0.31616400  1
  Si0+  Si109  1  0.93106200  0.32213170  0.98658773  1
  Si0+  Si110  1  0.57106991  0.68000147  0.31649573  1
  Si0+  Si111  1  0.42621240  0.81998164  0.65082738  1
  Si0+  Si112  1  0.32117862  0.07061221  0.34867530  1
  Si0+  Si113  1  0.31991346  0.57462568  0.34839718  1
  Si0+  Si114  1  0.07438241  0.68094597  0.31680418  1
  Si0+  Si115  1  0.07103241  0.67939795  0.98268615  1
  Si0+  Si116  1  0.42859012  0.32528358  0.31668059  1
  Si0+  Si117  1  0.57060234  0.68184416  0.98551356  1
  Si0+  Si118  1  0.07059727  0.17716265  0.98652356  1
  Si0+  Si119  1  0.17927577  0.92902891  0.34745586  1
  O2-  O120  1  0.24399952  -0.00260588  0.06421867  1
  O2-  O121  1  0.24383179  0.00531056  0.38936133  1
  O2-  O122  1  0.24250534  0.00551549  0.73004251  1
  O2-  O123  1  0.25422187  0.49647470  0.06496098  1
  O2-  O124  1  0.25439884  0.49904504  0.39099077  1
  O2-  O125  1  0.25243564  0.49052909  0.72441570  1
  O2-  O126  1  0.74086850  0.00179301  0.06123672  1
  O2-  O127  1  0.74650833  0.00263480  0.38966304  1
  O2-  O128  1  0.74657392  0.00984364  0.72508331  1
  O2-  O129  1  0.75416381  0.49706222  0.06480015  1
  O2-  O130  1  0.75417814  0.49699854  0.39804623  1
  O2-  O131  1  0.75594457  0.49447806  0.72993821  1
  O2-  O132  1  0.00188677  0.24956205  0.26504413  1
  O2-  O133  1  -0.00013058  0.25068561  0.60547125  1
  O2-  O134  1  0.00246998  0.25083136  0.94471221  1
  O2-  O135  1  -0.00376468  0.74486459  0.27489998  1
  O2-  O136  1  -0.00040178  0.74950792  0.60786136  1
  O2-  O137  1  -0.00328712  0.74717861  0.94069259  1
  O2-  O138  1  0.49872000  0.25734291  0.27445678  1
  O2-  O139  1  0.50091901  0.25022463  0.60266948  1
  O2-  O140  1  0.50276708  0.25098284  0.93596252  1
  O2-  O141  1  0.49770662  0.74865156  0.27388481  1
  O2-  O142  1  0.49654472  0.75400980  0.60487319  1
  O2-  O143  1  0.49540923  0.74844390  0.94278277  1
  O2-  O144  1  0.06764875  0.17575211  0.09161912  1
  O2-  O145  1  0.06936971  0.17528665  0.43028916  1
  O2-  O146  1  0.06866547  0.17911443  0.76903160  1
  O2-  O147  1  0.07361964  0.68359517  0.08808435  1
  O2-  O148  1  0.08107465  0.68668936  0.42144324  1
  O2-  O149  1  0.07472772  0.68266422  0.75559291  1
  O2-  O150  1  0.57103353  0.17848953  0.09864601  1
  O2-  O151  1  0.56323420  0.16935200  0.43160927  1
  O2-  O152  1  0.56846832  0.17435717  0.76632147  1
  O2-  O153  1  0.57069702  0.68712675  0.09113838  1
  O2-  O154  1  0.57120262  0.68262623  0.42128298  1
  O2-  O155  1  0.57149944  0.68196824  0.76598716  1
  O2-  O156  1  0.18069747  0.43029283  0.24565882  1
  O2-  O157  1  0.17756551  0.43372864  0.57407943  1
  O2-  O158  1  0.17482610  0.43062074  0.90126484  1
  O2-  O159  1  0.18204188  0.92356315  0.24266531  1
  O2-  O160  1  0.17848646  0.92622038  0.56737587  1
  O2-  O161  1  0.17718080  0.92644816  0.91365110  1
  O2-  O162  1  0.67658862  0.42911074  0.23768953  1
  O2-  O163  1  0.67909052  0.42747784  0.56865374  1
  O2-  O164  1  0.67942251  0.42746558  0.90210598  1
  O2-  O165  1  0.67893857  0.92668449  0.24220861  1
  O2-  O166  1  0.68194817  0.92807200  0.56536671  1
  O2-  O167  1  0.68088433  0.92363207  0.91239919  1
  O2-  O168  1  0.42990285  0.31802002  0.10013481  1
  O2-  O169  1  0.42580177  0.32525533  0.42192832  1
  O2-  O170  1  0.42885465  0.32391439  0.76565533  1
  O2-  O171  1  0.42593947  0.81987637  0.08955580  1
  O2-  O172  1  0.42709820  0.81997244  0.42258419  1
  O2-  O173  1  0.42611120  0.81701413  0.75631167  1
  O2-  O174  1  0.93237829  0.32142608  0.09154689  1
  O2-  O175  1  0.93343668  0.32099643  0.42955851  1
  O2-  O176  1  0.93013726  0.32411300  0.76743624  1
  O2-  O177  1  0.92963149  0.82119118  0.08795705  1
  O2-  O178  1  0.92811253  0.82202673  0.42098611  1
  O2-  O179  1  0.92740110  0.81934218  0.75565494  1
  O2-  O180  1  0.32206524  0.06602881  0.24362862  1
  O2-  O181  1  0.32027499  0.06930713  0.56762221  1
  O2-  O182  1  0.31938499  0.06935972  0.90374769  1
  O2-  O183  1  0.31645814  0.57926018  0.24379915  1
  O2-  O184  1  0.31772791  0.57197248  0.56422415  1
  O2-  O185  1  0.31919258  0.57535645  0.90177079  1
  O2-  O186  1  0.82412435  0.06434717  0.24315143  1
  O2-  O187  1  0.82523180  0.06546930  0.57495569  1
  O2-  O188  1  0.82720240  0.06544478  0.90082766  1
  O2-  O189  1  0.81641523  0.57512871  0.23519252  1
  O2-  O190  1  0.81956191  0.57279708  0.56732719  1
  O2-  O191  1  0.81819101  0.57278934  0.90040961  1
  O2-  O192  1  0.04510615  0.07750188  0.26416020  1
  O2-  O193  1  0.04185074  0.07804352  0.60299812  1
  O2-  O194  1  0.04032643  0.08537227  0.94084980  1
  O2-  O195  1  0.05566992  0.58707992  0.27107826  1
  O2-  O196  1  0.04923904  0.59011032  0.60018492  1
  O2-  O197  1  0.04801579  0.58654534  0.93639664  1
  O2-  O198  1  0.53590598  0.08217884  0.26284525  1
  O2-  O199  1  0.53828983  0.07666330  0.60173980  1
  O2-  O200  1  0.54564358  0.07582572  0.93835475  1
  O2-  O201  1  0.54390615  0.58812189  0.26970832  1
  O2-  O202  1  0.54086935  0.58584988  0.59536831  1
  O2-  O203  1  0.54734708  0.58832047  0.94165016  1
  O2-  O204  1  0.17219474  0.20591447  0.26790328  1
  O2-  O205  1  0.16819924  0.20252998  0.59972091  1
  O2-  O206  1  0.16441760  0.20224906  0.94374555  1
  O2-  O207  1  0.16180049  0.71798904  0.26557988  1
  O2-  O208  1  0.16318774  0.71320616  0.60182394  1
  O2-  O209  1  0.16119546  0.71214933  0.93482258  1
  O2-  O210  1  0.66863835  0.20230119  0.26925798  1
  O2-  O211  1  0.67019391  0.19736450  0.60050672  1
  O2-  O212  1  0.67553019  0.19896623  0.93610202  1
  O2-  O213  1  0.66060576  0.71355809  0.26807587  1
  O2-  O214  1  0.66632122  0.71735548  0.59730509  1
  O2-  O215  1  0.65998783  0.71655278  0.93811528  1
  O2-  O216  1  0.08451971  0.46320971  0.07181137  1
  O2-  O217  1  0.09066263  0.46014627  0.39802993  1
  O2-  O218  1  0.08764511  0.46210789  0.72703147  1
  O2-  O219  1  0.08271989  0.95083764  0.06425008  1
  O2-  O220  1  0.08442071  0.94928216  0.39214989  1
  O2-  O221  1  0.07464115  0.94638154  0.73256564  1
  O2-  O222  1  0.58384408  0.45964047  0.07107462  1
  O2-  O223  1  0.58020184  0.45933771  0.40211169  1
  O2-  O224  1  0.58373319  0.46103241  0.73342012  1
  O2-  O225  1  0.58177427  0.94413853  0.06254863  1
  O2-  O226  1  0.58454868  0.95487180  0.39302419  1
  O2-  O227  1  0.57988215  0.95050198  0.73430454  1
  O2-  O228  1  0.20303518  0.32973117  0.07172114  1
  O2-  O229  1  0.20753667  0.33685438  0.39776036  1
  O2-  O230  1  0.19443871  0.33288248  0.72275375  1
  O2-  O231  1  0.20438705  0.83538879  0.06595810  1
  O2-  O232  1  0.21227218  0.83950253  0.39685352  1
  O2-  O233  1  0.20916555  0.83322254  0.73741395  1
  O2-  O234  1  0.70768180  0.32892845  0.06826977  1
  O2-  O235  1  0.70489032  0.32604039  0.40143381  1
  O2-  O236  1  0.70524878  0.32532027  0.73325873  1
  O2-  O237  1  0.71125726  0.83860556  0.06747687  1
  O2-  O238  1  0.70848033  0.83909857  0.39459670  1
  O2-  O239  1  0.71519878  0.83720317  0.73507534  1
  O2-  O240  1  0.45071586  0.42049056  0.27155309  1
  O2-  O241  1  0.45680131  0.42078671  0.59748176  1
  O2-  O242  1  0.45332293  0.42399044  0.93939738  1
  O2-  O243  1  0.45769736  0.91017479  0.26834425  1
  O2-  O244  1  0.44942275  0.91432728  0.60639703  1
  O2-  O245  1  0.45325145  0.91159749  0.93700418  1
  O2-  O246  1  0.96171152  0.42163343  0.26480529  1
  O2-  O247  1  0.95880719  0.42191874  0.59867907  1
  O2-  O248  1  0.95947264  0.41436911  0.94083207  1
  O2-  O249  1  0.95992561  0.90817469  0.26536283  1
  O2-  O250  1  0.95447444  0.91026087  0.60029095  1
  O2-  O251  1  0.95964184  0.91118849  0.93467896  1
  O2-  O252  1  0.33503166  0.29866269  0.27110504  1
  O2-  O253  1  0.33034288  0.29657256  0.59852138  1
  O2-  O254  1  0.32905290  0.29298143  0.93724865  1
  O2-  O255  1  0.33675718  0.79229228  0.26895573  1
  O2-  O256  1  0.33340621  0.79167419  0.60372604  1
  O2-  O257  1  0.33250147  0.79435521  0.93812196  1
  O2-  O258  1  0.83223690  0.29301701  0.26497235  1
  O2-  O259  1  0.83162675  0.29465891  0.59766803  1
  O2-  O260  1  0.83980090  0.29227239  0.94065044  1
  O2-  O261  1  0.83548356  0.79498928  0.26726673  1
  O2-  O262  1  0.83737863  0.79137540  0.60116446  1
  O2-  O263  1  0.83553673  0.79625850  0.93596560  1
  O2-  O264  1  0.41545357  0.03344030  0.07159614  1
  O2-  O265  1  0.41004522  0.03410786  0.39569369  1
  O2-  O266  1  0.41353780  0.03910240  0.73812729  1
  O2-  O267  1  0.42078672  0.55118321  0.07019691  1
  O2-  O268  1  0.41438806  0.55289432  0.39223367  1
  O2-  O269  1  0.42023531  0.54579990  0.73007185  1
  O2-  O270  1  0.91414600  0.03095624  0.07096528  1
  O2-  O271  1  0.91246076  0.03283032  0.39466497  1
  O2-  O272  1  0.91099953  0.03632068  0.72976487  1
  O2-  O273  1  0.92202429  0.55319032  0.06314686  1
  O2-  O274  1  0.92596960  0.55493773  0.39479470  1
  O2-  O275  1  0.92505932  0.55370335  0.72902519  1
  O2-  O276  1  0.29125591  0.16487461  0.07333280  1
  O2-  O277  1  0.30072259  0.16487256  0.39333198  1
  O2-  O278  1  0.29204969  0.17305070  0.73459966  1
  O2-  O279  1  0.28712109  0.66890303  0.06915122  1
  O2-  O280  1  0.28654946  0.66475539  0.39627723  1
  O2-  O281  1  0.28733192  0.66338627  0.73308161  1
  O2-  O282  1  0.79731655  0.16625139  0.07103111  1
  O2-  O283  1  0.80126678  0.16231048  0.39287709  1
  O2-  O284  1  0.80531456  0.16696262  0.72359208  1
  O2-  O285  1  0.79005444  0.67109874  0.06526421  1
  O2-  O286  1  0.79139307  0.67184340  0.39896117  1
  O2-  O287  1  0.79015865  0.66853114  0.73283722  1
