# generated using pymatgen
data_Ca2Al2SiO7
_symmetry_space_group_name_H-M   'P 1'
_cell_length_a   15.47010618
_cell_length_b   15.46911760
_cell_length_c   15.29211047
_cell_angle_alpha   90.00265120
_cell_angle_beta   90.01038691
_cell_angle_gamma   90.01317545
_symmetry_Int_Tables_number   1
_chemical_formula_structural   Ca2Al2SiO7
_chemical_formula_sum   'Ca48 Al48 Si24 O168'
_cell_volume   3659.53784740
_cell_formula_units_Z   24
loop_
 _symmetry_equiv_pos_site_id
 _symmetry_equiv_pos_as_xyz
  1  'x, y, z'
loop_
 _atom_type_symbol
 _atom_type_oxidation_number
  Ca2+  2.0
  Al0+  0.0
  Si0+  0.0
  O2-  -2.0
loop_
 _atom_site_type_symbol
 _atom_site_label
 _atom_site_symmetry_multiplicity
 _atom_site_fract_x
 _atom_site_fract_y
 _atom_site_fract_z
 _atom_site_occupancy
  Ca2+  Ca0  1  0.17349185  0.07508293  0.17368249  1
  Ca2+  Ca1  1  0.16624321  0.07271108  0.51019612  1
  Ca2+  Ca2  1  0.17158462  0.08181228  0.82850127  1
  Ca2+  Ca3  1  0.16398543  0.58111548  0.17612142  1
  Ca2+  Ca4  1  0.16628481  0.58071387  0.50727732  1
  Ca2+  Ca5  1  0.16982586  0.59257294  0.83248540  1
  Ca2+  Ca6  1  0.67062720  0.07020195  0.17425890  1
  Ca2+  Ca7  1  0.67564401  0.07276492  0.50650520  1
  Ca2+  Ca8  1  0.66994569  0.07256810  0.83357946  1
  Ca2+  Ca9  1  0.66725218  0.58503800  0.17312135  1
  Ca2+  Ca10  1  0.66761682  0.58287491  0.51495695  1
  Ca2+  Ca11  1  0.66990815  0.58484709  0.82454295  1
  Ca2+  Ca12  1  0.08393099  0.33329701  0.16498984  1
  Ca2+  Ca13  1  0.08237575  0.32713880  0.50081105  1
  Ca2+  Ca14  1  0.07644976  0.32346245  0.82041490  1
  Ca2+  Ca15  1  0.09221633  0.82319310  0.16502336  1
  Ca2+  Ca16  1  0.08479956  0.82943795  0.49830826  1
  Ca2+  Ca17  1  0.07939501  0.82649488  0.82048632  1
  Ca2+  Ca18  1  0.57520738  0.32991244  0.16643270  1
  Ca2+  Ca19  1  0.57129023  0.33921766  0.49853751  1
  Ca2+  Ca20  1  0.57827203  0.33092395  0.82024477  1
  Ca2+  Ca21  1  0.58562713  0.83434272  0.16215478  1
  Ca2+  Ca22  1  0.59272211  0.82456933  0.49816833  1
  Ca2+  Ca23  1  0.58167226  0.83597844  0.82714134  1
  Ca2+  Ca24  1  0.32531801  0.41885309  0.17673450  1
  Ca2+  Ca25  1  0.33235671  0.41902330  0.50666248  1
  Ca2+  Ca26  1  0.33730543  0.42434371  0.82857806  1
  Ca2+  Ca27  1  0.33438638  0.91944106  0.16863630  1
  Ca2+  Ca28  1  0.32046195  0.91799514  0.50881190  1
  Ca2+  Ca29  1  0.33286174  0.92483147  0.83589792  1
  Ca2+  Ca30  1  0.83158161  0.41999751  0.17208341  1
  Ca2+  Ca31  1  0.82684164  0.42358653  0.51294477  1
  Ca2+  Ca32  1  0.83510797  0.41869631  0.82714395  1
  Ca2+  Ca33  1  0.82334114  0.91929020  0.17564131  1
  Ca2+  Ca34  1  0.82699145  0.91901567  0.51038322  1
  Ca2+  Ca35  1  0.82513289  0.90879968  0.82783608  1
  Ca2+  Ca36  1  0.40963374  0.17121830  0.16273506  1
  Ca2+  Ca37  1  0.40688797  0.17762852  0.50055798  1
  Ca2+  Ca38  1  0.41035561  0.16988431  0.82306199  1
  Ca2+  Ca39  1  0.42402108  0.67743440  0.16397390  1
  Ca2+  Ca40  1  0.42809667  0.66057184  0.49903417  1
  Ca2+  Ca41  1  0.41953389  0.67532577  0.82378659  1
  Ca2+  Ca42  1  0.91448998  0.16377916  0.16785440  1
  Ca2+  Ca43  1  0.91176806  0.16462146  0.50172044  1
  Ca2+  Ca44  1  0.91954450  0.16961098  0.81730055  1
  Ca2+  Ca45  1  0.92989476  0.66811080  0.16354076  1
  Ca2+  Ca46  1  0.92140450  0.67161750  0.50232450  1
  Ca2+  Ca47  1  0.92638494  0.66978835  0.82131944  1
  Al0+  Al48  1  0.00077973  -0.00052269  0.00067631  1
  Al0+  Al49  1  0.00097589  0.00163189  0.33662269  1
  Al0+  Al50  1  -0.00057157  -0.00139220  0.66780933  1
  Al0+  Al51  1  0.00020925  0.49899518  -0.00327764  1
  Al0+  Al52  1  -0.00010883  0.49846511  0.33326110  1
  Al0+  Al53  1  -0.00079209  0.49786321  0.66420815  1
  Al0+  Al54  1  0.50070886  0.00172290  0.00587722  1
  Al0+  Al55  1  0.50175839  0.00184327  0.33926380  1
  Al0+  Al56  1  0.49849221  0.00111574  0.67069588  1
  Al0+  Al57  1  0.49993453  0.49980696  0.00264489  1
  Al0+  Al58  1  0.49880093  0.50016032  0.32002358  1
  Al0+  Al59  1  0.49811612  0.50021525  0.66873835  1
  Al0+  Al60  1  0.24833864  0.25158248  0.00278808  1
  Al0+  Al61  1  0.24725071  0.25244848  0.33085229  1
  Al0+  Al62  1  0.24821598  0.25071543  0.66168387  1
  Al0+  Al63  1  0.25414730  0.74997608  -0.00650344  1
  Al0+  Al64  1  0.25360514  0.74957972  0.33219461  1
  Al0+  Al65  1  0.25094922  0.74906051  0.67043340  1
  Al0+  Al66  1  0.74823591  0.25141435  0.00150481  1
  Al0+  Al67  1  0.74832394  0.25187931  0.33381002  1
  Al0+  Al68  1  0.74739541  0.24880771  0.66881503  1
  Al0+  Al69  1  0.75225276  0.74718168  0.00581049  1
  Al0+  Al70  1  0.75269846  0.74918038  0.32956278  1
  Al0+  Al71  1  0.75137400  0.74762704  0.66829964  1
  Al0+  Al72  1  0.67631051  0.42870193  0.68002744  1
  Al0+  Al73  1  0.68092378  0.92900451  0.01466640  1
  Al0+  Al74  1  0.82067234  0.07294429  0.34837337  1
  Al0+  Al75  1  0.67854831  0.92624167  0.68196193  1
  Al0+  Al76  1  0.82303240  0.57007685  0.68147334  1
  Al0+  Al77  1  0.31893168  0.07244521  0.01462603  1
  Al0+  Al78  1  0.07000938  0.17814666  0.65046177  1
  Al0+  Al79  1  0.82125494  0.07058196  0.68225893  1
  Al0+  Al80  1  0.42741253  0.31934891  0.31692647  1
  Al0+  Al81  1  0.56838176  0.68200612  0.65634082  1
  Al0+  Al82  1  0.07453247  0.67824404  0.65059331  1
  Al0+  Al83  1  0.31908451  0.07255578  0.67952563  1
  Al0+  Al84  1  0.07143102  0.67915184  0.32045408  1
  Al0+  Al85  1  0.17772661  0.92667257  0.68284230  1
  Al0+  Al86  1  0.57308634  0.68054322  0.31909331  1
  Al0+  Al87  1  0.32065640  0.57035660  0.67913262  1
  Al0+  Al88  1  0.92894719  0.82020341  0.65172901  1
  Al0+  Al89  1  0.18198953  0.92723771  0.34550650  1
  Al0+  Al90  1  0.67894410  0.92578426  0.35033017  1
  Al0+  Al91  1  0.17747176  0.42966311  0.34800858  1
  Al0+  Al92  1  0.42976391  0.32056559  0.65404242  1
  Al0+  Al93  1  0.07140443  0.67907122  0.98607785  1
  Al0+  Al94  1  0.92506882  0.32014995  0.65024671  1
  Al0+  Al95  1  0.43339300  0.82276441  0.98614605  1
  Si0+  Si96  1  0.57454618  0.67608295  0.98261729  1
  Si0+  Si97  1  0.92796693  0.31960276  0.98630058  1
  Si0+  Si98  1  0.17768247  0.42804113  0.68337049  1
  Si0+  Si99  1  0.32302918  0.57038060  0.34778440  1
  Si0+  Si100  1  0.07127537  0.17884218  0.98698677  1
  Si0+  Si101  1  0.17854400  0.92633080  0.01647309  1
  Si0+  Si102  1  0.32187498  0.07445972  0.34941101  1
  Si0+  Si103  1  0.92783072  0.32040950  0.31702788  1
  Si0+  Si104  1  0.82159804  0.56953848  0.34629201  1
  Si0+  Si105  1  0.67756469  0.42747949  0.01808976  1
  Si0+  Si106  1  0.82279034  0.07507058  0.01643166  1
  Si0+  Si107  1  0.82259322  0.56718110  0.01692173  1
  Si0+  Si108  1  0.17960657  0.43177558  0.01433120  1
  Si0+  Si109  1  0.32280883  0.57275744  0.01698933  1
  Si0+  Si110  1  0.67693461  0.43202224  0.34543220  1
  Si0+  Si111  1  0.42717717  0.32125525  0.98428946  1
  Si0+  Si112  1  0.57283659  0.17921972  0.31601053  1
  Si0+  Si113  1  0.92731504  0.82198311  0.98517707  1
  Si0+  Si114  1  0.42756750  0.82521900  0.65005940  1
  Si0+  Si115  1  0.93021091  0.82389396  0.31544716  1
  Si0+  Si116  1  0.42925034  0.82459329  0.31854320  1
  Si0+  Si117  1  0.07056464  0.17827474  0.31579719  1
  Si0+  Si118  1  0.57009953  0.18125775  0.98591994  1
  Si0+  Si119  1  0.57150715  0.17503598  0.64959624  1
  O2-  O120  1  0.24553733  -0.00346759  0.06152091  1
  O2-  O121  1  0.25742033  0.00154930  0.39128802  1
  O2-  O122  1  0.25065308  -0.00126509  0.73171148  1
  O2-  O123  1  0.24915039  0.50365996  0.05830590  1
  O2-  O124  1  0.25187738  0.50493328  0.39220543  1
  O2-  O125  1  0.24218072  0.50021341  0.72842531  1
  O2-  O126  1  0.75852970  0.00219067  0.06000772  1
  O2-  O127  1  0.75290435  -0.00298495  0.39707509  1
  O2-  O128  1  0.74991012  -0.00137253  0.73280964  1
  O2-  O129  1  0.74794059  0.49960477  0.05987697  1
  O2-  O130  1  0.74305161  0.50667735  0.38701584  1
  O2-  O131  1  0.75206513  0.49617900  0.73140857  1
  O2-  O132  1  -0.00284055  0.24794798  0.27357074  1
  O2-  O133  1  -0.00485922  0.24701697  0.59942403  1
  O2-  O134  1  -0.00671614  0.24291568  0.94637763  1
  O2-  O135  1  0.00106051  0.75686762  0.27082372  1
  O2-  O136  1  0.00401959  0.75153879  0.60119885  1
  O2-  O137  1  0.00006127  0.75736207  0.94217022  1
  O2-  O138  1  0.49882899  0.24166829  0.26937047  1
  O2-  O139  1  0.50295025  0.24496114  0.60653197  1
  O2-  O140  1  0.49821539  0.25092120  0.94252159  1
  O2-  O141  1  0.50313571  0.76073087  0.27401036  1
  O2-  O142  1  0.49807230  0.75861166  0.60596467  1
  O2-  O143  1  0.50887516  0.74798114  0.94049844  1
  O2-  O144  1  0.07252349  0.18158022  0.09239403  1
  O2-  O145  1  0.07364594  0.17958545  0.41977108  1
  O2-  O146  1  0.07169063  0.18293109  0.76515539  1
  O2-  O147  1  0.06962727  0.67663029  0.09987174  1
  O2-  O148  1  0.06887202  0.67668227  0.43198486  1
  O2-  O149  1  0.07221573  0.67972951  0.76472339  1
  O2-  O150  1  0.57055285  0.18538057  0.09115770  1
  O2-  O151  1  0.57546832  0.18420793  0.42059505  1
  O2-  O152  1  0.56997453  0.17605310  0.75588770  1
  O2-  O153  1  0.57256788  0.67475028  0.08868393  1
  O2-  O154  1  0.57099347  0.67433955  0.43137046  1
  O2-  O155  1  0.56589504  0.68178578  0.76960915  1
  O2-  O156  1  0.17766277  0.43060416  0.23361176  1
  O2-  O157  1  0.18045007  0.42713425  0.57781134  1
  O2-  O158  1  0.18025030  0.42956534  0.90999961  1
  O2-  O159  1  0.18424039  0.92856611  0.23150244  1
  O2-  O160  1  0.18091431  0.92668905  0.56889845  1
  O2-  O161  1  0.17774032  0.92771371  0.91187600  1
  O2-  O162  1  0.68030608  0.43135902  0.23944330  1
  O2-  O163  1  0.67352659  0.43377786  0.56600699  1
  O2-  O164  1  0.67602638  0.42370326  0.91410688  1
  O2-  O165  1  0.68031228  0.92771349  0.23586858  1
  O2-  O166  1  0.67994046  0.92622286  0.56887126  1
  O2-  O167  1  0.68060350  0.93015077  0.90252269  1
  O2-  O168  1  0.42742381  0.32086793  0.08953764  1
  O2-  O169  1  0.42889254  0.32193914  0.42931340  1
  O2-  O170  1  0.43043343  0.32021123  0.76788886  1
  O2-  O171  1  0.43308119  0.82009884  0.09983433  1
  O2-  O172  1  0.42546792  0.82120445  0.42330198  1
  O2-  O173  1  0.42892542  0.82398696  0.75603561  1
  O2-  O174  1  0.92915170  0.32214601  0.09192888  1
  O2-  O175  1  0.92650985  0.32203714  0.42093997  1
  O2-  O176  1  0.92946732  0.31944450  0.76505676  1
  O2-  O177  1  0.92659037  0.82003171  0.09108693  1
  O2-  O178  1  0.92839663  0.82178979  0.42011694  1
  O2-  O179  1  0.92862539  0.81616164  0.76598837  1
  O2-  O180  1  0.31899958  0.07492515  0.24305374  1
  O2-  O181  1  0.31726110  0.07268139  0.56587853  1
  O2-  O182  1  0.31597511  0.07689521  0.90271253  1
  O2-  O183  1  0.32153394  0.56848725  0.24137568  1
  O2-  O184  1  0.32376218  0.56619597  0.56616263  1
  O2-  O185  1  0.32555822  0.57019263  0.91239532  1
  O2-  O186  1  0.81808172  0.07259729  0.23355269  1
  O2-  O187  1  0.81727191  0.07059718  0.56898514  1
  O2-  O188  1  0.82050387  0.08123370  0.91211470  1
  O2-  O189  1  0.82274418  0.56488439  0.24024857  1
  O2-  O190  1  0.81975614  0.57059597  0.56749883  1
  O2-  O191  1  0.82433918  0.56492438  0.91280767  1
  O2-  O192  1  0.04451088  0.08651878  0.26621107  1
  O2-  O193  1  0.04642570  0.07840419  0.60052606  1
  O2-  O194  1  0.05227171  0.08410080  0.94211348  1
  O2-  O195  1  0.03594747  0.58308199  0.26521826  1
  O2-  O196  1  0.04668170  0.57873301  0.60111257  1
  O2-  O197  1  0.03783862  0.58301629  0.93292465  1
  O2-  O198  1  0.55223818  0.08278832  0.27289680  1
  O2-  O199  1  0.54506448  0.08221433  0.60295066  1
  O2-  O200  1  0.54462797  0.08862479  0.94142970  1
  O2-  O201  1  0.53843310  0.58730701  0.25861847  1
  O2-  O202  1  0.53390196  0.58647004  0.60264307  1
  O2-  O203  1  0.54608740  0.58210638  0.93918405  1
  O2-  O204  1  0.16009657  0.21031329  0.26541929  1
  O2-  O205  1  0.16535321  0.21191304  0.59477173  1
  O2-  O206  1  0.15965075  0.21551215  0.93912425  1
  O2-  O207  1  0.17018717  0.70642536  0.26649333  1
  O2-  O208  1  0.17459429  0.70333200  0.59986225  1
  O2-  O209  1  0.16986011  0.70408432  0.93452182  1
  O2-  O210  1  0.66302428  0.21252807  0.26567489  1
  O2-  O211  1  0.66461024  0.20006063  0.60421436  1
  O2-  O212  1  0.66145710  0.21118174  0.93872970  1
  O2-  O213  1  0.67117666  0.70490985  0.26298853  1
  O2-  O214  1  0.66609440  0.70688572  0.60307435  1
  O2-  O215  1  0.67114206  0.69676871  0.94191078  1
  O2-  O216  1  0.08676090  0.45764507  0.06193909  1
  O2-  O217  1  0.08064016  0.45797995  0.40088976  1
  O2-  O218  1  0.08263977  0.44755083  0.72813275  1
  O2-  O219  1  0.08390242  0.94974374  0.06315046  1
  O2-  O220  1  0.08533149  0.95776861  0.39722002  1
  O2-  O221  1  0.08015744  0.95452638  0.73617829  1
  O2-  O222  1  0.58545964  0.45510035  0.06649807  1
  O2-  O223  1  0.58227913  0.45626185  0.38681669  1
  O2-  O224  1  0.58134836  0.46178022  0.73716226  1
  O2-  O225  1  0.58653148  0.96342485  0.07115356  1
  O2-  O226  1  0.58022871  0.95262131  0.40250069  1
  O2-  O227  1  0.57996611  0.95533709  0.73425923  1
  O2-  O228  1  0.20863671  0.34116945  0.06447865  1
  O2-  O229  1  0.20817681  0.33287880  0.39976311  1
  O2-  O230  1  0.20850101  0.33650918  0.73034139  1
  O2-  O231  1  0.20869057  0.83280268  0.06098204  1
  O2-  O232  1  0.21245840  0.83079521  0.39911345  1
  O2-  O233  1  0.20667064  0.82937780  0.73672341  1
  O2-  O234  1  0.70728384  0.33703160  0.06842258  1
  O2-  O235  1  0.70676210  0.34166204  0.39216038  1
  O2-  O236  1  0.69937156  0.32949647  0.73328815  1
  O2-  O237  1  0.70894891  0.83072887  0.06868300  1
  O2-  O238  1  0.70754121  0.82557287  0.39826241  1
  O2-  O239  1  0.70870122  0.82932414  0.73644298  1
  O2-  O240  1  0.46057876  0.41295244  0.25698677  1
  O2-  O241  1  0.46240512  0.41580731  0.59941867  1
  O2-  O242  1  0.45570747  0.41433159  0.94012799  1
  O2-  O243  1  0.44933054  0.92118312  0.27502052  1
  O2-  O244  1  0.44843111  0.92000557  0.60531674  1
  O2-  O245  1  0.46196801  0.92107301  0.93514548  1
  O2-  O246  1  0.95905104  0.41031653  0.26650621  1
  O2-  O247  1  0.95372080  0.41796598  0.59752001  1
  O2-  O248  1  0.96085318  0.40866226  0.93772655  1
  O2-  O249  1  0.95327180  0.91881342  0.27028711  1
  O2-  O250  1  0.95209787  0.91964812  0.60051981  1
  O2-  O251  1  0.94695381  0.91812779  0.94176239  1
  O2-  O252  1  0.32989071  0.29074564  0.26162234  1
  O2-  O253  1  0.33388400  0.29169690  0.59837798  1
  O2-  O254  1  0.33450234  0.29435000  0.93898052  1
  O2-  O255  1  0.33932159  0.79321403  0.26683881  1
  O2-  O256  1  0.33497958  0.79573359  0.60566359  1
  O2-  O257  1  0.33825008  0.79126856  0.93049645  1
  O2-  O258  1  0.83549361  0.29439543  0.26754081  1
  O2-  O259  1  0.82471055  0.29598841  0.59972460  1
  O2-  O260  1  0.83360039  0.29855756  0.94155402  1
  O2-  O261  1  0.83855214  0.79427406  0.26630676  1
  O2-  O262  1  0.83251447  0.78668233  0.59814134  1
  O2-  O263  1  0.83511024  0.79051707  0.94003607  1
  O2-  O264  1  0.41571508  0.04455234  0.07011116  1
  O2-  O265  1  0.41778545  0.05815804  0.39287062  1
  O2-  O266  1  0.41782405  0.04881130  0.73402594  1
  O2-  O267  1  0.41361588  0.54233802  0.06606205  1
  O2-  O268  1  0.41638162  0.53891883  0.39006129  1
  O2-  O269  1  0.41297566  0.53443564  0.73806739  1
  O2-  O270  1  0.91881632  0.05350947  0.06086378  1
  O2-  O271  1  0.92201843  0.05353205  0.39660934  1
  O2-  O272  1  0.91979540  0.04529636  0.73537894  1
  O2-  O273  1  0.91274896  0.53358273  0.06568416  1
  O2-  O274  1  0.90930440  0.53391968  0.39420035  1
  O2-  O275  1  0.92083910  0.54017323  0.73570601  1
  O2-  O276  1  0.28535306  0.16864769  0.07035446  1
  O2-  O277  1  0.29103807  0.16701434  0.39282962  1
  O2-  O278  1  0.28778330  0.17080139  0.73225449  1
  O2-  O279  1  0.29756098  0.66575878  0.06292434  1
  O2-  O280  1  0.30406999  0.66523361  0.39163211  1
  O2-  O281  1  0.29491732  0.66649010  0.73631521  1
  O2-  O282  1  0.79356648  0.16756304  0.06504781  1
  O2-  O283  1  0.78916649  0.17128908  0.39907889  1
  O2-  O284  1  0.79280346  0.16907511  0.73562482  1
  O2-  O285  1  0.79880186  0.65913256  0.06641407  1
  O2-  O286  1  0.80259520  0.66426728  0.38897030  1
  O2-  O287  1  0.79098774  0.66512716  0.73801618  1
