# generated using pymatgen
data_Ca2Al2SiO7
_symmetry_space_group_name_H-M   'P 1'
_cell_length_a   15.47491677
_cell_length_b   15.47025992
_cell_length_c   15.29464891
_cell_angle_alpha   89.98789299
_cell_angle_beta   89.99546277
_cell_angle_gamma   89.99517796
_symmetry_Int_Tables_number   1
_chemical_formula_structural   Ca2Al2SiO7
_chemical_formula_sum   'Ca48 Al48 Si24 O168'
_cell_volume   3661.55390111
_cell_formula_units_Z   24
loop_
 _symmetry_equiv_pos_site_id
 _symmetry_equiv_pos_as_xyz
  1  'x, y, z'
loop_
 _atom_type_symbol
 _atom_type_oxidation_number
  Ca2+  2.0
  Al0+  0.0
  Si0+  0.0
  O2-  -2.0
loop_
 _atom_site_type_symbol
 _atom_site_label
 _atom_site_symmetry_multiplicity
 _atom_site_fract_x
 _atom_site_fract_y
 _atom_site_fract_z
 _atom_site_occupancy
  Ca2+  Ca0  1  0.17128774  0.08003116  0.16933074  1
  Ca2+  Ca1  1  0.16659696  0.07637070  0.50061916  1
  Ca2+  Ca2  1  0.17416150  0.08674069  0.84157415  1
  Ca2+  Ca3  1  0.16987880  0.58440790  0.17019743  1
  Ca2+  Ca4  1  0.17042205  0.59082998  0.50810542  1
  Ca2+  Ca5  1  0.16233203  0.58451432  0.83388625  1
  Ca2+  Ca6  1  0.67568323  0.07812906  0.17169505  1
  Ca2+  Ca7  1  0.67268960  0.07129830  0.50791059  1
  Ca2+  Ca8  1  0.67530180  0.08755336  0.83579783  1
  Ca2+  Ca9  1  0.67520489  0.58205526  0.17584524  1
  Ca2+  Ca10  1  0.67210887  0.58180916  0.50762731  1
  Ca2+  Ca11  1  0.67368527  0.58249851  0.83115459  1
  Ca2+  Ca12  1  0.07882667  0.32381148  0.15903531  1
  Ca2+  Ca13  1  0.07097505  0.33268954  0.50093050  1
  Ca2+  Ca14  1  0.07501005  0.32567230  0.82829376  1
  Ca2+  Ca15  1  0.07084726  0.84083972  0.16493983  1
  Ca2+  Ca16  1  0.06995931  0.83224087  0.49761120  1
  Ca2+  Ca17  1  0.06709501  0.82975357  0.82699818  1
  Ca2+  Ca18  1  0.58921718  0.32687333  0.16302277  1
  Ca2+  Ca19  1  0.59515024  0.33121625  0.50051483  1
  Ca2+  Ca20  1  0.58489722  0.32253263  0.82258079  1
  Ca2+  Ca21  1  0.58833135  0.83020658  0.16524797  1
  Ca2+  Ca22  1  0.60141005  0.82298818  0.49823018  1
  Ca2+  Ca23  1  0.58121029  0.83320797  0.82642262  1
  Ca2+  Ca24  1  0.33002261  0.41637261  0.17037488  1
  Ca2+  Ca25  1  0.33165463  0.41337870  0.50762007  1
  Ca2+  Ca26  1  0.33545534  0.41246276  0.83281913  1
  Ca2+  Ca27  1  0.33006347  0.91790807  0.16892974  1
  Ca2+  Ca28  1  0.32150279  0.90776355  0.50244608  1
  Ca2+  Ca29  1  0.33272986  0.92041140  0.84311104  1
  Ca2+  Ca30  1  0.82827396  0.42966433  0.17360843  1
  Ca2+  Ca31  1  0.82397107  0.42665282  0.50849652  1
  Ca2+  Ca32  1  0.83761237  0.42711421  0.83351033  1
  Ca2+  Ca33  1  0.83642592  0.92467362  0.17368698  1
  Ca2+  Ca34  1  0.82948076  0.92069935  0.50524720  1
  Ca2+  Ca35  1  0.83076924  0.91881841  0.83364813  1
  Ca2+  Ca36  1  0.42547203  0.16353805  0.15650394  1
  Ca2+  Ca37  1  0.42570744  0.17142171  0.50333277  1
  Ca2+  Ca38  1  0.43113989  0.16440012  0.82847507  1
  Ca2+  Ca39  1  0.42623351  0.67442933  0.16335752  1
  Ca2+  Ca40  1  0.43380240  0.66567678  0.49779796  1
  Ca2+  Ca41  1  0.42330649  0.67451007  0.82728244  1
  Ca2+  Ca42  1  0.91915310  0.15990432  0.15863666  1
  Ca2+  Ca43  1  0.89831228  0.17124819  0.50042383  1
  Ca2+  Ca44  1  0.91707867  0.16432386  0.82582871  1
  Ca2+  Ca45  1  0.90449673  0.67915239  0.16444801  1
  Ca2+  Ca46  1  0.90286017  0.67812048  0.49859946  1
  Ca2+  Ca47  1  0.91147940  0.67429737  0.82558659  1
  Al0+  Al48  1  0.00076349  -0.00128349  -0.00713650  1
  Al0+  Al49  1  0.00397628  0.00154148  0.33788382  1
  Al0+  Al50  1  0.00243811  -0.00254270  0.66645571  1
  Al0+  Al51  1  0.00033706  0.49967627  0.00735508  1
  Al0+  Al52  1  0.00143384  0.49946425  0.33474687  1
  Al0+  Al53  1  0.00339914  0.49691506  0.66409160  1
  Al0+  Al54  1  0.49949040  0.00017612  -0.00289328  1
  Al0+  Al55  1  0.49922735  0.00235091  0.33696947  1
  Al0+  Al56  1  0.49638025  0.00087650  0.66311082  1
  Al0+  Al57  1  0.49865728  0.49957546  0.00173471  1
  Al0+  Al58  1  0.49779609  0.50006968  0.32956008  1
  Al0+  Al59  1  0.49711311  0.50160824  0.66597706  1
  Al0+  Al60  1  0.24946296  0.24949046  0.00191731  1
  Al0+  Al61  1  0.24992020  0.25066370  0.33298397  1
  Al0+  Al62  1  0.25005209  0.24960005  0.66338885  1
  Al0+  Al63  1  0.25044786  0.74868446  -0.00160995  1
  Al0+  Al64  1  0.24997333  0.74992732  0.33645820  1
  Al0+  Al65  1  0.24882143  0.74929557  0.66726295  1
  Al0+  Al66  1  0.75089834  0.25094756  0.00017714  1
  Al0+  Al67  1  0.74963262  0.25284745  0.33368356  1
  Al0+  Al68  1  0.75009807  0.24884987  0.66450089  1
  Al0+  Al69  1  0.74947866  0.74884460  -0.00154393  1
  Al0+  Al70  1  0.75081375  0.75126992  0.32671200  1
  Al0+  Al71  1  0.74899833  0.75138818  0.66843174  1
  Al0+  Al72  1  0.92850838  0.31935822  0.65344035  1
  Al0+  Al73  1  0.67763060  0.92965636  0.34627157  1
  Al0+  Al74  1  0.82239579  0.07053079  0.01235282  1
  Al0+  Al75  1  0.67642099  0.43046947  0.34750278  1
  Al0+  Al76  1  0.07099361  0.17840623  0.98691249  1
  Al0+  Al77  1  0.82270117  0.57031493  0.68186472  1
  Al0+  Al78  1  0.67630740  0.92853242  0.68294932  1
  Al0+  Al79  1  0.67613970  0.42916435  0.68273107  1
  Al0+  Al80  1  0.82093463  0.57147137  0.01502986  1
  Al0+  Al81  1  0.92811787  0.82028229  0.64980910  1
  Al0+  Al82  1  0.82333619  0.07173908  0.34666299  1
  Al0+  Al83  1  0.57294078  0.17777341  0.64874266  1
  Al0+  Al84  1  0.42908929  0.82029259  0.98782023  1
  Al0+  Al85  1  0.93096017  0.82166467  0.31889863  1
  Al0+  Al86  1  0.32182499  0.07055869  0.01297521  1
  Al0+  Al87  1  0.07127517  0.67777130  0.65282072  1
  Al0+  Al88  1  0.82167563  0.57228977  0.34875208  1
  Al0+  Al89  1  0.82170522  0.06987012  0.68257338  1
  Al0+  Al90  1  0.18112351  0.92940195  0.34706861  1
  Al0+  Al91  1  0.57112567  0.68004421  0.31848360  1
  Al0+  Al92  1  0.56984348  0.68166789  0.65504143  1
  Al0+  Al93  1  0.57257225  0.18017404  0.98764358  1
  Al0+  Al94  1  0.92814874  0.82027893  0.98560355  1
  Al0+  Al95  1  0.42917590  0.32066413  0.65240181  1
  Si0+  Si96  1  0.67743517  0.92837801  0.01530102  1
  Si0+  Si97  1  0.07281115  0.17735773  0.64896564  1
  Si0+  Si98  1  0.31943303  0.57026987  0.34874892  1
  Si0+  Si99  1  0.57105636  0.17976778  0.31699011  1
  Si0+  Si100  1  0.31764404  0.07213716  0.68173649  1
  Si0+  Si101  1  0.67659910  0.42808903  0.01605553  1
  Si0+  Si102  1  0.07473652  0.67713832  0.31587554  1
  Si0+  Si103  1  0.07282279  0.18113241  0.31773859  1
  Si0+  Si104  1  0.92949966  0.32310493  0.98524942  1
  Si0+  Si105  1  0.42493572  0.82230612  0.31814646  1
  Si0+  Si106  1  0.42620241  0.31995698  0.31611466  1
  Si0+  Si107  1  0.18058571  0.92690435  0.68467831  1
  Si0+  Si108  1  0.31962505  0.57186322  0.68354373  1
  Si0+  Si109  1  0.42578012  0.82315880  0.64961642  1
  Si0+  Si110  1  0.07228810  0.67585763  0.98594472  1
  Si0+  Si111  1  0.92870718  0.32173810  0.31674688  1
  Si0+  Si112  1  0.18028828  0.42640887  0.68290280  1
  Si0+  Si113  1  0.57126311  0.67636125  0.98257069  1
  Si0+  Si114  1  0.32170889  0.57211632  0.01610036  1
  Si0+  Si115  1  0.17987722  0.42892791  0.01612033  1
  Si0+  Si116  1  0.17999558  0.42743884  0.34931769  1
  Si0+  Si117  1  0.17903873  0.92649247  0.01528864  1
  Si0+  Si118  1  0.32247600  0.07485465  0.35175396  1
  Si0+  Si119  1  0.42719642  0.32286699  0.98509966  1
  O2-  O120  1  0.24762345  -0.00453859  0.05992823  1
  O2-  O121  1  0.25861840  0.00132183  0.39498932  1
  O2-  O122  1  0.25016109  -0.00083813  0.72615153  1
  O2-  O123  1  0.25098934  0.50033820  0.05831067  1
  O2-  O124  1  0.24736520  0.50101774  0.39200328  1
  O2-  O125  1  0.24922015  0.49956850  0.72512818  1
  O2-  O126  1  0.74821333  -0.00458353  0.05892672  1
  O2-  O127  1  0.75138416  -0.00018750  0.39559850  1
  O2-  O128  1  0.74725567  0.00110743  0.73373302  1
  O2-  O129  1  0.74371158  0.49826660  0.05980333  1
  O2-  O130  1  0.74693017  0.50307120  0.39751325  1
  O2-  O131  1  0.75100642  0.49799425  0.73320300  1
  O2-  O132  1  -0.00285027  0.24722748  0.27533003  1
  O2-  O133  1  -0.00206446  0.23902491  0.60514923  1
  O2-  O134  1  -0.00687215  0.24967803  0.94104310  1
  O2-  O135  1  0.00405122  0.74339322  0.27215015  1
  O2-  O136  1  -0.00421629  0.74310865  0.60040823  1
  O2-  O137  1  0.00190958  0.74205151  0.94275803  1
  O2-  O138  1  0.49882202  0.25082974  0.27459411  1
  O2-  O139  1  0.50560778  0.25598948  0.59952425  1
  O2-  O140  1  0.49784041  0.25653509  0.94281846  1
  O2-  O141  1  0.49894371  0.75953826  0.27397727  1
  O2-  O142  1  0.49994781  0.76079304  0.60649604  1
  O2-  O143  1  0.50375142  0.74688673  0.93993003  1
  O2-  O144  1  0.07303007  0.18130684  0.10043426  1
  O2-  O145  1  0.08044178  0.18555259  0.42210296  1
  O2-  O146  1  0.07745835  0.18177308  0.75458731  1
  O2-  O147  1  0.07614909  0.67584108  0.09144988  1
  O2-  O148  1  0.08032247  0.67843762  0.42054642  1
  O2-  O149  1  0.07490461  0.68235520  0.76663802  1
  O2-  O150  1  0.57045819  0.18136519  0.10135677  1
  O2-  O151  1  0.56943491  0.18046288  0.42127593  1
  O2-  O152  1  0.56893815  0.17652664  0.76255269  1
  O2-  O153  1  0.56868145  0.67552960  0.08836304  1
  O2-  O154  1  0.56786254  0.67734428  0.43109465  1
  O2-  O155  1  0.56452204  0.68097783  0.76830322  1
  O2-  O156  1  0.18303444  0.42593365  0.24383861  1
  O2-  O157  1  0.18315187  0.42359434  0.57778097  1
  O2-  O158  1  0.17951406  0.42878156  0.91141132  1
  O2-  O159  1  0.18206769  0.93192404  0.23374291  1
  O2-  O160  1  0.18282225  0.92684914  0.57941028  1
  O2-  O161  1  0.18200915  0.92598335  0.90985323  1
  O2-  O162  1  0.67900124  0.42935759  0.23327159  1
  O2-  O163  1  0.67692166  0.43376110  0.56934556  1
  O2-  O164  1  0.67442314  0.42834941  0.91119631  1
  O2-  O165  1  0.67535554  0.93327021  0.23221227  1
  O2-  O166  1  0.67867700  0.92856230  0.56959529  1
  O2-  O167  1  0.67617592  0.92868776  0.91017227  1
  O2-  O168  1  0.42580630  0.32378606  0.09106935  1
  O2-  O169  1  0.41937445  0.31822611  0.42023117  1
  O2-  O170  1  0.42461516  0.31503730  0.76599688  1
  O2-  O171  1  0.42699782  0.81747982  0.10097401  1
  O2-  O172  1  0.41791262  0.81616659  0.42297502  1
  O2-  O173  1  0.42173626  0.81999487  0.75538535  1
  O2-  O174  1  0.93397393  0.32433145  0.09117172  1
  O2-  O175  1  0.93184526  0.32247215  0.42146005  1
  O2-  O176  1  0.93529453  0.32170003  0.76665723  1
  O2-  O177  1  0.93114257  0.82233816  0.09887380  1
  O2-  O178  1  0.93257833  0.82265919  0.43110748  1
  O2-  O179  1  0.93100065  0.82102729  0.76354045  1
  O2-  O180  1  0.32075203  0.07756997  0.24603416  1
  O2-  O181  1  0.31387467  0.07319088  0.57658644  1
  O2-  O182  1  0.31952626  0.07052975  0.89997386  1
  O2-  O183  1  0.31774950  0.56872945  0.24314795  1
  O2-  O184  1  0.31755940  0.57346341  0.57838699  1
  O2-  O185  1  0.32193472  0.57205522  0.91144937  1
  O2-  O186  1  0.82317832  0.07064487  0.23232333  1
  O2-  O187  1  0.82107346  0.06761895  0.56918818  1
  O2-  O188  1  0.82221907  0.07174830  0.90021708  1
  O2-  O189  1  0.82085209  0.56948784  0.23452709  1
  O2-  O190  1  0.82089865  0.57027203  0.56869540  1
  O2-  O191  1  0.82402292  0.56936886  0.90253801  1
  O2-  O192  1  0.05067922  0.08765186  0.27217800  1
  O2-  O193  1  0.05671960  0.08070807  0.60699472  1
  O2-  O194  1  0.04770026  0.08202964  0.93071434  1
  O2-  O195  1  0.05431476  0.58077098  0.27191766  1
  O2-  O196  1  0.05871698  0.57507259  0.60408275  1
  O2-  O197  1  0.04960791  0.58032008  0.94247129  1
  O2-  O198  1  0.54199109  0.08787514  0.26973764  1
  O2-  O199  1  0.53478213  0.08251542  0.59431388  1
  O2-  O200  1  0.53892800  0.08541981  0.93322801  1
  O2-  O201  1  0.53369508  0.58535691  0.26270328  1
  O2-  O202  1  0.53235886  0.58782943  0.60037877  1
  O2-  O203  1  0.54184300  0.58323841  0.93788241  1
  O2-  O204  1  0.16235120  0.21496015  0.26744979  1
  O2-  O205  1  0.16234926  0.21126410  0.59982336  1
  O2-  O206  1  0.16642822  0.21446853  0.93303468  1
  O2-  O207  1  0.16822277  0.70457406  0.26866468  1
  O2-  O208  1  0.16846238  0.71180191  0.59894946  1
  O2-  O209  1  0.16582574  0.70016716  0.93887275  1
  O2-  O210  1  0.66215181  0.20975254  0.26876020  1
  O2-  O211  1  0.67179242  0.20088844  0.59603456  1
  O2-  O212  1  0.66866574  0.21092201  0.93318416  1
  O2-  O213  1  0.66601169  0.70892639  0.26053000  1
  O2-  O214  1  0.66649300  0.70854994  0.60086817  1
  O2-  O215  1  0.66483570  0.69989178  0.93750985  1
  O2-  O216  1  0.08999735  0.45591476  0.06786903  1
  O2-  O217  1  0.08709577  0.45029143  0.39545351  1
  O2-  O218  1  0.08937440  0.45157343  0.73227081  1
  O2-  O219  1  0.08592016  0.95467815  0.05972637  1
  O2-  O220  1  0.08892133  0.96470778  0.40513904  1
  O2-  O221  1  0.08893881  0.95352350  0.73151160  1
  O2-  O222  1  0.58157187  0.45065820  0.06263298  1
  O2-  O223  1  0.57455019  0.45208239  0.39549453  1
  O2-  O224  1  0.57676560  0.45832248  0.73441162  1
  O2-  O225  1  0.58440991  0.95518084  0.06166625  1
  O2-  O226  1  0.57855857  0.95515926  0.39985306  1
  O2-  O227  1  0.57341845  0.95258134  0.72994075  1
  O2-  O228  1  0.20937986  0.33863746  0.06622867  1
  O2-  O229  1  0.21230157  0.33771591  0.39760824  1
  O2-  O230  1  0.21208986  0.33598336  0.73140218  1
  O2-  O231  1  0.20481613  0.83289884  0.06190271  1
  O2-  O232  1  0.21097075  0.83289316  0.40237628  1
  O2-  O233  1  0.21103695  0.83637862  0.73268103  1
  O2-  O234  1  0.70437783  0.33568548  0.06366299  1
  O2-  O235  1  0.70704615  0.33300333  0.39930914  1
  O2-  O236  1  0.70111239  0.32812685  0.73023219  1
  O2-  O237  1  0.70052535  0.83322883  0.05935331  1
  O2-  O238  1  0.70605223  0.83019496  0.39423364  1
  O2-  O239  1  0.70409238  0.83087177  0.73732647  1
  O2-  O240  1  0.44901675  0.41290952  0.26834830  1
  O2-  O241  1  0.44457330  0.42284887  0.60314912  1
  O2-  O242  1  0.44807475  0.41813646  0.93997814  1
  O2-  O243  1  0.44316305  0.92007815  0.27762158  1
  O2-  O244  1  0.43907535  0.91892759  0.60480360  1
  O2-  O245  1  0.45619932  0.91659824  0.93249781  1
  O2-  O246  1  0.96197992  0.41200497  0.26838097  1
  O2-  O247  1  0.96754721  0.41183151  0.59671722  1
  O2-  O248  1  0.96356866  0.41447521  0.93964499  1
  O2-  O249  1  0.96836481  0.91845178  0.26713933  1
  O2-  O250  1  0.96491165  0.91655971  0.59732887  1
  O2-  O251  1  0.96223914  0.91365952  0.92850379  1
  O2-  O252  1  0.33525141  0.29010204  0.26608845  1
  O2-  O253  1  0.33280897  0.28613504  0.59649937  1
  O2-  O254  1  0.33355436  0.29717368  0.94019093  1
  O2-  O255  1  0.33436436  0.78992296  0.26852290  1
  O2-  O256  1  0.33525545  0.78834670  0.60280248  1
  O2-  O257  1  0.33316567  0.78774090  0.93229531  1
  O2-  O258  1  0.83621283  0.29821630  0.26896375  1
  O2-  O259  1  0.83217145  0.29409921  0.59746995  1
  O2-  O260  1  0.83419977  0.30507584  0.94199875  1
  O2-  O261  1  0.83534656  0.79387314  0.26145007  1
  O2-  O262  1  0.82856102  0.79548877  0.59931611  1
  O2-  O263  1  0.83135465  0.79019625  0.93240474  1
  O2-  O264  1  0.41754423  0.03913351  0.06827244  1
  O2-  O265  1  0.41695002  0.05594194  0.39710577  1
  O2-  O266  1  0.41050605  0.04721890  0.72718896  1
  O2-  O267  1  0.41261903  0.54403528  0.06585411  1
  O2-  O268  1  0.41020967  0.54025970  0.39526341  1
  O2-  O269  1  0.40977835  0.54492942  0.73331828  1
  O2-  O270  1  0.92109087  0.04011347  0.06363323  1
  O2-  O271  1  0.92310601  0.05066997  0.39863848  1
  O2-  O272  1  0.92273534  0.04236259  0.73211833  1
  O2-  O273  1  0.91682672  0.54000221  0.07115038  1
  O2-  O274  1  0.92143823  0.54397236  0.39848318  1
  O2-  O275  1  0.92299588  0.54032635  0.73175845  1
  O2-  O276  1  0.29057741  0.16694537  0.06839899  1
  O2-  O277  1  0.28895020  0.16590581  0.39825264  1
  O2-  O278  1  0.28557859  0.16231768  0.72967810  1
  O2-  O279  1  0.29211708  0.66256385  0.06559767  1
  O2-  O280  1  0.29288248  0.66136801  0.39705336  1
  O2-  O281  1  0.28912091  0.66238500  0.73280532  1
  O2-  O282  1  0.79463000  0.16897290  0.06580521  1
  O2-  O283  1  0.79368582  0.17085752  0.39547150  1
  O2-  O284  1  0.79798050  0.17061780  0.73259204  1
  O2-  O285  1  0.78876713  0.66813118  0.06824070  1
  O2-  O286  1  0.79397837  0.67216296  0.39560573  1
  O2-  O287  1  0.79224383  0.66823108  0.73399186  1
