# generated using pymatgen
data_Ca2Al2SiO7
_symmetry_space_group_name_H-M   'P 1'
_cell_length_a   15.46125881
_cell_length_b   15.45980350
_cell_length_c   15.28496529
_cell_angle_alpha   90.00306355
_cell_angle_beta   89.98459567
_cell_angle_gamma   89.99157707
_symmetry_Int_Tables_number   1
_chemical_formula_structural   Ca2Al2SiO7
_chemical_formula_sum   'Ca48 Al48 Si24 O168'
_cell_volume   3653.53485930
_cell_formula_units_Z   24
loop_
 _symmetry_equiv_pos_site_id
 _symmetry_equiv_pos_as_xyz
  1  'x, y, z'
loop_
 _atom_type_symbol
 _atom_type_oxidation_number
  Ca2+  2.0
  Al0+  0.0
  Si0+  0.0
  O2-  -2.0
loop_
 _atom_site_type_symbol
 _atom_site_label
 _atom_site_symmetry_multiplicity
 _atom_site_fract_x
 _atom_site_fract_y
 _atom_site_fract_z
 _atom_site_occupancy
  Ca2+  Ca0  1  0.17288945  0.07598307  0.17216247  1
  Ca2+  Ca1  1  0.16632606  0.07862897  0.50841387  1
  Ca2+  Ca2  1  0.17590806  0.08967937  0.83301527  1
  Ca2+  Ca3  1  0.16552019  0.58775726  0.16605623  1
  Ca2+  Ca4  1  0.16837900  0.57705747  0.51352721  1
  Ca2+  Ca5  1  0.16235293  0.58388475  0.83205813  1
  Ca2+  Ca6  1  0.67356306  0.07852308  0.17395991  1
  Ca2+  Ca7  1  0.68112339  0.07665006  0.50933029  1
  Ca2+  Ca8  1  0.66928751  0.07668822  0.82856034  1
  Ca2+  Ca9  1  0.66757951  0.58280401  0.17106468  1
  Ca2+  Ca10  1  0.67038301  0.58127064  0.50443123  1
  Ca2+  Ca11  1  0.68008637  0.58778062  0.83726834  1
  Ca2+  Ca12  1  0.06840725  0.33434410  0.16155489  1
  Ca2+  Ca13  1  0.07402620  0.33092774  0.50495433  1
  Ca2+  Ca14  1  0.07577297  0.33069565  0.82202013  1
  Ca2+  Ca15  1  0.08052049  0.83247563  0.16585165  1
  Ca2+  Ca16  1  0.07571350  0.83390633  0.49776697  1
  Ca2+  Ca17  1  0.07881170  0.81934701  0.82396811  1
  Ca2+  Ca18  1  0.58697757  0.33318200  0.16660275  1
  Ca2+  Ca19  1  0.57808455  0.33999829  0.49662755  1
  Ca2+  Ca20  1  0.57508551  0.33020540  0.82618183  1
  Ca2+  Ca21  1  0.58202893  0.82048887  0.15881107  1
  Ca2+  Ca22  1  0.58184451  0.83132863  0.50081077  1
  Ca2+  Ca23  1  0.57714467  0.83293452  0.82795444  1
  Ca2+  Ca24  1  0.32932002  0.42051508  0.17197837  1
  Ca2+  Ca25  1  0.32707280  0.42333506  0.51516977  1
  Ca2+  Ca26  1  0.32717587  0.41823690  0.82789987  1
  Ca2+  Ca27  1  0.32967729  0.91424090  0.16689934  1
  Ca2+  Ca28  1  0.32673216  0.91779730  0.50933643  1
  Ca2+  Ca29  1  0.34158608  0.92363535  0.83730511  1
  Ca2+  Ca30  1  0.83242537  0.42121276  0.17111251  1
  Ca2+  Ca31  1  0.83205015  0.41735518  0.50660933  1
  Ca2+  Ca32  1  0.84647627  0.42653698  0.83509099  1
  Ca2+  Ca33  1  0.83814654  0.92312751  0.17738162  1
  Ca2+  Ca34  1  0.83529606  0.92091635  0.51010306  1
  Ca2+  Ca35  1  0.83337272  0.91521508  0.82945737  1
  Ca2+  Ca36  1  0.41722389  0.16603504  0.16021805  1
  Ca2+  Ca37  1  0.41196191  0.17037261  0.50543379  1
  Ca2+  Ca38  1  0.41159367  0.16799013  0.82203978  1
  Ca2+  Ca39  1  0.42972289  0.67136121  0.15886744  1
  Ca2+  Ca40  1  0.41900334  0.66903843  0.49854159  1
  Ca2+  Ca41  1  0.41909005  0.67695301  0.82514558  1
  Ca2+  Ca42  1  0.90824396  0.17775863  0.16561396  1
  Ca2+  Ca43  1  0.91209518  0.17146816  0.49644919  1
  Ca2+  Ca44  1  0.92046052  0.17739631  0.82116917  1
  Ca2+  Ca45  1  0.91925618  0.67167485  0.15945463  1
  Ca2+  Ca46  1  0.91437559  0.67562281  0.50326759  1
  Ca2+  Ca47  1  0.92290824  0.66304787  0.82370685  1
  Al0+  Al48  1  0.00152052  0.00170368  0.00163216  1
  Al0+  Al49  1  0.00313698  0.00049743  0.33601291  1
  Al0+  Al50  1  0.00088043  -0.00009337  0.66801090  1
  Al0+  Al51  1  -0.00100911  0.50064459  0.00031933  1
  Al0+  Al52  1  0.00041211  0.49978584  0.32963868  1
  Al0+  Al53  1  -0.00014007  0.49753573  0.66438687  1
  Al0+  Al54  1  0.50150443  0.00126575  0.00458165  1
  Al0+  Al55  1  0.49960573  0.00170028  0.33282327  1
  Al0+  Al56  1  0.50050315  -0.00110355  0.66750382  1
  Al0+  Al57  1  0.50044034  0.49874028  -0.00336139  1
  Al0+  Al58  1  0.50009477  0.50025015  0.33130919  1
  Al0+  Al59  1  0.49894307  0.49975482  0.66784653  1
  Al0+  Al60  1  0.24944340  0.24995150  0.00830912  1
  Al0+  Al61  1  0.24951125  0.25113528  0.33170926  1
  Al0+  Al62  1  0.24927906  0.25069852  0.66498470  1
  Al0+  Al63  1  0.24970722  0.75051384  -0.00523410  1
  Al0+  Al64  1  0.25054691  0.75121114  0.33675213  1
  Al0+  Al65  1  0.25177886  0.74930012  0.66229010  1
  Al0+  Al66  1  0.74809441  0.25116921  -0.00519012  1
  Al0+  Al67  1  0.74816826  0.25131781  0.33665719  1
  Al0+  Al68  1  0.74841442  0.24821541  0.66831366  1
  Al0+  Al69  1  0.75052233  0.75001171  0.00216198  1
  Al0+  Al70  1  0.75039022  0.74997585  0.32454245  1
  Al0+  Al71  1  0.74909654  0.74826565  0.67139407  1
  Al0+  Al72  1  0.92782061  0.32020539  0.31855846  1
  Al0+  Al73  1  0.82433763  0.07201129  0.68375701  1
  Al0+  Al74  1  0.18145326  0.92938046  0.34807738  1
  Al0+  Al75  1  0.32148761  0.07113027  0.01525359  1
  Al0+  Al76  1  0.32255772  0.57371292  0.68266667  1
  Al0+  Al77  1  0.56987565  0.67888852  0.31999471  1
  Al0+  Al78  1  0.42995806  0.82255323  0.65163915  1
  Al0+  Al79  1  0.31848455  0.06866114  0.67837454  1
  Al0+  Al80  1  0.43030089  0.32086940  0.65349068  1
  Al0+  Al81  1  0.92642932  0.32015337  0.65053827  1
  Al0+  Al82  1  0.07159443  0.67740131  0.65001781  1
  Al0+  Al83  1  0.67947739  0.92777447  0.68158048  1
  Al0+  Al84  1  0.82125958  0.57057036  0.01566299  1
  Al0+  Al85  1  0.81925952  0.56795800  0.67811101  1
  Al0+  Al86  1  0.67921751  0.43110074  0.34672139  1
  Al0+  Al87  1  0.07213859  0.17817337  0.65255930  1
  Al0+  Al88  1  0.57359336  0.67649736  0.98211069  1
  Al0+  Al89  1  0.93089737  0.82201133  0.31999514  1
  Al0+  Al90  1  0.43104165  0.82144990  0.98530167  1
  Al0+  Al91  1  0.92846412  0.31931198  0.98598397  1
  Al0+  Al92  1  0.06953689  0.68032644  0.98698273  1
  Al0+  Al93  1  0.17891343  0.42953574  0.68158337  1
  Al0+  Al94  1  0.92739100  0.81988561  0.65365570  1
  Al0+  Al95  1  0.82000333  0.07034061  0.34575875  1
  Si0+  Si96  1  0.42589104  0.32016269  0.98626502  1
  Si0+  Si97  1  0.68000861  0.93029985  0.01725670  1
  Si0+  Si98  1  0.07361137  0.17834621  0.31446867  1
  Si0+  Si99  1  0.17697967  0.92557360  0.68481346  1
  Si0+  Si100  1  0.67552778  0.42621218  0.68392203  1
  Si0+  Si101  1  0.67602550  0.42692214  0.01642931  1
  Si0+  Si102  1  0.32196476  0.57192298  0.01515231  1
  Si0+  Si103  1  0.32064717  0.56922643  0.34588471  1
  Si0+  Si104  1  0.82345268  0.57358831  0.34935790  1
  Si0+  Si105  1  0.92769137  0.82593378  0.98451667  1
  Si0+  Si106  1  0.32366497  0.07472239  0.35139112  1
  Si0+  Si107  1  0.17770856  0.92640506  0.01645625  1
  Si0+  Si108  1  0.42838195  0.32077022  0.31721092  1
  Si0+  Si109  1  0.42679056  0.82340200  0.31667698  1
  Si0+  Si110  1  0.07370569  0.67798069  0.31675030  1
  Si0+  Si111  1  0.57131786  0.17682934  0.64863400  1
  Si0+  Si112  1  0.57052432  0.17953845  0.31865098  1
  Si0+  Si113  1  0.17945643  0.42984827  0.01724690  1
  Si0+  Si114  1  0.17758359  0.42883170  0.34775315  1
  Si0+  Si115  1  0.67721927  0.92562793  0.34795856  1
  Si0+  Si116  1  0.07348693  0.17828894  0.98550399  1
  Si0+  Si117  1  0.57030520  0.17945085  0.98537388  1
  Si0+  Si118  1  0.57196657  0.67750787  0.65027798  1
  Si0+  Si119  1  0.82111374  0.07261621  0.01465160  1
  O2-  O120  1  0.24739393  -0.00471227  0.06048128  1
  O2-  O121  1  0.25671039  0.00430305  0.39350209  1
  O2-  O122  1  0.24590403  -0.00564404  0.72888802  1
  O2-  O123  1  0.25105135  0.50111827  0.05965740  1
  O2-  O124  1  0.24672372  0.50194081  0.38820137  1
  O2-  O125  1  0.24746418  0.50471380  0.73260361  1
  O2-  O126  1  0.75536401  -0.00250133  0.05913757  1
  O2-  O127  1  0.74852442  -0.00823850  0.39083112  1
  O2-  O128  1  0.75387465  -0.00256148  0.73250418  1
  O2-  O129  1  0.74318148  0.49739707  0.06019751  1
  O2-  O130  1  0.75495866  0.50426787  0.39273763  1
  O2-  O131  1  0.74746174  0.49111864  0.72749259  1
  O2-  O132  1  0.00277411  0.24542639  0.27057520  1
  O2-  O133  1  -0.00595115  0.24330258  0.60169842  1
  O2-  O134  1  0.00213527  0.24329030  0.94154162  1
  O2-  O135  1  0.00358447  0.74528526  0.27268227  1
  O2-  O136  1  0.00143928  0.75150501  0.60112429  1
  O2-  O137  1  -0.00510495  0.75544156  0.94232738  1
  O2-  O138  1  0.49708003  0.24780567  0.27425716  1
  O2-  O139  1  0.50655288  0.24928242  0.60408640  1
  O2-  O140  1  0.49634332  0.24831864  0.94502865  1
  O2-  O141  1  0.49822140  0.75725975  0.27345243  1
  O2-  O142  1  0.50206636  0.74491511  0.60575284  1
  O2-  O143  1  0.50085554  0.74833754  0.93399960  1
  O2-  O144  1  0.07381129  0.17970425  0.09147227  1
  O2-  O145  1  0.07738901  0.18053284  0.41920029  1
  O2-  O146  1  0.07418931  0.18285278  0.76669811  1
  O2-  O147  1  0.06962930  0.68193707  0.10086538  1
  O2-  O148  1  0.07555518  0.67676552  0.42138189  1
  O2-  O149  1  0.06882467  0.67822650  0.76392498  1
  O2-  O150  1  0.57182511  0.18108952  0.09109747  1
  O2-  O151  1  0.56933629  0.17963470  0.42287717  1
  O2-  O152  1  0.56873409  0.17736280  0.75485606  1
  O2-  O153  1  0.57050396  0.67709386  0.09643001  1
  O2-  O154  1  0.56697700  0.67729950  0.43269195  1
  O2-  O155  1  0.57160970  0.67819096  0.75563908  1
  O2-  O156  1  0.17966905  0.42827764  0.24192674  1
  O2-  O157  1  0.18184210  0.42968431  0.56731549  1
  O2-  O158  1  0.18127800  0.42663255  0.91308586  1
  O2-  O159  1  0.18411018  0.92911245  0.23425401  1
  O2-  O160  1  0.17930764  0.92709564  0.57885236  1
  O2-  O161  1  0.17533738  0.92696277  0.91179807  1
  O2-  O162  1  0.67817776  0.43105116  0.23337589  1
  O2-  O163  1  0.67326112  0.42951161  0.57802341  1
  O2-  O164  1  0.67371761  0.42303082  0.91159592  1
  O2-  O165  1  0.67609619  0.92916357  0.24180748  1
  O2-  O166  1  0.67889040  0.92973659  0.56743983  1
  O2-  O167  1  0.67744809  0.93294782  0.91283325  1
  O2-  O168  1  0.42609417  0.32012710  0.09208127  1
  O2-  O169  1  0.42801542  0.32189391  0.42164629  1
  O2-  O170  1  0.43089665  0.31797533  0.76711667  1
  O2-  O171  1  0.43261461  0.81947525  0.09975610  1
  O2-  O172  1  0.42608585  0.82291305  0.42185658  1
  O2-  O173  1  0.43321606  0.82472129  0.76453104  1
  O2-  O174  1  0.92777689  0.31791401  0.09983299  1
  O2-  O175  1  0.92838521  0.32024630  0.43060670  1
  O2-  O176  1  0.92991637  0.32085330  0.76427387  1
  O2-  O177  1  0.93015760  0.82786099  0.09067287  1
  O2-  O178  1  0.92969331  0.82134679  0.43222958  1
  O2-  O179  1  0.92837378  0.81658525  0.76752371  1
  O2-  O180  1  0.32351897  0.07604575  0.24540433  1
  O2-  O181  1  0.31810345  0.06777049  0.56513864  1
  O2-  O182  1  0.32093377  0.07470382  0.90283263  1
  O2-  O183  1  0.32055465  0.56670701  0.24004115  1
  O2-  O184  1  0.32463870  0.56931846  0.56815877  1
  O2-  O185  1  0.32211585  0.57038109  0.91104583  1
  O2-  O186  1  0.81584799  0.07070974  0.23151894  1
  O2-  O187  1  0.82031494  0.07261744  0.56993179  1
  O2-  O188  1  0.81938954  0.07297817  0.91047526  1
  O2-  O189  1  0.82321864  0.57203173  0.24340777  1
  O2-  O190  1  0.81554282  0.56935511  0.56470688  1
  O2-  O191  1  0.82293249  0.56779286  0.90298173  1
  O2-  O192  1  0.05051587  0.08404087  0.26922309  1
  O2-  O193  1  0.05227898  0.07699485  0.60281624  1
  O2-  O194  1  0.05316223  0.08311646  0.94120066  1
  O2-  O195  1  0.05035982  0.58409666  0.26908261  1
  O2-  O196  1  0.04208985  0.57975065  0.59752165  1
  O2-  O197  1  0.03963255  0.58345475  0.93482034  1
  O2-  O198  1  0.54542536  0.08703198  0.26897043  1
  O2-  O199  1  0.54136141  0.08574393  0.60129689  1
  O2-  O200  1  0.54476652  0.08703874  0.93991860  1
  O2-  O201  1  0.53469688  0.58414257  0.26332999  1
  O2-  O202  1  0.54699877  0.58349283  0.60492566  1
  O2-  O203  1  0.54823968  0.57656219  0.93193797  1
  O2-  O204  1  0.16676049  0.20676091  0.26632428  1
  O2-  O205  1  0.16710326  0.21219581  0.59602312  1
  O2-  O206  1  0.16694508  0.20786546  0.94172866  1
  O2-  O207  1  0.16751260  0.70595489  0.27041457  1
  O2-  O208  1  0.17122203  0.70174924  0.59830443  1
  O2-  O209  1  0.16614108  0.70757712  0.93231402  1
  O2-  O210  1  0.66014899  0.21069444  0.26870259  1
  O2-  O211  1  0.66592775  0.19876170  0.60426457  1
  O2-  O212  1  0.65930629  0.20925816  0.93448758  1
  O2-  O213  1  0.66598597  0.70592687  0.26261358  1
  O2-  O214  1  0.66437310  0.70509472  0.60367801  1
  O2-  O215  1  0.67268321  0.70675604  0.93294048  1
  O2-  O216  1  0.08877214  0.46024113  0.06569323  1
  O2-  O217  1  0.08518556  0.45479080  0.39371714  1
  O2-  O218  1  0.08009195  0.45464940  0.73393732  1
  O2-  O219  1  0.08482150  0.95405665  0.06543995  1
  O2-  O220  1  0.08599029  0.96020020  0.40282123  1
  O2-  O221  1  0.08362308  0.94855521  0.73145977  1
  O2-  O222  1  0.58117599  0.44965983  0.06350601  1
  O2-  O223  1  0.58168187  0.46183479  0.39976118  1
  O2-  O224  1  0.58325988  0.45349285  0.73153738  1
  O2-  O225  1  0.59125168  0.96311046  0.06835655  1
  O2-  O226  1  0.58342136  0.95324288  0.39289366  1
  O2-  O227  1  0.58381330  0.96300360  0.73640756  1
  O2-  O228  1  0.20797839  0.33970816  0.06894985  1
  O2-  O229  1  0.20800855  0.33750568  0.39360134  1
  O2-  O230  1  0.21351835  0.33367222  0.73555444  1
  O2-  O231  1  0.20476676  0.83318177  0.06384841  1
  O2-  O232  1  0.21090667  0.83300780  0.40331975  1
  O2-  O233  1  0.20347062  0.83158166  0.72814838  1
  O2-  O234  1  0.70424242  0.33330741  0.06333650  1
  O2-  O235  1  0.70531802  0.33428354  0.40142356  1
  O2-  O236  1  0.69421764  0.33048713  0.72783593  1
  O2-  O237  1  0.70352377  0.83710997  0.06405761  1
  O2-  O238  1  0.69973275  0.83036209  0.39042673  1
  O2-  O239  1  0.70429505  0.82997538  0.73675643  1
  O2-  O240  1  0.45836428  0.41102855  0.26755224  1
  O2-  O241  1  0.45965689  0.41764810  0.59847182  1
  O2-  O242  1  0.45288744  0.41125402  0.93846427  1
  O2-  O243  1  0.44828811  0.91918475  0.27214611  1
  O2-  O244  1  0.46356681  0.91745277  0.59587067  1
  O2-  O245  1  0.46183424  0.92111528  0.93658837  1
  O2-  O246  1  0.96031458  0.41666919  0.26324488  1
  O2-  O247  1  0.95895742  0.41580207  0.59554505  1
  O2-  O248  1  0.96316759  0.41504498  0.93519718  1
  O2-  O249  1  0.96480618  0.91821650  0.26530415  1
  O2-  O250  1  0.95231859  0.92003938  0.60361257  1
  O2-  O251  1  0.95305209  0.91989693  0.93903476  1
  O2-  O252  1  0.33612728  0.29500400  0.26813038  1
  O2-  O253  1  0.33586451  0.28779832  0.59774943  1
  O2-  O254  1  0.33354402  0.29174931  0.94151375  1
  O2-  O255  1  0.33449848  0.79379011  0.26960253  1
  O2-  O256  1  0.33382178  0.79391081  0.59641192  1
  O2-  O257  1  0.33165621  0.79776219  0.93402584  1
  O2-  O258  1  0.83038534  0.28837003  0.26548312  1
  O2-  O259  1  0.82508740  0.29663065  0.60115591  1
  O2-  O260  1  0.83160540  0.29171260  0.93204088  1
  O2-  O261  1  0.83430662  0.79549778  0.26274254  1
  O2-  O262  1  0.82920618  0.78876787  0.60124909  1
  O2-  O263  1  0.83271971  0.80293206  0.94238217  1
  O2-  O264  1  0.41858251  0.04264176  0.07120952  1
  O2-  O265  1  0.41889274  0.05285865  0.39538184  1
  O2-  O266  1  0.41594057  0.04079191  0.73195078  1
  O2-  O267  1  0.41368471  0.54138384  0.06290369  1
  O2-  O268  1  0.41041989  0.53730801  0.39332682  1
  O2-  O269  1  0.41922390  0.54081936  0.73659340  1
  O2-  O270  1  0.91508429  0.05071584  0.06194256  1
  O2-  O271  1  0.91869560  0.04586947  0.39633514  1
  O2-  O272  1  0.92324646  0.04736221  0.73700697  1
  O2-  O273  1  0.91673527  0.53707653  0.07153484  1
  O2-  O274  1  0.91814889  0.54863005  0.39261489  1
  O2-  O275  1  0.91600653  0.53771137  0.73148718  1
  O2-  O276  1  0.29039534  0.16666454  0.07363793  1
  O2-  O277  1  0.29710582  0.16924934  0.39514930  1
  O2-  O278  1  0.28812497  0.16549796  0.73200916  1
  O2-  O279  1  0.29312237  0.66379559  0.06263498  1
  O2-  O280  1  0.29850564  0.66257271  0.39176158  1
  O2-  O281  1  0.29804667  0.67349892  0.73350176  1
  O2-  O282  1  0.78619200  0.16320992  0.06145647  1
  O2-  O283  1  0.78424249  0.16449285  0.39988415  1
  O2-  O284  1  0.79049648  0.16904907  0.73763636  1
  O2-  O285  1  0.79394023  0.66895741  0.06956869  1
  O2-  O286  1  0.79551841  0.66776768  0.39224192  1
  O2-  O287  1  0.78799104  0.66237660  0.73552847  1
