# generated using pymatgen
data_Ca2Al2SiO7
_symmetry_space_group_name_H-M   'P 1'
_cell_length_a   15.46059612
_cell_length_b   15.46139783
_cell_length_c   15.28566442
_cell_angle_alpha   89.98677222
_cell_angle_beta   89.98690791
_cell_angle_gamma   90.00018802
_symmetry_Int_Tables_number   1
_chemical_formula_structural   Ca2Al2SiO7
_chemical_formula_sum   'Ca48 Al48 Si24 O168'
_cell_volume   3653.92213270
_cell_formula_units_Z   24
loop_
 _symmetry_equiv_pos_site_id
 _symmetry_equiv_pos_as_xyz
  1  'x, y, z'
loop_
 _atom_type_symbol
 _atom_type_oxidation_number
  Ca2+  2.0
  Al0+  0.0
  Si0+  0.0
  O2-  -2.0
loop_
 _atom_site_type_symbol
 _atom_site_label
 _atom_site_symmetry_multiplicity
 _atom_site_fract_x
 _atom_site_fract_y
 _atom_site_fract_z
 _atom_site_occupancy
  Ca2+  Ca0  1  0.17466474  0.08373546  0.17783242  1
  Ca2+  Ca1  1  0.17386763  0.08679189  0.49892025  1
  Ca2+  Ca2  1  0.18165579  0.08990929  0.83819484  1
  Ca2+  Ca3  1  0.16984381  0.58328086  0.17106076  1
  Ca2+  Ca4  1  0.17299440  0.58350399  0.50096515  1
  Ca2+  Ca5  1  0.16431030  0.58247877  0.83925857  1
  Ca2+  Ca6  1  0.67417654  0.09428974  0.16760921  1
  Ca2+  Ca7  1  0.67185327  0.08776923  0.50733957  1
  Ca2+  Ca8  1  0.67036230  0.08607776  0.83273896  1
  Ca2+  Ca9  1  0.67097377  0.58188558  0.17184296  1
  Ca2+  Ca10  1  0.67000825  0.57498688  0.50869751  1
  Ca2+  Ca11  1  0.67758719  0.57564069  0.83631307  1
  Ca2+  Ca12  1  0.07447404  0.32739443  0.16565870  1
  Ca2+  Ca13  1  0.06898105  0.32489650  0.49382416  1
  Ca2+  Ca14  1  0.07062845  0.33190814  0.83045838  1
  Ca2+  Ca15  1  0.08157991  0.83161056  0.16058219  1
  Ca2+  Ca16  1  0.08363572  0.83650742  0.49512633  1
  Ca2+  Ca17  1  0.07717013  0.83027229  0.83579915  1
  Ca2+  Ca18  1  0.57522852  0.32049563  0.16078057  1
  Ca2+  Ca19  1  0.59021936  0.32138959  0.49788449  1
  Ca2+  Ca20  1  0.58468066  0.32192173  0.83102129  1
  Ca2+  Ca21  1  0.58583744  0.82600077  0.16584460  1
  Ca2+  Ca22  1  0.58111816  0.83421652  0.49917430  1
  Ca2+  Ca23  1  0.57982946  0.83910326  0.82364576  1
  Ca2+  Ca24  1  0.33570009  0.41912529  0.17175677  1
  Ca2+  Ca25  1  0.33662795  0.42344271  0.50166917  1
  Ca2+  Ca26  1  0.33138713  0.41279673  0.84110692  1
  Ca2+  Ca27  1  0.32518489  0.92737796  0.17354394  1
  Ca2+  Ca28  1  0.33191278  0.92527498  0.50288909  1
  Ca2+  Ca29  1  0.33958368  0.92748920  0.83431297  1
  Ca2+  Ca30  1  0.84104761  0.41808215  0.16693051  1
  Ca2+  Ca31  1  0.83017259  0.41614946  0.51088371  1
  Ca2+  Ca32  1  0.83399254  0.41836059  0.83569335  1
  Ca2+  Ca33  1  0.83926822  0.92889347  0.16944498  1
  Ca2+  Ca34  1  0.82567413  0.93194828  0.50652948  1
  Ca2+  Ca35  1  0.82904591  0.92604919  0.83983959  1
  Ca2+  Ca36  1  0.42338465  0.16045707  0.15935989  1
  Ca2+  Ca37  1  0.42709639  0.15667113  0.49659620  1
  Ca2+  Ca38  1  0.42552434  0.16124989  0.82822177  1
  Ca2+  Ca39  1  0.42104487  0.66304655  0.16636135  1
  Ca2+  Ca40  1  0.42270856  0.67224441  0.49142004  1
  Ca2+  Ca41  1  0.41996724  0.67754987  0.82476329  1
  Ca2+  Ca42  1  0.91399134  0.17286821  0.16258142  1
  Ca2+  Ca43  1  0.91010979  0.17401340  0.49088351  1
  Ca2+  Ca44  1  0.90343561  0.17472970  0.82934161  1
  Ca2+  Ca45  1  0.92237107  0.67566308  0.15172408  1
  Ca2+  Ca46  1  0.91239111  0.66849663  0.49792018  1
  Ca2+  Ca47  1  0.91459149  0.66479270  0.83350760  1
  Al0+  Al48  1  0.00045385  -0.00138124  -0.00184605  1
  Al0+  Al49  1  -0.00035411  0.00130683  0.33881525  1
  Al0+  Al50  1  0.00272003  -0.00113785  0.67005165  1
  Al0+  Al51  1  0.00125284  0.49899638  -0.00196914  1
  Al0+  Al52  1  0.00043751  0.50181494  0.33118762  1
  Al0+  Al53  1  0.00243309  0.49958686  0.66395390  1
  Al0+  Al54  1  0.50083329  -0.00235696  0.00258203  1
  Al0+  Al55  1  0.49982568  -0.00297578  0.32917975  1
  Al0+  Al56  1  0.49887506  -0.00027645  0.66343343  1
  Al0+  Al57  1  0.50015628  0.49883762  -0.00346925  1
  Al0+  Al58  1  0.50161997  0.50099556  0.33411411  1
  Al0+  Al59  1  0.50022185  0.50030365  0.67248408  1
  Al0+  Al60  1  0.24958043  0.25200702  0.00406245  1
  Al0+  Al61  1  0.24800070  0.25208689  0.33664888  1
  Al0+  Al62  1  0.24979690  0.25161125  0.66953325  1
  Al0+  Al63  1  0.25089877  0.74912798  -0.00379636  1
  Al0+  Al64  1  0.25013213  0.75024580  0.34015639  1
  Al0+  Al65  1  0.24994266  0.75134893  0.66229927  1
  Al0+  Al66  1  0.74755835  0.24970187  -0.00262872  1
  Al0+  Al67  1  0.74697799  0.25302911  0.32700713  1
  Al0+  Al68  1  0.74784152  0.25175828  0.66589568  1
  Al0+  Al69  1  0.75096241  0.74893629  -0.00000406  1
  Al0+  Al70  1  0.74964473  0.75016596  0.32917956  1
  Al0+  Al71  1  0.75094409  0.74959629  0.67177698  1
  Al0+  Al72  1  0.82013643  0.07136251  0.01445809  1
  Al0+  Al73  1  0.07095804  0.17764235  0.31922699  1
  Al0+  Al74  1  0.31903668  0.07021867  0.68017294  1
  Al0+  Al75  1  0.32107181  0.07126401  0.01447344  1
  Al0+  Al76  1  0.82143814  0.56907853  0.01567734  1
  Al0+  Al77  1  0.81715182  0.07308107  0.34509758  1
  Al0+  Al78  1  0.56827873  0.18116272  0.65176033  1
  Al0+  Al79  1  0.42693638  0.32143825  0.98568706  1
  Al0+  Al80  1  0.67733661  0.42765136  0.68323787  1
  Al0+  Al81  1  0.92750687  0.82310478  0.98352532  1
  Al0+  Al82  1  0.32327059  0.07326863  0.34896111  1
  Al0+  Al83  1  0.57107250  0.67841483  0.32014403  1
  Al0+  Al84  1  0.07195053  0.67899904  0.98519876  1
  Al0+  Al85  1  0.82413118  0.57043914  0.68139288  1
  Al0+  Al86  1  0.32173923  0.56916349  0.34677015  1
  Al0+  Al87  1  0.93016216  0.31864808  0.65334293  1
  Al0+  Al88  1  0.67858542  0.92988280  0.67947434  1
  Al0+  Al89  1  0.56846262  0.17687514  0.31904707  1
  Al0+  Al90  1  0.42933986  0.82099569  0.65093749  1
  Al0+  Al91  1  0.92997129  0.31865510  0.98512577  1
  Al0+  Al92  1  0.56890424  0.17661689  0.98267615  1
  Al0+  Al93  1  0.17750738  0.92956304  0.34862643  1
  Al0+  Al94  1  0.92687018  0.32227903  0.31705832  1
  Al0+  Al95  1  0.82263031  0.07232345  0.68066271  1
  Si0+  Si96  1  0.92904337  0.82077024  0.32034327  1
  Si0+  Si97  1  0.17790310  0.92445765  0.68686534  1
  Si0+  Si98  1  0.67738347  0.92585232  0.01851707  1
  Si0+  Si99  1  0.17488520  0.42932162  0.35215226  1
  Si0+  Si100  1  0.32062454  0.57312958  0.68239375  1
  Si0+  Si101  1  0.07550333  0.17696462  0.65147857  1
  Si0+  Si102  1  0.42634738  0.81980488  0.31421419  1
  Si0+  Si103  1  0.07082088  0.67929689  0.64894482  1
  Si0+  Si104  1  0.07241651  0.68007768  0.31960319  1
  Si0+  Si105  1  0.92810719  0.82188112  0.65062344  1
  Si0+  Si106  1  0.68008565  0.43174667  0.34684201  1
  Si0+  Si107  1  0.42792983  0.32343240  0.32059730  1
  Si0+  Si108  1  0.67686902  0.42879578  0.01958868  1
  Si0+  Si109  1  0.82225485  0.57299789  0.34637790  1
  Si0+  Si110  1  0.43063330  0.81804386  0.98595365  1
  Si0+  Si111  1  0.18099212  0.43101581  0.68228694  1
  Si0+  Si112  1  0.17871593  0.42994729  0.01647658  1
  Si0+  Si113  1  0.17965847  0.92669892  0.01479573  1
  Si0+  Si114  1  0.67907410  0.92430655  0.34820328  1
  Si0+  Si115  1  0.42488726  0.32435155  0.64976409  1
  Si0+  Si116  1  0.07324989  0.17656571  0.98422151  1
  Si0+  Si117  1  0.57274440  0.67702270  0.65133419  1
  Si0+  Si118  1  0.57267150  0.67697589  0.98361061  1
  Si0+  Si119  1  0.32196102  0.57207815  0.01345306  1
  O2-  O120  1  0.24255880  -0.00018464  0.05971301  1
  O2-  O121  1  0.24919668  0.00232690  0.39782678  1
  O2-  O122  1  0.24321514  -0.00287828  0.72910576  1
  O2-  O123  1  0.25278259  0.49981778  0.05633823  1
  O2-  O124  1  0.24774093  0.49475119  0.39564996  1
  O2-  O125  1  0.25343259  0.50000664  0.72634905  1
  O2-  O126  1  0.74685141  -0.00555646  0.06145336  1
  O2-  O127  1  0.74056694  -0.00038521  0.39110003  1
  O2-  O128  1  0.75258331  -0.00164178  0.73077037  1
  O2-  O129  1  0.74678508  0.49593036  0.06533728  1
  O2-  O130  1  0.75489057  0.49943774  0.38865234  1
  O2-  O131  1  0.75206562  0.49849607  0.73100153  1
  O2-  O132  1  -0.00262707  0.24774111  0.26856898  1
  O2-  O133  1  -0.00089999  0.23771116  0.60836095  1
  O2-  O134  1  -0.00011036  0.23922952  0.93844116  1
  O2-  O135  1  0.00171828  0.75093823  0.27822540  1
  O2-  O136  1  -0.00091243  0.75003446  0.60744012  1
  O2-  O137  1  -0.00211251  0.74815604  0.93450113  1
  O2-  O138  1  0.48626850  0.24630096  0.27613118  1
  O2-  O139  1  0.49375010  0.25707023  0.60502029  1
  O2-  O140  1  0.49435594  0.24710396  0.93398220  1
  O2-  O141  1  0.49643277  0.75186576  0.27049226  1
  O2-  O142  1  0.50471878  0.74564994  0.60599479  1
  O2-  O143  1  0.50352495  0.74976472  0.94215825  1
  O2-  O144  1  0.07486886  0.17965651  0.08958024  1
  O2-  O145  1  0.06946075  0.18067262  0.43300466  1
  O2-  O146  1  0.08175825  0.18278907  0.75688251  1
  O2-  O147  1  0.07487362  0.68177295  0.09921614  1
  O2-  O148  1  0.07082461  0.67817898  0.42487349  1
  O2-  O149  1  0.07379977  0.67886621  0.75355483  1
  O2-  O150  1  0.56761023  0.17882396  0.09664120  1
  O2-  O151  1  0.57147695  0.17981219  0.43203674  1
  O2-  O152  1  0.56656529  0.17997034  0.76431076  1
  O2-  O153  1  0.57039127  0.67622296  0.08904340  1
  O2-  O154  1  0.57104665  0.67878904  0.43298168  1
  O2-  O155  1  0.56888266  0.67695189  0.75713095  1
  O2-  O156  1  0.17312093  0.43282728  0.24653955  1
  O2-  O157  1  0.18178731  0.43410683  0.57735300  1
  O2-  O158  1  0.17879088  0.43102503  0.91107373  1
  O2-  O159  1  0.18012432  0.92530048  0.23483817  1
  O2-  O160  1  0.17852073  0.92107600  0.58162363  1
  O2-  O161  1  0.18391337  0.92372162  0.90930427  1
  O2-  O162  1  0.67751122  0.43488178  0.24197655  1
  O2-  O163  1  0.67735801  0.43007550  0.56878737  1
  O2-  O164  1  0.67604693  0.43196859  0.91436131  1
  O2-  O165  1  0.68432206  0.91746108  0.24292673  1
  O2-  O166  1  0.68027733  0.92956163  0.56553036  1
  O2-  O167  1  0.67526407  0.92508718  0.91319232  1
  O2-  O168  1  0.42920209  0.32578827  0.09945695  1
  O2-  O169  1  0.43368257  0.32939596  0.42590748  1
  O2-  O170  1  0.42219174  0.32323404  0.75498325  1
  O2-  O171  1  0.42892373  0.81407434  0.09086761  1
  O2-  O172  1  0.42692594  0.81831443  0.41968044  1
  O2-  O173  1  0.42898507  0.81811493  0.76478659  1
  O2-  O174  1  0.93379328  0.32046797  0.09794194  1
  O2-  O175  1  0.92733316  0.32449501  0.43078033  1
  O2-  O176  1  0.93392641  0.32120070  0.76638065  1
  O2-  O177  1  0.93050208  0.82243766  0.09793444  1
  O2-  O178  1  0.92723507  0.81680121  0.42562105  1
  O2-  O179  1  0.93001472  0.82137452  0.75505087  1
  O2-  O180  1  0.32228752  0.06977503  0.23515331  1
  O2-  O181  1  0.31797772  0.06931065  0.56755763  1
  O2-  O182  1  0.32150546  0.06840589  0.90116810  1
  O2-  O183  1  0.32031347  0.56809928  0.23321555  1
  O2-  O184  1  0.31927230  0.57246995  0.57730156  1
  O2-  O185  1  0.32038803  0.57354800  0.90829664  1
  O2-  O186  1  0.81777333  0.07108935  0.23189479  1
  O2-  O187  1  0.82076426  0.07186154  0.56667044  1
  O2-  O188  1  0.81814712  0.07100039  0.90180429  1
  O2-  O189  1  0.82146757  0.57453622  0.24156159  1
  O2-  O190  1  0.82306573  0.57046334  0.56680055  1
  O2-  O191  1  0.81987334  0.56735497  0.90305319  1
  O2-  O192  1  0.04705050  0.07722406  0.26867654  1
  O2-  O193  1  0.06043998  0.07903821  0.61098602  1
  O2-  O194  1  0.05734739  0.08064834  0.94014100  1
  O2-  O195  1  0.04606596  0.58877103  0.27080265  1
  O2-  O196  1  0.04527346  0.58768150  0.59978918  1
  O2-  O197  1  0.04563698  0.58056120  0.93223025  1
  O2-  O198  1  0.54618922  0.07808370  0.26490863  1
  O2-  O199  1  0.53685629  0.08519357  0.59738266  1
  O2-  O200  1  0.54248915  0.07621036  0.93309420  1
  O2-  O201  1  0.53825322  0.58331584  0.26392107  1
  O2-  O202  1  0.54484869  0.58333495  0.60601972  1
  O2-  O203  1  0.54232733  0.58691999  0.93515978  1
  O2-  O204  1  0.16975272  0.20889489  0.26677103  1
  O2-  O205  1  0.16510250  0.21223243  0.60236799  1
  O2-  O206  1  0.16457921  0.21017385  0.93784809  1
  O2-  O207  1  0.16508204  0.70670917  0.27348905  1
  O2-  O208  1  0.16207056  0.70828336  0.60024184  1
  O2-  O209  1  0.16979510  0.70799295  0.92956436  1
  O2-  O210  1  0.66049167  0.21646044  0.26236073  1
  O2-  O211  1  0.66423407  0.21337129  0.59713861  1
  O2-  O212  1  0.66587500  0.20876108  0.93020804  1
  O2-  O213  1  0.66664443  0.70979294  0.26313501  1
  O2-  O214  1  0.66760414  0.70041616  0.60703335  1
  O2-  O215  1  0.66502450  0.70202640  0.93758759  1
  O2-  O216  1  0.08952153  0.46164032  0.06577639  1
  O2-  O217  1  0.08387797  0.46220884  0.40020959  1
  O2-  O218  1  0.09087048  0.46269496  0.73026772  1
  O2-  O219  1  0.08378490  0.94514986  0.05815620  1
  O2-  O220  1  0.07972102  0.95477856  0.40484312  1
  O2-  O221  1  0.08321530  0.94506789  0.73232658  1
  O2-  O222  1  0.58339543  0.45820622  0.06506521  1
  O2-  O223  1  0.59095448  0.46336565  0.39680501  1
  O2-  O224  1  0.57957732  0.45659197  0.73842148  1
  O2-  O225  1  0.58404581  0.94954452  0.06651064  1
  O2-  O226  1  0.58173037  0.94172071  0.38822001  1
  O2-  O227  1  0.58026796  0.95835317  0.73180125  1
  O2-  O228  1  0.20431906  0.33919545  0.06680061  1
  O2-  O229  1  0.19538889  0.33537087  0.39857441  1
  O2-  O230  1  0.20610448  0.33966255  0.73155052  1
  O2-  O231  1  0.21130008  0.83447361  0.06175455  1
  O2-  O232  1  0.20603459  0.83161702  0.40396848  1
  O2-  O233  1  0.20794016  0.83174248  0.73270086  1
  O2-  O234  1  0.70079659  0.33422513  0.06320963  1
  O2-  O235  1  0.70587967  0.33952226  0.39350252  1
  O2-  O236  1  0.70542948  0.33053461  0.73643045  1
  O2-  O237  1  0.70174336  0.83131104  0.06385108  1
  O2-  O238  1  0.71036062  0.83341301  0.39764503  1
  O2-  O239  1  0.70218854  0.83041931  0.73295404  1
  O2-  O240  1  0.46173232  0.41325973  0.27102938  1
  O2-  O241  1  0.44914341  0.42045569  0.60725036  1
  O2-  O242  1  0.45497913  0.41998692  0.93102158  1
  O2-  O243  1  0.45090377  0.91244308  0.26630030  1
  O2-  O244  1  0.46018692  0.91557254  0.59475339  1
  O2-  O245  1  0.45767370  0.90996710  0.93926236  1
  O2-  O246  1  0.95946635  0.42100616  0.26521482  1
  O2-  O247  1  0.96677145  0.41393125  0.59871805  1
  O2-  O248  1  0.96648289  0.41336288  0.93153353  1
  O2-  O249  1  0.95634453  0.91294550  0.27466943  1
  O2-  O250  1  0.95745803  0.91372319  0.60307895  1
  O2-  O251  1  0.95860431  0.91959524  0.92793822  1
  O2-  O252  1  0.32969706  0.31097356  0.28020521  1
  O2-  O253  1  0.33077576  0.30058351  0.60349086  1
  O2-  O254  1  0.32558322  0.29975062  0.93577470  1
  O2-  O255  1  0.33317551  0.79006198  0.26970401  1
  O2-  O256  1  0.33346203  0.78838049  0.59630784  1
  O2-  O257  1  0.34091533  0.78802667  0.93571022  1
  O2-  O258  1  0.82876288  0.29803870  0.26263937  1
  O2-  O259  1  0.83185732  0.29455974  0.60050277  1
  O2-  O260  1  0.83144519  0.29322782  0.93354900  1
  O2-  O261  1  0.83940594  0.79114958  0.27027041  1
  O2-  O262  1  0.83634603  0.79300423  0.60325802  1
  O2-  O263  1  0.82854681  0.79491848  0.93228207  1
  O2-  O264  1  0.41592793  0.03494245  0.06818260  1
  O2-  O265  1  0.42162254  0.03928960  0.39943366  1
  O2-  O266  1  0.41418520  0.03501239  0.73305990  1
  O2-  O267  1  0.41466776  0.54570809  0.06024163  1
  O2-  O268  1  0.41802197  0.53898211  0.40221091  1
  O2-  O269  1  0.41335775  0.55124196  0.73014279  1
  O2-  O270  1  0.91923762  0.04169140  0.06564494  1
  O2-  O271  1  0.91261205  0.04181528  0.40012715  1
  O2-  O272  1  0.92307972  0.04822331  0.73184522  1
  O2-  O273  1  0.91951378  0.53911779  0.06775027  1
  O2-  O274  1  0.91588035  0.55040709  0.39278611  1
  O2-  O275  1  0.92384408  0.54298740  0.73188448  1
  O2-  O276  1  0.29386627  0.16921898  0.06732141  1
  O2-  O277  1  0.29855567  0.17340291  0.40056905  1
  O2-  O278  1  0.29025197  0.16797739  0.73423171  1
  O2-  O279  1  0.29267573  0.66299273  0.06202484  1
  O2-  O280  1  0.29034149  0.66414261  0.40300242  1
  O2-  O281  1  0.28858519  0.66411761  0.72879183  1
  O2-  O282  1  0.78713372  0.16815966  0.06764638  1
  O2-  O283  1  0.78631738  0.17115623  0.39592196  1
  O2-  O284  1  0.78992250  0.16935072  0.73188821  1
  O2-  O285  1  0.79198626  0.66717831  0.06831457  1
  O2-  O286  1  0.79128190  0.66382689  0.39421408  1
  O2-  O287  1  0.79714248  0.66849166  0.73496984  1
