# generated using pymatgen
data_Ca2Al2SiO7
_symmetry_space_group_name_H-M   'P 1'
_cell_length_a   15.45210854
_cell_length_b   15.45362647
_cell_length_c   15.27944502
_cell_angle_alpha   89.99634777
_cell_angle_beta   89.99166785
_cell_angle_gamma   89.99547067
_symmetry_Int_Tables_number   1
_chemical_formula_structural   Ca2Al2SiO7
_chemical_formula_sum   'Ca48 Al48 Si24 O168'
_cell_volume   3648.59563334
_cell_formula_units_Z   24
loop_
 _symmetry_equiv_pos_site_id
 _symmetry_equiv_pos_as_xyz
  1  'x, y, z'
loop_
 _atom_type_symbol
 _atom_type_oxidation_number
  Ca2+  2.0
  Al0+  0.0
  Si0+  0.0
  O2-  -2.0
loop_
 _atom_site_type_symbol
 _atom_site_label
 _atom_site_symmetry_multiplicity
 _atom_site_fract_x
 _atom_site_fract_y
 _atom_site_fract_z
 _atom_site_occupancy
  Ca2+  Ca0  1  0.17819823  0.08555958  0.17141536  1
  Ca2+  Ca1  1  0.17455270  0.08962330  0.50500552  1
  Ca2+  Ca2  1  0.17725395  0.08301460  0.83810341  1
  Ca2+  Ca3  1  0.17499014  0.57438614  0.17636828  1
  Ca2+  Ca4  1  0.16570653  0.57846633  0.50230846  1
  Ca2+  Ca5  1  0.16528178  0.58437809  0.83659582  1
  Ca2+  Ca6  1  0.66622475  0.08144365  0.17095725  1
  Ca2+  Ca7  1  0.67929708  0.09059781  0.50175760  1
  Ca2+  Ca8  1  0.66987923  0.08184982  0.84052399  1
  Ca2+  Ca9  1  0.65974332  0.57558543  0.17040978  1
  Ca2+  Ca10  1  0.67061893  0.58685546  0.50398292  1
  Ca2+  Ca11  1  0.67133861  0.57730060  0.83842702  1
  Ca2+  Ca12  1  0.08229084  0.32996063  0.16528314  1
  Ca2+  Ca13  1  0.08530016  0.32218988  0.49495266  1
  Ca2+  Ca14  1  0.07812015  0.32640867  0.82838601  1
  Ca2+  Ca15  1  0.07359116  0.84172907  0.16157472  1
  Ca2+  Ca16  1  0.07777167  0.82862297  0.49581498  1
  Ca2+  Ca17  1  0.08283141  0.83228891  0.83113088  1
  Ca2+  Ca18  1  0.58056045  0.32102982  0.15617892  1
  Ca2+  Ca19  1  0.57631600  0.32813552  0.49504083  1
  Ca2+  Ca20  1  0.57512948  0.33151405  0.83543204  1
  Ca2+  Ca21  1  0.58066401  0.82885437  0.15939169  1
  Ca2+  Ca22  1  0.57880375  0.82946655  0.49641364  1
  Ca2+  Ca23  1  0.57178870  0.84661295  0.83491311  1
  Ca2+  Ca24  1  0.33191752  0.41851897  0.17459322  1
  Ca2+  Ca25  1  0.32999558  0.41698257  0.50046713  1
  Ca2+  Ca26  1  0.33788532  0.41379122  0.83757156  1
  Ca2+  Ca27  1  0.33279384  0.92424519  0.16596755  1
  Ca2+  Ca28  1  0.33808513  0.92883501  0.50575255  1
  Ca2+  Ca29  1  0.33280455  0.92481913  0.84381907  1
  Ca2+  Ca30  1  0.82866035  0.41017884  0.16531801  1
  Ca2+  Ca31  1  0.82976187  0.42346732  0.50815120  1
  Ca2+  Ca32  1  0.83164075  0.42049357  0.84146964  1
  Ca2+  Ca33  1  0.83142750  0.91756144  0.17153769  1
  Ca2+  Ca34  1  0.83569775  0.92392250  0.50084406  1
  Ca2+  Ca35  1  0.82931016  0.92139030  0.84038409  1
  Ca2+  Ca36  1  0.42366185  0.16312235  0.15947780  1
  Ca2+  Ca37  1  0.41610469  0.16786040  0.49491792  1
  Ca2+  Ca38  1  0.41644111  0.16931547  0.83018898  1
  Ca2+  Ca39  1  0.41822213  0.66841329  0.16358085  1
  Ca2+  Ca40  1  0.41874846  0.67278963  0.49346780  1
  Ca2+  Ca41  1  0.41404085  0.68429410  0.82838801  1
  Ca2+  Ca42  1  0.92271801  0.16617334  0.16396193  1
  Ca2+  Ca43  1  0.92751521  0.15437680  0.49433822  1
  Ca2+  Ca44  1  0.91999466  0.16859473  0.82815300  1
  Ca2+  Ca45  1  0.91636102  0.68116085  0.16154260  1
  Ca2+  Ca46  1  0.91804867  0.66996383  0.49641762  1
  Ca2+  Ca47  1  0.91960445  0.67162026  0.82769922  1
  Al0+  Al48  1  0.00083727  -0.00070752  -0.00339840  1
  Al0+  Al49  1  -0.00020130  0.00033661  0.32752849  1
  Al0+  Al50  1  -0.00025261  -0.00056062  0.66797242  1
  Al0+  Al51  1  0.00066866  0.49994701  -0.00137684  1
  Al0+  Al52  1  -0.00088034  0.49956610  0.33674826  1
  Al0+  Al53  1  -0.00066277  0.50047106  0.66774002  1
  Al0+  Al54  1  0.50306942  -0.00096540  0.00117787  1
  Al0+  Al55  1  0.49981083  -0.00116161  0.33487109  1
  Al0+  Al56  1  0.50042482  0.00189204  0.66410755  1
  Al0+  Al57  1  0.50228966  0.49860898  0.00080986  1
  Al0+  Al58  1  0.49946380  0.50114663  0.33551350  1
  Al0+  Al59  1  0.49834390  0.49964965  0.66297436  1
  Al0+  Al60  1  0.25078226  0.25115395  0.00140687  1
  Al0+  Al61  1  0.24852710  0.25003893  0.33653445  1
  Al0+  Al62  1  0.24952775  0.25082556  0.66405737  1
  Al0+  Al63  1  0.25006475  0.74993065  0.00218367  1
  Al0+  Al64  1  0.24921108  0.74976252  0.33660130  1
  Al0+  Al65  1  0.24929066  0.74954022  0.65616257  1
  Al0+  Al66  1  0.75117904  0.25193037  -0.00431507  1
  Al0+  Al67  1  0.74944738  0.24945202  0.33551831  1
  Al0+  Al68  1  0.74885191  0.25094153  0.67236388  1
  Al0+  Al69  1  0.75259747  0.75059540  -0.00168577  1
  Al0+  Al70  1  0.74781524  0.74923965  0.32565532  1
  Al0+  Al71  1  0.74903835  0.74957779  0.67285843  1
  Al0+  Al72  1  0.57203304  0.17888676  0.32061440  1
  Al0+  Al73  1  0.32155716  0.06893089  0.34820479  1
  Al0+  Al74  1  0.32043482  0.07182385  0.68073562  1
  Al0+  Al75  1  0.42965625  0.81890568  0.98868095  1
  Al0+  Al76  1  0.67991093  0.42972541  0.01445353  1
  Al0+  Al77  1  0.82044108  0.07020436  0.34504404  1
  Al0+  Al78  1  0.93032735  0.32118368  0.98668662  1
  Al0+  Al79  1  0.17724277  0.42858729  0.35040586  1
  Al0+  Al80  1  0.82290503  0.07097611  0.68139088  1
  Al0+  Al81  1  0.68057060  0.92885424  0.01447840  1
  Al0+  Al82  1  0.06997937  0.67776799  0.65192003  1
  Al0+  Al83  1  0.42920008  0.82352687  0.65185021  1
  Al0+  Al84  1  0.07162785  0.17993954  0.31858347  1
  Al0+  Al85  1  0.32235632  0.57203002  0.35042087  1
  Al0+  Al86  1  0.92868997  0.82257432  0.98374250  1
  Al0+  Al87  1  0.56959193  0.67896688  0.31929576  1
  Al0+  Al88  1  0.93052006  0.81976284  0.31997858  1
  Al0+  Al89  1  0.17821087  0.92740797  0.01489439  1
  Al0+  Al90  1  0.57152754  0.17691983  0.98397865  1
  Al0+  Al91  1  0.42890176  0.32114764  0.65052700  1
  Al0+  Al92  1  0.82125474  0.57099062  0.68109783  1
  Al0+  Al93  1  0.06849706  0.17910635  0.65381203  1
  Al0+  Al94  1  0.32167853  0.07241554  0.01522746  1
  Al0+  Al95  1  0.42789249  0.32153651  0.98671984  1
  Si0+  Si96  1  0.81894605  0.57277869  0.34628074  1
  Si0+  Si97  1  0.57304641  0.67638493  0.98236265  1
  Si0+  Si98  1  0.67834402  0.92819135  0.68292918  1
  Si0+  Si99  1  0.07302952  0.17818119  0.98303223  1
  Si0+  Si100  1  0.57339534  0.17837060  0.64863628  1
  Si0+  Si101  1  0.18006686  0.42989974  0.68346116  1
  Si0+  Si102  1  0.92608719  0.32180337  0.65044883  1
  Si0+  Si103  1  0.32103436  0.57220556  0.68196303  1
  Si0+  Si104  1  0.67551011  0.42862857  0.68423426  1
  Si0+  Si105  1  0.92679277  0.32433395  0.31864327  1
  Si0+  Si106  1  0.92582528  0.82103261  0.65040657  1
  Si0+  Si107  1  0.42629494  0.82243367  0.31596298  1
  Si0+  Si108  1  0.82393716  0.57137890  0.01867608  1
  Si0+  Si109  1  0.57137870  0.67800798  0.65210921  1
  Si0+  Si110  1  0.17887474  0.92553151  0.68113275  1
  Si0+  Si111  1  0.17572837  0.92854024  0.35084525  1
  Si0+  Si112  1  0.67841490  0.92549567  0.34994099  1
  Si0+  Si113  1  0.17777512  0.42944589  0.01348761  1
  Si0+  Si114  1  0.67918600  0.42814061  0.34890561  1
  Si0+  Si115  1  0.42856312  0.32075970  0.31779134  1
  Si0+  Si116  1  0.82265758  0.07324674  0.01622923  1
  Si0+  Si117  1  0.32142153  0.57117859  0.01252470  1
  Si0+  Si118  1  0.07261900  0.67574255  0.31610262  1
  Si0+  Si119  1  0.07155238  0.67831334  0.98522661  1
  O2-  O120  1  0.24831901  0.00113322  0.06476326  1
  O2-  O121  1  0.24687271  -0.00596514  0.39587411  1
  O2-  O122  1  0.24789332  -0.00617413  0.72535330  1
  O2-  O123  1  0.25274890  0.49725853  0.05383394  1
  O2-  O124  1  0.24856543  0.50169878  0.40052448  1
  O2-  O125  1  0.25036247  0.50178553  0.72640322  1
  O2-  O126  1  0.75493516  0.00401650  0.06103519  1
  O2-  O127  1  0.74482465  -0.00333821  0.39369435  1
  O2-  O128  1  0.74753685  -0.00325566  0.72651963  1
  O2-  O129  1  0.75367695  0.50470457  0.06353657  1
  O2-  O130  1  0.75026041  0.50002913  0.39009818  1
  O2-  O131  1  0.74679151  0.49577616  0.72690166  1
  O2-  O132  1  -0.00336575  0.25638676  0.27519232  1
  O2-  O133  1  -0.01038088  0.24939203  0.60522805  1
  O2-  O134  1  0.00307685  0.24574860  0.93894026  1
  O2-  O135  1  0.00634136  0.74619343  0.27183748  1
  O2-  O136  1  -0.00589946  0.75191786  0.60609498  1
  O2-  O137  1  0.00478324  0.74797780  0.93974541  1
  O2-  O138  1  0.49537870  0.25100139  0.27334913  1
  O2-  O139  1  0.50349530  0.24608305  0.60473939  1
  O2-  O140  1  0.49613333  0.24669523  0.93553616  1
  O2-  O141  1  0.49293360  0.75117797  0.27266561  1
  O2-  O142  1  0.50413985  0.74758793  0.60745598  1
  O2-  O143  1  0.50553004  0.74623219  0.93855567  1
  O2-  O144  1  0.07307315  0.18030224  0.08872464  1
  O2-  O145  1  0.06984207  0.17940804  0.43192272  1
  O2-  O146  1  0.06888613  0.18314341  0.76689400  1
  O2-  O147  1  0.06941101  0.67517548  0.09060454  1
  O2-  O148  1  0.06902272  0.67552217  0.42185085  1
  O2-  O149  1  0.07049784  0.67843231  0.76522836  1
  O2-  O150  1  0.57196710  0.17896799  0.09795914  1
  O2-  O151  1  0.57457329  0.18379369  0.43377595  1
  O2-  O152  1  0.57423689  0.17804553  0.75386734  1
  O2-  O153  1  0.56981614  0.67528360  0.08820258  1
  O2-  O154  1  0.57304826  0.68220943  0.43271977  1
  O2-  O155  1  0.56946321  0.67544899  0.75742432  1
  O2-  O156  1  0.17763326  0.43046913  0.23609282  1
  O2-  O157  1  0.18022301  0.43086141  0.57868898  1
  O2-  O158  1  0.17512057  0.43163315  0.90820330  1
  O2-  O159  1  0.17593767  0.93002211  0.24537407  1
  O2-  O160  1  0.17813146  0.92638714  0.57539409  1
  O2-  O161  1  0.18074647  0.92595843  0.90089041  1
  O2-  O162  1  0.67991218  0.42762256  0.24402551  1
  O2-  O163  1  0.67655804  0.42912097  0.57808133  1
  O2-  O164  1  0.68030422  0.43359851  0.90132426  1
  O2-  O165  1  0.68007294  0.92401940  0.24448902  1
  O2-  O166  1  0.67988600  0.92508087  0.57718962  1
  O2-  O167  1  0.68165305  0.93016304  0.90104680  1
  O2-  O168  1  0.42942432  0.32513623  0.10013231  1
  O2-  O169  1  0.43126706  0.32062411  0.42378539  1
  O2-  O170  1  0.43047322  0.32305626  0.76327353  1
  O2-  O171  1  0.42947292  0.81449391  0.10153399  1
  O2-  O172  1  0.42954670  0.82253980  0.42188756  1
  O2-  O173  1  0.42876390  0.82260949  0.76514558  1
  O2-  O174  1  0.93310337  0.32182338  0.09995000  1
  O2-  O175  1  0.92529878  0.32677763  0.42421269  1
  O2-  O176  1  0.92952043  0.32296110  0.75612640  1
  O2-  O177  1  0.92820927  0.82043903  0.09701121  1
  O2-  O178  1  0.93002486  0.81688022  0.43349595  1
  O2-  O179  1  0.92663651  0.81999885  0.75583135  1
  O2-  O180  1  0.32245068  0.06817858  0.23550396  1
  O2-  O181  1  0.31945260  0.07162328  0.56736937  1
  O2-  O182  1  0.31919776  0.07251683  0.90126773  1
  O2-  O183  1  0.32205758  0.56944470  0.23601489  1
  O2-  O184  1  0.32085267  0.57075852  0.57728199  1
  O2-  O185  1  0.31881404  0.57350491  0.90709003  1
  O2-  O186  1  0.82013286  0.07021951  0.23226190  1
  O2-  O187  1  0.82283703  0.06881344  0.56797728  1
  O2-  O188  1  0.82207621  0.07145897  0.91026570  1
  O2-  O189  1  0.81837638  0.57262563  0.24151555  1
  O2-  O190  1  0.81864134  0.57073736  0.56715524  1
  O2-  O191  1  0.82455135  0.56922655  0.91282888  1
  O2-  O192  1  0.03963599  0.08533050  0.26258417  1
  O2-  O193  1  0.04150505  0.08084495  0.60042438  1
  O2-  O194  1  0.04924458  0.08484355  0.93642143  1
  O2-  O195  1  0.04522126  0.58221308  0.27073597  1
  O2-  O196  1  0.03819435  0.58122449  0.59793337  1
  O2-  O197  1  0.04483763  0.58586152  0.93665040  1
  O2-  O198  1  0.54486055  0.07994408  0.26993427  1
  O2-  O199  1  0.55048812  0.08489099  0.60164856  1
  O2-  O200  1  0.54755648  0.07779470  0.93143619  1
  O2-  O201  1  0.54033005  0.58121612  0.26585685  1
  O2-  O202  1  0.54595879  0.58561377  0.60334068  1
  O2-  O203  1  0.54684389  0.58344874  0.93603281  1
  O2-  O204  1  0.16766668  0.21255517  0.26451887  1
  O2-  O205  1  0.16280985  0.21504530  0.59912420  1
  O2-  O206  1  0.16551636  0.20734889  0.93709339  1
  O2-  O207  1  0.16811577  0.69793753  0.27266240  1
  O2-  O208  1  0.16474517  0.70665417  0.59365519  1
  O2-  O209  1  0.16559168  0.70220795  0.93909841  1
  O2-  O210  1  0.66793742  0.21169077  0.26639414  1
  O2-  O211  1  0.66728918  0.20750028  0.60370068  1
  O2-  O212  1  0.66851862  0.20950299  0.93073855  1
  O2-  O213  1  0.66408753  0.70843592  0.26089329  1
  O2-  O214  1  0.66593441  0.70403708  0.60716416  1
  O2-  O215  1  0.66798944  0.69938606  0.93880917  1
  O2-  O216  1  0.08815002  0.46091157  0.06331726  1
  O2-  O217  1  0.07819097  0.45597947  0.40430820  1
  O2-  O218  1  0.08782016  0.45753172  0.73045867  1
  O2-  O219  1  0.07825676  0.95463812  0.06539066  1
  O2-  O220  1  0.08258529  0.95599978  0.39641730  1
  O2-  O221  1  0.08479227  0.94963523  0.72707645  1
  O2-  O222  1  0.58396036  0.46055940  0.07078836  1
  O2-  O223  1  0.58812866  0.45701965  0.39701274  1
  O2-  O224  1  0.58264076  0.45825462  0.72955641  1
  O2-  O225  1  0.58438438  0.95614238  0.07032493  1
  O2-  O226  1  0.58413505  0.94776700  0.39563731  1
  O2-  O227  1  0.58517308  0.95687847  0.72800217  1
  O2-  O228  1  0.20195838  0.33750609  0.06178540  1
  O2-  O229  1  0.20708834  0.33156276  0.40466360  1
  O2-  O230  1  0.20928013  0.33895189  0.73110638  1
  O2-  O231  1  0.20604394  0.82915962  0.06958236  1
  O2-  O232  1  0.19626760  0.83278983  0.39519827  1
  O2-  O233  1  0.20387458  0.83055314  0.72478821  1
  O2-  O234  1  0.71337944  0.33348115  0.06777186  1
  O2-  O235  1  0.70800688  0.33831415  0.39948046  1
  O2-  O236  1  0.69838897  0.33524375  0.73129345  1
  O2-  O237  1  0.71081868  0.83081920  0.06691665  1
  O2-  O238  1  0.70785212  0.83255047  0.39599946  1
  O2-  O239  1  0.70101975  0.83508784  0.73154694  1
  O2-  O240  1  0.45497980  0.41491863  0.27415653  1
  O2-  O241  1  0.45957359  0.41777870  0.59518779  1
  O2-  O242  1  0.46012022  0.41914969  0.93229942  1
  O2-  O243  1  0.45470060  0.91473812  0.26988232  1
  O2-  O244  1  0.46240710  0.91855653  0.59612582  1
  O2-  O245  1  0.46095068  0.91490216  0.93463102  1
  O2-  O246  1  0.95085519  0.41817448  0.27141294  1
  O2-  O247  1  0.95501948  0.41444793  0.60448095  1
  O2-  O248  1  0.96238473  0.41747700  0.93146674  1
  O2-  O249  1  0.96018353  0.91489489  0.26336642  1
  O2-  O250  1  0.95268009  0.91431762  0.60460213  1
  O2-  O251  1  0.95767971  0.91889210  0.92838421  1
  O2-  O252  1  0.33341791  0.29872575  0.27484524  1
  O2-  O253  1  0.33236652  0.29137468  0.59677248  1
  O2-  O254  1  0.32759848  0.29921917  0.93399443  1
  O2-  O255  1  0.33100346  0.79896133  0.27268339  1
  O2-  O256  1  0.33477302  0.79193513  0.59497699  1
  O2-  O257  1  0.33371590  0.78603411  0.93362334  1
  O2-  O258  1  0.83388231  0.29659052  0.27264827  1
  O2-  O259  1  0.82934032  0.30306792  0.60831857  1
  O2-  O260  1  0.83449558  0.29455063  0.93008733  1
  O2-  O261  1  0.83526717  0.78710624  0.26453546  1
  O2-  O262  1  0.83163158  0.79463035  0.60588799  1
  O2-  O263  1  0.83348998  0.78942143  0.92823259  1
  O2-  O264  1  0.41984869  0.04176938  0.06616662  1
  O2-  O265  1  0.41823400  0.03842594  0.40382144  1
  O2-  O266  1  0.41934611  0.04402817  0.73117929  1
  O2-  O267  1  0.41387638  0.54556121  0.05929743  1
  O2-  O268  1  0.42058440  0.54358202  0.40469771  1
  O2-  O269  1  0.41337248  0.54479134  0.72854113  1
  O2-  O270  1  0.91738203  0.04800792  0.05963575  1
  O2-  O271  1  0.91670294  0.03581294  0.39813065  1
  O2-  O272  1  0.91878832  0.04015565  0.73685345  1
  O2-  O273  1  0.91694452  0.54340416  0.06484173  1
  O2-  O274  1  0.91120847  0.54791271  0.39453789  1
  O2-  O275  1  0.91749723  0.54030000  0.73607412  1
  O2-  O276  1  0.29377801  0.17139168  0.06867516  1
  O2-  O277  1  0.29059079  0.16593728  0.40082660  1
  O2-  O278  1  0.28640254  0.16809397  0.73343557  1
  O2-  O279  1  0.29136718  0.66013494  0.06361259  1
  O2-  O280  1  0.29607897  0.67155087  0.40292443  1
  O2-  O281  1  0.29142550  0.66500193  0.72674267  1
  O2-  O282  1  0.79864118  0.16769838  0.06018636  1
  O2-  O283  1  0.79137912  0.16681731  0.40151126  1
  O2-  O284  1  0.79416960  0.16860409  0.73498099  1
  O2-  O285  1  0.79992027  0.66608450  0.06204116  1
  O2-  O286  1  0.78731651  0.66319128  0.39451290  1
  O2-  O287  1  0.79097254  0.66665593  0.73766033  1
