# generated using pymatgen
data_Ca2Al2SiO7
_symmetry_space_group_name_H-M   'P 1'
_cell_length_a   15.45607372
_cell_length_b   15.45559646
_cell_length_c   15.28238635
_cell_angle_alpha   90.00021811
_cell_angle_beta   89.99975375
_cell_angle_gamma   89.99828288
_symmetry_Int_Tables_number   1
_chemical_formula_structural   Ca2Al2SiO7
_chemical_formula_sum   'Ca48 Al48 Si24 O168'
_cell_volume   3650.69982193
_cell_formula_units_Z   24
loop_
 _symmetry_equiv_pos_site_id
 _symmetry_equiv_pos_as_xyz
  1  'x, y, z'
loop_
 _atom_type_symbol
 _atom_type_oxidation_number
  Ca2+  2.0
  Al0+  0.0
  Si0+  0.0
  O2-  -2.0
loop_
 _atom_site_type_symbol
 _atom_site_label
 _atom_site_symmetry_multiplicity
 _atom_site_fract_x
 _atom_site_fract_y
 _atom_site_fract_z
 _atom_site_occupancy
  Ca2+  Ca0  1  0.17291429  0.07794934  0.17201139  1
  Ca2+  Ca1  1  0.16755641  0.09230782  0.49817331  1
  Ca2+  Ca2  1  0.16871401  0.08102326  0.84166146  1
  Ca2+  Ca3  1  0.16917169  0.58907428  0.17451402  1
  Ca2+  Ca4  1  0.17165912  0.58235772  0.50378507  1
  Ca2+  Ca5  1  0.16314269  0.57647197  0.83747131  1
  Ca2+  Ca6  1  0.68192429  0.07697231  0.17818276  1
  Ca2+  Ca7  1  0.66819677  0.06934712  0.49947851  1
  Ca2+  Ca8  1  0.67235593  0.07763106  0.83991924  1
  Ca2+  Ca9  1  0.65511848  0.57753339  0.17179170  1
  Ca2+  Ca10  1  0.66907126  0.58168572  0.50006179  1
  Ca2+  Ca11  1  0.67217778  0.57868645  0.83835348  1
  Ca2+  Ca12  1  0.08246927  0.32577654  0.16766662  1
  Ca2+  Ca13  1  0.08177685  0.32765677  0.49963965  1
  Ca2+  Ca14  1  0.07886884  0.32620444  0.81832055  1
  Ca2+  Ca15  1  0.07813944  0.82850306  0.16137573  1
  Ca2+  Ca16  1  0.07446560  0.82539903  0.48599568  1
  Ca2+  Ca17  1  0.08013399  0.83464320  0.83722448  1
  Ca2+  Ca18  1  0.57839034  0.34147967  0.16421580  1
  Ca2+  Ca19  1  0.57331015  0.33834318  0.49193041  1
  Ca2+  Ca20  1  0.57850856  0.33349319  0.82998383  1
  Ca2+  Ca21  1  0.58427487  0.82737605  0.16678411  1
  Ca2+  Ca22  1  0.58453565  0.82995310  0.48799780  1
  Ca2+  Ca23  1  0.58958994  0.82893402  0.83012516  1
  Ca2+  Ca24  1  0.33310074  0.42449855  0.17749306  1
  Ca2+  Ca25  1  0.33264277  0.41849567  0.50102887  1
  Ca2+  Ca26  1  0.32670663  0.40994043  0.83215117  1
  Ca2+  Ca27  1  0.33203671  0.92284701  0.17440537  1
  Ca2+  Ca28  1  0.33794253  0.92149122  0.49915117  1
  Ca2+  Ca29  1  0.32363270  0.92581010  0.84517862  1
  Ca2+  Ca30  1  0.81720589  0.41764757  0.17366819  1
  Ca2+  Ca31  1  0.83240553  0.42238184  0.50549688  1
  Ca2+  Ca32  1  0.83489618  0.42144641  0.83759171  1
  Ca2+  Ca33  1  0.83800536  0.92004611  0.17354457  1
  Ca2+  Ca34  1  0.82632522  0.91241028  0.49812632  1
  Ca2+  Ca35  1  0.83247265  0.92154196  0.83970375  1
  Ca2+  Ca36  1  0.41254083  0.16771500  0.16766112  1
  Ca2+  Ca37  1  0.41351028  0.17823427  0.49207773  1
  Ca2+  Ca38  1  0.41585065  0.16967570  0.82719786  1
  Ca2+  Ca39  1  0.42359321  0.66864191  0.16956154  1
  Ca2+  Ca40  1  0.42198064  0.67339810  0.48519155  1
  Ca2+  Ca41  1  0.42385682  0.66741271  0.83336999  1
  Ca2+  Ca42  1  0.91893489  0.15671678  0.16485303  1
  Ca2+  Ca43  1  0.92640872  0.16528123  0.49414741  1
  Ca2+  Ca44  1  0.92038332  0.17116453  0.82607103  1
  Ca2+  Ca45  1  0.92414089  0.67883844  0.16170416  1
  Ca2+  Ca46  1  0.91990213  0.66804674  0.49139936  1
  Ca2+  Ca47  1  0.91723250  0.66893910  0.83196685  1
  Al0+  Al48  1  0.00145234  -0.00052493  0.00161194  1
  Al0+  Al49  1  0.00201182  0.00099399  0.33095646  1
  Al0+  Al50  1  0.00018382  -0.00141727  0.66222091  1
  Al0+  Al51  1  -0.00115295  0.50002444  -0.00010426  1
  Al0+  Al52  1  -0.00102240  0.49636675  0.32824897  1
  Al0+  Al53  1  0.00108130  0.50006355  0.67143852  1
  Al0+  Al54  1  0.50047012  0.00197782  0.00210474  1
  Al0+  Al55  1  0.49994414  0.00247753  0.33773521  1
  Al0+  Al56  1  0.49985296  -0.00137656  0.67314386  1
  Al0+  Al57  1  0.49815917  0.50031419  -0.00459620  1
  Al0+  Al58  1  0.49651990  0.50022393  0.33568160  1
  Al0+  Al59  1  0.50107032  0.50188683  0.66381069  1
  Al0+  Al60  1  0.24948831  0.25171015  0.00336833  1
  Al0+  Al61  1  0.24902122  0.25022110  0.32759992  1
  Al0+  Al62  1  0.25144629  0.25116480  0.66351594  1
  Al0+  Al63  1  0.25010063  0.74865840  -0.00224319  1
  Al0+  Al64  1  0.25178097  0.75073748  0.33220267  1
  Al0+  Al65  1  0.25135903  0.75127107  0.66887861  1
  Al0+  Al66  1  0.74789006  0.25023553  0.00677731  1
  Al0+  Al67  1  0.74920841  0.24986602  0.34479667  1
  Al0+  Al68  1  0.74869163  0.24892670  0.66206582  1
  Al0+  Al69  1  0.75076798  0.74935118  -0.00893636  1
  Al0+  Al70  1  0.75085577  0.74790548  0.32741253  1
  Al0+  Al71  1  0.75045656  0.74858104  0.67491686  1
  Al0+  Al72  1  0.32225311  0.07362666  0.01605111  1
  Al0+  Al73  1  0.17979144  0.92778910  0.01604967  1
  Al0+  Al74  1  0.67940166  0.92923454  0.68236350  1
  Al0+  Al75  1  0.43133461  0.32036898  0.65256239  1
  Al0+  Al76  1  0.06958867  0.18070230  0.31691258  1
  Al0+  Al77  1  0.92879709  0.82031102  0.31894625  1
  Al0+  Al78  1  0.32047354  0.07229163  0.34901058  1
  Al0+  Al79  1  0.82543773  0.07088842  0.35180886  1
  Al0+  Al80  1  0.07311212  0.67700895  0.98214662  1
  Al0+  Al81  1  0.57092890  0.67862626  0.31974238  1
  Al0+  Al82  1  0.42946017  0.82569472  0.31905336  1
  Al0+  Al83  1  0.93052729  0.82277340  0.98186209  1
  Al0+  Al84  1  0.31850609  0.57228632  0.34656639  1
  Al0+  Al85  1  0.82118469  0.56883454  0.68050602  1
  Al0+  Al86  1  0.07262883  0.67566645  0.32051200  1
  Al0+  Al87  1  0.92694787  0.32406732  0.65224900  1
  Al0+  Al88  1  0.56931605  0.67856204  0.98356371  1
  Al0+  Al89  1  0.43004637  0.32021679  0.31824243  1
  Al0+  Al90  1  0.07040948  0.17767038  0.65166763  1
  Al0+  Al91  1  0.18228523  0.43023417  0.67917098  1
  Al0+  Al92  1  0.81994925  0.07051843  0.01193381  1
  Al0+  Al93  1  0.68035846  0.92676240  0.34573478  1
  Al0+  Al94  1  0.67859273  0.43148943  0.01249922  1
  Al0+  Al95  1  0.67645358  0.43002442  0.34868959  1
  Si0+  Si96  1  0.57178725  0.17400181  0.65002874  1
  Si0+  Si97  1  0.17971804  0.92847744  0.35152790  1
  Si0+  Si98  1  0.82339148  0.07133611  0.68258469  1
  Si0+  Si99  1  0.31907030  0.07071030  0.68106983  1
  Si0+  Si100  1  0.07258352  0.67920843  0.65271728  1
  Si0+  Si101  1  0.67819160  0.92563236  0.01628113  1
  Si0+  Si102  1  0.32021378  0.56891857  0.01319864  1
  Si0+  Si103  1  0.17758539  0.92687835  0.68090446  1
  Si0+  Si104  1  0.82254472  0.57313223  0.01824053  1
  Si0+  Si105  1  0.42844057  0.82132730  0.65341163  1
  Si0+  Si106  1  0.57217785  0.17951948  0.98662670  1
  Si0+  Si107  1  0.17644740  0.42880559  0.01557976  1
  Si0+  Si108  1  0.92604791  0.31964899  0.98735349  1
  Si0+  Si109  1  0.42854131  0.32067866  0.98413089  1
  Si0+  Si110  1  0.32367061  0.57458706  0.68480658  1
  Si0+  Si111  1  0.42889703  0.82453213  0.98235791  1
  Si0+  Si112  1  0.82305175  0.56988461  0.34703475  1
  Si0+  Si113  1  0.92859171  0.81913236  0.65167325  1
  Si0+  Si114  1  0.57186757  0.68144075  0.65138984  1
  Si0+  Si115  1  0.57315637  0.17886896  0.31766826  1
  Si0+  Si116  1  0.67568324  0.42691488  0.68273145  1
  Si0+  Si117  1  0.07103111  0.18181276  0.98552536  1
  Si0+  Si118  1  0.92400907  0.32151479  0.31536663  1
  Si0+  Si119  1  0.17657160  0.42738967  0.34870005  1
  O2-  O120  1  0.25446721  -0.00240212  0.06497943  1
  O2-  O121  1  0.24859272  -0.00394658  0.39799216  1
  O2-  O122  1  0.24650556  0.00087893  0.72237475  1
  O2-  O123  1  0.24367801  0.50388039  0.05540367  1
  O2-  O124  1  0.23973050  0.50142888  0.39235941  1
  O2-  O125  1  0.25627196  0.50469455  0.72928389  1
  O2-  O126  1  0.74863489  -0.00733009  0.05866750  1
  O2-  O127  1  0.75332928  -0.00313801  0.39825947  1
  O2-  O128  1  0.75252864  0.00587059  0.72846824  1
  O2-  O129  1  0.75084446  0.50725801  0.06136349  1
  O2-  O130  1  0.75380694  0.50283041  0.39337738  1
  O2-  O131  1  0.74992497  0.48949143  0.72673896  1
  O2-  O132  1  -0.00998861  0.25059338  0.27016502  1
  O2-  O133  1  -0.00414166  0.24841419  0.60337553  1
  O2-  O134  1  -0.00071851  0.25175108  0.94316746  1
  O2-  O135  1  0.00205203  0.74853555  0.27083766  1
  O2-  O136  1  0.00176227  0.74987661  0.61033239  1
  O2-  O137  1  0.00091998  0.74857915  0.93115939  1
  O2-  O138  1  0.50695641  0.24860302  0.27047014  1
  O2-  O139  1  0.50811164  0.24762812  0.60640839  1
  O2-  O140  1  0.49711996  0.24652794  0.94318609  1
  O2-  O141  1  0.50256179  0.75448569  0.27004582  1
  O2-  O142  1  0.49922115  0.75092964  0.61059142  1
  O2-  O143  1  0.49960806  0.75843534  0.93607112  1
  O2-  O144  1  0.07208653  0.18443750  0.09028393  1
  O2-  O145  1  0.07119998  0.18499343  0.42991231  1
  O2-  O146  1  0.07087912  0.17793738  0.76620610  1
  O2-  O147  1  0.07154644  0.67539393  0.09508874  1
  O2-  O148  1  0.07053545  0.67635212  0.43517198  1
  O2-  O149  1  0.07352280  0.68072275  0.75757424  1
  O2-  O150  1  0.57424457  0.18199532  0.09094214  1
  O2-  O151  1  0.56930586  0.17971324  0.42352708  1
  O2-  O152  1  0.56929510  0.17311088  0.75636745  1
  O2-  O153  1  0.56456748  0.67539001  0.09570452  1
  O2-  O154  1  0.56994809  0.67916219  0.43401856  1
  O2-  O155  1  0.56992530  0.68105928  0.75681919  1
  O2-  O156  1  0.17885235  0.42675842  0.24256091  1
  O2-  O157  1  0.18302917  0.43228726  0.56651206  1
  O2-  O158  1  0.17904756  0.42487621  0.91026129  1
  O2-  O159  1  0.18060606  0.92976769  0.24617669  1
  O2-  O160  1  0.17969506  0.92148677  0.57652852  1
  O2-  O161  1  0.18044452  0.93278867  0.90111534  1
  O2-  O162  1  0.67631816  0.43156278  0.23516329  1
  O2-  O163  1  0.67172038  0.43242279  0.57774580  1
  O2-  O164  1  0.68009785  0.43008753  0.89913608  1
  O2-  O165  1  0.68026664  0.92929923  0.23222732  1
  O2-  O166  1  0.67909693  0.92672096  0.56991660  1
  O2-  O167  1  0.67764863  0.92988359  0.91002980  1
  O2-  O168  1  0.42899009  0.32382671  0.08869293  1
  O2-  O169  1  0.42992905  0.31986266  0.43149663  1
  O2-  O170  1  0.43062842  0.31720001  0.76656193  1
  O2-  O171  1  0.42927005  0.82406703  0.08729240  1
  O2-  O172  1  0.43004534  0.82286343  0.43366841  1
  O2-  O173  1  0.42758797  0.82021128  0.75862942  1
  O2-  O174  1  0.92662578  0.31842307  0.09214059  1
  O2-  O175  1  0.92738756  0.32535299  0.42070913  1
  O2-  O176  1  0.92960770  0.32192884  0.76694013  1
  O2-  O177  1  0.93153393  0.82196844  0.09477374  1
  O2-  O178  1  0.92913096  0.81645510  0.43370330  1
  O2-  O179  1  0.93025971  0.82045613  0.75657651  1
  O2-  O180  1  0.31748122  0.07239890  0.23632314  1
  O2-  O181  1  0.32079753  0.06975909  0.57639277  1
  O2-  O182  1  0.31896067  0.07588974  0.90132930  1
  O2-  O183  1  0.31999669  0.56862569  0.23296685  1
  O2-  O184  1  0.32188565  0.57740805  0.57971347  1
  O2-  O185  1  0.32236370  0.56489594  0.90764857  1
  O2-  O186  1  0.82291919  0.07046590  0.23784177  1
  O2-  O187  1  0.82458386  0.06759180  0.57778579  1
  O2-  O188  1  0.81701302  0.07346413  0.89826979  1
  O2-  O189  1  0.82437351  0.56682344  0.24175031  1
  O2-  O190  1  0.81868518  0.57221851  0.56745912  1
  O2-  O191  1  0.82331188  0.56884721  0.91217171  1
  O2-  O192  1  0.04412001  0.08309709  0.26327215  1
  O2-  O193  1  0.04563695  0.07858529  0.59766013  1
  O2-  O194  1  0.04546261  0.08931439  0.93932264  1
  O2-  O195  1  0.04679029  0.57694225  0.26672862  1
  O2-  O196  1  0.04544690  0.58713476  0.60730300  1
  O2-  O197  1  0.04323818  0.57703347  0.93031988  1
  O2-  O198  1  0.54598611  0.08636523  0.27143091  1
  O2-  O199  1  0.54020554  0.08162890  0.60510354  1
  O2-  O200  1  0.54819655  0.08673790  0.93776877  1
  O2-  O201  1  0.53381429  0.58309119  0.26702798  1
  O2-  O202  1  0.54665131  0.58905137  0.60451224  1
  O2-  O203  1  0.53229046  0.58450180  0.92639116  1
  O2-  O204  1  0.16309590  0.21630409  0.26025198  1
  O2-  O205  1  0.16793163  0.20960574  0.59974496  1
  O2-  O206  1  0.16270498  0.21205834  0.93798971  1
  O2-  O207  1  0.17092078  0.70377877  0.26875592  1
  O2-  O208  1  0.16551289  0.70708718  0.60687397  1
  O2-  O209  1  0.17265457  0.70225604  0.92841661  1
  O2-  O210  1  0.66885956  0.20265728  0.27569988  1
  O2-  O211  1  0.66716341  0.19164660  0.60530052  1
  O2-  O212  1  0.66168414  0.21223492  0.93652281  1
  O2-  O213  1  0.66955034  0.69941136  0.26486751  1
  O2-  O214  1  0.66395241  0.71111417  0.60678395  1
  O2-  O215  1  0.66696966  0.70363180  0.92836010  1
  O2-  O216  1  0.08309725  0.45108480  0.06215186  1
  O2-  O217  1  0.08036783  0.44581982  0.39226120  1
  O2-  O218  1  0.08660925  0.45936550  0.73610457  1
  O2-  O219  1  0.08319699  0.95906596  0.06874547  1
  O2-  O220  1  0.08668087  0.95580470  0.39732622  1
  O2-  O221  1  0.08483948  0.95338271  0.72741597  1
  O2-  O222  1  0.58030391  0.46204635  0.06336003  1
  O2-  O223  1  0.58162301  0.46386985  0.40345429  1
  O2-  O224  1  0.58435879  0.45911933  0.73135094  1
  O2-  O225  1  0.58434143  0.95131841  0.06041975  1
  O2-  O226  1  0.58342242  0.95803934  0.40127023  1
  O2-  O227  1  0.58253064  0.95808992  0.73899561  1
  O2-  O228  1  0.20843654  0.33962869  0.06521380  1
  O2-  O229  1  0.20983485  0.33669335  0.39467969  1
  O2-  O230  1  0.21551069  0.33390000  0.73465754  1
  O2-  O231  1  0.20467081  0.82703716  0.06480635  1
  O2-  O232  1  0.20421005  0.83460298  0.39768859  1
  O2-  O233  1  0.20857916  0.83728923  0.73198810  1
  O2-  O234  1  0.70873805  0.33645897  0.06907556  1
  O2-  O235  1  0.70275234  0.33392671  0.40522953  1
  O2-  O236  1  0.69244698  0.32918018  0.72427263  1
  O2-  O237  1  0.70083911  0.82958853  0.05696098  1
  O2-  O238  1  0.70769264  0.82688937  0.39782331  1
  O2-  O239  1  0.71197455  0.83443280  0.73855041  1
  O2-  O240  1  0.45987382  0.41695852  0.26489187  1
  O2-  O241  1  0.45846583  0.41905446  0.60038294  1
  O2-  O242  1  0.45881494  0.40978448  0.93295133  1
  O2-  O243  1  0.45520578  0.92500087  0.26754076  1
  O2-  O244  1  0.45517453  0.91441998  0.60861925  1
  O2-  O245  1  0.45136079  0.91994270  0.93663359  1
  O2-  O246  1  0.95140809  0.41272988  0.26489986  1
  O2-  O247  1  0.95968145  0.42167658  0.60030495  1
  O2-  O248  1  0.95129507  0.41276626  0.94122431  1
  O2-  O249  1  0.95793996  0.91849476  0.26777476  1
  O2-  O250  1  0.95422939  0.91076625  0.60358251  1
  O2-  O251  1  0.96223227  0.92100919  0.92788820  1
  O2-  O252  1  0.33475049  0.28917632  0.26261990  1
  O2-  O253  1  0.33639230  0.28823563  0.59763998  1
  O2-  O254  1  0.33537786  0.29375877  0.93755524  1
  O2-  O255  1  0.33216101  0.79562056  0.26606784  1
  O2-  O256  1  0.33651932  0.79450751  0.60545175  1
  O2-  O257  1  0.33650689  0.79547565  0.93505067  1
  O2-  O258  1  0.82797974  0.29807920  0.27390163  1
  O2-  O259  1  0.82593827  0.30338908  0.60146523  1
  O2-  O260  1  0.83482994  0.29001011  0.93960365  1
  O2-  O261  1  0.83244671  0.79246799  0.26288026  1
  O2-  O262  1  0.83678569  0.78727119  0.60744322  1
  O2-  O263  1  0.83177601  0.79643082  0.92741393  1
  O2-  O264  1  0.42309315  0.05150010  0.06629750  1
  O2-  O265  1  0.41727386  0.04616518  0.40475386  1
  O2-  O266  1  0.40963276  0.04188153  0.73128173  1
  O2-  O267  1  0.40903944  0.53383539  0.06080818  1
  O2-  O268  1  0.41170624  0.53684422  0.40385404  1
  O2-  O269  1  0.41839832  0.54916249  0.72907155  1
  O2-  O270  1  0.91760056  0.04339573  0.06412399  1
  O2-  O271  1  0.92460737  0.04327953  0.40293813  1
  O2-  O272  1  0.91677095  0.04286462  0.72889796  1
  O2-  O273  1  0.91535629  0.54528937  0.06419476  1
  O2-  O274  1  0.91618781  0.54187444  0.39441566  1
  O2-  O275  1  0.91775394  0.54229800  0.73731810  1
  O2-  O276  1  0.29098181  0.17125273  0.06871982  1
  O2-  O277  1  0.28480114  0.16899459  0.40069163  1
  O2-  O278  1  0.29281414  0.16286992  0.72830980  1
  O2-  O279  1  0.29967366  0.66295659  0.05813756  1
  O2-  O280  1  0.29310382  0.66972886  0.40231840  1
  O2-  O281  1  0.29738446  0.66761573  0.73282432  1
  O2-  O282  1  0.78692209  0.16451703  0.06908127  1
  O2-  O283  1  0.79710870  0.16836004  0.40637139  1
  O2-  O284  1  0.80046156  0.16735409  0.72599061  1
  O2-  O285  1  0.79905652  0.66899803  0.05846068  1
  O2-  O286  1  0.79904857  0.66386360  0.39236302  1
  O2-  O287  1  0.78628356  0.66201076  0.73910301  1
