# generated using pymatgen
data_Ca2Al2SiO7
_symmetry_space_group_name_H-M   'P 1'
_cell_length_a   15.45626479
_cell_length_b   15.45669026
_cell_length_c   15.28307985
_cell_angle_alpha   90.00630087
_cell_angle_beta   89.99665542
_cell_angle_gamma   89.98481942
_symmetry_Int_Tables_number   1
_chemical_formula_structural   Ca2Al2SiO7
_chemical_formula_sum   'Ca48 Al48 Si24 O168'
_cell_volume   3651.16884693
_cell_formula_units_Z   24
loop_
 _symmetry_equiv_pos_site_id
 _symmetry_equiv_pos_as_xyz
  1  'x, y, z'
loop_
 _atom_type_symbol
 _atom_type_oxidation_number
  Ca2+  2.0
  Al0+  0.0
  Si0+  0.0
  O2-  -2.0
loop_
 _atom_site_type_symbol
 _atom_site_label
 _atom_site_symmetry_multiplicity
 _atom_site_fract_x
 _atom_site_fract_y
 _atom_site_fract_z
 _atom_site_occupancy
  Ca2+  Ca0  1  0.17226467  0.07780779  0.18177729  1
  Ca2+  Ca1  1  0.16982342  0.07418167  0.50774375  1
  Ca2+  Ca2  1  0.17095708  0.07496936  0.83165916  1
  Ca2+  Ca3  1  0.16994759  0.58709621  0.16903216  1
  Ca2+  Ca4  1  0.15597879  0.58071668  0.50651698  1
  Ca2+  Ca5  1  0.16523785  0.58170267  0.83356067  1
  Ca2+  Ca6  1  0.66336098  0.08012733  0.16531485  1
  Ca2+  Ca7  1  0.67455094  0.08289298  0.50900003  1
  Ca2+  Ca8  1  0.66726271  0.08282882  0.83482743  1
  Ca2+  Ca9  1  0.67699494  0.57819230  0.17461182  1
  Ca2+  Ca10  1  0.66534086  0.57842722  0.50472485  1
  Ca2+  Ca11  1  0.67360392  0.58784570  0.84042597  1
  Ca2+  Ca12  1  0.07626732  0.32791684  0.16437132  1
  Ca2+  Ca13  1  0.07423103  0.33049098  0.49426703  1
  Ca2+  Ca14  1  0.07340663  0.33742274  0.82570184  1
  Ca2+  Ca15  1  0.08244796  0.83330303  0.17069361  1
  Ca2+  Ca16  1  0.08301717  0.83271124  0.49266097  1
  Ca2+  Ca17  1  0.07948678  0.82577867  0.82036636  1
  Ca2+  Ca18  1  0.58717647  0.32753123  0.16324125  1
  Ca2+  Ca19  1  0.58500087  0.32750030  0.49729910  1
  Ca2+  Ca20  1  0.58450165  0.32090576  0.82773945  1
  Ca2+  Ca21  1  0.57144025  0.84005985  0.15978785  1
  Ca2+  Ca22  1  0.57256571  0.83128621  0.50072624  1
  Ca2+  Ca23  1  0.57474498  0.83339579  0.82667808  1
  Ca2+  Ca24  1  0.33762644  0.42758563  0.17140053  1
  Ca2+  Ca25  1  0.32240477  0.42012002  0.50987328  1
  Ca2+  Ca26  1  0.32561444  0.42433387  0.83688515  1
  Ca2+  Ca27  1  0.33125905  0.91924424  0.17684419  1
  Ca2+  Ca28  1  0.32715845  0.92004127  0.50325797  1
  Ca2+  Ca29  1  0.33444707  0.91213595  0.83175149  1
  Ca2+  Ca30  1  0.83467011  0.41509228  0.16963298  1
  Ca2+  Ca31  1  0.83220138  0.40983554  0.50379625  1
  Ca2+  Ca32  1  0.83763509  0.42112910  0.83907299  1
  Ca2+  Ca33  1  0.82520946  0.91255419  0.17288133  1
  Ca2+  Ca34  1  0.84070633  0.92098239  0.50903181  1
  Ca2+  Ca35  1  0.82851591  0.91979935  0.83648262  1
  Ca2+  Ca36  1  0.41987890  0.16515696  0.16164137  1
  Ca2+  Ca37  1  0.41849388  0.15485649  0.49941235  1
  Ca2+  Ca38  1  0.42756185  0.15922757  0.82705726  1
  Ca2+  Ca39  1  0.41256308  0.67914443  0.16032257  1
  Ca2+  Ca40  1  0.41380361  0.68059075  0.49845086  1
  Ca2+  Ca41  1  0.41902017  0.67516743  0.82665062  1
  Ca2+  Ca42  1  0.92069591  0.17529059  0.16650281  1
  Ca2+  Ca43  1  0.92105102  0.17231015  0.49520444  1
  Ca2+  Ca44  1  0.91096027  0.17821370  0.82581685  1
  Ca2+  Ca45  1  0.92097432  0.66594721  0.16698616  1
  Ca2+  Ca46  1  0.92864486  0.67973821  0.49764972  1
  Ca2+  Ca47  1  0.91801609  0.67163600  0.82368569  1
  Al0+  Al48  1  0.00002570  0.00047078  0.00110383  1
  Al0+  Al49  1  -0.00068899  0.00015675  0.32787745  1
  Al0+  Al50  1  0.00016336  0.00359844  0.67685588  1
  Al0+  Al51  1  -0.00019675  0.49970686  0.00181936  1
  Al0+  Al52  1  -0.00025866  0.50205483  0.32607309  1
  Al0+  Al53  1  -0.00308660  0.50016530  0.66337630  1
  Al0+  Al54  1  0.49982518  -0.00018492  -0.00438350  1
  Al0+  Al55  1  0.50153846  -0.00067767  0.33326183  1
  Al0+  Al56  1  0.50160433  -0.00027094  0.66079707  1
  Al0+  Al57  1  0.49922302  0.49995154  0.00468762  1
  Al0+  Al58  1  0.50220227  0.49888942  0.33889747  1
  Al0+  Al59  1  0.50006005  0.49700331  0.66597013  1
  Al0+  Al60  1  0.24897763  0.24892810  -0.00047370  1
  Al0+  Al61  1  0.25344127  0.25239452  0.33230752  1
  Al0+  Al62  1  0.24997469  0.25073714  0.67898714  1
  Al0+  Al63  1  0.24905838  0.74969805  -0.00061697  1
  Al0+  Al64  1  0.25127960  0.75150625  0.32896244  1
  Al0+  Al65  1  0.25054042  0.74823383  0.66353016  1
  Al0+  Al66  1  0.75106986  0.24947747  -0.00712677  1
  Al0+  Al67  1  0.74883946  0.24957975  0.33273456  1
  Al0+  Al68  1  0.74858018  0.24952104  0.66353790  1
  Al0+  Al69  1  0.74959425  0.75011417  0.01110830  1
  Al0+  Al70  1  0.74980810  0.74782490  0.33424916  1
  Al0+  Al71  1  0.74976061  0.74915613  0.65877820  1
  Al0+  Al72  1  0.17822406  0.93002006  0.34756141  1
  Al0+  Al73  1  0.92945339  0.82548663  0.65523476  1
  Al0+  Al74  1  0.56861288  0.18079519  0.98605279  1
  Al0+  Al75  1  0.07207610  0.67996132  0.31594166  1
  Al0+  Al76  1  0.67878067  0.93086720  0.01289059  1
  Al0+  Al77  1  0.93216022  0.31966741  0.98453757  1
  Al0+  Al78  1  0.92770846  0.31990997  0.31749149  1
  Al0+  Al79  1  0.07019540  0.67936499  0.65379788  1
  Al0+  Al80  1  0.32331694  0.06981151  0.68416935  1
  Al0+  Al81  1  0.92935528  0.32044234  0.65256603  1
  Al0+  Al82  1  0.92695468  0.82309281  0.31700825  1
  Al0+  Al83  1  0.82163331  0.57134649  0.01441837  1
  Al0+  Al84  1  0.07449991  0.17913336  0.32072050  1
  Al0+  Al85  1  0.42857758  0.82068856  0.64979172  1
  Al0+  Al86  1  0.68112592  0.42837757  0.34840442  1
  Al0+  Al87  1  0.17580700  0.43024517  0.67982373  1
  Al0+  Al88  1  0.56928883  0.17977157  0.65070670  1
  Al0+  Al89  1  0.43235924  0.82048404  0.31798087  1
  Al0+  Al90  1  0.17873922  0.92626989  0.68279496  1
  Al0+  Al91  1  0.32045763  0.57106243  0.01337154  1
  Al0+  Al92  1  0.42852045  0.81964245  0.98533041  1
  Al0+  Al93  1  0.82165574  0.07268154  0.67993551  1
  Al0+  Al94  1  0.32340243  0.07375220  0.34727273  1
  Al0+  Al95  1  0.57290024  0.67528035  0.65264855  1
  Si0+  Si96  1  0.42560863  0.32508909  0.98344124  1
  Si0+  Si97  1  0.07424130  0.17542776  0.98095023  1
  Si0+  Si98  1  0.07433199  0.17942763  0.65374208  1
  Si0+  Si99  1  0.81766220  0.56991657  0.67984660  1
  Si0+  Si100  1  0.67889586  0.42623848  0.01490066  1
  Si0+  Si101  1  0.81931557  0.06984654  0.34613694  1
  Si0+  Si102  1  0.82182989  0.07370942  0.01782294  1
  Si0+  Si103  1  0.57094962  0.67478046  0.31581540  1
  Si0+  Si104  1  0.57318459  0.67703885  0.98759974  1
  Si0+  Si105  1  0.68028027  0.92694481  0.68092193  1
  Si0+  Si106  1  0.06916392  0.68084905  0.98447816  1
  Si0+  Si107  1  0.32094227  0.06942817  0.01449955  1
  Si0+  Si108  1  0.32349788  0.57098321  0.68261344  1
  Si0+  Si109  1  0.92581143  0.82149882  0.98625778  1
  Si0+  Si110  1  0.82410822  0.57200799  0.35377503  1
  Si0+  Si111  1  0.67766341  0.42743202  0.68304249  1
  Si0+  Si112  1  0.42594604  0.32118039  0.65118574  1
  Si0+  Si113  1  0.17780835  0.42793423  0.01831566  1
  Si0+  Si114  1  0.42951581  0.32385269  0.31913833  1
  Si0+  Si115  1  0.57023357  0.17979105  0.31805102  1
  Si0+  Si116  1  0.67840326  0.92734533  0.34906365  1
  Si0+  Si117  1  0.17809523  0.92831572  0.01598479  1
  Si0+  Si118  1  0.32151800  0.57165528  0.34887432  1
  Si0+  Si119  1  0.17904396  0.43052959  0.34652896  1
  O2-  O120  1  0.24705479  0.00211408  0.05715566  1
  O2-  O121  1  0.24689285  0.00618344  0.39576735  1
  O2-  O122  1  0.25332399  -0.00431245  0.73441736  1
  O2-  O123  1  0.25026315  0.49264543  0.06253401  1
  O2-  O124  1  0.24750694  0.50342075  0.39031412  1
  O2-  O125  1  0.25129298  0.50508974  0.72592821  1
  O2-  O126  1  0.75540616  0.00302240  0.06231298  1
  O2-  O127  1  0.75493822  -0.00695720  0.38920456  1
  O2-  O128  1  0.75075585  -0.00648566  0.72569302  1
  O2-  O129  1  0.74474297  0.49721968  0.05941401  1
  O2-  O130  1  0.75656449  0.50132773  0.39680337  1
  O2-  O131  1  0.74398537  0.50261274  0.72476578  1
  O2-  O132  1  0.00271459  0.25060701  0.26849692  1
  O2-  O133  1  0.00526529  0.24664187  0.60791799  1
  O2-  O134  1  0.00600013  0.24461047  0.93720220  1
  O2-  O135  1  -0.00088939  0.75149314  0.26589699  1
  O2-  O136  1  0.00758971  0.76022957  0.60523819  1
  O2-  O137  1  -0.00309989  0.75108369  0.94338084  1
  O2-  O138  1  0.49716071  0.24934437  0.27686371  1
  O2-  O139  1  0.49078976  0.25055374  0.60420019  1
  O2-  O140  1  0.49460030  0.25682634  0.93969931  1
  O2-  O141  1  0.50646457  0.74570322  0.26952997  1
  O2-  O142  1  0.49940429  0.74532620  0.60246401  1
  O2-  O143  1  0.50367347  0.74343755  0.94189348  1
  O2-  O144  1  0.07521927  0.17620301  0.08652963  1
  O2-  O145  1  0.07275418  0.18124901  0.43427851  1
  O2-  O146  1  0.07240271  0.18226119  0.75961717  1
  O2-  O147  1  0.07033242  0.68196515  0.08932841  1
  O2-  O148  1  0.07073556  0.67843066  0.42900694  1
  O2-  O149  1  0.06491007  0.67645123  0.76809360  1
  O2-  O150  1  0.56719866  0.18193932  0.09982408  1
  O2-  O151  1  0.57196104  0.18107932  0.42276221  1
  O2-  O152  1  0.57053666  0.18252206  0.76394441  1
  O2-  O153  1  0.57204715  0.67741912  0.09312014  1
  O2-  O154  1  0.56744615  0.67354641  0.42115402  1
  O2-  O155  1  0.57399437  0.67611496  0.76685832  1
  O2-  O156  1  0.18311790  0.42999337  0.24126229  1
  O2-  O157  1  0.17702953  0.43057129  0.56627612  1
  O2-  O158  1  0.17627206  0.43086791  0.91276841  1
  O2-  O159  1  0.18184716  0.93009846  0.23301248  1
  O2-  O160  1  0.17675138  0.92911184  0.56970137  1
  O2-  O161  1  0.17771149  0.92735999  0.91129058  1
  O2-  O162  1  0.68041706  0.42888110  0.23489182  1
  O2-  O163  1  0.67940033  0.42623699  0.57794044  1
  O2-  O164  1  0.67928071  0.42663229  0.90928398  1
  O2-  O165  1  0.67571509  0.93142296  0.24365684  1
  O2-  O166  1  0.68102340  0.92894013  0.57503800  1
  O2-  O167  1  0.68035755  0.93019867  0.89998691  1
  O2-  O168  1  0.42573307  0.32450958  0.08945387  1
  O2-  O169  1  0.43022337  0.32804425  0.42367127  1
  O2-  O170  1  0.43035299  0.32395157  0.75682441  1
  O2-  O171  1  0.42930157  0.82044904  0.09849044  1
  O2-  O172  1  0.43364633  0.81993617  0.43037287  1
  O2-  O173  1  0.43145808  0.81886732  0.76385763  1
  O2-  O174  1  0.93264888  0.31788038  0.09744296  1
  O2-  O175  1  0.92733348  0.31713679  0.43089333  1
  O2-  O176  1  0.92956715  0.32224897  0.76587050  1
  O2-  O177  1  0.92712173  0.82133306  0.09104010  1
  O2-  O178  1  0.92685842  0.82301414  0.43017667  1
  O2-  O179  1  0.92541785  0.81895801  0.76952697  1
  O2-  O180  1  0.32545555  0.07155118  0.23274177  1
  O2-  O181  1  0.32060845  0.07086264  0.57093706  1
  O2-  O182  1  0.32133949  0.06818059  0.90990415  1
  O2-  O183  1  0.32288448  0.56870804  0.24340396  1
  O2-  O184  1  0.32624582  0.56719172  0.57694358  1
  O2-  O185  1  0.31789950  0.57032369  0.90057309  1
  O2-  O186  1  0.81438128  0.07230095  0.24083307  1
  O2-  O187  1  0.81875693  0.07478533  0.56634468  1
  O2-  O188  1  0.82050908  0.07373493  0.91240738  1
  O2-  O189  1  0.82122838  0.57220251  0.24772140  1
  O2-  O190  1  0.81740231  0.56696476  0.57521890  1
  O2-  O191  1  0.82066035  0.57253221  0.90086675  1
  O2-  O192  1  0.04538394  0.08264642  0.26452247  1
  O2-  O193  1  0.04872307  0.08527461  0.61059575  1
  O2-  O194  1  0.04846655  0.08114554  0.93614557  1
  O2-  O195  1  0.04410682  0.58237065  0.25968226  1
  O2-  O196  1  0.03229306  0.58553857  0.59823511  1
  O2-  O197  1  0.04270581  0.58775711  0.93960343  1
  O2-  O198  1  0.54418118  0.08780443  0.27031237  1
  O2-  O199  1  0.54462510  0.08299722  0.59515979  1
  O2-  O200  1  0.53645068  0.08586321  0.93077298  1
  O2-  O201  1  0.54372572  0.58126104  0.27006662  1
  O2-  O202  1  0.54793644  0.57494688  0.60131015  1
  O2-  O203  1  0.55119506  0.58156095  0.94310946  1
  O2-  O204  1  0.17282209  0.20865511  0.26598727  1
  O2-  O205  1  0.16864428  0.20558050  0.61069927  1
  O2-  O206  1  0.16856018  0.19964901  0.93532269  1
  O2-  O207  1  0.17039957  0.70746771  0.26189115  1
  O2-  O208  1  0.17206665  0.69287941  0.60411710  1
  O2-  O209  1  0.15993999  0.70997407  0.93644830  1
  O2-  O210  1  0.65988494  0.21055560  0.26833867  1
  O2-  O211  1  0.66325785  0.21581927  0.59542296  1
  O2-  O212  1  0.66503265  0.20955657  0.93091120  1
  O2-  O213  1  0.66697780  0.69619175  0.27362801  1
  O2-  O214  1  0.66869335  0.70370069  0.59469389  1
  O2-  O215  1  0.66752860  0.70424244  0.94381848  1
  O2-  O216  1  0.08663162  0.45820394  0.06607206  1
  O2-  O217  1  0.08547729  0.45689909  0.39096295  1
  O2-  O218  1  0.07980447  0.46410084  0.73424327  1
  O2-  O219  1  0.08497755  0.95383923  0.06294819  1
  O2-  O220  1  0.07701633  0.95403256  0.39645037  1
  O2-  O221  1  0.08244363  0.95706999  0.74053380  1
  O2-  O222  1  0.58371284  0.44581045  0.06105029  1
  O2-  O223  1  0.58496975  0.45872023  0.40473689  1
  O2-  O224  1  0.58385383  0.44842726  0.72997434  1
  O2-  O225  1  0.58307419  0.96659196  0.06730208  1
  O2-  O226  1  0.59003234  0.96178293  0.39809630  1
  O2-  O227  1  0.58766695  0.95632607  0.72612691  1
  O2-  O228  1  0.19928172  0.33180092  0.06159960  1
  O2-  O229  1  0.20907378  0.34008990  0.39467019  1
  O2-  O230  1  0.20582857  0.33660819  0.73991316  1
  O2-  O231  1  0.20767675  0.83721939  0.06308921  1
  O2-  O232  1  0.21070842  0.83164985  0.39776138  1
  O2-  O233  1  0.20540594  0.82575178  0.73412367  1
  O2-  O234  1  0.70876921  0.33340326  0.06068059  1
  O2-  O235  1  0.71019733  0.33088496  0.40225551  1
  O2-  O236  1  0.71032250  0.33761824  0.73083957  1
  O2-  O237  1  0.70599620  0.83559850  0.07167712  1
  O2-  O238  1  0.69834573  0.83270666  0.39366725  1
  O2-  O239  1  0.70323075  0.83194991  0.72578314  1
  O2-  O240  1  0.46254111  0.41386521  0.26991896  1
  O2-  O241  1  0.45359011  0.41305769  0.60259246  1
  O2-  O242  1  0.45008479  0.41938025  0.93813829  1
  O2-  O243  1  0.46572465  0.91688599  0.26373123  1
  O2-  O244  1  0.46076110  0.91669906  0.59566834  1
  O2-  O245  1  0.46103696  0.91484515  0.93111340  1
  O2-  O246  1  0.95307721  0.41899603  0.26545733  1
  O2-  O247  1  0.95887906  0.41587614  0.59711028  1
  O2-  O248  1  0.96333287  0.41745105  0.93227810  1
  O2-  O249  1  0.95084810  0.92127314  0.26119855  1
  O2-  O250  1  0.95007912  0.92804318  0.60887853  1
  O2-  O251  1  0.95153205  0.91510618  0.94118177  1
  O2-  O252  1  0.33822073  0.30152296  0.26824096  1
  O2-  O253  1  0.32961279  0.29966354  0.60965767  1
  O2-  O254  1  0.33124355  0.30015854  0.93864666  1
  O2-  O255  1  0.33659686  0.78967221  0.26300433  1
  O2-  O256  1  0.33083261  0.79222813  0.59640864  1
  O2-  O257  1  0.33197839  0.78769194  0.93217214  1
  O2-  O258  1  0.83042373  0.28692159  0.26388862  1
  O2-  O259  1  0.83345831  0.28857129  0.59919091  1
  O2-  O260  1  0.83542007  0.29095477  0.92979171  1
  O2-  O261  1  0.82716359  0.79268337  0.26575705  1
  O2-  O262  1  0.83415760  0.79331857  0.59894220  1
  O2-  O263  1  0.83322159  0.79267362  0.94167452  1
  O2-  O264  1  0.41208941  0.03995669  0.06180891  1
  O2-  O265  1  0.42074481  0.04021318  0.39956528  1
  O2-  O266  1  0.42408329  0.04139433  0.73320808  1
  O2-  O267  1  0.41756565  0.54393190  0.07027931  1
  O2-  O268  1  0.41155463  0.54032526  0.39692209  1
  O2-  O269  1  0.41549749  0.54082271  0.73074496  1
  O2-  O270  1  0.91704245  0.05106654  0.06235412  1
  O2-  O271  1  0.91335241  0.04875223  0.39098858  1
  O2-  O272  1  0.91726548  0.05123122  0.73973006  1
  O2-  O273  1  0.91701560  0.53795303  0.06934291  1
  O2-  O274  1  0.91932855  0.54783052  0.39582356  1
  O2-  O275  1  0.90760087  0.53861742  0.72877979  1
  O2-  O276  1  0.29803291  0.16414600  0.06004017  1
  O2-  O277  1  0.30516007  0.17600193  0.39687187  1
  O2-  O278  1  0.29694712  0.16785390  0.74036113  1
  O2-  O279  1  0.28475500  0.66599992  0.06844501  1
  O2-  O280  1  0.29647633  0.66464283  0.39339869  1
  O2-  O281  1  0.30136337  0.66520336  0.72770718  1
  O2-  O282  1  0.79192962  0.16657056  0.06319288  1
  O2-  O283  1  0.78482773  0.15888789  0.39472188  1
  O2-  O284  1  0.78275966  0.16704630  0.73468694  1
  O2-  O285  1  0.79270518  0.66571300  0.07372384  1
  O2-  O286  1  0.79604127  0.66498371  0.39992178  1
  O2-  O287  1  0.79213168  0.66325100  0.72637543  1
