# generated using pymatgen
data_Ca2Al2SiO7
_symmetry_space_group_name_H-M   'P 1'
_cell_length_a   15.45574542
_cell_length_b   15.45643238
_cell_length_c   15.28164038
_cell_angle_alpha   90.00144621
_cell_angle_beta   89.99718661
_cell_angle_gamma   90.01317123
_symmetry_Int_Tables_number   1
_chemical_formula_structural   Ca2Al2SiO7
_chemical_formula_sum   'Ca48 Al48 Si24 O168'
_cell_volume   3650.64142180
_cell_formula_units_Z   24
loop_
 _symmetry_equiv_pos_site_id
 _symmetry_equiv_pos_as_xyz
  1  'x, y, z'
loop_
 _atom_type_symbol
 _atom_type_oxidation_number
  Ca2+  2.0
  Al0+  0.0
  Si0+  0.0
  O2-  -2.0
loop_
 _atom_site_type_symbol
 _atom_site_label
 _atom_site_symmetry_multiplicity
 _atom_site_fract_x
 _atom_site_fract_y
 _atom_site_fract_z
 _atom_site_occupancy
  Ca2+  Ca0  1  0.17965576  0.07784500  0.17383147  1
  Ca2+  Ca1  1  0.17577762  0.08432091  0.50581756  1
  Ca2+  Ca2  1  0.17808661  0.08930385  0.83611466  1
  Ca2+  Ca3  1  0.17372593  0.58343972  0.17158825  1
  Ca2+  Ca4  1  0.16944529  0.59000548  0.49615738  1
  Ca2+  Ca5  1  0.17322926  0.57773280  0.84273294  1
  Ca2+  Ca6  1  0.66387072  0.07957283  0.17172641  1
  Ca2+  Ca7  1  0.67044421  0.07459340  0.50862954  1
  Ca2+  Ca8  1  0.66271349  0.08165039  0.83133001  1
  Ca2+  Ca9  1  0.66824127  0.57318634  0.17385341  1
  Ca2+  Ca10  1  0.66882407  0.57181373  0.50209820  1
  Ca2+  Ca11  1  0.66213114  0.57163806  0.84038153  1
  Ca2+  Ca12  1  0.07051730  0.34368208  0.16201731  1
  Ca2+  Ca13  1  0.07794129  0.32461324  0.49298835  1
  Ca2+  Ca14  1  0.07932279  0.33258740  0.82881118  1
  Ca2+  Ca15  1  0.09162137  0.82839415  0.17018994  1
  Ca2+  Ca16  1  0.07774235  0.83302810  0.49182238  1
  Ca2+  Ca17  1  0.07658754  0.83394097  0.82568596  1
  Ca2+  Ca18  1  0.58662747  0.32967504  0.15797890  1
  Ca2+  Ca19  1  0.59348918  0.32787471  0.49912082  1
  Ca2+  Ca20  1  0.58891109  0.32432885  0.82967949  1
  Ca2+  Ca21  1  0.58011657  0.82769761  0.16401969  1
  Ca2+  Ca22  1  0.57458891  0.84588972  0.49614156  1
  Ca2+  Ca23  1  0.58034034  0.82613797  0.82535674  1
  Ca2+  Ca24  1  0.33177129  0.42914008  0.16904742  1
  Ca2+  Ca25  1  0.33761028  0.42679821  0.50234103  1
  Ca2+  Ca26  1  0.32529855  0.42131458  0.84458915  1
  Ca2+  Ca27  1  0.33514010  0.92572274  0.17658376  1
  Ca2+  Ca28  1  0.33333262  0.92152425  0.50164884  1
  Ca2+  Ca29  1  0.34386910  0.92707883  0.83174499  1
  Ca2+  Ca30  1  0.82588248  0.41464923  0.17415415  1
  Ca2+  Ca31  1  0.82884224  0.41660341  0.49821959  1
  Ca2+  Ca32  1  0.82313356  0.40924800  0.83717836  1
  Ca2+  Ca33  1  0.82334035  0.91885021  0.17436416  1
  Ca2+  Ca34  1  0.82279409  0.91587651  0.51014322  1
  Ca2+  Ca35  1  0.83421133  0.92164557  0.83002589  1
  Ca2+  Ca36  1  0.42070048  0.16235363  0.16082266  1
  Ca2+  Ca37  1  0.42116158  0.15897677  0.49842414  1
  Ca2+  Ca38  1  0.42468604  0.16122598  0.82779772  1
  Ca2+  Ca39  1  0.41557764  0.66946120  0.16252263  1
  Ca2+  Ca40  1  0.41507942  0.68036283  0.49116047  1
  Ca2+  Ca41  1  0.42024156  0.66805404  0.83012692  1
  Ca2+  Ca42  1  0.91484302  0.18091791  0.16136822  1
  Ca2+  Ca43  1  0.91791669  0.16636714  0.49799462  1
  Ca2+  Ca44  1  0.92189812  0.16963974  0.82495263  1
  Ca2+  Ca45  1  0.92031119  0.65990686  0.16834608  1
  Ca2+  Ca46  1  0.91957508  0.66821165  0.49257755  1
  Ca2+  Ca47  1  0.91792941  0.67403835  0.82737603  1
  Al0+  Al48  1  -0.00058128  0.00139661  0.00208589  1
  Al0+  Al49  1  0.00103530  0.00028196  0.33151451  1
  Al0+  Al50  1  -0.00010572  -0.00067799  0.66106769  1
  Al0+  Al51  1  -0.00199099  0.50165979  -0.00542009  1
  Al0+  Al52  1  -0.00062003  0.50026222  0.32943019  1
  Al0+  Al53  1  0.00018717  0.50021832  0.66613702  1
  Al0+  Al54  1  0.50067148  -0.00070063  0.00009558  1
  Al0+  Al55  1  0.50060280  0.00034676  0.33439218  1
  Al0+  Al56  1  0.50042125  -0.00031178  0.66652886  1
  Al0+  Al57  1  0.49974971  0.49961568  0.00342997  1
  Al0+  Al58  1  0.49923554  0.49855190  0.34180457  1
  Al0+  Al59  1  0.50034547  0.49981588  0.67175984  1
  Al0+  Al60  1  0.24840170  0.24972756  0.01118463  1
  Al0+  Al61  1  0.25237495  0.25061362  0.33475221  1
  Al0+  Al62  1  0.24980677  0.25135321  0.66602926  1
  Al0+  Al63  1  0.24894709  0.75220931  -0.00107310  1
  Al0+  Al64  1  0.24949445  0.75177128  0.33160601  1
  Al0+  Al65  1  0.25114930  0.75018091  0.66494921  1
  Al0+  Al66  1  0.75065717  0.24910886  -0.00504765  1
  Al0+  Al67  1  0.75045721  0.24840549  0.33185176  1
  Al0+  Al68  1  0.75025032  0.24995923  0.66869929  1
  Al0+  Al69  1  0.74883823  0.75012229  -0.00512817  1
  Al0+  Al70  1  0.74882340  0.74842174  0.34035129  1
  Al0+  Al71  1  0.75018544  0.74777487  0.66634959  1
  Al0+  Al72  1  0.67835973  0.42579243  0.34876633  1
  Al0+  Al73  1  0.32115297  0.57292536  0.01487176  1
  Al0+  Al74  1  0.82278636  0.07037448  0.68172689  1
  Al0+  Al75  1  0.67775250  0.92767910  0.68417967  1
  Al0+  Al76  1  0.43122082  0.81950011  0.65214082  1
  Al0+  Al77  1  0.56936779  0.17842054  0.98585543  1
  Al0+  Al78  1  0.92974973  0.32187402  0.98361992  1
  Al0+  Al79  1  0.17860025  0.92877318  0.34889858  1
  Al0+  Al80  1  0.31980426  0.07116966  0.68133578  1
  Al0+  Al81  1  0.32251095  0.06925166  0.01384999  1
  Al0+  Al82  1  0.57056699  0.67738509  0.98750663  1
  Al0+  Al83  1  0.67996022  0.92890854  0.34536453  1
  Al0+  Al84  1  0.57040772  0.18084044  0.65188963  1
  Al0+  Al85  1  0.06955328  0.68108910  0.31837669  1
  Al0+  Al86  1  0.32176158  0.07234108  0.35059383  1
  Al0+  Al87  1  0.82272486  0.56995927  0.34802969  1
  Al0+  Al88  1  0.68109331  0.42767650  0.01358576  1
  Al0+  Al89  1  0.43105904  0.82125020  0.31833216  1
  Al0+  Al90  1  0.07295092  0.17972015  0.65314733  1
  Al0+  Al91  1  0.93033717  0.31783078  0.31963405  1
  Al0+  Al92  1  0.32017259  0.57161303  0.34815091  1
  Al0+  Al93  1  0.92852322  0.82014014  0.65218947  1
  Al0+  Al94  1  0.67995344  0.42958737  0.68305849  1
  Al0+  Al95  1  0.17543058  0.42930342  0.01561232  1
  Si0+  Si96  1  0.07591802  0.17689073  0.31436079  1
  Si0+  Si97  1  0.17424822  0.92911066  0.01596071  1
  Si0+  Si98  1  0.56915168  0.18092955  0.31865615  1
  Si0+  Si99  1  0.57189102  0.67491717  0.31880956  1
  Si0+  Si100  1  0.17860053  0.42952727  0.67999673  1
  Si0+  Si101  1  0.07217576  0.67709507  0.65011636  1
  Si0+  Si102  1  0.17815831  0.92671906  0.68298732  1
  Si0+  Si103  1  0.31990948  0.57264030  0.68210737  1
  Si0+  Si104  1  0.42774587  0.82168834  0.98303804  1
  Si0+  Si105  1  0.68010426  0.92798074  0.01418863  1
  Si0+  Si106  1  0.57195735  0.67446629  0.64868005  1
  Si0+  Si107  1  0.82056459  0.57542967  0.01477413  1
  Si0+  Si108  1  0.07201640  0.17723242  0.98500213  1
  Si0+  Si109  1  0.92828754  0.32226167  0.64871863  1
  Si0+  Si110  1  0.42771927  0.32442329  0.31796256  1
  Si0+  Si111  1  0.42713836  0.32378760  0.65097161  1
  Si0+  Si112  1  0.82218373  0.07201690  0.34715860  1
  Si0+  Si113  1  0.82198831  0.07060166  0.01520714  1
  Si0+  Si114  1  0.82433252  0.57109004  0.68496036  1
  Si0+  Si115  1  0.92757392  0.82335705  0.98568975  1
  Si0+  Si116  1  0.17698809  0.42910518  0.35053028  1
  Si0+  Si117  1  0.07113517  0.68106139  0.98385765  1
  Si0+  Si118  1  0.92440718  0.82303858  0.31595700  1
  Si0+  Si119  1  0.42584311  0.32167978  0.98630103  1
  O2-  O120  1  0.24628236  -0.00508973  0.05801527  1
  O2-  O121  1  0.24647007  0.00357623  0.39986473  1
  O2-  O122  1  0.24500675  -0.00372748  0.72888874  1
  O2-  O123  1  0.24819065  0.50133174  0.06435277  1
  O2-  O124  1  0.24658881  0.49602412  0.39648180  1
  O2-  O125  1  0.24919952  0.50071606  0.72281818  1
  O2-  O126  1  0.75007476  0.00008281  0.05670958  1
  O2-  O127  1  0.76095875  -0.00287018  0.39061648  1
  O2-  O128  1  0.75052962  -0.00056687  0.73434377  1
  O2-  O129  1  0.75398827  0.50486497  0.05863917  1
  O2-  O130  1  0.74951463  0.49927805  0.39758953  1
  O2-  O131  1  0.75495409  0.50414012  0.73003796  1
  O2-  O132  1  0.00637868  0.24501716  0.27060756  1
  O2-  O133  1  -0.00377293  0.25228131  0.60576041  1
  O2-  O134  1  0.00768082  0.24916876  0.93910901  1
  O2-  O135  1  -0.00580274  0.75579696  0.27036665  1
  O2-  O136  1  0.00326227  0.74515941  0.60662241  1
  O2-  O137  1  0.00017916  0.75318775  0.94371775  1
  O2-  O138  1  0.49918731  0.25318722  0.27662879  1
  O2-  O139  1  0.49570795  0.25591164  0.60519053  1
  O2-  O140  1  0.49295319  0.25259775  0.94023028  1
  O2-  O141  1  0.50427289  0.74407263  0.27302403  1
  O2-  O142  1  0.50736431  0.74646640  0.60429820  1
  O2-  O143  1  0.49310190  0.74922494  0.94008888  1
  O2-  O144  1  0.06686013  0.17319984  0.09013817  1
  O2-  O145  1  0.07546689  0.17865246  0.42010271  1
  O2-  O146  1  0.07472807  0.18475613  0.76655792  1
  O2-  O147  1  0.07208550  0.68097434  0.08860241  1
  O2-  O148  1  0.06804468  0.68190286  0.43159567  1
  O2-  O149  1  0.07204097  0.67659131  0.75620240  1
  O2-  O150  1  0.56967410  0.17708523  0.09945294  1
  O2-  O151  1  0.57013068  0.18101638  0.42360681  1
  O2-  O152  1  0.56820366  0.18176110  0.76515967  1
  O2-  O153  1  0.57433744  0.68163550  0.10042687  1
  O2-  O154  1  0.56929482  0.67375429  0.42424121  1
  O2-  O155  1  0.56783324  0.67276766  0.75470400  1
  O2-  O156  1  0.17759187  0.43173718  0.24511791  1
  O2-  O157  1  0.17806869  0.43058461  0.57512124  1
  O2-  O158  1  0.17727954  0.43111720  0.90100953  1
  O2-  O159  1  0.18168582  0.93026855  0.23464049  1
  O2-  O160  1  0.18026938  0.92483714  0.57798061  1
  O2-  O161  1  0.16862047  0.92980787  0.91055049  1
  O2-  O162  1  0.67911057  0.42460476  0.23502848  1
  O2-  O163  1  0.68141307  0.43032002  0.57028162  1
  O2-  O164  1  0.68268919  0.42783955  0.90050744  1
  O2-  O165  1  0.67978223  0.93134086  0.23122352  1
  O2-  O166  1  0.67841842  0.93088882  0.57061382  1
  O2-  O167  1  0.68126845  0.92695135  0.90962087  1
  O2-  O168  1  0.42879062  0.32132315  0.09201757  1
  O2-  O169  1  0.42619352  0.32555872  0.42299026  1
  O2-  O170  1  0.42538522  0.32463699  0.75659099  1
  O2-  O171  1  0.42943561  0.82319740  0.08853086  1
  O2-  O172  1  0.43266191  0.82187582  0.43138571  1
  O2-  O173  1  0.43021489  0.81552397  0.76571786  1
  O2-  O174  1  0.92841661  0.32016041  0.09681283  1
  O2-  O175  1  0.93115278  0.31500147  0.43281493  1
  O2-  O176  1  0.93127134  0.32387822  0.75445445  1
  O2-  O177  1  0.92530568  0.82383455  0.09041941  1
  O2-  O178  1  0.92526573  0.82185260  0.42121514  1
  O2-  O179  1  0.93211125  0.81858224  0.76638147  1
  O2-  O180  1  0.32348552  0.07048696  0.23664708  1
  O2-  O181  1  0.31888121  0.07103904  0.56899457  1
  O2-  O182  1  0.32283757  0.06803087  0.90057306  1
  O2-  O183  1  0.31996815  0.57025007  0.23533980  1
  O2-  O184  1  0.31911017  0.57318905  0.57709999  1
  O2-  O185  1  0.31798627  0.57233912  0.90048448  1
  O2-  O186  1  0.81777716  0.07386263  0.24088417  1
  O2-  O187  1  0.82132291  0.06925852  0.56788922  1
  O2-  O188  1  0.82661184  0.06818256  0.91071272  1
  O2-  O189  1  0.82154941  0.56860293  0.23392185  1
  O2-  O190  1  0.82746548  0.56877478  0.57981775  1
  O2-  O191  1  0.81945380  0.57823871  0.90914268  1
  O2-  O192  1  0.05187318  0.08257623  0.26851811  1
  O2-  O193  1  0.04545404  0.08305213  0.59852626  1
  O2-  O194  1  0.04306563  0.08482905  0.93702287  1
  O2-  O195  1  0.03949942  0.58480401  0.26283098  1
  O2-  O196  1  0.04722589  0.58338906  0.60342276  1
  O2-  O197  1  0.04276632  0.59085513  0.93342278  1
  O2-  O198  1  0.53966173  0.09008751  0.27006523  1
  O2-  O199  1  0.53954758  0.08417186  0.59896218  1
  O2-  O200  1  0.53928392  0.08126141  0.93203040  1
  O2-  O201  1  0.54520023  0.58062667  0.27426494  1
  O2-  O202  1  0.54201783  0.58181597  0.60305086  1
  O2-  O203  1  0.54069116  0.58031374  0.93313534  1
  O2-  O204  1  0.17011082  0.20297443  0.26960095  1
  O2-  O205  1  0.16731687  0.21469472  0.59677344  1
  O2-  O206  1  0.16837384  0.19989584  0.94339330  1
  O2-  O207  1  0.16500690  0.71322137  0.26253902  1
  O2-  O208  1  0.16589998  0.70237703  0.60481254  1
  O2-  O209  1  0.16236741  0.70867058  0.93400808  1
  O2-  O210  1  0.66136097  0.20635897  0.27019526  1
  O2-  O211  1  0.66773906  0.21162999  0.59890544  1
  O2-  O212  1  0.66556474  0.20849232  0.93134417  1
  O2-  O213  1  0.66651739  0.70012985  0.27438753  1
  O2-  O214  1  0.66831616  0.69306107  0.60670430  1
  O2-  O215  1  0.66527891  0.71046169  0.92978780  1
  O2-  O216  1  0.07671767  0.46187060  0.06526516  1
  O2-  O217  1  0.08421199  0.45603337  0.39648084  1
  O2-  O218  1  0.08672583  0.45722983  0.72850806  1
  O2-  O219  1  0.08238055  0.95578318  0.06595153  1
  O2-  O220  1  0.07677722  0.95145250  0.39815751  1
  O2-  O221  1  0.08348625  0.95073880  0.72675877  1
  O2-  O222  1  0.58336739  0.45478190  0.06633801  1
  O2-  O223  1  0.58069407  0.45124237  0.40398467  1
  O2-  O224  1  0.58274179  0.45941040  0.73770253  1
  O2-  O225  1  0.58854705  0.95523728  0.06167583  1
  O2-  O226  1  0.58711455  0.96692547  0.39991069  1
  O2-  O227  1  0.58025872  0.95766904  0.73753102  1
  O2-  O228  1  0.19805934  0.33122540  0.07089773  1
  O2-  O229  1  0.20151184  0.33454654  0.39473455  1
  O2-  O230  1  0.20642447  0.33908731  0.72928662  1
  O2-  O231  1  0.19806665  0.83427791  0.05975124  1
  O2-  O232  1  0.20702857  0.83116401  0.40153307  1
  O2-  O233  1  0.20425032  0.83283259  0.73017619  1
  O2-  O234  1  0.71383606  0.33067072  0.06588116  1
  O2-  O235  1  0.71149692  0.32840345  0.40119340  1
  O2-  O236  1  0.71146677  0.33333414  0.73654430  1
  O2-  O237  1  0.71060021  0.83693891  0.06182643  1
  O2-  O238  1  0.70245554  0.83171952  0.40085254  1
  O2-  O239  1  0.70485130  0.82692227  0.73379598  1
  O2-  O240  1  0.45581326  0.41642807  0.27095409  1
  O2-  O241  1  0.45336908  0.41823472  0.60602064  1
  O2-  O242  1  0.44987564  0.41559291  0.94009808  1
  O2-  O243  1  0.46548342  0.91703102  0.26389590  1
  O2-  O244  1  0.46041299  0.91639029  0.59898380  1
  O2-  O245  1  0.45947733  0.91286817  0.93595241  1
  O2-  O246  1  0.95956559  0.41456786  0.26510713  1
  O2-  O247  1  0.95648177  0.41570646  0.60307735  1
  O2-  O248  1  0.95607448  0.41942861  0.92805992  1
  O2-  O249  1  0.94716644  0.91801937  0.26989577  1
  O2-  O250  1  0.95773030  0.91547023  0.59620066  1
  O2-  O251  1  0.95644215  0.91529485  0.93837877  1
  O2-  O252  1  0.33558068  0.29806947  0.26976514  1
  O2-  O253  1  0.33360805  0.30064837  0.60383591  1
  O2-  O254  1  0.32982122  0.29791290  0.94361359  1
  O2-  O255  1  0.33425989  0.79188355  0.26483987  1
  O2-  O256  1  0.33430449  0.78752194  0.59876507  1
  O2-  O257  1  0.33227384  0.80189767  0.93728951  1
  O2-  O258  1  0.83442204  0.28461442  0.26398384  1
  O2-  O259  1  0.83471353  0.29730157  0.60410952  1
  O2-  O260  1  0.83593721  0.28558640  0.92844101  1
  O2-  O261  1  0.83046909  0.79564349  0.27062261  1
  O2-  O262  1  0.83155764  0.78952540  0.59898441  1
  O2-  O263  1  0.83773496  0.79464558  0.93508865  1
  O2-  O264  1  0.41827980  0.03609502  0.06871535  1
  O2-  O265  1  0.41906281  0.04016094  0.40210109  1
  O2-  O266  1  0.41576721  0.03806020  0.73464091  1
  O2-  O267  1  0.41860526  0.54489995  0.06896225  1
  O2-  O268  1  0.41482105  0.54074829  0.40555046  1
  O2-  O269  1  0.41136246  0.54523360  0.72997284  1
  O2-  O270  1  0.91249114  0.04245638  0.06580445  1
  O2-  O271  1  0.91916338  0.05561270  0.38880719  1
  O2-  O272  1  0.92186930  0.04042052  0.73413118  1
  O2-  O273  1  0.91581875  0.55176624  0.05729265  1
  O2-  O274  1  0.92066026  0.54006827  0.40114498  1
  O2-  O275  1  0.91852524  0.54588448  0.73207222  1
  O2-  O276  1  0.29483048  0.16511930  0.07052239  1
  O2-  O277  1  0.29811229  0.17287585  0.40192952  1
  O2-  O278  1  0.28932099  0.16900128  0.73420077  1
  O2-  O279  1  0.29229682  0.67259578  0.06510339  1
  O2-  O280  1  0.28672193  0.66724505  0.40108606  1
  O2-  O281  1  0.29079678  0.66335607  0.73104594  1
  O2-  O282  1  0.79222569  0.16187833  0.06142785  1
  O2-  O283  1  0.79063886  0.16193773  0.39579240  1
  O2-  O284  1  0.79675354  0.16938892  0.73392300  1
  O2-  O285  1  0.79516074  0.66888343  0.06159787  1
  O2-  O286  1  0.79725405  0.66801819  0.40267821  1
  O2-  O287  1  0.80057789  0.66537120  0.73011913  1
