# generated using pymatgen
data_Ca2Al2SiO7
_symmetry_space_group_name_H-M   'P 1'
_cell_length_a   15.46005786
_cell_length_b   15.46132000
_cell_length_c   15.28530303
_cell_angle_alpha   89.98179554
_cell_angle_beta   90.00944506
_cell_angle_gamma   90.00624467
_symmetry_Int_Tables_number   1
_chemical_formula_structural   Ca2Al2SiO7
_chemical_formula_sum   'Ca48 Al48 Si24 O168'
_cell_volume   3653.69008262
_cell_formula_units_Z   24
loop_
 _symmetry_equiv_pos_site_id
 _symmetry_equiv_pos_as_xyz
  1  'x, y, z'
loop_
 _atom_type_symbol
 _atom_type_oxidation_number
  Ca2+  2.0
  Al0+  0.0
  Si0+  0.0
  O2-  -2.0
loop_
 _atom_site_type_symbol
 _atom_site_label
 _atom_site_symmetry_multiplicity
 _atom_site_fract_x
 _atom_site_fract_y
 _atom_site_fract_z
 _atom_site_occupancy
  Ca2+  Ca0  1  0.16740021  0.07547135  0.17647410  1
  Ca2+  Ca1  1  0.15479966  0.07279774  0.50484015  1
  Ca2+  Ca2  1  0.16379375  0.07653032  0.83247629  1
  Ca2+  Ca3  1  0.17074427  0.58403131  0.17151506  1
  Ca2+  Ca4  1  0.16419564  0.57531150  0.50900507  1
  Ca2+  Ca5  1  0.17617211  0.59196078  0.83545755  1
  Ca2+  Ca6  1  0.67434982  0.08308093  0.17275615  1
  Ca2+  Ca7  1  0.67714919  0.07816530  0.50356377  1
  Ca2+  Ca8  1  0.67634520  0.08719503  0.84241770  1
  Ca2+  Ca9  1  0.67509189  0.58869990  0.16760551  1
  Ca2+  Ca10  1  0.67293712  0.58939617  0.50396136  1
  Ca2+  Ca11  1  0.66718302  0.58390934  0.84512274  1
  Ca2+  Ca12  1  0.08491314  0.33023471  0.16730268  1
  Ca2+  Ca13  1  0.09153377  0.32420422  0.49394953  1
  Ca2+  Ca14  1  0.08331147  0.32741035  0.82477324  1
  Ca2+  Ca15  1  0.08513608  0.82252355  0.16360368  1
  Ca2+  Ca16  1  0.09212698  0.82344923  0.49672086  1
  Ca2+  Ca17  1  0.08529393  0.82273416  0.82769332  1
  Ca2+  Ca18  1  0.58138923  0.32950771  0.15408788  1
  Ca2+  Ca19  1  0.57999825  0.33286272  0.49784626  1
  Ca2+  Ca20  1  0.58152272  0.33733282  0.83660949  1
  Ca2+  Ca21  1  0.57853402  0.83281432  0.15718465  1
  Ca2+  Ca22  1  0.57984746  0.83414315  0.49871655  1
  Ca2+  Ca23  1  0.57304427  0.82187160  0.82692127  1
  Ca2+  Ca24  1  0.33268121  0.42185928  0.16743952  1
  Ca2+  Ca25  1  0.31993891  0.42257543  0.50745026  1
  Ca2+  Ca26  1  0.32966212  0.42668502  0.83808167  1
  Ca2+  Ca27  1  0.32998936  0.91410728  0.17011409  1
  Ca2+  Ca28  1  0.32269035  0.91319270  0.50612146  1
  Ca2+  Ca29  1  0.32994197  0.90252700  0.83262797  1
  Ca2+  Ca30  1  0.82893834  0.42680184  0.16402349  1
  Ca2+  Ca31  1  0.83528625  0.42263478  0.49874537  1
  Ca2+  Ca32  1  0.82550088  0.42333344  0.84317272  1
  Ca2+  Ca33  1  0.82584448  0.92555168  0.17419625  1
  Ca2+  Ca34  1  0.83417986  0.92549758  0.50173036  1
  Ca2+  Ca35  1  0.83702030  0.92904708  0.83759001  1
  Ca2+  Ca36  1  0.42459968  0.17503756  0.15466060  1
  Ca2+  Ca37  1  0.41515910  0.16858072  0.49572110  1
  Ca2+  Ca38  1  0.42137952  0.17326015  0.83480924  1
  Ca2+  Ca39  1  0.42229652  0.67246035  0.15269711  1
  Ca2+  Ca40  1  0.41578395  0.66714100  0.50485578  1
  Ca2+  Ca41  1  0.42001619  0.66730130  0.82882705  1
  Ca2+  Ca42  1  0.91927921  0.15868612  0.16463511  1
  Ca2+  Ca43  1  0.92271117  0.16260994  0.49733175  1
  Ca2+  Ca44  1  0.91679236  0.16608472  0.82603179  1
  Ca2+  Ca45  1  0.92582687  0.65641531  0.16306414  1
  Ca2+  Ca46  1  0.92810879  0.66400205  0.49172521  1
  Ca2+  Ca47  1  0.92721298  0.65998576  0.82986388  1
  Al0+  Al48  1  0.00080697  -0.00227391  0.00466327  1
  Al0+  Al49  1  0.00031067  -0.00123588  0.33536604  1
  Al0+  Al50  1  0.00021727  0.00052240  0.67268136  1
  Al0+  Al51  1  0.00058556  0.49645709  -0.00213743  1
  Al0+  Al52  1  0.00028954  0.49757528  0.33560422  1
  Al0+  Al53  1  -0.00254055  0.49712750  0.66622090  1
  Al0+  Al54  1  0.49821171  0.00161516  -0.00948870  1
  Al0+  Al55  1  0.50045097  0.00090882  0.33558991  1
  Al0+  Al56  1  0.49996528  0.00001707  0.66250674  1
  Al0+  Al57  1  0.49757906  0.49958851  0.00162350  1
  Al0+  Al58  1  0.50011047  0.50129452  0.33253949  1
  Al0+  Al59  1  0.49960920  0.49947477  0.66338667  1
  Al0+  Al60  1  0.25041216  0.24791158  -0.00367201  1
  Al0+  Al61  1  0.25001659  0.25113645  0.32998925  1
  Al0+  Al62  1  0.24971515  0.24821090  0.66633590  1
  Al0+  Al63  1  0.24794053  0.74801891  -0.00073173  1
  Al0+  Al64  1  0.25230995  0.75029184  0.33226166  1
  Al0+  Al65  1  0.24983864  0.74979380  0.66546654  1
  Al0+  Al66  1  0.75283190  0.25095075  0.00584951  1
  Al0+  Al67  1  0.75041059  0.25216669  0.33708915  1
  Al0+  Al68  1  0.75026245  0.25104170  0.66793841  1
  Al0+  Al69  1  0.75280174  0.75410418  0.00056360  1
  Al0+  Al70  1  0.75021443  0.75057096  0.34144549  1
  Al0+  Al71  1  0.74974888  0.75200501  0.66482784  1
  Al0+  Al72  1  0.42707670  0.82160551  0.98508435  1
  Al0+  Al73  1  0.57244443  0.67702791  0.64955367  1
  Al0+  Al74  1  0.18056214  0.92972285  0.68164497  1
  Al0+  Al75  1  0.42701342  0.32278094  0.98386173  1
  Al0+  Al76  1  0.67647408  0.92867266  0.34913289  1
  Al0+  Al77  1  0.18081897  0.92814735  0.34605171  1
  Al0+  Al78  1  0.06885296  0.67843672  0.65218782  1
  Al0+  Al79  1  0.42859359  0.82096050  0.64802207  1
  Al0+  Al80  1  0.06944237  0.17774596  0.31863129  1
  Al0+  Al81  1  0.82172092  0.07118425  0.01547219  1
  Al0+  Al82  1  0.17621026  0.42605953  0.68289102  1
  Al0+  Al83  1  0.57414533  0.18063679  0.98548997  1
  Al0+  Al84  1  0.31874799  0.57106770  0.01466536  1
  Al0+  Al85  1  0.07128459  0.67786397  0.31954906  1
  Al0+  Al86  1  0.67769498  0.43085257  0.01438807  1
  Al0+  Al87  1  0.82161833  0.07259239  0.35015907  1
  Al0+  Al88  1  0.06809522  0.67717839  0.98648384  1
  Al0+  Al89  1  0.81873927  0.06998670  0.68195830  1
  Al0+  Al90  1  0.31949269  0.56959052  0.68187180  1
  Al0+  Al91  1  0.82085279  0.56999474  0.34779570  1
  Al0+  Al92  1  0.82327902  0.57448609  0.01331354  1
  Al0+  Al93  1  0.57399176  0.67974123  0.98804952  1
  Al0+  Al94  1  0.18046397  0.42927590  0.34555587  1
  Al0+  Al95  1  0.07024773  0.17940790  0.65379456  1
  Si0+  Si96  1  0.42917327  0.32192741  0.31833343  1
  Si0+  Si97  1  0.32110825  0.07248482  0.01392721  1
  Si0+  Si98  1  0.32146862  0.07292585  0.34776873  1
  Si0+  Si99  1  0.18062804  0.92888674  0.01600062  1
  Si0+  Si100  1  0.57118127  0.18039864  0.32014375  1
  Si0+  Si101  1  0.32542865  0.07291891  0.68432123  1
  Si0+  Si102  1  0.93091244  0.31915694  0.98529854  1
  Si0+  Si103  1  0.32363621  0.57259900  0.35014631  1
  Si0+  Si104  1  0.67562059  0.42916129  0.35118291  1
  Si0+  Si105  1  0.67580960  0.92792932  0.68590075  1
  Si0+  Si106  1  0.67897655  0.42985145  0.68032507  1
  Si0+  Si107  1  0.92532702  0.32085422  0.64863679  1
  Si0+  Si108  1  0.92667745  0.82096820  0.31725807  1
  Si0+  Si109  1  0.67579080  0.93062642  0.01370600  1
  Si0+  Si110  1  0.92838714  0.82340998  0.65038127  1
  Si0+  Si111  1  0.57246703  0.67935865  0.31818256  1
  Si0+  Si112  1  0.82050846  0.57271825  0.68068222  1
  Si0+  Si113  1  0.57299679  0.17997367  0.65040727  1
  Si0+  Si114  1  0.92976187  0.82506496  0.98409219  1
  Si0+  Si115  1  0.42913431  0.32002359  0.65001381  1
  Si0+  Si116  1  0.07093066  0.17552834  0.98541809  1
  Si0+  Si117  1  0.92629903  0.32198871  0.31432497  1
  Si0+  Si118  1  0.43038745  0.82179700  0.31790958  1
  Si0+  Si119  1  0.17811833  0.42377332  0.01677784  1
  O2-  O120  1  0.25299478  -0.00067167  0.05704266  1
  O2-  O121  1  0.25202627  0.00630374  0.39293655  1
  O2-  O122  1  0.25828986  0.00229146  0.72797394  1
  O2-  O123  1  0.24525426  0.49420050  0.06046885  1
  O2-  O124  1  0.25188450  0.50655288  0.39276273  1
  O2-  O125  1  0.24465969  0.50072069  0.73306558  1
  O2-  O126  1  0.74273804  0.00019908  0.05990426  1
  O2-  O127  1  0.74976776  -0.00025310  0.39881601  1
  O2-  O128  1  0.74390106  -0.00321143  0.73053643  1
  O2-  O129  1  0.74479210  0.50862350  0.06294409  1
  O2-  O130  1  0.74358791  0.49798438  0.39568462  1
  O2-  O131  1  0.74534912  0.50544875  0.72149378  1
  O2-  O132  1  -0.00742890  0.24997855  0.27065810  1
  O2-  O133  1  -0.00150582  0.25631659  0.60581020  1
  O2-  O134  1  0.00063520  0.24676290  0.94328017  1
  O2-  O135  1  -0.00495265  0.75174603  0.27265421  1
  O2-  O136  1  -0.00686712  0.75183515  0.60476848  1
  O2-  O137  1  -0.00967405  0.74913380  0.94026534  1
  O2-  O138  1  0.50144219  0.25181028  0.27705235  1
  O2-  O139  1  0.49863583  0.24717019  0.60696426  1
  O2-  O140  1  0.50336802  0.25397978  0.93496539  1
  O2-  O141  1  0.50251874  0.75160789  0.27652358  1
  O2-  O142  1  0.50198100  0.75004287  0.59803065  1
  O2-  O143  1  0.50065482  0.74995666  0.93767140  1
  O2-  O144  1  0.07112165  0.17500852  0.09060590  1
  O2-  O145  1  0.07031506  0.17941101  0.43142640  1
  O2-  O146  1  0.06706615  0.17925842  0.76744968  1
  O2-  O147  1  0.06968276  0.67938148  0.09991968  1
  O2-  O148  1  0.07115391  0.67854700  0.43258270  1
  O2-  O149  1  0.06724335  0.67989579  0.76536955  1
  O2-  O150  1  0.57087442  0.17986761  0.09983044  1
  O2-  O151  1  0.56880913  0.18197616  0.42562975  1
  O2-  O152  1  0.57525836  0.18300801  0.75494569  1
  O2-  O153  1  0.57333801  0.68422612  0.10241112  1
  O2-  O154  1  0.57006615  0.67674294  0.42292468  1
  O2-  O155  1  0.57407488  0.67613697  0.76273125  1
  O2-  O156  1  0.18379804  0.42805656  0.23241417  1
  O2-  O157  1  0.17984985  0.42524635  0.56899071  1
  O2-  O158  1  0.17845422  0.42063928  0.91164349  1
  O2-  O159  1  0.18462237  0.92799152  0.23249002  1
  O2-  O160  1  0.18000884  0.93145044  0.56845915  1
  O2-  O161  1  0.17857349  0.93057765  0.91105572  1
  O2-  O162  1  0.67332117  0.42859754  0.24630478  1
  O2-  O163  1  0.68098066  0.42687875  0.57489943  1
  O2-  O164  1  0.68270843  0.42873659  0.90031951  1
  O2-  O165  1  0.67385248  0.93156393  0.23523891  1
  O2-  O166  1  0.67673790  0.93045069  0.58023430  1
  O2-  O167  1  0.67871636  0.93197247  0.90839001  1
  O2-  O168  1  0.42446136  0.31708183  0.09802377  1
  O2-  O169  1  0.43008364  0.32061200  0.42379220  1
  O2-  O170  1  0.43112252  0.32023033  0.75452508  1
  O2-  O171  1  0.42786021  0.82212593  0.09961090  1
  O2-  O172  1  0.42925194  0.82207145  0.42244600  1
  O2-  O173  1  0.43067904  0.81940233  0.76116637  1
  O2-  O174  1  0.93287678  0.32072422  0.09028900  1
  O2-  O175  1  0.92591218  0.32264620  0.41993202  1
  O2-  O176  1  0.92105512  0.31867532  0.75428510  1
  O2-  O177  1  0.93480323  0.83120602  0.08929102  1
  O2-  O178  1  0.92747824  0.81988948  0.42293876  1
  O2-  O179  1  0.92945511  0.82264934  0.75622387  1
  O2-  O180  1  0.32290414  0.07142585  0.24192931  1
  O2-  O181  1  0.32591059  0.07490699  0.57844605  1
  O2-  O182  1  0.31763359  0.07670176  0.90933669  1
  O2-  O183  1  0.32593783  0.57126620  0.24454595  1
  O2-  O184  1  0.31967416  0.56570703  0.56769491  1
  O2-  O185  1  0.31683590  0.57281207  0.90214156  1
  O2-  O186  1  0.81878090  0.07120240  0.23643808  1
  O2-  O187  1  0.81755845  0.07000662  0.56923672  1
  O2-  O188  1  0.82401553  0.07006444  0.90234461  1
  O2-  O189  1  0.81971725  0.56873162  0.23499209  1
  O2-  O190  1  0.82131264  0.56985505  0.57542416  1
  O2-  O191  1  0.82556749  0.56865019  0.89957059  1
  O2-  O192  1  0.04159664  0.07977787  0.26476930  1
  O2-  O193  1  0.03542489  0.08303347  0.60177975  1
  O2-  O194  1  0.04217185  0.08358186  0.93915061  1
  O2-  O195  1  0.04044135  0.58035179  0.26734830  1
  O2-  O196  1  0.03771816  0.58037952  0.60032438  1
  O2-  O197  1  0.04168564  0.57949444  0.93248858  1
  O2-  O198  1  0.54311371  0.08870797  0.27298408  1
  O2-  O199  1  0.54866689  0.08752453  0.60282691  1
  O2-  O200  1  0.54394640  0.08483802  0.92891224  1
  O2-  O201  1  0.54449357  0.58726936  0.27075230  1
  O2-  O202  1  0.54456566  0.57833277  0.59514157  1
  O2-  O203  1  0.54780688  0.57991416  0.93877735  1
  O2-  O204  1  0.16648378  0.20989179  0.26424370  1
  O2-  O205  1  0.16860808  0.20445406  0.59974044  1
  O2-  O206  1  0.16252066  0.20160057  0.93755979  1
  O2-  O207  1  0.16863351  0.71004613  0.26658442  1
  O2-  O208  1  0.16498182  0.70978704  0.59902913  1
  O2-  O209  1  0.16214469  0.71398573  0.93269184  1
  O2-  O210  1  0.66373530  0.20783030  0.27444419  1
  O2-  O211  1  0.66241182  0.21377087  0.60127454  1
  O2-  O212  1  0.67381277  0.20893785  0.93532064  1
  O2-  O213  1  0.66601300  0.70571552  0.27426552  1
  O2-  O214  1  0.67179984  0.70636210  0.59725322  1
  O2-  O215  1  0.67338233  0.70682706  0.93548665  1
  O2-  O216  1  0.08375876  0.44770749  0.06136729  1
  O2-  O217  1  0.08309803  0.45376086  0.39976663  1
  O2-  O218  1  0.07438288  0.44728755  0.73173583  1
  O2-  O219  1  0.09067173  0.95896358  0.06550971  1
  O2-  O220  1  0.08362040  0.95499454  0.39933554  1
  O2-  O221  1  0.08610445  0.96301866  0.73833233  1
  O2-  O222  1  0.57691036  0.44837010  0.06589579  1
  O2-  O223  1  0.58179589  0.45431588  0.39812756  1
  O2-  O224  1  0.58532480  0.45184966  0.72537878  1
  O2-  O225  1  0.58033275  0.95460043  0.05717821  1
  O2-  O226  1  0.57940459  0.96017353  0.40418282  1
  O2-  O227  1  0.58140342  0.95371204  0.72910379  1
  O2-  O228  1  0.20530790  0.33004396  0.06316325  1
  O2-  O229  1  0.21492581  0.33329309  0.39956230  1
  O2-  O230  1  0.20750093  0.32775123  0.73442545  1
  O2-  O231  1  0.20798504  0.83745533  0.06368413  1
  O2-  O232  1  0.21557526  0.83309489  0.40066117  1
  O2-  O233  1  0.21012700  0.83295140  0.73522943  1
  O2-  O234  1  0.71340069  0.33570985  0.07052390  1
  O2-  O235  1  0.70167107  0.33630203  0.39921829  1
  O2-  O236  1  0.71092140  0.34020612  0.72918965  1
  O2-  O237  1  0.70251886  0.83834106  0.06208871  1
  O2-  O238  1  0.70242276  0.83113133  0.40424611  1
  O2-  O239  1  0.70183719  0.83378232  0.73032682  1
  O2-  O240  1  0.45654162  0.41421195  0.27143218  1
  O2-  O241  1  0.45963381  0.40934896  0.59951441  1
  O2-  O242  1  0.45147734  0.42149762  0.93148149  1
  O2-  O243  1  0.45628129  0.91514845  0.27133829  1
  O2-  O244  1  0.45454756  0.92132050  0.59558918  1
  O2-  O245  1  0.44903785  0.92034904  0.93036194  1
  O2-  O246  1  0.95675400  0.41349077  0.26718450  1
  O2-  O247  1  0.94613786  0.41549880  0.60293989  1
  O2-  O248  1  0.95849675  0.40897702  0.93384367  1
  O2-  O249  1  0.95249731  0.91456601  0.27148168  1
  O2-  O250  1  0.95777384  0.91616041  0.60555441  1
  O2-  O251  1  0.96455853  0.91477478  0.93412504  1
  O2-  O252  1  0.33903617  0.29361129  0.26897023  1
  O2-  O253  1  0.33779908  0.29109596  0.60208539  1
  O2-  O254  1  0.33116314  0.28784196  0.92887768  1
  O2-  O255  1  0.33967474  0.79324453  0.26871740  1
  O2-  O256  1  0.33063359  0.79094841  0.59526035  1
  O2-  O257  1  0.32931109  0.79048573  0.93377720  1
  O2-  O258  1  0.83058346  0.30028047  0.27011806  1
  O2-  O259  1  0.83375419  0.29115447  0.59963327  1
  O2-  O260  1  0.83909669  0.29194804  0.93831812  1
  O2-  O261  1  0.83162155  0.79676701  0.27308751  1
  O2-  O262  1  0.83318873  0.80340733  0.60530839  1
  O2-  O263  1  0.83360337  0.81022363  0.94002942  1
  O2-  O264  1  0.41468362  0.04744917  0.05943676  1
  O2-  O265  1  0.41451878  0.04804836  0.39527613  1
  O2-  O266  1  0.42067815  0.05103063  0.72863959  1
  O2-  O267  1  0.41528496  0.54255754  0.06994678  1
  O2-  O268  1  0.41612530  0.54343378  0.39703648  1
  O2-  O269  1  0.41857865  0.53779032  0.73182649  1
  O2-  O270  1  0.91715706  0.03606431  0.06984197  1
  O2-  O271  1  0.91975581  0.04307529  0.40201669  1
  O2-  O272  1  0.91429189  0.03893231  0.73742830  1
  O2-  O273  1  0.91879847  0.53510199  0.06665144  1
  O2-  O274  1  0.91541383  0.53499814  0.40289941  1
  O2-  O275  1  0.91007400  0.54026865  0.72916114  1
  O2-  O276  1  0.29088461  0.16248474  0.06431288  1
  O2-  O277  1  0.29855725  0.16743883  0.39251599  1
  O2-  O278  1  0.29717626  0.16519805  0.73109214  1
  O2-  O279  1  0.28493793  0.66646040  0.07057722  1
  O2-  O280  1  0.30146565  0.66717978  0.39419784  1
  O2-  O281  1  0.29310416  0.66875551  0.73266427  1
  O2-  O282  1  0.79645805  0.16795793  0.07063346  1
  O2-  O283  1  0.79311646  0.17140196  0.40258039  1
  O2-  O284  1  0.78754508  0.16766069  0.73431326  1
  O2-  O285  1  0.80469370  0.67588755  0.06490431  1
  O2-  O286  1  0.79329849  0.66597541  0.40388940  1
  O2-  O287  1  0.79912289  0.66683266  0.72579172  1
