# generated using pymatgen
data_Ca2Al2SiO7
_symmetry_space_group_name_H-M   'P 1'
_cell_length_a   15.45845585
_cell_length_b   15.45938507
_cell_length_c   15.28369002
_cell_angle_alpha   90.00994384
_cell_angle_beta   89.99083590
_cell_angle_gamma   89.98746820
_symmetry_Int_Tables_number   1
_chemical_formula_structural   Ca2Al2SiO7
_chemical_formula_sum   'Ca48 Al48 Si24 O168'
_cell_volume   3652.46887088
_cell_formula_units_Z   24
loop_
 _symmetry_equiv_pos_site_id
 _symmetry_equiv_pos_as_xyz
  1  'x, y, z'
loop_
 _atom_type_symbol
 _atom_type_oxidation_number
  Ca2+  2.0
  Al0+  0.0
  Si0+  0.0
  O2-  -2.0
loop_
 _atom_site_type_symbol
 _atom_site_label
 _atom_site_symmetry_multiplicity
 _atom_site_fract_x
 _atom_site_fract_y
 _atom_site_fract_z
 _atom_site_occupancy
  Ca2+  Ca0  1  0.16803954  0.07634840  0.17591899  1
  Ca2+  Ca1  1  0.16152782  0.08220976  0.50046833  1
  Ca2+  Ca2  1  0.16567449  0.08439668  0.83427347  1
  Ca2+  Ca3  1  0.17496980  0.57583241  0.17274697  1
  Ca2+  Ca4  1  0.17470482  0.58869048  0.50562026  1
  Ca2+  Ca5  1  0.16314175  0.57709509  0.83805173  1
  Ca2+  Ca6  1  0.66822660  0.07177433  0.16973941  1
  Ca2+  Ca7  1  0.66794670  0.07450786  0.50661010  1
  Ca2+  Ca8  1  0.68021295  0.07710780  0.84131539  1
  Ca2+  Ca9  1  0.66839236  0.58453793  0.17206636  1
  Ca2+  Ca10  1  0.66320454  0.58203181  0.50377245  1
  Ca2+  Ca11  1  0.67594513  0.59038478  0.83172626  1
  Ca2+  Ca12  1  0.08926015  0.32637104  0.16289094  1
  Ca2+  Ca13  1  0.07521418  0.32268896  0.49899044  1
  Ca2+  Ca14  1  0.07797159  0.32900168  0.82363720  1
  Ca2+  Ca15  1  0.07847966  0.83368927  0.16236035  1
  Ca2+  Ca16  1  0.07745797  0.83406720  0.49974905  1
  Ca2+  Ca17  1  0.06945009  0.82673472  0.82552965  1
  Ca2+  Ca18  1  0.57427371  0.34244917  0.16666440  1
  Ca2+  Ca19  1  0.57633164  0.33881506  0.49272178  1
  Ca2+  Ca20  1  0.57163805  0.33756178  0.82887555  1
  Ca2+  Ca21  1  0.57962519  0.83606304  0.16305709  1
  Ca2+  Ca22  1  0.57941050  0.82362391  0.49171882  1
  Ca2+  Ca23  1  0.57872348  0.83285936  0.82868253  1
  Ca2+  Ca24  1  0.33530983  0.41890609  0.17260057  1
  Ca2+  Ca25  1  0.34153731  0.42204223  0.50183982  1
  Ca2+  Ca26  1  0.32819587  0.41330455  0.83979718  1
  Ca2+  Ca27  1  0.32999831  0.91065476  0.17687283  1
  Ca2+  Ca28  1  0.32882984  0.90620517  0.50260024  1
  Ca2+  Ca29  1  0.33592039  0.91381368  0.83738823  1
  Ca2+  Ca30  1  0.82611101  0.42593176  0.17232255  1
  Ca2+  Ca31  1  0.82680991  0.41878045  0.50913150  1
  Ca2+  Ca32  1  0.84291350  0.42961543  0.83564944  1
  Ca2+  Ca33  1  0.82303764  0.91471963  0.16679467  1
  Ca2+  Ca34  1  0.82868424  0.91823421  0.50687470  1
  Ca2+  Ca35  1  0.83557704  0.92168495  0.84105564  1
  Ca2+  Ca36  1  0.41742352  0.17747647  0.16274396  1
  Ca2+  Ca37  1  0.41501985  0.17956423  0.49664070  1
  Ca2+  Ca38  1  0.41797689  0.17713388  0.82952457  1
  Ca2+  Ca39  1  0.42015525  0.67292616  0.16800227  1
  Ca2+  Ca40  1  0.42659953  0.67112925  0.49296502  1
  Ca2+  Ca41  1  0.42486119  0.67784584  0.82514567  1
  Ca2+  Ca42  1  0.92124517  0.16171856  0.16413681  1
  Ca2+  Ca43  1  0.92326074  0.16061468  0.49954525  1
  Ca2+  Ca44  1  0.91868033  0.16704966  0.82264679  1
  Ca2+  Ca45  1  0.91336921  0.67267405  0.15827472  1
  Ca2+  Ca46  1  0.91890293  0.66533362  0.50388782  1
  Ca2+  Ca47  1  0.91363309  0.67333643  0.82497313  1
  Al0+  Al48  1  0.00172160  -0.00054545  -0.00020694  1
  Al0+  Al49  1  0.00196337  0.00003509  0.33207167  1
  Al0+  Al50  1  0.00065973  -0.00150645  0.66466721  1
  Al0+  Al51  1  0.00172156  0.49750552  0.01237310  1
  Al0+  Al52  1  0.00072322  0.49922565  0.33290799  1
  Al0+  Al53  1  -0.00017566  0.49831954  0.66165413  1
  Al0+  Al54  1  0.50035497  0.00216413  -0.00116020  1
  Al0+  Al55  1  0.49953932  0.00232271  0.33621314  1
  Al0+  Al56  1  0.49645157  0.00204445  0.66601589  1
  Al0+  Al57  1  0.49950671  0.50159527  -0.00661210  1
  Al0+  Al58  1  0.50088867  0.50215969  0.33231392  1
  Al0+  Al59  1  0.49874449  0.50209018  0.66401051  1
  Al0+  Al60  1  0.24992678  0.24900624  -0.00001249  1
  Al0+  Al61  1  0.24806145  0.24922460  0.32581631  1
  Al0+  Al62  1  0.24995928  0.24914772  0.65958487  1
  Al0+  Al63  1  0.25126539  0.74826140  -0.00356917  1
  Al0+  Al64  1  0.24872788  0.74876832  0.33879336  1
  Al0+  Al65  1  0.24898681  0.74944364  0.66659034  1
  Al0+  Al66  1  0.75152141  0.25053478  0.00485224  1
  Al0+  Al67  1  0.75097769  0.25183018  0.33658557  1
  Al0+  Al68  1  0.74716589  0.24894890  0.67005664  1
  Al0+  Al69  1  0.75045036  0.75085482  0.00323419  1
  Al0+  Al70  1  0.75095828  0.75116590  0.33458356  1
  Al0+  Al71  1  0.74853386  0.74854038  0.66301379  1
  Al0+  Al72  1  0.82065938  0.57087821  0.01351181  1
  Al0+  Al73  1  0.17957568  0.92898712  0.34781453  1
  Al0+  Al74  1  0.57285273  0.68041765  0.31555738  1
  Al0+  Al75  1  0.42812299  0.82189925  0.31889550  1
  Al0+  Al76  1  0.43103870  0.32085965  0.31877902  1
  Al0+  Al77  1  0.18064190  0.42749477  0.01363897  1
  Al0+  Al78  1  0.92984740  0.81974105  0.98774161  1
  Al0+  Al79  1  0.67754581  0.92940123  0.34916859  1
  Al0+  Al80  1  0.07049674  0.67671408  0.65279108  1
  Al0+  Al81  1  0.82106857  0.56901553  0.67934836  1
  Al0+  Al82  1  0.57126981  0.68041950  0.65128540  1
  Al0+  Al83  1  0.68019038  0.43095289  0.34668781  1
  Al0+  Al84  1  0.07044004  0.17801526  0.65190045  1
  Al0+  Al85  1  0.67792823  0.92971839  0.01428195  1
  Al0+  Al86  1  0.42964000  0.32068782  0.65265521  1
  Al0+  Al87  1  0.82480063  0.07267983  0.01661368  1
  Al0+  Al88  1  0.06791097  0.17979075  0.31648025  1
  Al0+  Al89  1  0.42802897  0.82392224  0.65145977  1
  Al0+  Al90  1  0.42821467  0.82252440  0.98654514  1
  Al0+  Al91  1  0.42961855  0.32082935  0.98557127  1
  Al0+  Al92  1  0.92779090  0.82128268  0.65118843  1
  Al0+  Al93  1  0.82128506  0.06964525  0.67982114  1
  Al0+  Al94  1  0.31949157  0.56873804  0.34750986  1
  Al0+  Al95  1  0.92549271  0.32144655  0.65330259  1
  Si0+  Si96  1  0.07199303  0.67697124  0.31757428  1
  Si0+  Si97  1  0.32123137  0.07429928  0.34989561  1
  Si0+  Si98  1  0.57387367  0.17816630  0.98355111  1
  Si0+  Si99  1  0.57520651  0.17774487  0.31688832  1
  Si0+  Si100  1  0.31944583  0.07337950  0.68239659  1
  Si0+  Si101  1  0.82461514  0.57342825  0.35144585  1
  Si0+  Si102  1  0.32139152  0.57163783  0.68391816  1
  Si0+  Si103  1  0.67555528  0.42833051  0.01494933  1
  Si0+  Si104  1  0.17952123  0.92784675  0.68410040  1
  Si0+  Si105  1  0.92622981  0.32374858  0.31418248  1
  Si0+  Si106  1  0.07007887  0.17911608  0.98462948  1
  Si0+  Si107  1  0.67620524  0.92803099  0.68277018  1
  Si0+  Si108  1  0.92891524  0.32216281  0.98793004  1
  Si0+  Si109  1  0.32060521  0.07139925  0.01425981  1
  Si0+  Si110  1  0.18115221  0.42803250  0.67897806  1
  Si0+  Si111  1  0.93091666  0.82029771  0.31764746  1
  Si0+  Si112  1  0.57166398  0.17803128  0.65095724  1
  Si0+  Si113  1  0.18125204  0.92793364  0.01276899  1
  Si0+  Si114  1  0.82232936  0.07094530  0.35004569  1
  Si0+  Si115  1  0.07190914  0.67512059  0.98664462  1
  Si0+  Si116  1  0.57288198  0.67862837  0.98213638  1
  Si0+  Si117  1  0.17719045  0.42499339  0.35246404  1
  Si0+  Si118  1  0.67485398  0.42778596  0.68468150  1
  Si0+  Si119  1  0.32299966  0.57245708  0.01539879  1
  O2-  O120  1  0.25570788  -0.00530053  0.05594950  1
  O2-  O121  1  0.25763558  0.00077648  0.39416643  1
  O2-  O122  1  0.25141715  -0.00080887  0.72526333  1
  O2-  O123  1  0.25604480  0.50178089  0.05941758  1
  O2-  O124  1  0.24535757  0.49366827  0.39672664  1
  O2-  O125  1  0.25002143  0.49981639  0.72456141  1
  O2-  O126  1  0.75101849  0.00149876  0.06436132  1
  O2-  O127  1  0.75053926  0.00635086  0.39493239  1
  O2-  O128  1  0.74763452  -0.00601466  0.72715222  1
  O2-  O129  1  0.74450288  0.49703591  0.05875336  1
  O2-  O130  1  0.75626741  0.50370416  0.39379321  1
  O2-  O131  1  0.74782735  0.49269686  0.72799214  1
  O2-  O132  1  -0.00516484  0.25541026  0.26862231  1
  O2-  O133  1  -0.00693139  0.24515307  0.60343240  1
  O2-  O134  1  -0.00353697  0.24806690  0.94433383  1
  O2-  O135  1  -0.00115666  0.74565360  0.27537625  1
  O2-  O136  1  -0.00073198  0.74852593  0.60125239  1
  O2-  O137  1  0.00202583  0.74191175  0.94212313  1
  O2-  O138  1  0.50645137  0.24655233  0.27200793  1
  O2-  O139  1  0.50753621  0.25023982  0.60571011  1
  O2-  O140  1  0.50764290  0.24962361  0.93904342  1
  O2-  O141  1  0.50319135  0.75517604  0.26603618  1
  O2-  O142  1  0.50145389  0.75448556  0.60199340  1
  O2-  O143  1  0.50425309  0.74911940  0.94057126  1
  O2-  O144  1  0.07170694  0.17884499  0.08961174  1
  O2-  O145  1  0.06594007  0.17898678  0.42907765  1
  O2-  O146  1  0.07347726  0.18122849  0.76611531  1
  O2-  O147  1  0.07352886  0.67833999  0.09251517  1
  O2-  O148  1  0.07133327  0.67668895  0.42226498  1
  O2-  O149  1  0.07063324  0.67759817  0.76699627  1
  O2-  O150  1  0.57018559  0.17650576  0.08901380  1
  O2-  O151  1  0.57459339  0.17874021  0.42252596  1
  O2-  O152  1  0.56855083  0.17746622  0.75671575  1
  O2-  O153  1  0.57142932  0.67536261  0.08738166  1
  O2-  O154  1  0.57146140  0.67977381  0.42862162  1
  O2-  O155  1  0.56990672  0.68025155  0.76544632  1
  O2-  O156  1  0.17825801  0.42670675  0.24635137  1
  O2-  O157  1  0.18400530  0.42760153  0.57429710  1
  O2-  O158  1  0.17972268  0.42717651  0.90004304  1
  O2-  O159  1  0.17815610  0.93056603  0.23379001  1
  O2-  O160  1  0.17947033  0.92767630  0.57921108  1
  O2-  O161  1  0.18025357  0.93060654  0.90771015  1
  O2-  O162  1  0.68168771  0.43237300  0.23305587  1
  O2-  O163  1  0.67317947  0.42938204  0.57917171  1
  O2-  O164  1  0.67472441  0.42754692  0.90957156  1
  O2-  O165  1  0.67955158  0.93012259  0.23610588  1
  O2-  O166  1  0.67574108  0.93171036  0.57714003  1
  O2-  O167  1  0.67805859  0.93155814  0.90058437  1
  O2-  O168  1  0.42985249  0.31960069  0.09848092  1
  O2-  O169  1  0.43162010  0.31922009  0.43185177  1
  O2-  O170  1  0.42750671  0.31820685  0.76613697  1
  O2-  O171  1  0.42414913  0.82044775  0.09901124  1
  O2-  O172  1  0.42797721  0.81805573  0.43186248  1
  O2-  O173  1  0.42964059  0.82257581  0.76571600  1
  O2-  O174  1  0.93163858  0.32211933  0.09288737  1
  O2-  O175  1  0.92700063  0.32376808  0.41939968  1
  O2-  O176  1  0.93158586  0.32360193  0.76762573  1
  O2-  O177  1  0.93320088  0.81944826  0.10128845  1
  O2-  O178  1  0.93231872  0.82143747  0.42239493  1
  O2-  O179  1  0.93009781  0.82155303  0.76515707  1
  O2-  O180  1  0.31814439  0.07581004  0.24372497  1
  O2-  O181  1  0.31836240  0.07715700  0.57793246  1
  O2-  O182  1  0.31693995  0.07446230  0.90893437  1
  O2-  O183  1  0.31689631  0.56782923  0.23385883  1
  O2-  O184  1  0.32163549  0.57072186  0.57904238  1
  O2-  O185  1  0.32090731  0.57277435  0.90970167  1
  O2-  O186  1  0.82306966  0.06819457  0.24440391  1
  O2-  O187  1  0.81919988  0.06790873  0.56665631  1
  O2-  O188  1  0.82591225  0.07196657  0.90298333  1
  O2-  O189  1  0.82557141  0.57241074  0.24532436  1
  O2-  O190  1  0.82094039  0.56619699  0.56665749  1
  O2-  O191  1  0.82277385  0.56995128  0.90053095  1
  O2-  O192  1  0.03722604  0.08295332  0.26172107  1
  O2-  O193  1  0.04657226  0.07897788  0.59958639  1
  O2-  O194  1  0.04570371  0.08670824  0.93689072  1
  O2-  O195  1  0.04811920  0.58356320  0.27017701  1
  O2-  O196  1  0.04499704  0.57963497  0.59678069  1
  O2-  O197  1  0.04772467  0.57934754  0.94504165  1
  O2-  O198  1  0.54802916  0.08480185  0.27043740  1
  O2-  O199  1  0.54095110  0.08697802  0.60310429  1
  O2-  O200  1  0.54499180  0.08719588  0.93415781  1
  O2-  O201  1  0.54083606  0.58334956  0.26230824  1
  O2-  O202  1  0.53950185  0.58319108  0.59842727  1
  O2-  O203  1  0.54688194  0.58646435  0.93296057  1
  O2-  O204  1  0.16404109  0.20903919  0.26007066  1
  O2-  O205  1  0.16573201  0.21037671  0.59593119  1
  O2-  O206  1  0.16120383  0.20880626  0.93703890  1
  O2-  O207  1  0.16246558  0.70755365  0.26988900  1
  O2-  O208  1  0.16852784  0.70635022  0.60092570  1
  O2-  O209  1  0.16484295  0.69975483  0.93891786  1
  O2-  O210  1  0.66937944  0.20246785  0.27167932  1
  O2-  O211  1  0.66633227  0.19768312  0.60574612  1
  O2-  O212  1  0.66939902  0.20154328  0.94017164  1
  O2-  O213  1  0.67349518  0.70614228  0.26514251  1
  O2-  O214  1  0.66943328  0.70284514  0.59682562  1
  O2-  O215  1  0.66662151  0.70509339  0.93746953  1
  O2-  O216  1  0.08701609  0.45593185  0.07455524  1
  O2-  O217  1  0.08229009  0.44969459  0.39587988  1
  O2-  O218  1  0.08848850  0.45421523  0.72566288  1
  O2-  O219  1  0.09157321  0.95962810  0.06195018  1
  O2-  O220  1  0.08451711  0.96473184  0.40199592  1
  O2-  O221  1  0.08834376  0.95738071  0.73193278  1
  O2-  O222  1  0.58155805  0.45591483  0.05990194  1
  O2-  O223  1  0.58414107  0.46206814  0.40059122  1
  O2-  O224  1  0.58262496  0.45919809  0.73175030  1
  O2-  O225  1  0.57970228  0.96077017  0.06767271  1
  O2-  O226  1  0.58079023  0.95950801  0.40353142  1
  O2-  O227  1  0.58264470  0.95723371  0.72807674  1
  O2-  O228  1  0.21250924  0.33116956  0.06825048  1
  O2-  O229  1  0.20234808  0.33017398  0.39472378  1
  O2-  O230  1  0.21123813  0.33644462  0.72667497  1
  O2-  O231  1  0.20461292  0.83413494  0.05875763  1
  O2-  O232  1  0.20506230  0.83230617  0.40339601  1
  O2-  O233  1  0.20650710  0.83628641  0.73311599  1
  O2-  O234  1  0.69953960  0.33520081  0.06268516  1
  O2-  O235  1  0.70759400  0.33348203  0.40209474  1
  O2-  O236  1  0.69246943  0.33212678  0.72968270  1
  O2-  O237  1  0.70596847  0.83215274  0.06852832  1
  O2-  O238  1  0.71209543  0.83377376  0.40239568  1
  O2-  O239  1  0.69809452  0.83272655  0.72574452  1
  O2-  O240  1  0.46259554  0.41670557  0.26459501  1
  O2-  O241  1  0.45711680  0.41805970  0.60051384  1
  O2-  O242  1  0.45551913  0.41822627  0.93014235  1
  O2-  O243  1  0.44954444  0.92447462  0.27080366  1
  O2-  O244  1  0.44727814  0.92525150  0.60129106  1
  O2-  O245  1  0.45482611  0.92109682  0.93373761  1
  O2-  O246  1  0.95207326  0.41799616  0.26842130  1
  O2-  O247  1  0.95865810  0.41551666  0.59599039  1
  O2-  O248  1  0.96201979  0.41339456  0.94226283  1
  O2-  O249  1  0.96311569  0.91020736  0.26959604  1
  O2-  O250  1  0.95995492  0.91733800  0.59675159  1
  O2-  O251  1  0.96511152  0.91508831  0.93364037  1
  O2-  O252  1  0.33448645  0.29002725  0.26450092  1
  O2-  O253  1  0.33610555  0.28649746  0.59641896  1
  O2-  O254  1  0.33409041  0.28436972  0.93219610  1
  O2-  O255  1  0.32876574  0.78933656  0.26866605  1
  O2-  O256  1  0.32942041  0.79350179  0.60236554  1
  O2-  O257  1  0.33214115  0.79084710  0.93026245  1
  O2-  O258  1  0.83218901  0.29883704  0.26861453  1
  O2-  O259  1  0.82399995  0.29946865  0.60476087  1
  O2-  O260  1  0.83500655  0.30111805  0.94210417  1
  O2-  O261  1  0.83865097  0.79423178  0.27071030  1
  O2-  O262  1  0.82963694  0.79517842  0.59880278  1
  O2-  O263  1  0.83226935  0.79227448  0.93514088  1
  O2-  O264  1  0.41457669  0.05187994  0.05972997  1
  O2-  O265  1  0.41676589  0.05823720  0.39485218  1
  O2-  O266  1  0.41181879  0.04931974  0.73167241  1
  O2-  O267  1  0.41737173  0.54739258  0.05949125  1
  O2-  O268  1  0.41580229  0.53770477  0.40098783  1
  O2-  O269  1  0.41272129  0.54294153  0.73183941  1
  O2-  O270  1  0.92322775  0.04183084  0.06902445  1
  O2-  O271  1  0.91461195  0.04000518  0.39525840  1
  O2-  O272  1  0.91955274  0.04087687  0.73263516  1
  O2-  O273  1  0.91510867  0.53959574  0.07217190  1
  O2-  O274  1  0.91927101  0.54810837  0.39564961  1
  O2-  O275  1  0.91890894  0.53839963  0.73291527  1
  O2-  O276  1  0.28668883  0.15991375  0.06438640  1
  O2-  O277  1  0.28780479  0.16598215  0.39570040  1
  O2-  O278  1  0.28715775  0.16386085  0.73143435  1
  O2-  O279  1  0.29483593  0.66503869  0.06268917  1
  O2-  O280  1  0.28648896  0.66318959  0.40372990  1
  O2-  O281  1  0.29249567  0.66296119  0.73218472  1
  O2-  O282  1  0.79948101  0.17198985  0.07007854  1
  O2-  O283  1  0.80314545  0.16686781  0.39349371  1
  O2-  O284  1  0.79133232  0.16666096  0.73526594  1
  O2-  O285  1  0.79135737  0.66671930  0.06908103  1
  O2-  O286  1  0.80072643  0.66732248  0.39613531  1
  O2-  O287  1  0.78944910  0.66650086  0.73275346  1
