# generated using pymatgen
data_Ca2Al2SiO7
_symmetry_space_group_name_H-M   'P 1'
_cell_length_a   15.45740355
_cell_length_b   15.45738178
_cell_length_c   15.28352312
_cell_angle_alpha   90.00627083
_cell_angle_beta   89.99388268
_cell_angle_gamma   90.01789408
_symmetry_Int_Tables_number   1
_chemical_formula_structural   Ca2Al2SiO7
_chemical_formula_sum   'Ca48 Al48 Si24 O168'
_cell_volume   3651.70705921
_cell_formula_units_Z   24
loop_
 _symmetry_equiv_pos_site_id
 _symmetry_equiv_pos_as_xyz
  1  'x, y, z'
loop_
 _atom_type_symbol
 _atom_type_oxidation_number
  Ca2+  2.0
  Al0+  0.0
  Si0+  0.0
  O2-  -2.0
loop_
 _atom_site_type_symbol
 _atom_site_label
 _atom_site_symmetry_multiplicity
 _atom_site_fract_x
 _atom_site_fract_y
 _atom_site_fract_z
 _atom_site_occupancy
  Ca2+  Ca0  1  0.16604203  0.07691358  0.16761516  1
  Ca2+  Ca1  1  0.17637151  0.07421431  0.50927345  1
  Ca2+  Ca2  1  0.17061745  0.07237999  0.83488654  1
  Ca2+  Ca3  1  0.17944313  0.57690205  0.16661552  1
  Ca2+  Ca4  1  0.17284403  0.59050369  0.50199212  1
  Ca2+  Ca5  1  0.16983627  0.58041269  0.84147714  1
  Ca2+  Ca6  1  0.67347172  0.08394279  0.17078218  1
  Ca2+  Ca7  1  0.67086989  0.07046383  0.50598384  1
  Ca2+  Ca8  1  0.67351883  0.08337714  0.83549859  1
  Ca2+  Ca9  1  0.66951143  0.58288582  0.17141126  1
  Ca2+  Ca10  1  0.66767538  0.58327640  0.49986747  1
  Ca2+  Ca11  1  0.67051318  0.57034130  0.84082392  1
  Ca2+  Ca12  1  0.08327756  0.33333931  0.16087357  1
  Ca2+  Ca13  1  0.07457660  0.32989048  0.49793732  1
  Ca2+  Ca14  1  0.07521013  0.33726057  0.82636385  1
  Ca2+  Ca15  1  0.07660635  0.83539829  0.16297982  1
  Ca2+  Ca16  1  0.08047390  0.83168067  0.49823462  1
  Ca2+  Ca17  1  0.08845169  0.82926135  0.82659632  1
  Ca2+  Ca18  1  0.57635813  0.33312199  0.15698135  1
  Ca2+  Ca19  1  0.58072104  0.33246119  0.49537677  1
  Ca2+  Ca20  1  0.58819497  0.33159223  0.83372814  1
  Ca2+  Ca21  1  0.58409179  0.83052460  0.16879679  1
  Ca2+  Ca22  1  0.57871989  0.83623455  0.49098005  1
  Ca2+  Ca23  1  0.57819583  0.83282766  0.82476218  1
  Ca2+  Ca24  1  0.34050328  0.42121060  0.16970221  1
  Ca2+  Ca25  1  0.33917897  0.42282801  0.49898344  1
  Ca2+  Ca26  1  0.32757892  0.42375024  0.84692726  1
  Ca2+  Ca27  1  0.32777755  0.91083625  0.17033042  1
  Ca2+  Ca28  1  0.33545371  0.91699974  0.51149953  1
  Ca2+  Ca29  1  0.32652724  0.91494881  0.83191827  1
  Ca2+  Ca30  1  0.82760122  0.42888996  0.16808867  1
  Ca2+  Ca31  1  0.82761709  0.42041105  0.50748208  1
  Ca2+  Ca32  1  0.82500653  0.41607779  0.83861556  1
  Ca2+  Ca33  1  0.82885139  0.92623684  0.17868529  1
  Ca2+  Ca34  1  0.82516885  0.91993993  0.50193417  1
  Ca2+  Ca35  1  0.83030136  0.92619366  0.83704780  1
  Ca2+  Ca36  1  0.42547287  0.17807550  0.15668565  1
  Ca2+  Ca37  1  0.41642350  0.17001862  0.49314901  1
  Ca2+  Ca38  1  0.41957406  0.16989884  0.83138683  1
  Ca2+  Ca39  1  0.41785699  0.66416606  0.16852769  1
  Ca2+  Ca40  1  0.42301203  0.67859533  0.49017461  1
  Ca2+  Ca41  1  0.41426263  0.67011462  0.82820222  1
  Ca2+  Ca42  1  0.91327091  0.16290921  0.16093569  1
  Ca2+  Ca43  1  0.90683108  0.16685796  0.50053360  1
  Ca2+  Ca44  1  0.91054489  0.16935316  0.82775194  1
  Ca2+  Ca45  1  0.90556168  0.67232892  0.16449258  1
  Ca2+  Ca46  1  0.92154665  0.67101634  0.49120921  1
  Ca2+  Ca47  1  0.92548174  0.66164691  0.82672499  1
  Al0+  Al48  1  -0.00075332  -0.00019129  0.00528718  1
  Al0+  Al49  1  0.00111227  0.00028856  0.33458089  1
  Al0+  Al50  1  0.00161448  -0.00042124  0.67261333  1
  Al0+  Al51  1  0.00139193  0.50126091  0.00746899  1
  Al0+  Al52  1  0.00052159  0.49796928  0.33562930  1
  Al0+  Al53  1  0.00167484  0.49967419  0.65427565  1
  Al0+  Al54  1  0.49956479  0.00022403  -0.00604157  1
  Al0+  Al55  1  0.49905183  0.00111888  0.32948667  1
  Al0+  Al56  1  0.50049868  0.00202349  0.67087006  1
  Al0+  Al57  1  0.49990165  0.50148926  0.00106570  1
  Al0+  Al58  1  0.49839586  0.50099765  0.33174779  1
  Al0+  Al59  1  0.50086776  0.49998695  0.67046783  1
  Al0+  Al60  1  0.24877475  0.24769997  -0.00249417  1
  Al0+  Al61  1  0.24755991  0.24931496  0.32921675  1
  Al0+  Al62  1  0.24932166  0.25087137  0.66860180  1
  Al0+  Al63  1  0.24765038  0.74956057  0.00810806  1
  Al0+  Al64  1  0.24904003  0.74717664  0.33311192  1
  Al0+  Al65  1  0.25160812  0.74974072  0.66125710  1
  Al0+  Al66  1  0.74994964  0.24999073  0.00455846  1
  Al0+  Al67  1  0.75129621  0.25137283  0.33470738  1
  Al0+  Al68  1  0.74849764  0.25163258  0.66719961  1
  Al0+  Al69  1  0.74863857  0.75274923  -0.00275955  1
  Al0+  Al70  1  0.75057996  0.75001164  0.33362423  1
  Al0+  Al71  1  0.75165508  0.74867235  0.67070060  1
  Al0+  Al72  1  0.32055358  0.56940698  0.35009873  1
  Al0+  Al73  1  0.82310913  0.07267326  0.35014497  1
  Al0+  Al74  1  0.42691104  0.82367060  0.31697088  1
  Al0+  Al75  1  0.67793562  0.92578537  0.68289618  1
  Al0+  Al76  1  0.57167784  0.67999204  0.31826980  1
  Al0+  Al77  1  0.42877538  0.31976897  0.32058754  1
  Al0+  Al78  1  0.67721497  0.92974740  0.34674480  1
  Al0+  Al79  1  0.67929917  0.42906503  0.01648898  1
  Al0+  Al80  1  0.82182859  0.57148436  0.34869336  1
  Al0+  Al81  1  0.18015530  0.92967220  0.01545659  1
  Al0+  Al82  1  0.82183055  0.57341816  0.01302643  1
  Al0+  Al83  1  0.43265228  0.82080462  0.65467066  1
  Al0+  Al84  1  0.81888839  0.06940162  0.01453363  1
  Al0+  Al85  1  0.67889502  0.43082151  0.67991786  1
  Al0+  Al86  1  0.82016367  0.07082956  0.68216903  1
  Al0+  Al87  1  0.32300950  0.07471398  0.68206586  1
  Al0+  Al88  1  0.17824128  0.42563440  0.01354486  1
  Al0+  Al89  1  0.93134919  0.82021790  0.32036053  1
  Al0+  Al90  1  0.42835983  0.32312314  0.98232348  1
  Al0+  Al91  1  0.32157890  0.57107950  0.01490610  1
  Al0+  Al92  1  0.57298983  0.17938784  0.98260675  1
  Al0+  Al93  1  0.18093646  0.92659915  0.68041927  1
  Al0+  Al94  1  0.07144352  0.67946668  0.65239191  1
  Al0+  Al95  1  0.92791228  0.31880741  0.65276874  1
  Si0+  Si96  1  0.07335085  0.17686679  0.65073396  1
  Si0+  Si97  1  0.31918039  0.07162784  0.34436002  1
  Si0+  Si98  1  0.42682539  0.32281856  0.65203056  1
  Si0+  Si99  1  0.67776460  0.42936008  0.34998908  1
  Si0+  Si100  1  0.67472004  0.92738453  0.01656184  1
  Si0+  Si101  1  0.92775459  0.32174526  0.31620746  1
  Si0+  Si102  1  0.17751256  0.42948158  0.67865743  1
  Si0+  Si103  1  0.07032556  0.17537820  0.98394116  1
  Si0+  Si104  1  0.06972975  0.17964951  0.31750995  1
  Si0+  Si105  1  0.06951208  0.68096902  0.98734393  1
  Si0+  Si106  1  0.17958338  0.92837202  0.34835532  1
  Si0+  Si107  1  0.57311437  0.67565463  0.65222008  1
  Si0+  Si108  1  0.57231072  0.68003465  0.98298477  1
  Si0+  Si109  1  0.42586851  0.81922084  0.98455279  1
  Si0+  Si110  1  0.32007252  0.56948733  0.67987290  1
  Si0+  Si111  1  0.92723406  0.82365004  0.65159453  1
  Si0+  Si112  1  0.93194078  0.32149996  0.98757204  1
  Si0+  Si113  1  0.57336131  0.17853132  0.31756892  1
  Si0+  Si114  1  0.17828981  0.42492758  0.35287536  1
  Si0+  Si115  1  0.07223977  0.67518202  0.31291681  1
  Si0+  Si116  1  0.57025189  0.18111439  0.65065774  1
  Si0+  Si117  1  0.32330800  0.07137220  0.01731861  1
  Si0+  Si118  1  0.82580142  0.57073834  0.68090280  1
  Si0+  Si119  1  0.92838846  0.82301053  0.98439222  1
  O2-  O120  1  0.25577057  0.00261596  0.06344607  1
  O2-  O121  1  0.25668783  -0.00619442  0.38848860  1
  O2-  O122  1  0.25161353  0.00047420  0.72969541  1
  O2-  O123  1  0.25689915  0.49059158  0.06262358  1
  O2-  O124  1  0.24512287  0.49498419  0.39753665  1
  O2-  O125  1  0.24949734  0.49824014  0.72199121  1
  O2-  O126  1  0.74249451  -0.00335987  0.06027755  1
  O2-  O127  1  0.74914628  0.00178827  0.39720235  1
  O2-  O128  1  0.75145495  -0.00363134  0.73289564  1
  O2-  O129  1  0.74797494  0.50479880  0.06489960  1
  O2-  O130  1  0.74722844  0.49664969  0.39523025  1
  O2-  O131  1  0.75436734  0.50577169  0.72526260  1
  O2-  O132  1  -0.00316969  0.24850632  0.27470440  1
  O2-  O133  1  0.00068088  0.24122503  0.60581067  1
  O2-  O134  1  0.00345782  0.25129295  0.94358021  1
  O2-  O135  1  0.00207615  0.74279525  0.26953857  1
  O2-  O136  1  -0.00482723  0.75361279  0.60784497  1
  O2-  O137  1  -0.00397162  0.74828545  0.94292135  1
  O2-  O138  1  0.50528814  0.24770263  0.27384272  1
  O2-  O139  1  0.49550869  0.24968282  0.60943436  1
  O2-  O140  1  0.50078542  0.25170961  0.93160106  1
  O2-  O141  1  0.49994072  0.75258240  0.26738070  1
  O2-  O142  1  0.51175291  0.75070928  0.60836152  1
  O2-  O143  1  0.49882664  0.74990220  0.94229880  1
  O2-  O144  1  0.06781741  0.17325238  0.08945632  1
  O2-  O145  1  0.07369522  0.18151245  0.42231026  1
  O2-  O146  1  0.07545480  0.18089726  0.75620724  1
  O2-  O147  1  0.07031709  0.68335473  0.09200270  1
  O2-  O148  1  0.07269512  0.67773425  0.41884069  1
  O2-  O149  1  0.07123142  0.67680284  0.76615326  1
  O2-  O150  1  0.57106231  0.17918738  0.09654358  1
  O2-  O151  1  0.57142022  0.17886681  0.42352166  1
  O2-  O152  1  0.57221716  0.18351139  0.75534337  1
  O2-  O153  1  0.57578055  0.68210366  0.08759049  1
  O2-  O154  1  0.56915600  0.67885440  0.43232754  1
  O2-  O155  1  0.56798271  0.67236136  0.75793231  1
  O2-  O156  1  0.17835126  0.42325914  0.24753239  1
  O2-  O157  1  0.17876866  0.42830092  0.57369098  1
  O2-  O158  1  0.17312707  0.43223144  0.89945665  1
  O2-  O159  1  0.17723345  0.93197591  0.24307541  1
  O2-  O160  1  0.18259380  0.92776493  0.56642532  1
  O2-  O161  1  0.18122628  0.92833266  0.90269726  1
  O2-  O162  1  0.67986986  0.42833397  0.24475200  1
  O2-  O163  1  0.67754554  0.43152098  0.56667555  1
  O2-  O164  1  0.68308837  0.42936864  0.90258495  1
  O2-  O165  1  0.67862767  0.93262702  0.23288625  1
  O2-  O166  1  0.67699845  0.92720500  0.56956915  1
  O2-  O167  1  0.67734015  0.92532877  0.91102537  1
  O2-  O168  1  0.42940770  0.31981371  0.09613118  1
  O2-  O169  1  0.42906896  0.31697884  0.43459300  1
  O2-  O170  1  0.42601879  0.32471097  0.75642805  1
  O2-  O171  1  0.42576318  0.81910524  0.08936578  1
  O2-  O172  1  0.42648502  0.82366212  0.43067914  1
  O2-  O173  1  0.42884021  0.81478973  0.76823110  1
  O2-  O174  1  0.93407908  0.32043191  0.09284402  1
  O2-  O175  1  0.92876841  0.32213237  0.42136423  1
  O2-  O176  1  0.93080134  0.32156097  0.76623450  1
  O2-  O177  1  0.92987943  0.82392305  0.08950582  1
  O2-  O178  1  0.93588868  0.82062662  0.43349569  1
  O2-  O179  1  0.92800365  0.82210521  0.75752364  1
  O2-  O180  1  0.31378560  0.07385993  0.23956367  1
  O2-  O181  1  0.32094081  0.07639152  0.56755538  1
  O2-  O182  1  0.32107925  0.07026072  0.91187502  1
  O2-  O183  1  0.31916150  0.56761619  0.23749928  1
  O2-  O184  1  0.32068449  0.56754426  0.57492107  1
  O2-  O185  1  0.31565436  0.57528201  0.90048163  1
  O2-  O186  1  0.82333610  0.07181685  0.23646344  1
  O2-  O187  1  0.81655345  0.07048963  0.56892049  1
  O2-  O188  1  0.82142709  0.06840839  0.90176880  1
  O2-  O189  1  0.82147224  0.56893415  0.23585066  1
  O2-  O190  1  0.82550152  0.56926646  0.57535028  1
  O2-  O191  1  0.82425642  0.56986308  0.89908233  1
  O2-  O192  1  0.04413849  0.08738215  0.26983620  1
  O2-  O193  1  0.05320887  0.08090953  0.60703548  1
  O2-  O194  1  0.03717593  0.08543960  0.93601069  1
  O2-  O195  1  0.04955404  0.57923273  0.27087221  1
  O2-  O196  1  0.04388472  0.58474127  0.59262090  1
  O2-  O197  1  0.04405996  0.58760608  0.94073947  1
  O2-  O198  1  0.54739568  0.08653521  0.26923589  1
  O2-  O199  1  0.54410729  0.08857661  0.60416151  1
  O2-  O200  1  0.54505682  0.08044096  0.92877507  1
  O2-  O201  1  0.54062315  0.58239697  0.26506658  1
  O2-  O202  1  0.54102799  0.58463649  0.60399983  1
  O2-  O203  1  0.54578710  0.58780873  0.93599250  1
  O2-  O204  1  0.15920184  0.20949100  0.26583937  1
  O2-  O205  1  0.16502040  0.20767000  0.60191742  1
  O2-  O206  1  0.16376339  0.19585641  0.93703878  1
  O2-  O207  1  0.16508450  0.70257845  0.26724644  1
  O2-  O208  1  0.16625514  0.71194287  0.59561458  1
  O2-  O209  1  0.16052460  0.71209060  0.93952474  1
  O2-  O210  1  0.66768358  0.20423435  0.27268767  1
  O2-  O211  1  0.65945578  0.21342576  0.60123645  1
  O2-  O212  1  0.67218028  0.20988301  0.93124899  1
  O2-  O213  1  0.67025175  0.70614166  0.26480166  1
  O2-  O214  1  0.67081089  0.69239041  0.61117227  1
  O2-  O215  1  0.66275592  0.70911789  0.93219469  1
  O2-  O216  1  0.08455234  0.46009740  0.07206178  1
  O2-  O217  1  0.08383235  0.44869564  0.39805266  1
  O2-  O218  1  0.08568143  0.45976154  0.72421239  1
  O2-  O219  1  0.08513978  0.96363013  0.07058853  1
  O2-  O220  1  0.09138641  0.96314517  0.39761557  1
  O2-  O221  1  0.08285389  0.95189672  0.73525695  1
  O2-  O222  1  0.57997325  0.45547571  0.06649265  1
  O2-  O223  1  0.58427658  0.45497250  0.39567304  1
  O2-  O224  1  0.58329537  0.46118636  0.73679087  1
  O2-  O225  1  0.57947087  0.95049650  0.05973795  1
  O2-  O226  1  0.57773497  0.95890323  0.39871500  1
  O2-  O227  1  0.58095067  0.95639897  0.73646310  1
  O2-  O228  1  0.19604945  0.32335720  0.06275663  1
  O2-  O229  1  0.20521784  0.33128555  0.39882012  1
  O2-  O230  1  0.20102214  0.33744695  0.72705579  1
  O2-  O231  1  0.20865471  0.83462085  0.07257175  1
  O2-  O232  1  0.19952259  0.83379073  0.39236017  1
  O2-  O233  1  0.21299917  0.82884280  0.73345750  1
  O2-  O234  1  0.71012126  0.33289713  0.07097632  1
  O2-  O235  1  0.70372213  0.33562702  0.39624797  1
  O2-  O236  1  0.71103627  0.33563589  0.73426103  1
  O2-  O237  1  0.70137259  0.83421836  0.06198570  1
  O2-  O238  1  0.70516469  0.83158023  0.39895166  1
  O2-  O239  1  0.70285748  0.82599528  0.73638093  1
  O2-  O240  1  0.45764933  0.41637436  0.26766640  1
  O2-  O241  1  0.45852466  0.41406864  0.60472619  1
  O2-  O242  1  0.45333335  0.42380418  0.93171913  1
  O2-  O243  1  0.45082005  0.92304719  0.26291397  1
  O2-  O244  1  0.45642255  0.92080694  0.60383142  1
  O2-  O245  1  0.45025484  0.91179010  0.93692200  1
  O2-  O246  1  0.95902575  0.41254953  0.26873775  1
  O2-  O247  1  0.96250677  0.41193641  0.59371657  1
  O2-  O248  1  0.96022709  0.41393123  0.94097866  1
  O2-  O249  1  0.96602014  0.91634598  0.26601422  1
  O2-  O250  1  0.95453041  0.91719417  0.60636661  1
  O2-  O251  1  0.96207852  0.91304901  0.93728942  1
  O2-  O252  1  0.33230231  0.28830495  0.26652964  1
  O2-  O253  1  0.33390021  0.29799624  0.60437439  1
  O2-  O254  1  0.32801358  0.29444622  0.93136370  1
  O2-  O255  1  0.32798962  0.79215811  0.26589456  1
  O2-  O256  1  0.33844758  0.78662978  0.59823397  1
  O2-  O257  1  0.33381276  0.78790239  0.93920293  1
  O2-  O258  1  0.83529482  0.29685769  0.26883052  1
  O2-  O259  1  0.83119211  0.29019724  0.59748011  1
  O2-  O260  1  0.84004926  0.29274744  0.94180600  1
  O2-  O261  1  0.83428783  0.79273433  0.26633512  1
  O2-  O262  1  0.83306408  0.79859584  0.60603438  1
  O2-  O263  1  0.83527707  0.80072659  0.93678295  1
  O2-  O264  1  0.41783046  0.04655998  0.06112923  1
  O2-  O265  1  0.41383253  0.05333438  0.38924371  1
  O2-  O266  1  0.42055826  0.04933932  0.73598008  1
  O2-  O267  1  0.42177021  0.55130968  0.06598855  1
  O2-  O268  1  0.41673021  0.53767774  0.40440191  1
  O2-  O269  1  0.41109400  0.54260475  0.72892547  1
  O2-  O270  1  0.91437516  0.03716578  0.06972448  1
  O2-  O271  1  0.92198153  0.04399308  0.40204082  1
  O2-  O272  1  0.92086133  0.04923693  0.73361048  1
  O2-  O273  1  0.91820691  0.54501983  0.06925687  1
  O2-  O274  1  0.91916508  0.53986093  0.40158764  1
  O2-  O275  1  0.91955880  0.54070664  0.72423711  1
  O2-  O276  1  0.29599732  0.16458300  0.06270375  1
  O2-  O277  1  0.28406206  0.16043526  0.39386289  1
  O2-  O278  1  0.29200728  0.17218718  0.73624885  1
  O2-  O279  1  0.28463697  0.66445844  0.07160899  1
  O2-  O280  1  0.28780512  0.66625250  0.40369779  1
  O2-  O281  1  0.29070184  0.66076149  0.72589369  1
  O2-  O282  1  0.79203256  0.16623980  0.06920630  1
  O2-  O283  1  0.79729313  0.17301841  0.40033593  1
  O2-  O284  1  0.78854569  0.16886321  0.73373531  1
  O2-  O285  1  0.79439931  0.67370559  0.06222762  1
  O2-  O286  1  0.79347787  0.66806648  0.40275787  1
  O2-  O287  1  0.80752671  0.66556660  0.72700284  1
