# generated using pymatgen
data_Ca2Al2SiO7
_symmetry_space_group_name_H-M   'P 1'
_cell_length_a   15.45397832
_cell_length_b   15.45431030
_cell_length_c   15.28064930
_cell_angle_alpha   90.00168132
_cell_angle_beta   90.00206442
_cell_angle_gamma   90.00059539
_symmetry_Int_Tables_number   1
_chemical_formula_structural   Ca2Al2SiO7
_chemical_formula_sum   'Ca48 Al48 Si24 O168'
_cell_volume   3649.48627685
_cell_formula_units_Z   24
loop_
 _symmetry_equiv_pos_site_id
 _symmetry_equiv_pos_as_xyz
  1  'x, y, z'
loop_
 _atom_type_symbol
 _atom_type_oxidation_number
  Ca2+  2.0
  Al0+  0.0
  Si0+  0.0
  O2-  -2.0
loop_
 _atom_site_type_symbol
 _atom_site_label
 _atom_site_symmetry_multiplicity
 _atom_site_fract_x
 _atom_site_fract_y
 _atom_site_fract_z
 _atom_site_occupancy
  Ca2+  Ca0  1  0.16179980  0.07846049  0.16506988  1
  Ca2+  Ca1  1  0.16956704  0.07582064  0.50755379  1
  Ca2+  Ca2  1  0.15933173  0.07110078  0.83855373  1
  Ca2+  Ca3  1  0.17447350  0.58800751  0.17531954  1
  Ca2+  Ca4  1  0.16559186  0.57745212  0.49981363  1
  Ca2+  Ca5  1  0.17163218  0.57871356  0.83946908  1
  Ca2+  Ca6  1  0.67787185  0.07776391  0.17681302  1
  Ca2+  Ca7  1  0.67512319  0.08276186  0.50375924  1
  Ca2+  Ca8  1  0.67754581  0.08939928  0.83451263  1
  Ca2+  Ca9  1  0.66402164  0.58217370  0.17466063  1
  Ca2+  Ca10  1  0.65929162  0.57374206  0.50082953  1
  Ca2+  Ca11  1  0.66262698  0.57870574  0.83608883  1
  Ca2+  Ca12  1  0.07920856  0.33038664  0.16448777  1
  Ca2+  Ca13  1  0.07359754  0.34297377  0.49428268  1
  Ca2+  Ca14  1  0.08066116  0.32570067  0.82438406  1
  Ca2+  Ca15  1  0.08919551  0.82261748  0.16221761  1
  Ca2+  Ca16  1  0.08019274  0.83171418  0.49777951  1
  Ca2+  Ca17  1  0.08618242  0.83159074  0.82850289  1
  Ca2+  Ca18  1  0.58384352  0.33758648  0.16608984  1
  Ca2+  Ca19  1  0.58792474  0.33228758  0.50083729  1
  Ca2+  Ca20  1  0.57794605  0.32937465  0.82016659  1
  Ca2+  Ca21  1  0.58326568  0.82560872  0.16638220  1
  Ca2+  Ca22  1  0.57313020  0.83158006  0.48805856  1
  Ca2+  Ca23  1  0.57745840  0.82612420  0.82537422  1
  Ca2+  Ca24  1  0.32624032  0.43075624  0.17645432  1
  Ca2+  Ca25  1  0.32436073  0.42176147  0.50645251  1
  Ca2+  Ca26  1  0.33055452  0.41800361  0.83629937  1
  Ca2+  Ca27  1  0.32919393  0.91109120  0.16922412  1
  Ca2+  Ca28  1  0.33104218  0.90900469  0.50639244  1
  Ca2+  Ca29  1  0.32352762  0.90917557  0.83350483  1
  Ca2+  Ca30  1  0.82829189  0.41613518  0.17678244  1
  Ca2+  Ca31  1  0.82669543  0.41062559  0.50487409  1
  Ca2+  Ca32  1  0.82850021  0.41070100  0.82907827  1
  Ca2+  Ca33  1  0.83070260  0.92812427  0.17467710  1
  Ca2+  Ca34  1  0.83265376  0.92525617  0.50718554  1
  Ca2+  Ca35  1  0.84161142  0.92814738  0.83665605  1
  Ca2+  Ca36  1  0.41823103  0.17045423  0.16346435  1
  Ca2+  Ca37  1  0.42160432  0.17174716  0.49975023  1
  Ca2+  Ca38  1  0.42580271  0.17254985  0.82049213  1
  Ca2+  Ca39  1  0.42239265  0.66254060  0.16621469  1
  Ca2+  Ca40  1  0.41685581  0.67560227  0.49110334  1
  Ca2+  Ca41  1  0.41764045  0.66677232  0.83254785  1
  Ca2+  Ca42  1  0.91487397  0.16826405  0.16516597  1
  Ca2+  Ca43  1  0.90796581  0.17467242  0.49853380  1
  Ca2+  Ca44  1  0.91759530  0.16582713  0.82828103  1
  Ca2+  Ca45  1  0.93163754  0.66361742  0.16252791  1
  Ca2+  Ca46  1  0.92202733  0.67198169  0.49495606  1
  Ca2+  Ca47  1  0.92439354  0.67529226  0.82695075  1
  Al0+  Al48  1  -0.00021647  0.00183867  0.00804252  1
  Al0+  Al49  1  0.00104051  0.00262460  0.33779415  1
  Al0+  Al50  1  0.00080090  -0.00139424  0.67004552  1
  Al0+  Al51  1  -0.00252908  0.49968443  -0.00660943  1
  Al0+  Al52  1  -0.00125221  0.49987810  0.32598691  1
  Al0+  Al53  1  0.00076656  0.49907428  0.66956979  1
  Al0+  Al54  1  0.49959300  0.00021072  -0.00176247  1
  Al0+  Al55  1  0.49945543  0.00092439  0.32986698  1
  Al0+  Al56  1  0.50162663  -0.00096517  0.65935802  1
  Al0+  Al57  1  0.49856194  0.50077551  -0.00048227  1
  Al0+  Al58  1  0.49858414  0.50100615  0.33893599  1
  Al0+  Al59  1  0.49961075  0.49913600  0.66811847  1
  Al0+  Al60  1  0.24769683  0.24863718  -0.00462367  1
  Al0+  Al61  1  0.24859153  0.24913020  0.33536488  1
  Al0+  Al62  1  0.25128541  0.24948795  0.66724774  1
  Al0+  Al63  1  0.25037362  0.74873365  0.00346291  1
  Al0+  Al64  1  0.25018845  0.75112414  0.33067078  1
  Al0+  Al65  1  0.25160102  0.74806022  0.66742740  1
  Al0+  Al66  1  0.74895866  0.24993653  0.00494056  1
  Al0+  Al67  1  0.75076170  0.25076311  0.33432879  1
  Al0+  Al68  1  0.75115843  0.24976133  0.66906250  1
  Al0+  Al69  1  0.74908197  0.74861582  -0.00508830  1
  Al0+  Al70  1  0.74907275  0.75158121  0.33286301  1
  Al0+  Al71  1  0.75208504  0.75002709  0.66258687  1
  Al0+  Al72  1  0.17732654  0.42756596  0.68204553  1
  Al0+  Al73  1  0.93020459  0.82269519  0.65355433  1
  Al0+  Al74  1  0.42706294  0.32279984  0.65010339  1
  Al0+  Al75  1  0.17682810  0.42808488  0.34670559  1
  Al0+  Al76  1  0.67759812  0.92765796  0.34842232  1
  Al0+  Al77  1  0.57304037  0.17966405  0.65048103  1
  Al0+  Al78  1  0.18076515  0.92984527  0.01505070  1
  Al0+  Al79  1  0.31983692  0.57284353  0.35078299  1
  Al0+  Al80  1  0.57112491  0.67822138  0.98430891  1
  Al0+  Al81  1  0.18130589  0.92915409  0.67969037  1
  Al0+  Al82  1  0.42829256  0.82296076  0.31493993  1
  Al0+  Al83  1  0.92885079  0.31931171  0.31912669  1
  Al0+  Al84  1  0.06916218  0.17908234  0.98593907  1
  Al0+  Al85  1  0.57124372  0.67739005  0.31889491  1
  Al0+  Al86  1  0.68035023  0.43110151  0.68136870  1
  Al0+  Al87  1  0.93165375  0.31989679  0.65382262  1
  Al0+  Al88  1  0.81921057  0.07060635  0.01617189  1
  Al0+  Al89  1  0.07318125  0.67866070  0.98456990  1
  Al0+  Al90  1  0.06844055  0.68075066  0.32053911  1
  Al0+  Al91  1  0.82181169  0.07069696  0.35151572  1
  Al0+  Al92  1  0.81891696  0.06920112  0.68232016  1
  Al0+  Al93  1  0.67949744  0.43090380  0.34675546  1
  Al0+  Al94  1  0.31954777  0.56810790  0.01468514  1
  Al0+  Al95  1  0.42967029  0.81831529  0.65403372  1
  Si0+  Si96  1  0.92467281  0.32140981  0.98166637  1
  Si0+  Si97  1  0.92769768  0.82570609  0.31712980  1
  Si0+  Si98  1  0.32401318  0.07418452  0.01523841  1
  Si0+  Si99  1  0.32232237  0.07305920  0.34775037  1
  Si0+  Si100  1  0.42832029  0.82293889  0.98220932  1
  Si0+  Si101  1  0.57068905  0.18122437  0.31666437  1
  Si0+  Si102  1  0.67547561  0.92571562  0.01475374  1
  Si0+  Si103  1  0.57387769  0.67689740  0.64969075  1
  Si0+  Si104  1  0.07467933  0.17623323  0.31671371  1
  Si0+  Si105  1  0.42659650  0.32072173  0.31853275  1
  Si0+  Si106  1  0.32097641  0.57081042  0.68488038  1
  Si0+  Si107  1  0.17502742  0.42566507  0.01558153  1
  Si0+  Si108  1  0.18086836  0.92980553  0.34831040  1
  Si0+  Si109  1  0.32496376  0.07181386  0.68244292  1
  Si0+  Si110  1  0.67650718  0.92559146  0.68348441  1
  Si0+  Si111  1  0.82178047  0.57301736  0.01369643  1
  Si0+  Si112  1  0.42957860  0.32070373  0.98710369  1
  Si0+  Si113  1  0.57133280  0.17920369  0.98702626  1
  Si0+  Si114  1  0.67992948  0.43110780  0.01446531  1
  Si0+  Si115  1  0.92914533  0.82181717  0.98589617  1
  Si0+  Si116  1  0.82391470  0.57348660  0.34772415  1
  Si0+  Si117  1  0.07257094  0.17624383  0.65037262  1
  Si0+  Si118  1  0.82356672  0.57473514  0.68418518  1
  Si0+  Si119  1  0.07233563  0.67795355  0.65075802  1
  O2-  O120  1  0.25708155  0.00438219  0.06047879  1
  O2-  O121  1  0.25291083  0.00026826  0.38931328  1
  O2-  O122  1  0.25604061  0.00378684  0.72736432  1
  O2-  O123  1  0.24090155  0.49647417  0.06028625  1
  O2-  O124  1  0.24839022  0.49924567  0.39851663  1
  O2-  O125  1  0.25449552  0.49963160  0.72899520  1
  O2-  O126  1  0.74394452  -0.00537976  0.05916881  1
  O2-  O127  1  0.75211679  -0.00411682  0.39993730  1
  O2-  O128  1  0.74514296  -0.00675893  0.73005013  1
  O2-  O129  1  0.75143787  0.50131708  0.05638800  1
  O2-  O130  1  0.75204639  0.50834724  0.39222678  1
  O2-  O131  1  0.75258919  0.50798488  0.72899857  1
  O2-  O132  1  0.00541515  0.24553688  0.27430542  1
  O2-  O133  1  0.00865783  0.24851982  0.60534491  1
  O2-  O134  1  -0.00367563  0.25523646  0.93893507  1
  O2-  O135  1  -0.00645483  0.75500014  0.27188485  1
  O2-  O136  1  0.00304750  0.74626107  0.60712654  1
  O2-  O137  1  -0.00195010  0.75397405  0.93990152  1
  O2-  O138  1  0.49935201  0.25220429  0.27369306  1
  O2-  O139  1  0.49985414  0.25112507  0.60061158  1
  O2-  O140  1  0.49741295  0.24671653  0.94500216  1
  O2-  O141  1  0.50103162  0.75047253  0.26703030  1
  O2-  O142  1  0.50757343  0.74802328  0.60680589  1
  O2-  O143  1  0.49905284  0.75587781  0.93866051  1
  O2-  O144  1  0.06925591  0.18090501  0.09904237  1
  O2-  O145  1  0.07815540  0.17280374  0.42181595  1
  O2-  O146  1  0.06923233  0.17554437  0.75636041  1
  O2-  O147  1  0.07202738  0.67929699  0.09768325  1
  O2-  O148  1  0.06703015  0.68261537  0.43377551  1
  O2-  O149  1  0.07230689  0.67956418  0.75674222  1
  O2-  O150  1  0.57139392  0.18117412  0.09226597  1
  O2-  O151  1  0.56972612  0.18165407  0.42123195  1
  O2-  O152  1  0.57164694  0.18194384  0.76533304  1
  O2-  O153  1  0.57129003  0.67562078  0.09661471  1
  O2-  O154  1  0.56827071  0.67695839  0.43232136  1
  O2-  O155  1  0.57236731  0.67747841  0.75596475  1
  O2-  O156  1  0.17997366  0.42648831  0.23269150  1
  O2-  O157  1  0.17490490  0.43209912  0.56939093  1
  O2-  O158  1  0.17868902  0.42519798  0.90983809  1
  O2-  O159  1  0.18017717  0.93105640  0.24309815  1
  O2-  O160  1  0.18225966  0.92964720  0.56634060  1
  O2-  O161  1  0.18130219  0.93017908  0.90186532  1
  O2-  O162  1  0.68088919  0.42965521  0.23267372  1
  O2-  O163  1  0.68218451  0.43164206  0.56865955  1
  O2-  O164  1  0.68018652  0.42972416  0.90946343  1
  O2-  O165  1  0.67900986  0.93142364  0.23394918  1
  O2-  O166  1  0.67779195  0.92661044  0.57837214  1
  O2-  O167  1  0.67417095  0.92721122  0.90912484  1
  O2-  O168  1  0.43173156  0.32038828  0.09253830  1
  O2-  O169  1  0.42521365  0.31679248  0.42291000  1
  O2-  O170  1  0.42933917  0.32105087  0.76493641  1
  O2-  O171  1  0.42960726  0.82475308  0.08726531  1
  O2-  O172  1  0.42728790  0.82220759  0.42861976  1
  O2-  O173  1  0.42867329  0.81522649  0.76754800  1
  O2-  O174  1  0.92241727  0.32157747  0.08722221  1
  O2-  O175  1  0.92812325  0.31899874  0.43199060  1
  O2-  O176  1  0.93131320  0.31701573  0.76725543  1
  O2-  O177  1  0.92874419  0.81861343  0.09148924  1
  O2-  O178  1  0.93155652  0.82578002  0.42282224  1
  O2-  O179  1  0.93269236  0.82233974  0.76710074  1
  O2-  O180  1  0.32118214  0.07602341  0.24239125  1
  O2-  O181  1  0.32296368  0.07154505  0.57656429  1
  O2-  O182  1  0.32628409  0.07523067  0.91014629  1
  O2-  O183  1  0.31962913  0.57036615  0.23673431  1
  O2-  O184  1  0.31882248  0.57301804  0.57982896  1
  O2-  O185  1  0.32105579  0.56466939  0.90143094  1
  O2-  O186  1  0.81994142  0.07073399  0.23737208  1
  O2-  O187  1  0.81851702  0.06897250  0.56993488  1
  O2-  O188  1  0.81823513  0.07216009  0.90305262  1
  O2-  O189  1  0.82496711  0.56990464  0.24147473  1
  O2-  O190  1  0.82528354  0.57505753  0.57884549  1
  O2-  O191  1  0.82136736  0.57344539  0.90879628  1
  O2-  O192  1  0.04701097  0.08315301  0.26951719  1
  O2-  O193  1  0.04440819  0.08367129  0.60448165  1
  O2-  O194  1  0.03625998  0.08179396  0.93436530  1
  O2-  O195  1  0.03882917  0.58577144  0.26223934  1
  O2-  O196  1  0.04532856  0.58460213  0.60618599  1
  O2-  O197  1  0.04191498  0.58223434  0.92988263  1
  O2-  O198  1  0.54176421  0.09069772  0.26725684  1
  O2-  O199  1  0.54686846  0.08140775  0.59672035  1
  O2-  O200  1  0.54816115  0.08649782  0.93909265  1
  O2-  O201  1  0.54119341  0.57811137  0.26633842  1
  O2-  O202  1  0.54595196  0.58360024  0.60589687  1
  O2-  O203  1  0.53633634  0.58241394  0.92973895  1
  O2-  O204  1  0.16781415  0.20131434  0.26817357  1
  O2-  O205  1  0.16874827  0.19533376  0.60798038  1
  O2-  O206  1  0.16666012  0.20469375  0.92968045  1
  O2-  O207  1  0.16373375  0.71425276  0.26594747  1
  O2-  O208  1  0.16523543  0.70448470  0.60512535  1
  O2-  O209  1  0.16981808  0.70996358  0.93152453  1
  O2-  O210  1  0.66152481  0.21121649  0.26858411  1
  O2-  O211  1  0.66984913  0.21201152  0.59841448  1
  O2-  O212  1  0.66187755  0.21140019  0.93970234  1
  O2-  O213  1  0.67157540  0.70263812  0.26588780  1
  O2-  O214  1  0.66893561  0.69657789  0.60512821  1
  O2-  O215  1  0.66830737  0.70476465  0.92817597  1
  O2-  O216  1  0.07829656  0.44774555  0.05631498  1
  O2-  O217  1  0.07784200  0.45917055  0.39641139  1
  O2-  O218  1  0.08201163  0.45892865  0.73882454  1
  O2-  O219  1  0.08610956  0.96209565  0.07165901  1
  O2-  O220  1  0.08978809  0.95814751  0.39679225  1
  O2-  O221  1  0.08605455  0.96005165  0.73603386  1
  O2-  O222  1  0.58790964  0.45892486  0.06112002  1
  O2-  O223  1  0.58262780  0.45679288  0.40186697  1
  O2-  O224  1  0.58264831  0.45914771  0.73626898  1
  O2-  O225  1  0.58163772  0.95134869  0.06068171  1
  O2-  O226  1  0.57892628  0.95984838  0.39839611  1
  O2-  O227  1  0.58194872  0.95091398  0.72835856  1
  O2-  O228  1  0.20202270  0.33181563  0.06042953  1
  O2-  O229  1  0.20291124  0.32891889  0.39941069  1
  O2-  O230  1  0.20647029  0.32931011  0.73491872  1
  O2-  O231  1  0.21196389  0.83392875  0.06962040  1
  O2-  O232  1  0.20804001  0.83859499  0.39595354  1
  O2-  O233  1  0.21290064  0.83234431  0.73384526  1
  O2-  O234  1  0.70621951  0.33955018  0.06369029  1
  O2-  O235  1  0.71269214  0.33537371  0.39997486  1
  O2-  O236  1  0.71372392  0.33586519  0.73695803  1
  O2-  O237  1  0.70142837  0.83126727  0.05900413  1
  O2-  O238  1  0.69947352  0.82739587  0.40017381  1
  O2-  O239  1  0.70112302  0.83055171  0.72779978  1
  O2-  O240  1  0.45443286  0.41317182  0.27294515  1
  O2-  O241  1  0.45483340  0.42170931  0.59933746  1
  O2-  O242  1  0.46114104  0.41008071  0.93802931  1
  O2-  O243  1  0.45409491  0.92258971  0.26158407  1
  O2-  O244  1  0.45367509  0.91596130  0.59947067  1
  O2-  O245  1  0.45021030  0.91782110  0.93555102  1
  O2-  O246  1  0.95673721  0.41509152  0.26142980  1
  O2-  O247  1  0.95813521  0.41861271  0.60174900  1
  O2-  O248  1  0.94460154  0.41601283  0.93534581  1
  O2-  O249  1  0.95702506  0.91898423  0.27198275  1
  O2-  O250  1  0.96451693  0.91733863  0.59860047  1
  O2-  O251  1  0.95600169  0.91628600  0.94323645  1
  O2-  O252  1  0.33626230  0.28959179  0.26925139  1
  O2-  O253  1  0.32867845  0.29371299  0.59749459  1
  O2-  O254  1  0.33685642  0.29657315  0.94004780  1
  O2-  O255  1  0.33005192  0.79417534  0.26242178  1
  O2-  O256  1  0.33408865  0.78506086  0.59908709  1
  O2-  O257  1  0.33548640  0.79296518  0.93767664  1
  O2-  O258  1  0.83301870  0.28668557  0.26303546  1
  O2-  O259  1  0.83563475  0.28704391  0.60134625  1
  O2-  O260  1  0.83131514  0.29135122  0.93671699  1
  O2-  O261  1  0.83266203  0.80520010  0.27272671  1
  O2-  O262  1  0.83352053  0.79463246  0.59814549  1
  O2-  O263  1  0.83603214  0.79725233  0.93782345  1
  O2-  O264  1  0.41860717  0.05117882  0.06216106  1
  O2-  O265  1  0.41490660  0.04830419  0.39395878  1
  O2-  O266  1  0.41950242  0.04626557  0.72698022  1
  O2-  O267  1  0.41520280  0.53334671  0.06900595  1
  O2-  O268  1  0.41723147  0.54479635  0.40416611  1
  O2-  O269  1  0.41540033  0.54730418  0.73068542  1
  O2-  O270  1  0.91438816  0.04084422  0.07262858  1
  O2-  O271  1  0.92185951  0.04751056  0.40347055  1
  O2-  O272  1  0.91583867  0.03755719  0.73601543  1
  O2-  O273  1  0.91424077  0.54486306  0.06055231  1
  O2-  O274  1  0.91591767  0.54461141  0.39412022  1
  O2-  O275  1  0.91559623  0.54645492  0.73245768  1
  O2-  O276  1  0.29602126  0.16736091  0.06220191  1
  O2-  O277  1  0.29299499  0.16281648  0.39808581  1
  O2-  O278  1  0.30204056  0.16574249  0.72892545  1
  O2-  O279  1  0.29280812  0.66547068  0.06788112  1
  O2-  O280  1  0.28931758  0.67150859  0.40140291  1
  O2-  O281  1  0.29218019  0.66252778  0.73359660  1
  O2-  O282  1  0.78604925  0.16660889  0.07107159  1
  O2-  O283  1  0.78783877  0.16796391  0.40198421  1
  O2-  O284  1  0.78719345  0.16484419  0.73790950  1
  O2-  O285  1  0.79446151  0.66476468  0.06127625  1
  O2-  O286  1  0.80442704  0.66909552  0.39160307  1
  O2-  O287  1  0.79993763  0.66925278  0.73057162  1
