# generated using pymatgen
data_Ca2Al2SiO7
_symmetry_space_group_name_H-M   'P 1'
_cell_length_a   15.46172746
_cell_length_b   15.46305768
_cell_length_c   15.28728073
_cell_angle_alpha   90.00389189
_cell_angle_beta   90.00680501
_cell_angle_gamma   89.99149357
_symmetry_Int_Tables_number   1
_chemical_formula_structural   Ca2Al2SiO7
_chemical_formula_sum   'Ca48 Al48 Si24 O168'
_cell_volume   3654.96835868
_cell_formula_units_Z   24
loop_
 _symmetry_equiv_pos_site_id
 _symmetry_equiv_pos_as_xyz
  1  'x, y, z'
loop_
 _atom_type_symbol
 _atom_type_oxidation_number
  Ca2+  2.0
  Al0+  0.0
  Si0+  0.0
  O2-  -2.0
loop_
 _atom_site_type_symbol
 _atom_site_label
 _atom_site_symmetry_multiplicity
 _atom_site_fract_x
 _atom_site_fract_y
 _atom_site_fract_z
 _atom_site_occupancy
  Ca2+  Ca0  1  0.16961074  0.07784213  0.16792498  1
  Ca2+  Ca1  1  0.16689538  0.07900303  0.49702360  1
  Ca2+  Ca2  1  0.17474616  0.07670500  0.84601653  1
  Ca2+  Ca3  1  0.16482520  0.57876424  0.17193903  1
  Ca2+  Ca4  1  0.16730026  0.57656605  0.50230939  1
  Ca2+  Ca5  1  0.16885161  0.58217544  0.84245461  1
  Ca2+  Ca6  1  0.67745404  0.07568326  0.17412535  1
  Ca2+  Ca7  1  0.67425272  0.08104252  0.50610416  1
  Ca2+  Ca8  1  0.67566531  0.09250131  0.83817614  1
  Ca2+  Ca9  1  0.65665350  0.58132520  0.16609768  1
  Ca2+  Ca10  1  0.65832140  0.58188295  0.50592539  1
  Ca2+  Ca11  1  0.65855482  0.57764506  0.84021536  1
  Ca2+  Ca12  1  0.08592818  0.32123989  0.16204829  1
  Ca2+  Ca13  1  0.08110395  0.32587247  0.48867490  1
  Ca2+  Ca14  1  0.08010570  0.32442299  0.83360835  1
  Ca2+  Ca15  1  0.08018265  0.83951778  0.16128234  1
  Ca2+  Ca16  1  0.07726472  0.83654718  0.49052878  1
  Ca2+  Ca17  1  0.08667998  0.83072092  0.83713146  1
  Ca2+  Ca18  1  0.57818360  0.33264732  0.15752463  1
  Ca2+  Ca19  1  0.58595343  0.33023685  0.50421494  1
  Ca2+  Ca20  1  0.57775274  0.33491744  0.82705683  1
  Ca2+  Ca21  1  0.58139473  0.82702405  0.16103867  1
  Ca2+  Ca22  1  0.57918998  0.82758934  0.48684173  1
  Ca2+  Ca23  1  0.57486286  0.82777510  0.82695270  1
  Ca2+  Ca24  1  0.32999485  0.41752065  0.17195964  1
  Ca2+  Ca25  1  0.33030098  0.41397128  0.50282442  1
  Ca2+  Ca26  1  0.33976723  0.41530356  0.84005364  1
  Ca2+  Ca27  1  0.32584044  0.90960422  0.16877606  1
  Ca2+  Ca28  1  0.32965300  0.90440139  0.50075810  1
  Ca2+  Ca29  1  0.33362749  0.91780824  0.84465165  1
  Ca2+  Ca30  1  0.83091064  0.42527815  0.16381188  1
  Ca2+  Ca31  1  0.82610478  0.42117812  0.50823137  1
  Ca2+  Ca32  1  0.81638632  0.42175521  0.84243616  1
  Ca2+  Ca33  1  0.83275169  0.92296346  0.17499306  1
  Ca2+  Ca34  1  0.83099737  0.92318174  0.49786639  1
  Ca2+  Ca35  1  0.82905388  0.92697757  0.83872804  1
  Ca2+  Ca36  1  0.41172727  0.17279761  0.15733616  1
  Ca2+  Ca37  1  0.42282931  0.16948115  0.50150913  1
  Ca2+  Ca38  1  0.41788994  0.17634961  0.82937010  1
  Ca2+  Ca39  1  0.42444599  0.67822109  0.16197407  1
  Ca2+  Ca40  1  0.42826298  0.67600632  0.49716021  1
  Ca2+  Ca41  1  0.42577863  0.67660158  0.83087914  1
  Ca2+  Ca42  1  0.92648073  0.15458993  0.16344472  1
  Ca2+  Ca43  1  0.91928260  0.16003577  0.49199263  1
  Ca2+  Ca44  1  0.92068218  0.15545000  0.83258261  1
  Ca2+  Ca45  1  0.92016416  0.67269105  0.15963262  1
  Ca2+  Ca46  1  0.91580537  0.67635580  0.49081891  1
  Ca2+  Ca47  1  0.92022342  0.65955956  0.83761224  1
  Al0+  Al48  1  0.00118212  -0.00098949  -0.00033558  1
  Al0+  Al49  1  0.00316815  0.00000167  0.33300078  1
  Al0+  Al50  1  0.00124857  -0.00204781  0.67044960  1
  Al0+  Al51  1  -0.00191482  0.49903935  -0.00078406  1
  Al0+  Al52  1  -0.00158549  0.49816220  0.33908193  1
  Al0+  Al53  1  0.00067335  0.49719112  0.66722171  1
  Al0+  Al54  1  0.50142841  0.00344397  0.00016024  1
  Al0+  Al55  1  0.49969361  0.00158010  0.33269623  1
  Al0+  Al56  1  0.49796735  0.00161736  0.65977420  1
  Al0+  Al57  1  0.49778738  0.49998716  -0.00090351  1
  Al0+  Al58  1  0.49920607  0.49985836  0.33279762  1
  Al0+  Al59  1  0.49630630  0.50177516  0.66280527  1
  Al0+  Al60  1  0.24827157  0.24845340  -0.00631907  1
  Al0+  Al61  1  0.24847465  0.24970589  0.33519524  1
  Al0+  Al62  1  0.24789830  0.24741492  0.66350855  1
  Al0+  Al63  1  0.24859467  0.74875971  -0.00302601  1
  Al0+  Al64  1  0.25192096  0.74785948  0.33703602  1
  Al0+  Al65  1  0.24825207  0.74614129  0.66422083  1
  Al0+  Al66  1  0.75125915  0.25278083  0.01123661  1
  Al0+  Al67  1  0.75103055  0.25314390  0.33546470  1
  Al0+  Al68  1  0.75143027  0.25279706  0.67199281  1
  Al0+  Al69  1  0.75202231  0.74949183  -0.00332431  1
  Al0+  Al70  1  0.75117414  0.74981948  0.32757983  1
  Al0+  Al71  1  0.75363444  0.75132355  0.66573038  1
  Al0+  Al72  1  0.07017061  0.67702925  0.98801009  1
  Al0+  Al73  1  0.82136246  0.07075405  0.01496004  1
  Al0+  Al74  1  0.18216593  0.92819574  0.34740403  1
  Al0+  Al75  1  0.42700442  0.82262340  0.65113846  1
  Al0+  Al76  1  0.32305789  0.07326024  0.01297072  1
  Al0+  Al77  1  0.42719280  0.82381729  0.31640448  1
  Al0+  Al78  1  0.42683622  0.32166695  0.64993804  1
  Al0+  Al79  1  0.07025456  0.18017908  0.31899793  1
  Al0+  Al80  1  0.17875661  0.42852685  0.34653281  1
  Al0+  Al81  1  0.67798443  0.43313901  0.68003224  1
  Al0+  Al82  1  0.82202756  0.57248538  0.01569402  1
  Al0+  Al83  1  0.57201943  0.67968593  0.98383648  1
  Al0+  Al84  1  0.06866963  0.17767380  0.98465338  1
  Al0+  Al85  1  0.67579340  0.43174757  0.01741748  1
  Al0+  Al86  1  0.42887919  0.82376349  0.98538831  1
  Al0+  Al87  1  0.42848158  0.31960453  0.98835909  1
  Al0+  Al88  1  0.57161058  0.67840030  0.31642081  1
  Al0+  Al89  1  0.82166552  0.07120621  0.34859889  1
  Al0+  Al90  1  0.57267713  0.68137285  0.65161482  1
  Al0+  Al91  1  0.57466309  0.18057689  0.65258145  1
  Al0+  Al92  1  0.18181535  0.92739983  0.01453530  1
  Al0+  Al93  1  0.67807201  0.92788202  0.34718710  1
  Al0+  Al94  1  0.82057794  0.07060977  0.68129066  1
  Al0+  Al95  1  0.93163489  0.82088873  0.31958462  1
  Si0+  Si96  1  0.17750370  0.42564323  0.68380600  1
  Si0+  Si97  1  0.42970319  0.31840659  0.31912393  1
  Si0+  Si98  1  0.06994853  0.67577104  0.65098744  1
  Si0+  Si99  1  0.31923239  0.57021358  0.01486999  1
  Si0+  Si100  1  0.82139844  0.57095248  0.34889334  1
  Si0+  Si101  1  0.57567464  0.18003014  0.98678764  1
  Si0+  Si102  1  0.17768975  0.42795484  0.01312065  1
  Si0+  Si103  1  0.06870073  0.17686494  0.65034711  1
  Si0+  Si104  1  0.32071140  0.07227714  0.68091491  1
  Si0+  Si105  1  0.57415261  0.17986291  0.31832681  1
  Si0+  Si106  1  0.18067273  0.92750214  0.68171079  1
  Si0+  Si107  1  0.67696276  0.43071087  0.35031341  1
  Si0+  Si108  1  0.07166863  0.67529710  0.31971499  1
  Si0+  Si109  1  0.92772710  0.32229785  0.98305721  1
  Si0+  Si110  1  0.82514455  0.57394703  0.68300838  1
  Si0+  Si111  1  0.67668100  0.92812267  0.68169916  1
  Si0+  Si112  1  0.92610771  0.32417827  0.31590617  1
  Si0+  Si113  1  0.93047655  0.32116521  0.65206817  1
  Si0+  Si114  1  0.93221792  0.82178590  0.65188853  1
  Si0+  Si115  1  0.32251047  0.07476767  0.35144165  1
  Si0+  Si116  1  0.92855681  0.82260264  0.98113523  1
  Si0+  Si117  1  0.31675032  0.56881217  0.68307684  1
  Si0+  Si118  1  0.32264694  0.57016288  0.35245621  1
  Si0+  Si119  1  0.67763984  0.92747725  0.01435545  1
  O2-  O120  1  0.25644950  -0.00303948  0.06386552  1
  O2-  O121  1  0.26026622  -0.00074415  0.39541868  1
  O2-  O122  1  0.25653355  -0.00600976  0.72150980  1
  O2-  O123  1  0.24780936  0.49886172  0.05642370  1
  O2-  O124  1  0.25119483  0.50338734  0.39646818  1
  O2-  O125  1  0.24936065  0.49444755  0.72703603  1
  O2-  O126  1  0.74641630  -0.00403220  0.05919172  1
  O2-  O127  1  0.74735415  0.00210313  0.39909531  1
  O2-  O128  1  0.74080604  0.00081362  0.72758932  1
  O2-  O129  1  0.74537159  0.50662737  0.06742880  1
  O2-  O130  1  0.74769536  0.50273045  0.39138999  1
  O2-  O131  1  0.74973348  0.51192584  0.72499914  1
  O2-  O132  1  -0.00686155  0.25337392  0.27320449  1
  O2-  O133  1  -0.00196684  0.24787926  0.60793541  1
  O2-  O134  1  -0.00897100  0.24923595  0.93702129  1
  O2-  O135  1  0.00792077  0.74689031  0.27437533  1
  O2-  O136  1  -0.00229475  0.74511844  0.60985288  1
  O2-  O137  1  -0.00430679  0.75077049  0.93859963  1
  O2-  O138  1  0.50019010  0.24809177  0.27593649  1
  O2-  O139  1  0.50127790  0.25149274  0.60103906  1
  O2-  O140  1  0.50441671  0.24609410  0.94258357  1
  O2-  O141  1  0.50310865  0.75476617  0.26862157  1
  O2-  O142  1  0.50721316  0.75942976  0.60158536  1
  O2-  O143  1  0.50367444  0.75531071  0.93478585  1
  O2-  O144  1  0.07027677  0.18058072  0.09738551  1
  O2-  O145  1  0.06989087  0.18211357  0.43299199  1
  O2-  O146  1  0.06844404  0.17722651  0.75526674  1
  O2-  O147  1  0.06930095  0.67427143  0.10075201  1
  O2-  O148  1  0.06729574  0.67387046  0.42598194  1
  O2-  O149  1  0.07113125  0.67462314  0.75584897  1
  O2-  O150  1  0.57535647  0.18263705  0.09262588  1
  O2-  O151  1  0.57512577  0.18344403  0.42334977  1
  O2-  O152  1  0.57470543  0.18340711  0.76614395  1
  O2-  O153  1  0.56759888  0.67900189  0.09703603  1
  O2-  O154  1  0.56975971  0.67584497  0.43014367  1
  O2-  O155  1  0.56913080  0.68033914  0.76471956  1
  O2-  O156  1  0.18127992  0.42908323  0.23331350  1
  O2-  O157  1  0.17543846  0.42773686  0.57871018  1
  O2-  O158  1  0.17808553  0.42941591  0.90754203  1
  O2-  O159  1  0.18014351  0.92925317  0.23525330  1
  O2-  O160  1  0.17724678  0.92918460  0.57656949  1
  O2-  O161  1  0.18123136  0.92870135  0.89994458  1
  O2-  O162  1  0.67502709  0.43018835  0.24575978  1
  O2-  O163  1  0.68281854  0.43284834  0.56634181  1
  O2-  O164  1  0.67583386  0.43075394  0.90368661  1
  O2-  O165  1  0.68092425  0.92958345  0.23353331  1
  O2-  O166  1  0.68201754  0.92661201  0.57652760  1
  O2-  O167  1  0.67904737  0.92890635  0.90834888  1
  O2-  O168  1  0.42680282  0.31973627  0.10199465  1
  O2-  O169  1  0.42985210  0.31836414  0.42404722  1
  O2-  O170  1  0.42413442  0.31930951  0.76319806  1
  O2-  O171  1  0.42730474  0.81946919  0.09831187  1
  O2-  O172  1  0.42679433  0.81800597  0.43008620  1
  O2-  O173  1  0.42362377  0.81932206  0.76443168  1
  O2-  O174  1  0.93255233  0.32573645  0.08836915  1
  O2-  O175  1  0.92725729  0.32623261  0.42207657  1
  O2-  O176  1  0.93493401  0.32440546  0.75662108  1
  O2-  O177  1  0.93056238  0.82429392  0.08650817  1
  O2-  O178  1  0.93313502  0.81880604  0.43363255  1
  O2-  O179  1  0.93515458  0.82454525  0.75659165  1
  O2-  O180  1  0.31787153  0.08197493  0.24665612  1
  O2-  O181  1  0.31551124  0.07804095  0.57611844  1
  O2-  O182  1  0.31880937  0.07517563  0.89887709  1
  O2-  O183  1  0.32267513  0.56764323  0.24678614  1
  O2-  O184  1  0.31158647  0.56881811  0.57813118  1
  O2-  O185  1  0.31753520  0.56875426  0.90936436  1
  O2-  O186  1  0.82084898  0.06954966  0.23529754  1
  O2-  O187  1  0.82472193  0.06760423  0.56871299  1
  O2-  O188  1  0.82013403  0.06913877  0.90129324  1
  O2-  O189  1  0.82727230  0.56718939  0.24471314  1
  O2-  O190  1  0.83138807  0.57047679  0.57734148  1
  O2-  O191  1  0.82546957  0.56587211  0.90203717  1
  O2-  O192  1  0.04170855  0.08382781  0.26542909  1
  O2-  O193  1  0.04056066  0.08443034  0.60430091  1
  O2-  O194  1  0.03909597  0.08130091  0.92912732  1
  O2-  O195  1  0.04255320  0.58215401  0.27467498  1
  O2-  O196  1  0.04462117  0.58262030  0.60398200  1
  O2-  O197  1  0.03954421  0.58087959  0.93094017  1
  O2-  O198  1  0.55086565  0.08709978  0.27198831  1
  O2-  O199  1  0.54745961  0.08261960  0.59774552  1
  O2-  O200  1  0.55639593  0.08566699  0.94030054  1
  O2-  O201  1  0.53743781  0.58029565  0.26501011  1
  O2-  O202  1  0.53648328  0.58565796  0.59773686  1
  O2-  O203  1  0.53657388  0.58277989  0.93235215  1
  O2-  O204  1  0.16579492  0.21534273  0.26585463  1
  O2-  O205  1  0.15964305  0.20518950  0.60230279  1
  O2-  O206  1  0.16213278  0.21282331  0.92699351  1
  O2-  O207  1  0.16820329  0.69360612  0.27897574  1
  O2-  O208  1  0.16018235  0.70418601  0.60150617  1
  O2-  O209  1  0.16511544  0.70691995  0.92982982  1
  O2-  O210  1  0.66477067  0.21175391  0.27090073  1
  O2-  O211  1  0.67282794  0.21248799  0.59978612  1
  O2-  O212  1  0.66923806  0.20931013  0.94242138  1
  O2-  O213  1  0.67141669  0.70003382  0.26460112  1
  O2-  O214  1  0.67596792  0.69936362  0.60321819  1
  O2-  O215  1  0.67294971  0.70054322  0.93250772  1
  O2-  O216  1  0.08642508  0.45504623  0.06055754  1
  O2-  O217  1  0.08222895  0.45717289  0.40375353  1
  O2-  O218  1  0.08639227  0.45556709  0.73178646  1
  O2-  O219  1  0.08382845  0.95871962  0.06522849  1
  O2-  O220  1  0.08740675  0.96322210  0.40332805  1
  O2-  O221  1  0.09146709  0.95994080  0.73114512  1
  O2-  O222  1  0.57652744  0.45868484  0.07046362  1
  O2-  O223  1  0.58493746  0.45741824  0.39824106  1
  O2-  O224  1  0.57833780  0.45944018  0.73001212  1
  O2-  O225  1  0.58478171  0.95270985  0.06136522  1
  O2-  O226  1  0.57833285  0.95428090  0.39918009  1
  O2-  O227  1  0.57979402  0.94827056  0.72289153  1
  O2-  O228  1  0.20682011  0.33634299  0.05874254  1
  O2-  O229  1  0.21137083  0.33361624  0.40325005  1
  O2-  O230  1  0.20194240  0.33187642  0.72865168  1
  O2-  O231  1  0.20447710  0.82707363  0.06623578  1
  O2-  O232  1  0.20671689  0.82955955  0.40317517  1
  O2-  O233  1  0.20212206  0.83240237  0.72574393  1
  O2-  O234  1  0.70721402  0.33593720  0.07419835  1
  O2-  O235  1  0.70682658  0.33982792  0.39852758  1
  O2-  O236  1  0.71265021  0.33894818  0.73583311  1
  O2-  O237  1  0.70346048  0.83341921  0.05827027  1
  O2-  O238  1  0.70983876  0.82913317  0.39841280  1
  O2-  O239  1  0.70839594  0.83638039  0.72932433  1
  O2-  O240  1  0.45668345  0.41069533  0.27281232  1
  O2-  O241  1  0.45069726  0.42064268  0.59693179  1
  O2-  O242  1  0.45692075  0.41614729  0.93377315  1
  O2-  O243  1  0.44613743  0.92608186  0.26821002  1
  O2-  O244  1  0.44054457  0.92463591  0.60077637  1
  O2-  O245  1  0.45359262  0.92448849  0.93440820  1
  O2-  O246  1  0.95532568  0.41705630  0.27059662  1
  O2-  O247  1  0.96119342  0.41157511  0.60176171  1
  O2-  O248  1  0.95858474  0.41242730  0.93318882  1
  O2-  O249  1  0.96370629  0.91631970  0.26572476  1
  O2-  O250  1  0.96759210  0.91058360  0.60301015  1
  O2-  O251  1  0.95903602  0.91367692  0.93257391  1
  O2-  O252  1  0.33729214  0.29132967  0.27299844  1
  O2-  O253  1  0.32830965  0.28984938  0.59706483  1
  O2-  O254  1  0.33323366  0.29023762  0.93068177  1
  O2-  O255  1  0.32912320  0.78863889  0.26592775  1
  O2-  O256  1  0.33069279  0.78352350  0.59831401  1
  O2-  O257  1  0.33163047  0.79064890  0.93227582  1
  O2-  O258  1  0.83148672  0.30312289  0.27054207  1
  O2-  O259  1  0.83758865  0.29776588  0.60608185  1
  O2-  O260  1  0.83135757  0.30038958  0.94190770  1
  O2-  O261  1  0.83707213  0.78964603  0.26371816  1
  O2-  O262  1  0.83944880  0.79941321  0.60415015  1
  O2-  O263  1  0.83541500  0.79989370  0.93292920  1
  O2-  O264  1  0.42456978  0.05677250  0.06385306  1
  O2-  O265  1  0.41904952  0.05804058  0.39444224  1
  O2-  O266  1  0.41593653  0.05396184  0.72503788  1
  O2-  O267  1  0.40906032  0.54055009  0.06368900  1
  O2-  O268  1  0.41402067  0.53859056  0.39987995  1
  O2-  O269  1  0.40936838  0.54427067  0.72924653  1
  O2-  O270  1  0.91776642  0.03746085  0.06639384  1
  O2-  O271  1  0.91975143  0.03982977  0.40056724  1
  O2-  O272  1  0.91610055  0.03348397  0.73542610  1
  O2-  O273  1  0.91835210  0.53680732  0.07005306  1
  O2-  O274  1  0.91087532  0.54100814  0.40138775  1
  O2-  O275  1  0.91655960  0.54051207  0.73029977  1
  O2-  O276  1  0.28672330  0.16990799  0.06591161  1
  O2-  O277  1  0.28830410  0.16423191  0.40186045  1
  O2-  O278  1  0.28492101  0.16112813  0.73010728  1
  O2-  O279  1  0.28956696  0.66073199  0.06227834  1
  O2-  O280  1  0.29854678  0.66280806  0.40054662  1
  O2-  O281  1  0.28311399  0.65859545  0.73140409  1
  O2-  O282  1  0.79651235  0.16765615  0.07032722  1
  O2-  O283  1  0.79676160  0.17236151  0.39921083  1
  O2-  O284  1  0.79711162  0.16915665  0.73497905  1
  O2-  O285  1  0.80446804  0.67484286  0.06367135  1
  O2-  O286  1  0.79701224  0.66403288  0.39459187  1
  O2-  O287  1  0.80993906  0.67063033  0.72629902  1
