# generated using pymatgen
data_Ca2Al2SiO7
_symmetry_space_group_name_H-M   'P 1'
_cell_length_a   15.45787809
_cell_length_b   15.45745467
_cell_length_c   15.28407904
_cell_angle_alpha   89.99385345
_cell_angle_beta   90.00113032
_cell_angle_gamma   89.99446984
_symmetry_Int_Tables_number   1
_chemical_formula_structural   Ca2Al2SiO7
_chemical_formula_sum   'Ca48 Al48 Si24 O168'
_cell_volume   3651.96939961
_cell_formula_units_Z   24
loop_
 _symmetry_equiv_pos_site_id
 _symmetry_equiv_pos_as_xyz
  1  'x, y, z'
loop_
 _atom_type_symbol
 _atom_type_oxidation_number
  Ca2+  2.0
  Al0+  0.0
  Si0+  0.0
  O2-  -2.0
loop_
 _atom_site_type_symbol
 _atom_site_label
 _atom_site_symmetry_multiplicity
 _atom_site_fract_x
 _atom_site_fract_y
 _atom_site_fract_z
 _atom_site_occupancy
  Ca2+  Ca0  1  0.16751735  0.07701353  0.17626020  1
  Ca2+  Ca1  1  0.16543776  0.07703644  0.50728832  1
  Ca2+  Ca2  1  0.17025985  0.08191226  0.82971688  1
  Ca2+  Ca3  1  0.18027395  0.58764670  0.17498621  1
  Ca2+  Ca4  1  0.17809064  0.58582880  0.50265470  1
  Ca2+  Ca5  1  0.18074561  0.58403781  0.83734369  1
  Ca2+  Ca6  1  0.66797410  0.07091857  0.17843078  1
  Ca2+  Ca7  1  0.67371941  0.09285337  0.50238743  1
  Ca2+  Ca8  1  0.66729089  0.07969545  0.83558012  1
  Ca2+  Ca9  1  0.65984307  0.58141197  0.17637382  1
  Ca2+  Ca10  1  0.65839951  0.57644495  0.49667073  1
  Ca2+  Ca11  1  0.66357522  0.58475791  0.83933781  1
  Ca2+  Ca12  1  0.08031567  0.32806273  0.16888797  1
  Ca2+  Ca13  1  0.07785520  0.31927936  0.48997923  1
  Ca2+  Ca14  1  0.08159104  0.32587266  0.82605901  1
  Ca2+  Ca15  1  0.08055343  0.83224261  0.16775777  1
  Ca2+  Ca16  1  0.08940433  0.83372443  0.49233251  1
  Ca2+  Ca17  1  0.07949294  0.83897628  0.82959966  1
  Ca2+  Ca18  1  0.57616649  0.33318191  0.17056932  1
  Ca2+  Ca19  1  0.58049698  0.32301084  0.48989960  1
  Ca2+  Ca20  1  0.57601505  0.32813372  0.82974425  1
  Ca2+  Ca21  1  0.58569109  0.82609014  0.15809315  1
  Ca2+  Ca22  1  0.57538812  0.83102008  0.49304706  1
  Ca2+  Ca23  1  0.57338721  0.83444740  0.83283959  1
  Ca2+  Ca24  1  0.34587305  0.42576196  0.17150643  1
  Ca2+  Ca25  1  0.34438034  0.42805220  0.49991576  1
  Ca2+  Ca26  1  0.34006018  0.42673595  0.83975300  1
  Ca2+  Ca27  1  0.32856604  0.91212192  0.17219099  1
  Ca2+  Ca28  1  0.32294783  0.91939166  0.50888161  1
  Ca2+  Ca29  1  0.33612167  0.91658152  0.83196548  1
  Ca2+  Ca30  1  0.82625981  0.41684583  0.17842224  1
  Ca2+  Ca31  1  0.82716393  0.40572610  0.49663218  1
  Ca2+  Ca32  1  0.83003033  0.41952294  0.83704529  1
  Ca2+  Ca33  1  0.82296608  0.91542959  0.17374319  1
  Ca2+  Ca34  1  0.82598632  0.92863421  0.50007695  1
  Ca2+  Ca35  1  0.82854202  0.92175290  0.84068393  1
  Ca2+  Ca36  1  0.42011544  0.17647158  0.16420213  1
  Ca2+  Ca37  1  0.42496817  0.16638224  0.49320550  1
  Ca2+  Ca38  1  0.42022641  0.16846212  0.82376841  1
  Ca2+  Ca39  1  0.42442419  0.66819888  0.16159282  1
  Ca2+  Ca40  1  0.41282972  0.67089793  0.49397427  1
  Ca2+  Ca41  1  0.41387226  0.67392853  0.83302743  1
  Ca2+  Ca42  1  0.91645503  0.16256722  0.17450704  1
  Ca2+  Ca43  1  0.92262949  0.16068262  0.49243331  1
  Ca2+  Ca44  1  0.92169795  0.16314089  0.82405397  1
  Ca2+  Ca45  1  0.92418861  0.67177729  0.16236884  1
  Ca2+  Ca46  1  0.92823172  0.67022829  0.49005139  1
  Ca2+  Ca47  1  0.91442535  0.67831871  0.83137910  1
  Al0+  Al48  1  0.00127578  0.00051414  -0.00317804  1
  Al0+  Al49  1  -0.00111521  -0.00137038  0.33574188  1
  Al0+  Al50  1  -0.00270236  0.00030000  0.67066174  1
  Al0+  Al51  1  0.00138228  0.49769305  -0.00138794  1
  Al0+  Al52  1  0.00273538  0.50017911  0.32502912  1
  Al0+  Al53  1  -0.00171047  0.50165209  0.66831392  1
  Al0+  Al54  1  0.50082425  -0.00038081  0.00214316  1
  Al0+  Al55  1  0.49756566  -0.00084848  0.33229664  1
  Al0+  Al56  1  0.49939310  -0.00148370  0.66049304  1
  Al0+  Al57  1  0.50105313  0.49882800  -0.00403996  1
  Al0+  Al58  1  0.50151117  0.50206741  0.33661669  1
  Al0+  Al59  1  0.50133651  0.50016053  0.67333978  1
  Al0+  Al60  1  0.24958673  0.25051270  -0.00429974  1
  Al0+  Al61  1  0.24910386  0.25213527  0.32465997  1
  Al0+  Al62  1  0.24845697  0.25111478  0.66432101  1
  Al0+  Al63  1  0.25075682  0.74930095  0.00169068  1
  Al0+  Al64  1  0.24971610  0.74995107  0.33653921  1
  Al0+  Al65  1  0.24942086  0.74933853  0.67265567  1
  Al0+  Al66  1  0.75235449  0.25049315  0.00048384  1
  Al0+  Al67  1  0.74975569  0.24979481  0.33235108  1
  Al0+  Al68  1  0.74842107  0.25092663  0.67148448  1
  Al0+  Al69  1  0.75269964  0.74998647  -0.00492179  1
  Al0+  Al70  1  0.74993771  0.74981236  0.33664495  1
  Al0+  Al71  1  0.74980364  0.74909286  0.66470634  1
  Al0+  Al72  1  0.67997143  0.92954729  0.01235352  1
  Al0+  Al73  1  0.32059905  0.56959809  0.01619080  1
  Al0+  Al74  1  0.07374655  0.67927630  0.32019705  1
  Al0+  Al75  1  0.57193140  0.67853549  0.98471875  1
  Al0+  Al76  1  0.32295028  0.07251555  0.67991038  1
  Al0+  Al77  1  0.17846564  0.92916501  0.68396904  1
  Al0+  Al78  1  0.42732183  0.82276710  0.98532763  1
  Al0+  Al79  1  0.68035398  0.43071076  0.34668642  1
  Al0+  Al80  1  0.57046482  0.68168191  0.32226747  1
  Al0+  Al81  1  0.32045925  0.56862917  0.34692781  1
  Al0+  Al82  1  0.57172330  0.17603123  0.31713982  1
  Al0+  Al83  1  0.07106863  0.17550496  0.31733565  1
  Al0+  Al84  1  0.67451420  0.92516617  0.34977554  1
  Al0+  Al85  1  0.32119317  0.56947120  0.68274719  1
  Al0+  Al86  1  0.93112306  0.82062925  0.98651947  1
  Al0+  Al87  1  0.81784326  0.06985726  0.34820874  1
  Al0+  Al88  1  0.57029525  0.17933733  0.65399652  1
  Al0+  Al89  1  0.42976642  0.31973102  0.98450105  1
  Al0+  Al90  1  0.81812498  0.07091116  0.68205153  1
  Al0+  Al91  1  0.92830224  0.32079335  0.31819806  1
  Al0+  Al92  1  0.42797454  0.81868350  0.65159544  1
  Al0+  Al93  1  0.18083014  0.93084349  0.34531101  1
  Al0+  Al94  1  0.42956960  0.32263996  0.31995176  1
  Al0+  Al95  1  0.06978091  0.17905495  0.65300061  1
  Si0+  Si96  1  0.57282443  0.67647692  0.64894760  1
  Si0+  Si97  1  0.17556508  0.42667469  0.34927649  1
  Si0+  Si98  1  0.17701255  0.42567183  0.01788991  1
  Si0+  Si99  1  0.92811951  0.32168973  0.98305828  1
  Si0+  Si100  1  0.82337490  0.57096765  0.01430477  1
  Si0+  Si101  1  0.06952841  0.67970879  0.65333447  1
  Si0+  Si102  1  0.07262837  0.67656136  0.98215299  1
  Si0+  Si103  1  0.32112047  0.07312864  0.01437599  1
  Si0+  Si104  1  0.92823240  0.82072764  0.31832211  1
  Si0+  Si105  1  0.68112602  0.42936368  0.01524462  1
  Si0+  Si106  1  0.42626594  0.82141430  0.31789707  1
  Si0+  Si107  1  0.92763906  0.82157523  0.65019036  1
  Si0+  Si108  1  0.92726528  0.32411645  0.65160605  1
  Si0+  Si109  1  0.82437443  0.07278808  0.01757426  1
  Si0+  Si110  1  0.67749258  0.92498614  0.68365558  1
  Si0+  Si111  1  0.82287494  0.57292093  0.68250886  1
  Si0+  Si112  1  0.42808496  0.32417501  0.65079433  1
  Si0+  Si113  1  0.57309445  0.17773601  0.98398538  1
  Si0+  Si114  1  0.17476765  0.42885159  0.68238520  1
  Si0+  Si115  1  0.32126284  0.07649634  0.34715416  1
  Si0+  Si116  1  0.07049807  0.17915337  0.98283692  1
  Si0+  Si117  1  0.82608911  0.57246309  0.34883272  1
  Si0+  Si118  1  0.17832119  0.93066631  0.01539962  1
  Si0+  Si119  1  0.68066847  0.43020023  0.68425888  1
  O2-  O120  1  0.25276355  -0.00118537  0.05628232  1
  O2-  O121  1  0.25174396  0.00876674  0.39124188  1
  O2-  O122  1  0.25155392  0.00096671  0.73324353  1
  O2-  O123  1  0.24504054  0.49466866  0.06186972  1
  O2-  O124  1  0.24655608  0.49263140  0.39403676  1
  O2-  O125  1  0.24724497  0.49261564  0.72816310  1
  O2-  O126  1  0.75370620  0.00552704  0.05914423  1
  O2-  O127  1  0.74113056  0.00291724  0.39893476  1
  O2-  O128  1  0.74384314  -0.00405474  0.72855914  1
  O2-  O129  1  0.75127467  0.50180010  0.05673749  1
  O2-  O130  1  0.75848189  0.50290841  0.39392291  1
  O2-  O131  1  0.75083161  0.50310676  0.72516954  1
  O2-  O132  1  -0.00022422  0.24861195  0.26707379  1
  O2-  O133  1  -0.00404753  0.25576077  0.60863225  1
  O2-  O134  1  -0.00174248  0.25002907  0.94145024  1
  O2-  O135  1  -0.00429163  0.75057386  0.27417139  1
  O2-  O136  1  0.00103920  0.75232023  0.60952182  1
  O2-  O137  1  0.00487557  0.74568316  0.93703562  1
  O2-  O138  1  0.49761728  0.24711995  0.26901816  1
  O2-  O139  1  0.49119063  0.25012914  0.60825443  1
  O2-  O140  1  0.50281549  0.24365104  0.93778220  1
  O2-  O141  1  0.50174152  0.76036698  0.27412486  1
  O2-  O142  1  0.50340877  0.74403131  0.60561327  1
  O2-  O143  1  0.49990818  0.75071916  0.93548841  1
  O2-  O144  1  0.07068519  0.17805867  0.08740201  1
  O2-  O145  1  0.06974235  0.17538958  0.43077802  1
  O2-  O146  1  0.06729883  0.18161047  0.76697168  1
  O2-  O147  1  0.07087561  0.67682667  0.08757906  1
  O2-  O148  1  0.07327039  0.68116425  0.43390272  1
  O2-  O149  1  0.06538534  0.67819137  0.75855199  1
  O2-  O150  1  0.57326440  0.17955407  0.08898906  1
  O2-  O151  1  0.57138102  0.18009406  0.43099716  1
  O2-  O152  1  0.57169342  0.18384245  0.76772849  1
  O2-  O153  1  0.57217110  0.67797502  0.09819445  1
  O2-  O154  1  0.56663392  0.67942567  0.43546664  1
  O2-  O155  1  0.57508392  0.67672163  0.75440319  1
  O2-  O156  1  0.17373817  0.42926360  0.24366423  1
  O2-  O157  1  0.16933248  0.43314396  0.57751401  1
  O2-  O158  1  0.17490304  0.42626700  0.91194613  1
  O2-  O159  1  0.18214175  0.92964324  0.23138167  1
  O2-  O160  1  0.17823858  0.92860987  0.57053930  1
  O2-  O161  1  0.17471636  0.93359027  0.91069710  1
  O2-  O162  1  0.67995861  0.43407257  0.23324971  1
  O2-  O163  1  0.68040798  0.42969145  0.57955916  1
  O2-  O164  1  0.68491589  0.42805485  0.90960259  1
  O2-  O165  1  0.68007492  0.92221806  0.23585580  1
  O2-  O166  1  0.68162779  0.92096409  0.57871994  1
  O2-  O167  1  0.68118099  0.93257970  0.89889959  1
  O2-  O168  1  0.43202858  0.31988974  0.09702101  1
  O2-  O169  1  0.43244112  0.32328255  0.43376799  1
  O2-  O170  1  0.43222821  0.32599384  0.75675240  1
  O2-  O171  1  0.42604382  0.82172537  0.09872063  1
  O2-  O172  1  0.42302709  0.81710183  0.42345968  1
  O2-  O173  1  0.42959593  0.81764692  0.76467583  1
  O2-  O174  1  0.92659621  0.32435546  0.08717007  1
  O2-  O175  1  0.93101000  0.32140926  0.43207706  1
  O2-  O176  1  0.92862490  0.32552859  0.75796371  1
  O2-  O177  1  0.93320003  0.81874835  0.09932575  1
  O2-  O178  1  0.92955008  0.81935075  0.42421266  1
  O2-  O179  1  0.92634946  0.81885317  0.75564458  1
  O2-  O180  1  0.31982710  0.07452460  0.24085392  1
  O2-  O181  1  0.32124721  0.07160244  0.56663679  1
  O2-  O182  1  0.31902420  0.07537904  0.90945902  1
  O2-  O183  1  0.32072538  0.56947600  0.23391654  1
  O2-  O184  1  0.32062368  0.56889670  0.56973004  1
  O2-  O185  1  0.31797402  0.56828210  0.90278653  1
  O2-  O186  1  0.81964742  0.06495622  0.23425200  1
  O2-  O187  1  0.81863083  0.07130648  0.56974360  1
  O2-  O188  1  0.82492605  0.07333790  0.91166339  1
  O2-  O189  1  0.82486977  0.57278172  0.24292254  1
  O2-  O190  1  0.82698903  0.57375289  0.57818447  1
  O2-  O191  1  0.82453376  0.56776150  0.90864493  1
  O2-  O192  1  0.03923680  0.07794610  0.26368874  1
  O2-  O193  1  0.03613749  0.08230324  0.60210966  1
  O2-  O194  1  0.04243748  0.08822735  0.93404886  1
  O2-  O195  1  0.04729704  0.58391769  0.26250016  1
  O2-  O196  1  0.03876846  0.58871338  0.60557781  1
  O2-  O197  1  0.04710471  0.58232885  0.93640512  1
  O2-  O198  1  0.54415217  0.07698630  0.26440738  1
  O2-  O199  1  0.54768840  0.08173626  0.59968354  1
  O2-  O200  1  0.54911146  0.08376760  0.93881014  1
  O2-  O201  1  0.53696604  0.58651813  0.26803990  1
  O2-  O202  1  0.54752539  0.58103750  0.60660989  1
  O2-  O203  1  0.54465785  0.58037463  0.93050128  1
  O2-  O204  1  0.16803617  0.20387903  0.26120444  1
  O2-  O205  1  0.16664248  0.20740234  0.59857567  1
  O2-  O206  1  0.16113003  0.20833475  0.93384051  1
  O2-  O207  1  0.16745103  0.71562292  0.26452207  1
  O2-  O208  1  0.16232348  0.70497522  0.60819193  1
  O2-  O209  1  0.16597539  0.70307023  0.93729133  1
  O2-  O210  1  0.66906434  0.20596350  0.26451192  1
  O2-  O211  1  0.66571438  0.21751502  0.60209870  1
  O2-  O212  1  0.66716035  0.20608223  0.93861207  1
  O2-  O213  1  0.67036144  0.70396136  0.27019554  1
  O2-  O214  1  0.66745894  0.69953599  0.60316376  1
  O2-  O215  1  0.67126096  0.70378491  0.93136600  1
  O2-  O216  1  0.08212976  0.44970309  0.06292392  1
  O2-  O217  1  0.08261014  0.45450768  0.39540225  1
  O2-  O218  1  0.08265183  0.45790420  0.73241129  1
  O2-  O219  1  0.08779073  0.96252134  0.06352406  1
  O2-  O220  1  0.08311471  0.95582439  0.39911169  1
  O2-  O221  1  0.07999532  0.95875546  0.73685378  1
  O2-  O222  1  0.58870418  0.45571923  0.06024839  1
  O2-  O223  1  0.58725217  0.46546595  0.40456263  1
  O2-  O224  1  0.59004835  0.45768535  0.73464589  1
  O2-  O225  1  0.58303521  0.95668208  0.06759673  1
  O2-  O226  1  0.57275421  0.94659934  0.39803386  1
  O2-  O227  1  0.58288881  0.95005293  0.72653726  1
  O2-  O228  1  0.20190372  0.33124580  0.06215786  1
  O2-  O229  1  0.19804387  0.33109752  0.39243413  1
  O2-  O230  1  0.19596225  0.33363715  0.72697767  1
  O2-  O231  1  0.20193602  0.83703901  0.06093593  1
  O2-  O232  1  0.21335452  0.83598880  0.40142872  1
  O2-  O233  1  0.20426056  0.83066279  0.73806729  1
  O2-  O234  1  0.71124787  0.33802091  0.06222876  1
  O2-  O235  1  0.71020658  0.33428164  0.40118418  1
  O2-  O236  1  0.71060968  0.34106220  0.73588149  1
  O2-  O237  1  0.71445602  0.83234835  0.06333437  1
  O2-  O238  1  0.70798635  0.82910454  0.40540346  1
  O2-  O239  1  0.70637097  0.83188987  0.73040136  1
  O2-  O240  1  0.46627045  0.41865362  0.26718624  1
  O2-  O241  1  0.46203042  0.41605180  0.60609049  1
  O2-  O242  1  0.46467323  0.41386682  0.92859436  1
  O2-  O243  1  0.44099692  0.91769398  0.27406442  1
  O2-  O244  1  0.45607448  0.91478418  0.59600835  1
  O2-  O245  1  0.45565744  0.92202075  0.93294529  1
  O2-  O246  1  0.95572565  0.41863137  0.26243825  1
  O2-  O247  1  0.95019188  0.41874653  0.60655991  1
  O2-  O248  1  0.95639257  0.41313967  0.93342907  1
  O2-  O249  1  0.95609333  0.91228192  0.27080138  1
  O2-  O250  1  0.95327081  0.91407415  0.60523324  1
  O2-  O251  1  0.96227132  0.91694392  0.93111117  1
  O2-  O252  1  0.33033568  0.30280539  0.26485636  1
  O2-  O253  1  0.33149242  0.30879752  0.60842545  1
  O2-  O254  1  0.33175585  0.29289900  0.93061640  1
  O2-  O255  1  0.33596267  0.78812182  0.27002465  1
  O2-  O256  1  0.33013358  0.78605109  0.60072087  1
  O2-  O257  1  0.32842276  0.79368453  0.93281816  1
  O2-  O258  1  0.83052580  0.29365827  0.26397602  1
  O2-  O259  1  0.83285049  0.29827219  0.60916684  1
  O2-  O260  1  0.83633370  0.29483603  0.93390059  1
  O2-  O261  1  0.83493963  0.79455553  0.27248776  1
  O2-  O262  1  0.83729181  0.79013762  0.60239250  1
  O2-  O263  1  0.83724079  0.78859372  0.92787483  1
  O2-  O264  1  0.41393658  0.04989245  0.06129017  1
  O2-  O265  1  0.41481563  0.05131039  0.39254360  1
  O2-  O266  1  0.42209090  0.04360295  0.73229996  1
  O2-  O267  1  0.41878975  0.53664667  0.06556575  1
  O2-  O268  1  0.41569329  0.53859883  0.40349463  1
  O2-  O269  1  0.41788990  0.53989790  0.73804291  1
  O2-  O270  1  0.91824880  0.04545974  0.06178554  1
  O2-  O271  1  0.91462696  0.03622855  0.40187364  1
  O2-  O272  1  0.91314726  0.03843210  0.73812216  1
  O2-  O273  1  0.91546306  0.54171507  0.06078592  1
  O2-  O274  1  0.92108098  0.54799068  0.39283744  1
  O2-  O275  1  0.91286884  0.54428410  0.73433701  1
  O2-  O276  1  0.28871851  0.16383265  0.06159534  1
  O2-  O277  1  0.29830368  0.17154721  0.39082133  1
  O2-  O278  1  0.29487043  0.17260179  0.73229763  1
  O2-  O279  1  0.28943719  0.66656566  0.06955916  1
  O2-  O280  1  0.28555004  0.66351139  0.40178922  1
  O2-  O281  1  0.28611352  0.66342257  0.73848316  1
  O2-  O282  1  0.80190196  0.16810797  0.06162124  1
  O2-  O283  1  0.79597874  0.17016677  0.39979987  1
  O2-  O284  1  0.78922844  0.16803563  0.73792520  1
  O2-  O285  1  0.80012145  0.66417138  0.05943276  1
  O2-  O286  1  0.80126034  0.66504642  0.39685245  1
  O2-  O287  1  0.79444149  0.66470525  0.73079256  1
