# generated using pymatgen
data_Ca2Al2SiO7
_symmetry_space_group_name_H-M   'P 1'
_cell_length_a   15.46274357
_cell_length_b   15.46218699
_cell_length_c   15.28707657
_cell_angle_alpha   90.01244298
_cell_angle_beta   89.98625563
_cell_angle_gamma   89.98557730
_symmetry_Int_Tables_number   1
_chemical_formula_structural   Ca2Al2SiO7
_chemical_formula_sum   'Ca48 Al48 Si24 O168'
_cell_volume   3654.95369460
_cell_formula_units_Z   24
loop_
 _symmetry_equiv_pos_site_id
 _symmetry_equiv_pos_as_xyz
  1  'x, y, z'
loop_
 _atom_type_symbol
 _atom_type_oxidation_number
  Ca2+  2.0
  Al0+  0.0
  Si0+  0.0
  O2-  -2.0
loop_
 _atom_site_type_symbol
 _atom_site_label
 _atom_site_symmetry_multiplicity
 _atom_site_fract_x
 _atom_site_fract_y
 _atom_site_fract_z
 _atom_site_occupancy
  Ca2+  Ca0  1  0.17530888  0.08978337  0.17372950  1
  Ca2+  Ca1  1  0.17334420  0.08037900  0.50414968  1
  Ca2+  Ca2  1  0.17636534  0.07834640  0.83203696  1
  Ca2+  Ca3  1  0.16938515  0.57323436  0.16965962  1
  Ca2+  Ca4  1  0.16072128  0.57366541  0.50250129  1
  Ca2+  Ca5  1  0.17589039  0.57274996  0.83890730  1
  Ca2+  Ca6  1  0.66949977  0.08335758  0.17239039  1
  Ca2+  Ca7  1  0.66932845  0.07581875  0.50688430  1
  Ca2+  Ca8  1  0.66021019  0.07545752  0.83309301  1
  Ca2+  Ca9  1  0.67077774  0.58497044  0.17014448  1
  Ca2+  Ca10  1  0.67186022  0.59218333  0.50530388  1
  Ca2+  Ca11  1  0.67683858  0.58830628  0.83474816  1
  Ca2+  Ca12  1  0.08169319  0.33838808  0.16761704  1
  Ca2+  Ca13  1  0.07793501  0.33563075  0.49286230  1
  Ca2+  Ca14  1  0.07812985  0.34577641  0.83005170  1
  Ca2+  Ca15  1  0.08224413  0.82844220  0.16773372  1
  Ca2+  Ca16  1  0.08211437  0.82803495  0.49104152  1
  Ca2+  Ca17  1  0.08502193  0.83154875  0.82643309  1
  Ca2+  Ca18  1  0.56767975  0.33569370  0.16296519  1
  Ca2+  Ca19  1  0.56731100  0.33530261  0.49627071  1
  Ca2+  Ca20  1  0.56782003  0.33357514  0.82746573  1
  Ca2+  Ca21  1  0.57766570  0.82838011  0.17115916  1
  Ca2+  Ca22  1  0.57828583  0.82792176  0.49906828  1
  Ca2+  Ca23  1  0.57736816  0.82745927  0.82120381  1
  Ca2+  Ca24  1  0.32544727  0.41244834  0.17317789  1
  Ca2+  Ca25  1  0.32180959  0.40909457  0.50464420  1
  Ca2+  Ca26  1  0.32539921  0.41333294  0.84121129  1
  Ca2+  Ca27  1  0.33835629  0.92966485  0.17513045  1
  Ca2+  Ca28  1  0.33725571  0.92456752  0.50807924  1
  Ca2+  Ca29  1  0.33726329  0.92470523  0.83479182  1
  Ca2+  Ca30  1  0.83957220  0.41741683  0.16975868  1
  Ca2+  Ca31  1  0.83667529  0.42122546  0.50827721  1
  Ca2+  Ca32  1  0.83848308  0.42528083  0.83819850  1
  Ca2+  Ca33  1  0.83352790  0.91486427  0.17400965  1
  Ca2+  Ca34  1  0.82909954  0.91195304  0.50675342  1
  Ca2+  Ca35  1  0.82349143  0.91537448  0.83517762  1
  Ca2+  Ca36  1  0.40438309  0.17579436  0.16633720  1
  Ca2+  Ca37  1  0.40441182  0.17283902  0.49853249  1
  Ca2+  Ca38  1  0.40401471  0.17348298  0.83198180  1
  Ca2+  Ca39  1  0.41729317  0.66594134  0.16278507  1
  Ca2+  Ca40  1  0.42383733  0.67958660  0.49185802  1
  Ca2+  Ca41  1  0.42037543  0.66904166  0.82122921  1
  Ca2+  Ca42  1  0.92638033  0.17731413  0.16219876  1
  Ca2+  Ca43  1  0.92648817  0.17752083  0.49078467  1
  Ca2+  Ca44  1  0.92028043  0.18172729  0.82586304  1
  Ca2+  Ca45  1  0.92350745  0.66393857  0.16867269  1
  Ca2+  Ca46  1  0.92227617  0.66976837  0.49318201  1
  Ca2+  Ca47  1  0.91587731  0.65965765  0.82919737  1
  Al0+  Al48  1  -0.00201556  -0.00056604  -0.00267491  1
  Al0+  Al49  1  0.00104803  0.00192346  0.32619347  1
  Al0+  Al50  1  0.00051845  0.00167308  0.67164908  1
  Al0+  Al51  1  0.00027446  0.50188760  0.00424047  1
  Al0+  Al52  1  -0.00036070  0.50224577  0.33123756  1
  Al0+  Al53  1  -0.00064402  0.50149975  0.67026084  1
  Al0+  Al54  1  0.50006471  -0.00202731  0.00584393  1
  Al0+  Al55  1  0.50242519  0.00001408  0.33598486  1
  Al0+  Al56  1  0.50157338  0.00125213  0.67297730  1
  Al0+  Al57  1  0.50233290  0.50027730  -0.00356004  1
  Al0+  Al58  1  0.50085966  0.50008714  0.32668650  1
  Al0+  Al59  1  0.50207143  0.49877187  0.65669383  1
  Al0+  Al60  1  0.24765125  0.24644717  0.00252088  1
  Al0+  Al61  1  0.24864044  0.25039169  0.33602852  1
  Al0+  Al62  1  0.24670431  0.24827150  0.67199343  1
  Al0+  Al63  1  0.24878345  0.74986616  0.00163798  1
  Al0+  Al64  1  0.25097283  0.75083435  0.32400100  1
  Al0+  Al65  1  0.24920884  0.74908114  0.66429096  1
  Al0+  Al66  1  0.75012614  0.24833739  -0.00549535  1
  Al0+  Al67  1  0.74915781  0.25105529  0.33293091  1
  Al0+  Al68  1  0.74927963  0.25252837  0.66331313  1
  Al0+  Al69  1  0.74972238  0.74977697  0.00525136  1
  Al0+  Al70  1  0.74896444  0.75006816  0.32703084  1
  Al0+  Al71  1  0.75124478  0.75052519  0.67309208  1
  Al0+  Al72  1  0.18016795  0.43252078  0.34912457  1
  Al0+  Al73  1  0.31939662  0.06747948  0.01676995  1
  Al0+  Al74  1  0.18050232  0.42891864  0.01647167  1
  Al0+  Al75  1  0.81961068  0.57009917  0.01713137  1
  Al0+  Al76  1  0.93015642  0.32352164  0.65291908  1
  Al0+  Al77  1  0.92728052  0.32248108  0.31851925  1
  Al0+  Al78  1  0.81877734  0.56924590  0.67885614  1
  Al0+  Al79  1  0.57400058  0.67923269  0.65247602  1
  Al0+  Al80  1  0.42915656  0.82390556  0.31735941  1
  Al0+  Al81  1  0.07290909  0.67781258  0.31724545  1
  Al0+  Al82  1  0.42749666  0.82230208  0.65324248  1
  Al0+  Al83  1  0.68122633  0.93039709  0.68044660  1
  Al0+  Al84  1  0.17712974  0.92497570  0.67996577  1
  Al0+  Al85  1  0.07195215  0.18021983  0.31865154  1
  Al0+  Al86  1  0.92885527  0.82148780  0.31983057  1
  Al0+  Al87  1  0.32469954  0.57214785  0.01329639  1
  Al0+  Al88  1  0.57050726  0.67877126  0.31598138  1
  Al0+  Al89  1  0.17984394  0.43016622  0.67973469  1
  Al0+  Al90  1  0.32108954  0.06993136  0.68294400  1
  Al0+  Al91  1  0.42824116  0.31934535  0.98648359  1
  Al0+  Al92  1  0.32063320  0.06970602  0.34905650  1
  Al0+  Al93  1  0.42611657  0.31880121  0.65322206  1
  Al0+  Al94  1  0.42858159  0.31870835  0.32073306  1
  Al0+  Al95  1  0.93084763  0.32166091  0.98433859  1
  Si0+  Si96  1  0.17454418  0.92673106  0.01818718  1
  Si0+  Si97  1  0.82303064  0.07299539  0.34736802  1
  Si0+  Si98  1  0.17675542  0.92638913  0.34747661  1
  Si0+  Si99  1  0.68238775  0.92918979  0.34941541  1
  Si0+  Si100  1  0.57268532  0.68009817  0.98371708  1
  Si0+  Si101  1  0.32459745  0.57113100  0.67770193  1
  Si0+  Si102  1  0.57347201  0.17727165  0.31832198  1
  Si0+  Si103  1  0.92966546  0.82259604  0.65634822  1
  Si0+  Si104  1  0.32520809  0.57416433  0.34986076  1
  Si0+  Si105  1  0.92723272  0.82105826  0.98263388  1
  Si0+  Si106  1  0.67841931  0.42540724  0.01581455  1
  Si0+  Si107  1  0.07007460  0.17658134  0.65016500  1
  Si0+  Si108  1  0.42957524  0.82091038  0.98541111  1
  Si0+  Si109  1  0.67512305  0.42587136  0.68279422  1
  Si0+  Si110  1  0.82266340  0.07543454  0.68348773  1
  Si0+  Si111  1  0.57312554  0.17773548  0.65022767  1
  Si0+  Si112  1  0.07030774  0.67932300  0.65408485  1
  Si0+  Si113  1  0.68003872  0.92911773  0.01851696  1
  Si0+  Si114  1  0.67652570  0.42759942  0.34859597  1
  Si0+  Si115  1  0.57248231  0.17516270  0.98350083  1
  Si0+  Si116  1  0.07014022  0.68042763  0.98264129  1
  Si0+  Si117  1  0.82090391  0.07133523  0.01474858  1
  Si0+  Si118  1  0.81812404  0.57039615  0.34849226  1
  Si0+  Si119  1  0.07132352  0.17485938  0.97939712  1
  O2-  O120  1  0.24318081  -0.00578505  0.06314412  1
  O2-  O121  1  0.24822016  -0.00885470  0.39279026  1
  O2-  O122  1  0.25298573  -0.00758601  0.73084566  1
  O2-  O123  1  0.25810686  0.49612526  0.06491456  1
  O2-  O124  1  0.25494483  0.50801545  0.39570203  1
  O2-  O125  1  0.26072072  0.49933635  0.72423523  1
  O2-  O126  1  0.75028168  0.00128295  0.05979452  1
  O2-  O127  1  0.75507431  -0.00068727  0.39069093  1
  O2-  O128  1  0.75380845  0.00704484  0.72873541  1
  O2-  O129  1  0.74802586  0.49194086  0.06260476  1
  O2-  O130  1  0.74878053  0.49795676  0.39078729  1
  O2-  O131  1  0.74390182  0.49493990  0.72639728  1
  O2-  O132  1  -0.00053410  0.25154700  0.26815596  1
  O2-  O133  1  0.00211867  0.24663265  0.60706604  1
  O2-  O134  1  0.00653149  0.24823769  0.93648869  1
  O2-  O135  1  0.00253210  0.75272458  0.26813856  1
  O2-  O136  1  0.00485564  0.75695842  0.61419797  1
  O2-  O137  1  -0.00070762  0.75210182  0.93958084  1
  O2-  O138  1  0.50370698  0.24408730  0.27394890  1
  O2-  O139  1  0.50196636  0.24401448  0.60698094  1
  O2-  O140  1  0.50357797  0.24384040  0.94028778  1
  O2-  O141  1  0.49415944  0.74599777  0.26568142  1
  O2-  O142  1  0.49835118  0.74831275  0.60433502  1
  O2-  O143  1  0.49565409  0.74525577  0.94279008  1
  O2-  O144  1  0.06756175  0.17005790  0.08457014  1
  O2-  O145  1  0.06902486  0.17920775  0.43233460  1
  O2-  O146  1  0.06740141  0.17410175  0.75577396  1
  O2-  O147  1  0.06872302  0.68227121  0.08731067  1
  O2-  O148  1  0.06784451  0.67704943  0.43151812  1
  O2-  O149  1  0.06806435  0.67765953  0.75933552  1
  O2-  O150  1  0.57576599  0.17484503  0.08899490  1
  O2-  O151  1  0.57723694  0.17786961  0.42359478  1
  O2-  O152  1  0.57634484  0.17969922  0.75589505  1
  O2-  O153  1  0.57565900  0.68356937  0.08843206  1
  O2-  O154  1  0.57493812  0.68356462  0.42908070  1
  O2-  O155  1  0.57463661  0.68187852  0.76669899  1
  O2-  O156  1  0.18114269  0.43209403  0.23639335  1
  O2-  O157  1  0.17693546  0.43197460  0.56670877  1
  O2-  O158  1  0.17997432  0.43335370  0.90245213  1
  O2-  O159  1  0.17571677  0.92924483  0.24178403  1
  O2-  O160  1  0.17115292  0.92704271  0.56690046  1
  O2-  O161  1  0.17454512  0.92649862  0.91259154  1
  O2-  O162  1  0.67700923  0.42698090  0.24342190  1
  O2-  O163  1  0.67648257  0.42422172  0.57721468  1
  O2-  O164  1  0.67824204  0.42778604  0.91028553  1
  O2-  O165  1  0.68281955  0.93115812  0.24383648  1
  O2-  O166  1  0.68515289  0.92997762  0.56730064  1
  O2-  O167  1  0.68054362  0.92820613  0.91348489  1
  O2-  O168  1  0.42997095  0.31791378  0.09951419  1
  O2-  O169  1  0.42889740  0.31745648  0.43376511  1
  O2-  O170  1  0.42725892  0.31857474  0.76654584  1
  O2-  O171  1  0.43400023  0.82315408  0.09008186  1
  O2-  O172  1  0.43358675  0.82601230  0.43068572  1
  O2-  O173  1  0.42982326  0.81976996  0.76772045  1
  O2-  O174  1  0.92949543  0.31839867  0.09695671  1
  O2-  O175  1  0.92682035  0.32150539  0.43225498  1
  O2-  O176  1  0.93224912  0.32409249  0.76622628  1
  O2-  O177  1  0.92695837  0.82230637  0.08732500  1
  O2-  O178  1  0.92639570  0.81920211  0.43400191  1
  O2-  O179  1  0.92822608  0.82048020  0.76170415  1
  O2-  O180  1  0.31992853  0.06946371  0.23577857  1
  O2-  O181  1  0.31831477  0.07051664  0.56951149  1
  O2-  O182  1  0.32104352  0.06484527  0.90403815  1
  O2-  O183  1  0.32549634  0.56995836  0.24426046  1
  O2-  O184  1  0.32081543  0.57274650  0.57245878  1
  O2-  O185  1  0.32226171  0.57482208  0.89920513  1
  O2-  O186  1  0.81855419  0.07315854  0.24196250  1
  O2-  O187  1  0.82244907  0.07308456  0.57775452  1
  O2-  O188  1  0.81954866  0.06850422  0.90982490  1
  O2-  O189  1  0.81665286  0.57046718  0.24333322  1
  O2-  O190  1  0.82031566  0.57090344  0.56573021  1
  O2-  O191  1  0.81783860  0.57264801  0.90392080  1
  O2-  O192  1  0.04496973  0.08318958  0.26188335  1
  O2-  O193  1  0.04259304  0.08349320  0.60326039  1
  O2-  O194  1  0.04021218  0.08287143  0.93157852  1
  O2-  O195  1  0.03723751  0.58357881  0.26153729  1
  O2-  O196  1  0.03399988  0.59153418  0.60503244  1
  O2-  O197  1  0.03960597  0.58941766  0.93610043  1
  O2-  O198  1  0.55139468  0.08308653  0.27241942  1
  O2-  O199  1  0.55133139  0.08246270  0.60669599  1
  O2-  O200  1  0.54575867  0.08030778  0.93969275  1
  O2-  O201  1  0.54905854  0.57948014  0.26200573  1
  O2-  O202  1  0.55497327  0.57968362  0.59885352  1
  O2-  O203  1  0.55468929  0.58607208  0.93712333  1
  O2-  O204  1  0.16854563  0.21097658  0.26520110  1
  O2-  O205  1  0.16388832  0.20149213  0.60634639  1
  O2-  O206  1  0.16650568  0.19611400  0.93618999  1
  O2-  O207  1  0.17078365  0.70105726  0.26158532  1
  O2-  O208  1  0.16246528  0.69966835  0.60473971  1
  O2-  O209  1  0.16227640  0.70797252  0.93492224  1
  O2-  O210  1  0.66589071  0.20371690  0.26962079  1
  O2-  O211  1  0.66600592  0.20294798  0.60178791  1
  O2-  O212  1  0.66573681  0.19753128  0.93475235  1
  O2-  O213  1  0.66575074  0.71357603  0.26002192  1
  O2-  O214  1  0.67154431  0.71461684  0.60122368  1
  O2-  O215  1  0.66279800  0.71599096  0.93717461  1
  O2-  O216  1  0.08438981  0.46395248  0.06931719  1
  O2-  O217  1  0.08203790  0.46465777  0.40104772  1
  O2-  O218  1  0.08661140  0.46864822  0.73520071  1
  O2-  O219  1  0.07915093  0.95138669  0.06153915  1
  O2-  O220  1  0.08260492  0.95386092  0.39244994  1
  O2-  O221  1  0.08017613  0.95632196  0.73719115  1
  O2-  O222  1  0.58579213  0.45391715  0.06234386  1
  O2-  O223  1  0.58472407  0.45638895  0.39551074  1
  O2-  O224  1  0.58092524  0.45149322  0.72801198  1
  O2-  O225  1  0.58919930  0.95646370  0.06750828  1
  O2-  O226  1  0.59231553  0.95884961  0.39815264  1
  O2-  O227  1  0.58647303  0.96004946  0.73879553  1
  O2-  O228  1  0.20092841  0.32769002  0.06580606  1
  O2-  O229  1  0.21105578  0.33602153  0.40285017  1
  O2-  O230  1  0.20313924  0.33270471  0.73454961  1
  O2-  O231  1  0.19843411  0.83262048  0.06302996  1
  O2-  O232  1  0.19707526  0.82983073  0.38960718  1
  O2-  O233  1  0.19975398  0.82457744  0.73283671  1
  O2-  O234  1  0.70100796  0.32981497  0.05925140  1
  O2-  O235  1  0.70201625  0.33530139  0.39660313  1
  O2-  O236  1  0.69965547  0.33230090  0.72969787  1
  O2-  O237  1  0.71105839  0.83927447  0.06729970  1
  O2-  O238  1  0.71101910  0.83694738  0.39501105  1
  O2-  O239  1  0.71571377  0.83715291  0.73911994  1
  O2-  O240  1  0.45991960  0.41404381  0.26517330  1
  O2-  O241  1  0.45648140  0.41408546  0.59641028  1
  O2-  O242  1  0.45988006  0.41609121  0.93218239  1
  O2-  O243  1  0.46813466  0.91928812  0.26379237  1
  O2-  O244  1  0.45973032  0.92124260  0.60456602  1
  O2-  O245  1  0.46414023  0.91101256  0.93840085  1
  O2-  O246  1  0.95458979  0.42082056  0.26698738  1
  O2-  O247  1  0.96301148  0.41973499  0.59979994  1
  O2-  O248  1  0.96080032  0.42055360  0.93394044  1
  O2-  O249  1  0.95213147  0.92025387  0.26494651  1
  O2-  O250  1  0.94984558  0.91699146  0.61089957  1
  O2-  O251  1  0.95123517  0.91383025  0.93462820  1
  O2-  O252  1  0.33332522  0.28631848  0.26723498  1
  O2-  O253  1  0.32887043  0.28617568  0.60180348  1
  O2-  O254  1  0.33105793  0.28646284  0.93474968  1
  O2-  O255  1  0.32946181  0.80549175  0.26394425  1
  O2-  O256  1  0.32852795  0.79721034  0.59982523  1
  O2-  O257  1  0.33454961  0.80017382  0.94152966  1
  O2-  O258  1  0.82849645  0.29388175  0.26610902  1
  O2-  O259  1  0.83157207  0.29727679  0.60062012  1
  O2-  O260  1  0.83374975  0.28980569  0.93044432  1
  O2-  O261  1  0.83274314  0.79108874  0.26359384  1
  O2-  O262  1  0.83995063  0.79019377  0.60864072  1
  O2-  O263  1  0.83472725  0.79084514  0.93745376  1
  O2-  O264  1  0.41641275  0.03643374  0.07074412  1
  O2-  O265  1  0.41980857  0.04282987  0.40078016  1
  O2-  O266  1  0.42086345  0.04879329  0.73676788  1
  O2-  O267  1  0.42672834  0.55176218  0.06214670  1
  O2-  O268  1  0.41984434  0.54837232  0.39365029  1
  O2-  O269  1  0.42092361  0.55044527  0.72031966  1
  O2-  O270  1  0.91235043  0.04194593  0.06185417  1
  O2-  O271  1  0.91615055  0.04799847  0.39261398  1
  O2-  O272  1  0.91485034  0.05001239  0.73186654  1
  O2-  O273  1  0.91655717  0.54251763  0.07046784  1
  O2-  O274  1  0.91084150  0.54564203  0.39493606  1
  O2-  O275  1  0.91362458  0.53773318  0.73617384  1
  O2-  O276  1  0.28831319  0.16384514  0.07000041  1
  O2-  O277  1  0.28623385  0.16483679  0.40284141  1
  O2-  O278  1  0.28515966  0.16474914  0.73889761  1
  O2-  O279  1  0.29240617  0.66966865  0.06687770  1
  O2-  O280  1  0.30221687  0.67086485  0.39068450  1
  O2-  O281  1  0.29606597  0.66329490  0.72557979  1
  O2-  O282  1  0.79297454  0.16322575  0.06174980  1
  O2-  O283  1  0.79227834  0.16335097  0.39632582  1
  O2-  O284  1  0.79612314  0.16940905  0.72853964  1
  O2-  O285  1  0.78630776  0.66609977  0.07124051  1
  O2-  O286  1  0.78808159  0.66292040  0.39381599  1
  O2-  O287  1  0.79011821  0.66477702  0.73710831  1
