# generated using pymatgen
data_Ca2Al2SiO7
_symmetry_space_group_name_H-M   'P 1'
_cell_length_a   15.45913838
_cell_length_b   15.45678752
_cell_length_c   15.28381672
_cell_angle_alpha   90.00161081
_cell_angle_beta   90.00631237
_cell_angle_gamma   90.00191580
_symmetry_Int_Tables_number   1
_chemical_formula_structural   Ca2Al2SiO7
_chemical_formula_sum   'Ca48 Al48 Si24 O168'
_cell_volume   3652.04684591
_cell_formula_units_Z   24
loop_
 _symmetry_equiv_pos_site_id
 _symmetry_equiv_pos_as_xyz
  1  'x, y, z'
loop_
 _atom_type_symbol
 _atom_type_oxidation_number
  Ca2+  2.0
  Al0+  0.0
  Si0+  0.0
  O2-  -2.0
loop_
 _atom_site_type_symbol
 _atom_site_label
 _atom_site_symmetry_multiplicity
 _atom_site_fract_x
 _atom_site_fract_y
 _atom_site_fract_z
 _atom_site_occupancy
  Ca2+  Ca0  1  0.16439451  0.07794411  0.17200398  1
  Ca2+  Ca1  1  0.17486268  0.07475281  0.50475588  1
  Ca2+  Ca2  1  0.17331950  0.08721138  0.83717111  1
  Ca2+  Ca3  1  0.16785754  0.58686390  0.17355292  1
  Ca2+  Ca4  1  0.16961700  0.58277982  0.50846490  1
  Ca2+  Ca5  1  0.17393651  0.58155091  0.82980601  1
  Ca2+  Ca6  1  0.66644570  0.07807830  0.16944063  1
  Ca2+  Ca7  1  0.67029546  0.08006936  0.50649746  1
  Ca2+  Ca8  1  0.65611356  0.07229555  0.83607299  1
  Ca2+  Ca9  1  0.66492685  0.57599858  0.17374242  1
  Ca2+  Ca10  1  0.67010658  0.57606046  0.50466100  1
  Ca2+  Ca11  1  0.66639483  0.57867606  0.83965196  1
  Ca2+  Ca12  1  0.07193860  0.32785007  0.16148253  1
  Ca2+  Ca13  1  0.07654739  0.33777557  0.49394679  1
  Ca2+  Ca14  1  0.08656468  0.33015364  0.82891574  1
  Ca2+  Ca15  1  0.07854356  0.83116217  0.16543157  1
  Ca2+  Ca16  1  0.07972358  0.82744163  0.49309769  1
  Ca2+  Ca17  1  0.06645109  0.83544821  0.82755554  1
  Ca2+  Ca18  1  0.58443109  0.33162011  0.15601765  1
  Ca2+  Ca19  1  0.59518195  0.33074831  0.49879842  1
  Ca2+  Ca20  1  0.59133641  0.32486681  0.83079765  1
  Ca2+  Ca21  1  0.59219920  0.82073549  0.16374781  1
  Ca2+  Ca22  1  0.57398197  0.83039233  0.49700460  1
  Ca2+  Ca23  1  0.58725605  0.82981758  0.82517880  1
  Ca2+  Ca24  1  0.33605871  0.41601295  0.16791541  1
  Ca2+  Ca25  1  0.32451224  0.42669919  0.51160631  1
  Ca2+  Ca26  1  0.33471870  0.41755104  0.83449277  1
  Ca2+  Ca27  1  0.32752870  0.91479105  0.17584653  1
  Ca2+  Ca28  1  0.33208728  0.91203532  0.50680331  1
  Ca2+  Ca29  1  0.34330263  0.92419103  0.83216455  1
  Ca2+  Ca30  1  0.82191491  0.41846237  0.17748608  1
  Ca2+  Ca31  1  0.82848729  0.42699723  0.50248641  1
  Ca2+  Ca32  1  0.82263184  0.42303023  0.83344227  1
  Ca2+  Ca33  1  0.83256940  0.92095869  0.16715579  1
  Ca2+  Ca34  1  0.82939558  0.92024558  0.50664018  1
  Ca2+  Ca35  1  0.82347910  0.90907170  0.83762876  1
  Ca2+  Ca36  1  0.42435067  0.17617039  0.15647614  1
  Ca2+  Ca37  1  0.42196441  0.16377625  0.50297807  1
  Ca2+  Ca38  1  0.42617307  0.17050878  0.82774976  1
  Ca2+  Ca39  1  0.42951159  0.67126649  0.16607456  1
  Ca2+  Ca40  1  0.41795892  0.67392725  0.49290447  1
  Ca2+  Ca41  1  0.42358271  0.67080954  0.82755629  1
  Ca2+  Ca42  1  0.91483515  0.16915834  0.16525993  1
  Ca2+  Ca43  1  0.91151011  0.17503339  0.49107516  1
  Ca2+  Ca44  1  0.92421163  0.16514417  0.83076900  1
  Ca2+  Ca45  1  0.91936925  0.66615216  0.16495429  1
  Ca2+  Ca46  1  0.91610091  0.66454338  0.49590950  1
  Ca2+  Ca47  1  0.90824090  0.67639928  0.82750716  1
  Al0+  Al48  1  0.00039498  -0.00015251  -0.00771710  1
  Al0+  Al49  1  0.00185840  -0.00007859  0.34333741  1
  Al0+  Al50  1  0.00076244  0.00032603  0.66051228  1
  Al0+  Al51  1  0.00261527  0.50022433  -0.00117136  1
  Al0+  Al52  1  -0.00196264  0.49919759  0.32535291  1
  Al0+  Al53  1  -0.00049183  0.49960648  0.67672388  1
  Al0+  Al54  1  0.49940419  0.00053814  0.00696433  1
  Al0+  Al55  1  0.49809794  0.00223207  0.32884686  1
  Al0+  Al56  1  0.50045329  0.00048548  0.66460760  1
  Al0+  Al57  1  0.49873545  0.50257150  -0.00283695  1
  Al0+  Al58  1  0.49850495  0.49944420  0.33539882  1
  Al0+  Al59  1  0.49907340  0.49773380  0.67323667  1
  Al0+  Al60  1  0.24955260  0.25096564  -0.00425675  1
  Al0+  Al61  1  0.25078975  0.24846090  0.33372682  1
  Al0+  Al62  1  0.25157633  0.24778831  0.67134191  1
  Al0+  Al63  1  0.24990567  0.74981339  0.00040505  1
  Al0+  Al64  1  0.24775872  0.75067998  0.32948794  1
  Al0+  Al65  1  0.24755660  0.74988993  0.67057855  1
  Al0+  Al66  1  0.75130064  0.25015493  -0.00212367  1
  Al0+  Al67  1  0.75025277  0.24879866  0.33441444  1
  Al0+  Al68  1  0.75318686  0.24950095  0.66620156  1
  Al0+  Al69  1  0.75085428  0.75015541  -0.00159162  1
  Al0+  Al70  1  0.74998381  0.75075424  0.33314458  1
  Al0+  Al71  1  0.74981934  0.75125576  0.66517085  1
  Al0+  Al72  1  0.92833553  0.31995511  0.31972573  1
  Al0+  Al73  1  0.42924563  0.32242826  0.98392628  1
  Al0+  Al74  1  0.06917748  0.17965805  0.98694638  1
  Al0+  Al75  1  0.81971603  0.57234325  0.68273984  1
  Al0+  Al76  1  0.92670987  0.82129660  0.64962470  1
  Al0+  Al77  1  0.17868118  0.42826400  0.68162144  1
  Al0+  Al78  1  0.06894306  0.67885981  0.32075377  1
  Al0+  Al79  1  0.81998662  0.06940277  0.34607770  1
  Al0+  Al80  1  0.57164543  0.18056551  0.65139952  1
  Al0+  Al81  1  0.93114064  0.81872662  0.98737760  1
  Al0+  Al82  1  0.42814453  0.82248780  0.31773818  1
  Al0+  Al83  1  0.67846515  0.92844776  0.01490092  1
  Al0+  Al84  1  0.18056288  0.92800311  0.34755370  1
  Al0+  Al85  1  0.57298468  0.17768075  0.98499623  1
  Al0+  Al86  1  0.68036549  0.93187684  0.67757382  1
  Al0+  Al87  1  0.57070083  0.68134331  0.98574599  1
  Al0+  Al88  1  0.67637327  0.42894808  0.34828648  1
  Al0+  Al89  1  0.67966461  0.42974148  0.01384929  1
  Al0+  Al90  1  0.32198306  0.57412616  0.68219182  1
  Al0+  Al91  1  0.32103051  0.06804831  0.68104227  1
  Al0+  Al92  1  0.67904252  0.42639725  0.68312736  1
  Al0+  Al93  1  0.57198272  0.67811414  0.31987441  1
  Al0+  Al94  1  0.42922355  0.81981936  0.65517538  1
  Al0+  Al95  1  0.82270474  0.57251358  0.34640833  1
  Si0+  Si96  1  0.57143230  0.18029172  0.31818037  1
  Si0+  Si97  1  0.31892887  0.57016057  0.34616697  1
  Si0+  Si98  1  0.32001496  0.07223663  0.01676115  1
  Si0+  Si99  1  0.06929572  0.67778955  0.65213666  1
  Si0+  Si100  1  0.07325929  0.17772191  0.31912758  1
  Si0+  Si101  1  0.92784557  0.32413306  0.98096126  1
  Si0+  Si102  1  0.42690529  0.32188334  0.64852527  1
  Si0+  Si103  1  0.82472972  0.07270059  0.68368371  1
  Si0+  Si104  1  0.17927772  0.42781010  0.01801634  1
  Si0+  Si105  1  0.07447536  0.17881121  0.64873847  1
  Si0+  Si106  1  0.67547578  0.92788737  0.34992562  1
  Si0+  Si107  1  0.93194975  0.32052796  0.65198921  1
  Si0+  Si108  1  0.07523119  0.67619329  0.98063358  1
  Si0+  Si109  1  0.57169763  0.67500847  0.65048358  1
  Si0+  Si110  1  0.17597633  0.92778639  0.68555855  1
  Si0+  Si111  1  0.92787273  0.82542677  0.31783051  1
  Si0+  Si112  1  0.17791939  0.93041170  0.01349009  1
  Si0+  Si113  1  0.42562242  0.82218279  0.98455418  1
  Si0+  Si114  1  0.42645701  0.32059676  0.32079836  1
  Si0+  Si115  1  0.31972234  0.57220041  0.01803306  1
  Si0+  Si116  1  0.82489047  0.07086965  0.01411688  1
  Si0+  Si117  1  0.17854195  0.42726836  0.34416462  1
  Si0+  Si118  1  0.82330228  0.57222088  0.01748567  1
  Si0+  Si119  1  0.32265436  0.07363076  0.35016206  1
  O2-  O120  1  0.25032389  -0.00083473  0.05788078  1
  O2-  O121  1  0.25841129  0.00018719  0.39292272  1
  O2-  O122  1  0.24663968  -0.00603678  0.73037932  1
  O2-  O123  1  0.24865553  0.50035714  0.06058622  1
  O2-  O124  1  0.24736374  0.49918178  0.38750795  1
  O2-  O125  1  0.25325319  0.49789487  0.73155401  1
  O2-  O126  1  0.75154807  0.00699041  0.05856292  1
  O2-  O127  1  0.74655941  -0.00573183  0.39369995  1
  O2-  O128  1  0.75704066  0.00344812  0.72734911  1
  O2-  O129  1  0.75676650  0.50160750  0.06152583  1
  O2-  O130  1  0.74697153  0.50387748  0.39555074  1
  O2-  O131  1  0.74391327  0.50464696  0.73327748  1
  O2-  O132  1  0.00325653  0.24417107  0.27402607  1
  O2-  O133  1  0.00347653  0.25012124  0.60790778  1
  O2-  O134  1  -0.00350452  0.25478467  0.93759354  1
  O2-  O135  1  -0.00748624  0.75234176  0.27408714  1
  O2-  O136  1  0.00147621  0.74557793  0.60557687  1
  O2-  O137  1  0.00331397  0.74203870  0.93872438  1
  O2-  O138  1  0.50038023  0.25264076  0.27862868  1
  O2-  O139  1  0.50033015  0.25880025  0.60312219  1
  O2-  O140  1  0.50342996  0.25219546  0.93501939  1
  O2-  O141  1  0.50425464  0.75454908  0.26860712  1
  O2-  O142  1  0.49848928  0.74031830  0.60785909  1
  O2-  O143  1  0.49868580  0.75918524  0.94012934  1
  O2-  O144  1  0.06780331  0.17957801  0.10038108  1
  O2-  O145  1  0.07621931  0.18168354  0.42449979  1
  O2-  O146  1  0.07299582  0.17805157  0.75409926  1
  O2-  O147  1  0.07706432  0.67718625  0.08655728  1
  O2-  O148  1  0.07194724  0.67861406  0.43359001  1
  O2-  O149  1  0.06944390  0.68030014  0.75780434  1
  O2-  O150  1  0.57010398  0.17776235  0.09935686  1
  O2-  O151  1  0.57075876  0.17829931  0.42320291  1
  O2-  O152  1  0.56916313  0.17878572  0.76400023  1
  O2-  O153  1  0.56953481  0.67992023  0.09884335  1
  O2-  O154  1  0.56725085  0.67590162  0.43326243  1
  O2-  O155  1  0.57249864  0.67856553  0.75625448  1
  O2-  O156  1  0.18222012  0.42551135  0.23889591  1
  O2-  O157  1  0.17753841  0.43021383  0.56703026  1
  O2-  O158  1  0.17912064  0.42766553  0.91343254  1
  O2-  O159  1  0.17891683  0.93138360  0.23363861  1
  O2-  O160  1  0.17650974  0.92888519  0.57985179  1
  O2-  O161  1  0.17801331  0.93213576  0.90879850  1
  O2-  O162  1  0.67592247  0.42757046  0.23434046  1
  O2-  O163  1  0.68419676  0.42570384  0.56961443  1
  O2-  O164  1  0.68188022  0.43073131  0.90130699  1
  O2-  O165  1  0.67648237  0.92993300  0.24405845  1
  O2-  O166  1  0.68040587  0.93449590  0.56435641  1
  O2-  O167  1  0.67859363  0.92790618  0.90190823  1
  O2-  O168  1  0.42747982  0.31933177  0.09864390  1
  O2-  O169  1  0.42013612  0.31840368  0.42513832  1
  O2-  O170  1  0.42345811  0.31745657  0.75358943  1
  O2-  O171  1  0.42017136  0.81763459  0.08986105  1
  O2-  O172  1  0.42714899  0.81975152  0.43148449  1
  O2-  O173  1  0.43352267  0.82126872  0.76843607  1
  O2-  O174  1  0.92942608  0.32395083  0.08677348  1
  O2-  O175  1  0.93199321  0.32002484  0.43301807  1
  O2-  O176  1  0.93318529  0.31719254  0.75714654  1
  O2-  O177  1  0.93504777  0.82107077  0.10065858  1
  O2-  O178  1  0.93110260  0.82676316  0.42312957  1
  O2-  O179  1  0.92891017  0.82246133  0.76298506  1
  O2-  O180  1  0.31908088  0.07826776  0.24449657  1
  O2-  O181  1  0.31850955  0.06766873  0.56778866  1
  O2-  O182  1  0.31997603  0.07130732  0.91183959  1
  O2-  O183  1  0.31886153  0.56776650  0.24068702  1
  O2-  O184  1  0.31780911  0.57430401  0.56778815  1
  O2-  O185  1  0.31683314  0.57444912  0.91350944  1
  O2-  O186  1  0.81971606  0.06913337  0.23261154  1
  O2-  O187  1  0.82343321  0.07345224  0.57775444  1
  O2-  O188  1  0.82952334  0.06757152  0.90893270  1
  O2-  O189  1  0.82455152  0.56832141  0.23270950  1
  O2-  O190  1  0.82324527  0.56923646  0.56934515  1
  O2-  O191  1  0.82221711  0.57197623  0.91201895  1
  O2-  O192  1  0.04844804  0.08264415  0.27625956  1
  O2-  O193  1  0.04761996  0.08722452  0.60054338  1
  O2-  O194  1  0.03993676  0.08511959  0.92831390  1
  O2-  O195  1  0.04217994  0.58329420  0.26168030  1
  O2-  O196  1  0.04482381  0.58247267  0.60910150  1
  O2-  O197  1  0.05453127  0.58079125  0.93662745  1
  O2-  O198  1  0.54310329  0.08951949  0.26857547  1
  O2-  O199  1  0.53581847  0.08638404  0.59570764  1
  O2-  O200  1  0.53928107  0.07883812  0.93568800  1
  O2-  O201  1  0.53737374  0.58069950  0.26656913  1
  O2-  O202  1  0.54998276  0.57882827  0.60825555  1
  O2-  O203  1  0.53572464  0.58741830  0.93064766  1
  O2-  O204  1  0.16595784  0.20428537  0.27065050  1
  O2-  O205  1  0.16683647  0.20571139  0.60245337  1
  O2-  O206  1  0.16492721  0.21057492  0.93191345  1
  O2-  O207  1  0.16342554  0.71156446  0.26291136  1
  O2-  O208  1  0.16323473  0.70332217  0.60646625  1
  O2-  O209  1  0.16756086  0.70556666  0.93453537  1
  O2-  O210  1  0.66279733  0.20656097  0.27006282  1
  O2-  O211  1  0.67056709  0.20810328  0.59887523  1
  O2-  O212  1  0.67307062  0.20049587  0.93312534  1
  O2-  O213  1  0.67150319  0.70353371  0.26610813  1
  O2-  O214  1  0.66317947  0.70522149  0.60358592  1
  O2-  O215  1  0.66770131  0.70933644  0.93227599  1
  O2-  O216  1  0.08633910  0.45467381  0.06490585  1
  O2-  O217  1  0.08562264  0.45351313  0.38847466  1
  O2-  O218  1  0.08330578  0.45691372  0.74000321  1
  O2-  O219  1  0.08714710  0.96152676  0.06114123  1
  O2-  O220  1  0.08724506  0.96003890  0.40651846  1
  O2-  O221  1  0.08305425  0.95924022  0.72998595  1
  O2-  O222  1  0.58142167  0.46121041  0.06479906  1
  O2-  O223  1  0.57679360  0.45268674  0.40189286  1
  O2-  O224  1  0.57722220  0.44275887  0.73238372  1
  O2-  O225  1  0.58190271  0.95611808  0.07169378  1
  O2-  O226  1  0.58172406  0.95750008  0.39343286  1
  O2-  O227  1  0.58530128  0.96444223  0.73248671  1
  O2-  O228  1  0.20789765  0.33591003  0.06527708  1
  O2-  O229  1  0.20654226  0.33613766  0.39309460  1
  O2-  O230  1  0.20557399  0.32941963  0.73415435  1
  O2-  O231  1  0.20349409  0.83713537  0.06020709  1
  O2-  O232  1  0.20928224  0.83074602  0.40127156  1
  O2-  O233  1  0.19542853  0.83340913  0.73127797  1
  O2-  O234  1  0.70855371  0.33080212  0.06595921  1
  O2-  O235  1  0.70859966  0.33118541  0.39939380  1
  O2-  O236  1  0.71630297  0.33026025  0.73579939  1
  O2-  O237  1  0.71492627  0.83339384  0.06900030  1
  O2-  O238  1  0.69675325  0.83318934  0.39446316  1
  O2-  O239  1  0.70896150  0.83488019  0.73105265  1
  O2-  O240  1  0.44977287  0.41350475  0.27372465  1
  O2-  O241  1  0.44506731  0.41889414  0.60628796  1
  O2-  O242  1  0.45055251  0.42252342  0.93354017  1
  O2-  O243  1  0.44809493  0.92378085  0.26610132  1
  O2-  O244  1  0.46210082  0.91446926  0.59893615  1
  O2-  O245  1  0.44651149  0.91909869  0.94519144  1
  O2-  O246  1  0.96030484  0.41297277  0.26041735  1
  O2-  O247  1  0.96103866  0.41330041  0.60750569  1
  O2-  O248  1  0.95650602  0.41714589  0.93542936  1
  O2-  O249  1  0.96072547  0.91762111  0.27234131  1
  O2-  O250  1  0.95895435  0.91802729  0.59580477  1
  O2-  O251  1  0.96400574  0.91282965  0.93000563  1
  O2-  O252  1  0.33650459  0.28982711  0.26934444  1
  O2-  O253  1  0.33452067  0.29030144  0.60188886  1
  O2-  O254  1  0.33145519  0.29228567  0.93118337  1
  O2-  O255  1  0.33123260  0.79050449  0.26380918  1
  O2-  O256  1  0.32888654  0.79410461  0.60500617  1
  O2-  O257  1  0.33355213  0.79357380  0.93636887  1
  O2-  O258  1  0.83316749  0.28578371  0.26467193  1
  O2-  O259  1  0.84161787  0.29135162  0.60296230  1
  O2-  O260  1  0.83520414  0.29856331  0.93430566  1
  O2-  O261  1  0.83228771  0.80688939  0.27346206  1
  O2-  O262  1  0.83024192  0.79274665  0.59490933  1
  O2-  O263  1  0.83520905  0.78907084  0.93237154  1
  O2-  O264  1  0.41080678  0.04715781  0.06750971  1
  O2-  O265  1  0.41819896  0.05309369  0.39396373  1
  O2-  O266  1  0.41656899  0.03624545  0.73546826  1
  O2-  O267  1  0.41114668  0.54417843  0.06555974  1
  O2-  O268  1  0.40895625  0.54216627  0.39575791  1
  O2-  O269  1  0.42015667  0.54889993  0.73611218  1
  O2-  O270  1  0.91666467  0.03958294  0.06211530  1
  O2-  O271  1  0.91675578  0.04460240  0.40289655  1
  O2-  O272  1  0.92010221  0.04822261  0.72653022  1
  O2-  O273  1  0.91995874  0.54942537  0.05987902  1
  O2-  O274  1  0.92080502  0.53896024  0.39828027  1
  O2-  O275  1  0.91575310  0.54167079  0.73941811  1
  O2-  O276  1  0.28885004  0.16384124  0.06309352  1
  O2-  O277  1  0.29209351  0.16470750  0.39953394  1
  O2-  O278  1  0.28994961  0.16332908  0.73679296  1
  O2-  O279  1  0.28952505  0.66338041  0.06667693  1
  O2-  O280  1  0.28957596  0.66170918  0.39182003  1
  O2-  O281  1  0.28870831  0.66957083  0.73925989  1
  O2-  O282  1  0.80527036  0.16694704  0.05763196  1
  O2-  O283  1  0.78798180  0.16470946  0.40164041  1
  O2-  O284  1  0.80145219  0.16603935  0.72978627  1
  O2-  O285  1  0.79772634  0.66570507  0.06279692  1
  O2-  O286  1  0.80200835  0.67376908  0.39685152  1
  O2-  O287  1  0.79382229  0.67207657  0.73332811  1
