# generated using pymatgen
data_Ca2Al2SiO7
_symmetry_space_group_name_H-M   'P 1'
_cell_length_a   15.45781141
_cell_length_b   15.45694404
_cell_length_c   15.28365484
_cell_angle_alpha   90.00478434
_cell_angle_beta   89.98886126
_cell_angle_gamma   90.00273554
_symmetry_Int_Tables_number   1
_chemical_formula_structural   Ca2Al2SiO7
_chemical_formula_sum   'Ca48 Al48 Si24 O168'
_cell_volume   3651.73160316
_cell_formula_units_Z   24
loop_
 _symmetry_equiv_pos_site_id
 _symmetry_equiv_pos_as_xyz
  1  'x, y, z'
loop_
 _atom_type_symbol
 _atom_type_oxidation_number
  Ca2+  2.0
  Al0+  0.0
  Si0+  0.0
  O2-  -2.0
loop_
 _atom_site_type_symbol
 _atom_site_label
 _atom_site_symmetry_multiplicity
 _atom_site_fract_x
 _atom_site_fract_y
 _atom_site_fract_z
 _atom_site_occupancy
  Ca2+  Ca0  1  0.16898734  0.07211256  0.17189728  1
  Ca2+  Ca1  1  0.18000380  0.08005786  0.50751799  1
  Ca2+  Ca2  1  0.16157853  0.06840378  0.83457963  1
  Ca2+  Ca3  1  0.16830290  0.57977737  0.17440591  1
  Ca2+  Ca4  1  0.17411834  0.57653180  0.50558122  1
  Ca2+  Ca5  1  0.16053882  0.58580013  0.82969377  1
  Ca2+  Ca6  1  0.67255805  0.07559807  0.16994306  1
  Ca2+  Ca7  1  0.66754984  0.07910378  0.50506485  1
  Ca2+  Ca8  1  0.67687597  0.08685341  0.83405125  1
  Ca2+  Ca9  1  0.67564181  0.58891141  0.17678218  1
  Ca2+  Ca10  1  0.67216729  0.58822899  0.49916524  1
  Ca2+  Ca11  1  0.66959808  0.57928642  0.83595155  1
  Ca2+  Ca12  1  0.07570164  0.33576915  0.16564987  1
  Ca2+  Ca13  1  0.07935466  0.34286082  0.49605774  1
  Ca2+  Ca14  1  0.07211825  0.33469723  0.82553964  1
  Ca2+  Ca15  1  0.08219690  0.82469247  0.15346915  1
  Ca2+  Ca16  1  0.08408624  0.83382850  0.50352746  1
  Ca2+  Ca17  1  0.08474310  0.82949432  0.82678661  1
  Ca2+  Ca18  1  0.57332078  0.33680075  0.16745472  1
  Ca2+  Ca19  1  0.57479411  0.32482774  0.49557960  1
  Ca2+  Ca20  1  0.58130251  0.32461370  0.82423034  1
  Ca2+  Ca21  1  0.57535612  0.83451855  0.17073107  1
  Ca2+  Ca22  1  0.57711355  0.82998385  0.48726594  1
  Ca2+  Ca23  1  0.57422875  0.83779568  0.83178337  1
  Ca2+  Ca24  1  0.32551591  0.42311944  0.18243599  1
  Ca2+  Ca25  1  0.32630270  0.42206803  0.50578242  1
  Ca2+  Ca26  1  0.32614007  0.42279340  0.83279312  1
  Ca2+  Ca27  1  0.33404480  0.91594853  0.17095609  1
  Ca2+  Ca28  1  0.33399406  0.92370093  0.50584733  1
  Ca2+  Ca29  1  0.32304613  0.91564432  0.83529182  1
  Ca2+  Ca30  1  0.83712920  0.42110659  0.17419124  1
  Ca2+  Ca31  1  0.84147941  0.42050209  0.50125173  1
  Ca2+  Ca32  1  0.83701331  0.41232666  0.83703347  1
  Ca2+  Ca33  1  0.83241124  0.91896602  0.17200166  1
  Ca2+  Ca34  1  0.82623404  0.91809192  0.50850138  1
  Ca2+  Ca35  1  0.84602283  0.92732167  0.83749055  1
  Ca2+  Ca36  1  0.41069667  0.16927050  0.16979080  1
  Ca2+  Ca37  1  0.41596577  0.16356569  0.49273862  1
  Ca2+  Ca38  1  0.42460796  0.16086907  0.82438208  1
  Ca2+  Ca39  1  0.41348848  0.67644788  0.16614158  1
  Ca2+  Ca40  1  0.41732396  0.66795309  0.48964381  1
  Ca2+  Ca41  1  0.41083886  0.67189637  0.82978601  1
  Ca2+  Ca42  1  0.91166854  0.17737643  0.16163639  1
  Ca2+  Ca43  1  0.91636929  0.17583329  0.49862368  1
  Ca2+  Ca44  1  0.90965073  0.17275124  0.82572092  1
  Ca2+  Ca45  1  0.92212790  0.67049656  0.15931830  1
  Ca2+  Ca46  1  0.92293542  0.66742471  0.49792682  1
  Ca2+  Ca47  1  0.92951416  0.68088138  0.82663883  1
  Al0+  Al48  1  0.00116590  0.00259790  0.01111760  1
  Al0+  Al49  1  -0.00018106  0.00156833  0.33413301  1
  Al0+  Al50  1  -0.00119822  0.00255006  0.66772661  1
  Al0+  Al51  1  -0.00044962  0.49928916  -0.00727614  1
  Al0+  Al52  1  -0.00139500  0.50072029  0.33565071  1
  Al0+  Al53  1  -0.00015439  0.50269965  0.66388439  1
  Al0+  Al54  1  0.50134017  0.00033027  -0.00352674  1
  Al0+  Al55  1  0.50162391  -0.00139826  0.33497701  1
  Al0+  Al56  1  0.50249354  -0.00101009  0.66594579  1
  Al0+  Al57  1  0.49929063  0.49933681  -0.00002860  1
  Al0+  Al58  1  0.50296024  0.49877995  0.32827605  1
  Al0+  Al59  1  0.50059014  0.49941413  0.67155998  1
  Al0+  Al60  1  0.24942377  0.25119126  -0.00064591  1
  Al0+  Al61  1  0.24817465  0.24698340  0.33534992  1
  Al0+  Al62  1  0.25012978  0.25248343  0.67716480  1
  Al0+  Al63  1  0.25202241  0.74929144  -0.00370058  1
  Al0+  Al64  1  0.24858746  0.74924450  0.33246565  1
  Al0+  Al65  1  0.25069960  0.74987086  0.66740023  1
  Al0+  Al66  1  0.74771165  0.24986545  0.00323106  1
  Al0+  Al67  1  0.75016348  0.25040127  0.32798634  1
  Al0+  Al68  1  0.74755442  0.24920237  0.65899115  1
  Al0+  Al69  1  0.74892441  0.74964311  -0.00403349  1
  Al0+  Al70  1  0.75018078  0.75025231  0.33856183  1
  Al0+  Al71  1  0.74886482  0.74975638  0.66705125  1
  Al0+  Al72  1  0.68171688  0.93028676  0.34672086  1
  Al0+  Al73  1  0.32324338  0.57207557  0.34587797  1
  Al0+  Al74  1  0.42737542  0.31931772  0.32165071  1
  Al0+  Al75  1  0.82008376  0.57020266  0.34688422  1
  Al0+  Al76  1  0.56882151  0.17835263  0.65175014  1
  Al0+  Al77  1  0.43103109  0.82084599  0.98452306  1
  Al0+  Al78  1  0.17948069  0.93062943  0.68073438  1
  Al0+  Al79  1  0.18097954  0.92791578  0.01514974  1
  Al0+  Al80  1  0.17844754  0.42868635  0.34713173  1
  Al0+  Al81  1  0.81830221  0.07125352  0.67781485  1
  Al0+  Al82  1  0.92829866  0.82449333  0.65023968  1
  Al0+  Al83  1  0.31980447  0.06805718  0.34494244  1
  Al0+  Al84  1  0.92737031  0.82440919  0.98776857  1
  Al0+  Al85  1  0.93063268  0.32094665  0.31871380  1
  Al0+  Al86  1  0.42732460  0.82126522  0.31918822  1
  Al0+  Al87  1  0.57323502  0.67802784  0.31909604  1
  Al0+  Al88  1  0.32479549  0.07215103  0.68271843  1
  Al0+  Al89  1  0.92938045  0.32028364  0.65155722  1
  Al0+  Al90  1  0.82107721  0.07159713  0.01545393  1
  Al0+  Al91  1  0.92891413  0.31809405  0.98610630  1
  Al0+  Al92  1  0.07170441  0.67896946  0.98457196  1
  Al0+  Al93  1  0.32301785  0.57096998  0.68301592  1
  Al0+  Al94  1  0.07231558  0.68100208  0.64721913  1
  Al0+  Al95  1  0.17583680  0.43017704  0.68463425  1
  Si0+  Si96  1  0.57147793  0.67585679  0.65247799  1
  Si0+  Si97  1  0.07397414  0.17824128  0.98405825  1
  Si0+  Si98  1  0.43098024  0.81919947  0.65148694  1
  Si0+  Si99  1  0.57212507  0.17675270  0.31386130  1
  Si0+  Si100  1  0.82104993  0.57251246  0.68363079  1
  Si0+  Si101  1  0.57239189  0.67533794  0.98175516  1
  Si0+  Si102  1  0.42735401  0.32286190  0.65253327  1
  Si0+  Si103  1  0.67745832  0.42511715  0.35008465  1
  Si0+  Si104  1  0.32454096  0.07224365  0.01643138  1
  Si0+  Si105  1  0.68059241  0.42932639  0.68036395  1
  Si0+  Si106  1  0.42690439  0.32298815  0.98417741  1
  Si0+  Si107  1  0.07442732  0.17852979  0.65124348  1
  Si0+  Si108  1  0.67884333  0.92537772  0.68534946  1
  Si0+  Si109  1  0.07235356  0.17554514  0.31553451  1
  Si0+  Si110  1  0.32235908  0.56939644  0.01673250  1
  Si0+  Si111  1  0.81992284  0.56942772  0.01214776  1
  Si0+  Si112  1  0.67643377  0.92732629  0.01622569  1
  Si0+  Si113  1  0.82267844  0.07448873  0.35094279  1
  Si0+  Si114  1  0.17771743  0.42910591  0.01551186  1
  Si0+  Si115  1  0.17505660  0.92560521  0.34957345  1
  Si0+  Si116  1  0.56885359  0.18124112  0.98567646  1
  Si0+  Si117  1  0.92854830  0.82257667  0.32010148  1
  Si0+  Si118  1  0.67741959  0.42856181  0.01587501  1
  Si0+  Si119  1  0.06920474  0.68004093  0.31871453  1
  O2-  O120  1  0.25585867  0.00375202  0.06047259  1
  O2-  O121  1  0.24689894  -0.00797024  0.39138423  1
  O2-  O122  1  0.25019146  0.00347851  0.73280529  1
  O2-  O123  1  0.24978084  0.49920960  0.05769094  1
  O2-  O124  1  0.25487116  0.49683774  0.39556978  1
  O2-  O125  1  0.24862096  0.50196552  0.73465932  1
  O2-  O126  1  0.75139908  -0.00980664  0.05943450  1
  O2-  O127  1  0.75561920  0.00476186  0.39474482  1
  O2-  O128  1  0.75032044  -0.00827780  0.72815461  1
  O2-  O129  1  0.74735922  0.50093987  0.05667665  1
  O2-  O130  1  0.74540718  0.49471460  0.39380410  1
  O2-  O131  1  0.75194130  0.49876008  0.72518303  1
  O2-  O132  1  0.00313742  0.24451166  0.27168876  1
  O2-  O133  1  0.00906646  0.25027742  0.60607489  1
  O2-  O134  1  0.00196334  0.24285259  0.93861470  1
  O2-  O135  1  0.00237705  0.75532188  0.27692969  1
  O2-  O136  1  -0.00020332  0.75342509  0.59792357  1
  O2-  O137  1  0.00268181  0.75600672  0.93775399  1
  O2-  O138  1  0.50250974  0.24571930  0.27107623  1
  O2-  O139  1  0.48767597  0.24719553  0.60760398  1
  O2-  O140  1  0.49529063  0.24936789  0.94263646  1
  O2-  O141  1  0.49687170  0.74570920  0.26949398  1
  O2-  O142  1  0.50061186  0.74633429  0.61069608  1
  O2-  O143  1  0.50546260  0.74533295  0.93737267  1
  O2-  O144  1  0.07673043  0.18305792  0.08963969  1
  O2-  O145  1  0.07144942  0.17178313  0.42071496  1
  O2-  O146  1  0.07022076  0.17751518  0.75703300  1
  O2-  O147  1  0.06884870  0.67583288  0.09901408  1
  O2-  O148  1  0.06851180  0.67932764  0.42318589  1
  O2-  O149  1  0.06894014  0.68190895  0.76084824  1
  O2-  O150  1  0.56858272  0.18231391  0.09062484  1
  O2-  O151  1  0.57320074  0.17753578  0.41931659  1
  O2-  O152  1  0.57160920  0.18270985  0.76560083  1
  O2-  O153  1  0.57297255  0.67242584  0.08670044  1
  O2-  O154  1  0.57433245  0.68190094  0.43297973  1
  O2-  O155  1  0.57233821  0.67583490  0.75790929  1
  O2-  O156  1  0.17693536  0.43216299  0.23252446  1
  O2-  O157  1  0.17779743  0.43073625  0.57129274  1
  O2-  O158  1  0.17874259  0.42824178  0.91096110  1
  O2-  O159  1  0.17271469  0.92656912  0.24381093  1
  O2-  O160  1  0.18277307  0.93169739  0.56694995  1
  O2-  O161  1  0.18126202  0.92873988  0.90252045  1
  O2-  O162  1  0.67942011  0.42401982  0.24397182  1
  O2-  O163  1  0.67840082  0.43162572  0.57579167  1
  O2-  O164  1  0.67652081  0.42767917  0.91043724  1
  O2-  O165  1  0.68369593  0.93158581  0.23311434  1
  O2-  O166  1  0.67733237  0.92542353  0.57985370  1
  O2-  O167  1  0.67158954  0.93145569  0.91094925  1
  O2-  O168  1  0.42786892  0.32448786  0.08921754  1
  O2-  O169  1  0.42950093  0.31689950  0.43450942  1
  O2-  O170  1  0.43454429  0.32563297  0.75859457  1
  O2-  O171  1  0.43219527  0.82090796  0.09727715  1
  O2-  O172  1  0.42984616  0.82294555  0.43276921  1
  O2-  O173  1  0.43345542  0.81968664  0.75699344  1
  O2-  O174  1  0.92993786  0.32073063  0.09909710  1
  O2-  O175  1  0.93080162  0.31971399  0.43151684  1
  O2-  O176  1  0.92606031  0.31718291  0.76498617  1
  O2-  O177  1  0.92620858  0.81829184  0.10209912  1
  O2-  O178  1  0.92883110  0.82236787  0.42480003  1
  O2-  O179  1  0.92823448  0.82291845  0.76378991  1
  O2-  O180  1  0.31747103  0.06805047  0.23137854  1
  O2-  O181  1  0.32549147  0.06853391  0.56903789  1
  O2-  O182  1  0.32616477  0.07203695  0.91131507  1
  O2-  O183  1  0.31779704  0.57246649  0.23154278  1
  O2-  O184  1  0.32850333  0.56741658  0.56998935  1
  O2-  O185  1  0.32692811  0.56602788  0.91203279  1
  O2-  O186  1  0.82121072  0.07373012  0.24503050  1
  O2-  O187  1  0.81355581  0.07258578  0.56498628  1
  O2-  O188  1  0.81613907  0.07663356  0.90252994  1
  O2-  O189  1  0.82124880  0.56981224  0.23298090  1
  O2-  O190  1  0.81862694  0.57330023  0.57858135  1
  O2-  O191  1  0.81679018  0.56651894  0.90710014  1
  O2-  O192  1  0.04567303  0.08227146  0.26719276  1
  O2-  O193  1  0.04642125  0.08701920  0.60291575  1
  O2-  O194  1  0.05071348  0.08251756  0.94328910  1
  O2-  O195  1  0.03627508  0.59017887  0.27053871  1
  O2-  O196  1  0.04028406  0.58349465  0.59519744  1
  O2-  O197  1  0.03871002  0.58320516  0.92934835  1
  O2-  O198  1  0.54578164  0.08378159  0.26767473  1
  O2-  O199  1  0.54447996  0.07994333  0.59831086  1
  O2-  O200  1  0.54494650  0.08934113  0.93676467  1
  O2-  O201  1  0.55653182  0.57722167  0.26612896  1
  O2-  O202  1  0.54576161  0.58310033  0.60635824  1
  O2-  O203  1  0.54507119  0.58164676  0.93502572  1
  O2-  O204  1  0.16513009  0.20052357  0.26790172  1
  O2-  O205  1  0.17091194  0.20141061  0.60966660  1
  O2-  O206  1  0.16662701  0.20498086  0.93609515  1
  O2-  O207  1  0.16156923  0.70361202  0.27007613  1
  O2-  O208  1  0.17205728  0.70795567  0.59637384  1
  O2-  O209  1  0.17112937  0.70244937  0.93291080  1
  O2-  O210  1  0.66490363  0.20356011  0.26618420  1
  O2-  O211  1  0.66031881  0.21588710  0.59339248  1
  O2-  O212  1  0.65882945  0.21403638  0.93764382  1
  O2-  O213  1  0.67049614  0.71304507  0.26579106  1
  O2-  O214  1  0.66347458  0.70288719  0.60554027  1
  O2-  O215  1  0.66616754  0.69810441  0.93434076  1
  O2-  O216  1  0.08499180  0.45804397  0.06073508  1
  O2-  O217  1  0.08235222  0.46190956  0.40031729  1
  O2-  O218  1  0.07704941  0.46102576  0.73657936  1
  O2-  O219  1  0.08613796  0.95817501  0.07361428  1
  O2-  O220  1  0.08240909  0.95403009  0.39646567  1
  O2-  O221  1  0.08084066  0.95909553  0.73365922  1
  O2-  O222  1  0.58478840  0.45534765  0.06296476  1
  O2-  O223  1  0.58342911  0.44788778  0.39556946  1
  O2-  O224  1  0.59076426  0.45746279  0.73254789  1
  O2-  O225  1  0.58604069  0.96142173  0.06468033  1
  O2-  O226  1  0.58585186  0.96072217  0.40175446  1
  O2-  O227  1  0.58703860  0.95596314  0.73210141  1
  O2-  O228  1  0.20503210  0.33679150  0.06286169  1
  O2-  O229  1  0.20058681  0.32841359  0.39764406  1
  O2-  O230  1  0.20134929  0.33230000  0.74104130  1
  O2-  O231  1  0.21294600  0.83038765  0.06733222  1
  O2-  O232  1  0.19707746  0.83131172  0.39420539  1
  O2-  O233  1  0.20991745  0.83299068  0.73322025  1
  O2-  O234  1  0.70480489  0.33816382  0.06532011  1
  O2-  O235  1  0.70362645  0.33113066  0.39505914  1
  O2-  O236  1  0.70845536  0.33719560  0.72705496  1
  O2-  O237  1  0.69480624  0.83032818  0.05836787  1
  O2-  O238  1  0.71188088  0.83549876  0.40349501  1
  O2-  O239  1  0.69849433  0.83047746  0.73175554  1
  O2-  O240  1  0.45923441  0.41423681  0.26362697  1
  O2-  O241  1  0.46269238  0.41319652  0.60582606  1
  O2-  O242  1  0.45910350  0.41295293  0.93560190  1
  O2-  O243  1  0.46188977  0.91785559  0.26499495  1
  O2-  O244  1  0.46210147  0.90996772  0.60447713  1
  O2-  O245  1  0.46310507  0.91707453  0.92971712  1
  O2-  O246  1  0.96196714  0.41800820  0.26492269  1
  O2-  O247  1  0.95549540  0.41901241  0.60041867  1
  O2-  O248  1  0.95920155  0.41357060  0.93021832  1
  O2-  O249  1  0.95127859  0.91664896  0.27390031  1
  O2-  O250  1  0.95317423  0.92424700  0.59819053  1
  O2-  O251  1  0.95211361  0.92675159  0.94283171  1
  O2-  O252  1  0.33135973  0.28718812  0.26604400  1
  O2-  O253  1  0.32980598  0.30714628  0.61291445  1
  O2-  O254  1  0.33399494  0.29923240  0.93747251  1
  O2-  O255  1  0.32782255  0.79569645  0.26556152  1
  O2-  O256  1  0.33887392  0.79463009  0.60504527  1
  O2-  O257  1  0.33627362  0.78812793  0.92930934  1
  O2-  O258  1  0.83306777  0.29262645  0.26353832  1
  O2-  O259  1  0.83435988  0.28733318  0.59612368  1
  O2-  O260  1  0.82951480  0.28998740  0.93551952  1
  O2-  O261  1  0.83800991  0.79136885  0.27331408  1
  O2-  O262  1  0.82830180  0.79328348  0.60060402  1
  O2-  O263  1  0.82924868  0.79648906  0.93345827  1
  O2-  O264  1  0.41853711  0.04669846  0.06208863  1
  O2-  O265  1  0.41755642  0.04143739  0.39795325  1
  O2-  O266  1  0.42283733  0.03947307  0.73498919  1
  O2-  O267  1  0.41401259  0.54011516  0.06438700  1
  O2-  O268  1  0.42493599  0.54850681  0.39308414  1
  O2-  O269  1  0.42046678  0.54018345  0.73963846  1
  O2-  O270  1  0.91805441  0.05086436  0.07317832  1
  O2-  O271  1  0.91742981  0.05174341  0.39519762  1
  O2-  O272  1  0.91617576  0.04833648  0.73263515  1
  O2-  O273  1  0.91153909  0.53921561  0.05854404  1
  O2-  O274  1  0.91435588  0.53773411  0.40322493  1
  O2-  O275  1  0.91277472  0.54606158  0.72991334  1
  O2-  O276  1  0.29933840  0.16767580  0.06035989  1
  O2-  O277  1  0.28867845  0.16315003  0.40102222  1
  O2-  O278  1  0.30545468  0.17268475  0.73474533  1
  O2-  O279  1  0.29611632  0.66234763  0.06125771  1
  O2-  O280  1  0.29309531  0.66977123  0.39888973  1
  O2-  O281  1  0.29629885  0.66999979  0.73469528  1
  O2-  O282  1  0.78136460  0.16540870  0.07132150  1
  O2-  O283  1  0.79489742  0.16832734  0.39450195  1
  O2-  O284  1  0.78006702  0.16658234  0.73125991  1
  O2-  O285  1  0.79390693  0.66241535  0.05886660  1
  O2-  O286  1  0.78916531  0.66491444  0.40381262  1
  O2-  O287  1  0.78882654  0.66244851  0.73259719  1
