# generated using pymatgen
data_Ca2Al2SiO7
_symmetry_space_group_name_H-M   'P 1'
_cell_length_a   15.45500300
_cell_length_b   15.45410817
_cell_length_c   15.28085004
_cell_angle_alpha   90.00850237
_cell_angle_beta   90.01425699
_cell_angle_gamma   90.00017106
_symmetry_Int_Tables_number   1
_chemical_formula_structural   Ca2Al2SiO7
_chemical_formula_sum   'Ca48 Al48 Si24 O168'
_cell_volume   3649.72831588
_cell_formula_units_Z   24
loop_
 _symmetry_equiv_pos_site_id
 _symmetry_equiv_pos_as_xyz
  1  'x, y, z'
loop_
 _atom_type_symbol
 _atom_type_oxidation_number
  Ca2+  2.0
  Al0+  0.0
  Si0+  0.0
  O2-  -2.0
loop_
 _atom_site_type_symbol
 _atom_site_label
 _atom_site_symmetry_multiplicity
 _atom_site_fract_x
 _atom_site_fract_y
 _atom_site_fract_z
 _atom_site_occupancy
  Ca2+  Ca0  1  0.15008466  0.07536801  0.16985638  1
  Ca2+  Ca1  1  0.16789758  0.08011784  0.50256188  1
  Ca2+  Ca2  1  0.17437477  0.08482037  0.83998321  1
  Ca2+  Ca3  1  0.16746386  0.57218278  0.17755281  1
  Ca2+  Ca4  1  0.16317066  0.57567017  0.50368333  1
  Ca2+  Ca5  1  0.16159394  0.57408902  0.83527639  1
  Ca2+  Ca6  1  0.66534096  0.08096519  0.16461926  1
  Ca2+  Ca7  1  0.66534219  0.07819005  0.50969689  1
  Ca2+  Ca8  1  0.65942868  0.07681219  0.83974477  1
  Ca2+  Ca9  1  0.67533600  0.57712498  0.17081171  1
  Ca2+  Ca10  1  0.67328847  0.58214061  0.50619671  1
  Ca2+  Ca11  1  0.65933843  0.57042141  0.83549225  1
  Ca2+  Ca12  1  0.08640007  0.32732590  0.15931581  1
  Ca2+  Ca13  1  0.09333399  0.32821902  0.49317577  1
  Ca2+  Ca14  1  0.08291025  0.33745991  0.83260522  1
  Ca2+  Ca15  1  0.07583541  0.83399455  0.16100138  1
  Ca2+  Ca16  1  0.08194278  0.82224883  0.48790400  1
  Ca2+  Ca17  1  0.08027735  0.83083700  0.83022375  1
  Ca2+  Ca18  1  0.57761240  0.33242709  0.15888288  1
  Ca2+  Ca19  1  0.57027869  0.33970928  0.49918724  1
  Ca2+  Ca20  1  0.58284122  0.32501469  0.82258341  1
  Ca2+  Ca21  1  0.58220832  0.83194201  0.15992825  1
  Ca2+  Ca22  1  0.58550698  0.83032917  0.50131388  1
  Ca2+  Ca23  1  0.58882634  0.83019706  0.82525028  1
  Ca2+  Ca24  1  0.32476105  0.41784251  0.17473761  1
  Ca2+  Ca25  1  0.32679566  0.41292028  0.50077920  1
  Ca2+  Ca26  1  0.32435010  0.41108050  0.83406243  1
  Ca2+  Ca27  1  0.31674977  0.91943926  0.17135725  1
  Ca2+  Ca28  1  0.32743657  0.92395451  0.50434564  1
  Ca2+  Ca29  1  0.32998589  0.92490094  0.83830879  1
  Ca2+  Ca30  1  0.83093624  0.41559149  0.16855100  1
  Ca2+  Ca31  1  0.83119142  0.42507717  0.50580287  1
  Ca2+  Ca32  1  0.82316290  0.41285488  0.84061017  1
  Ca2+  Ca33  1  0.83407196  0.91081696  0.16887656  1
  Ca2+  Ca34  1  0.83216192  0.91644497  0.50284905  1
  Ca2+  Ca35  1  0.82422707  0.91482156  0.83931062  1
  Ca2+  Ca36  1  0.42040315  0.17354308  0.16376647  1
  Ca2+  Ca37  1  0.41423408  0.17586966  0.50195031  1
  Ca2+  Ca38  1  0.42532508  0.16872432  0.82413782  1
  Ca2+  Ca39  1  0.41167211  0.66488960  0.16744848  1
  Ca2+  Ca40  1  0.42403021  0.65659140  0.49686552  1
  Ca2+  Ca41  1  0.42269997  0.67059466  0.82590102  1
  Ca2+  Ca42  1  0.92751523  0.17362666  0.15943078  1
  Ca2+  Ca43  1  0.92241205  0.17078565  0.49300454  1
  Ca2+  Ca44  1  0.92166922  0.17141499  0.83735429  1
  Ca2+  Ca45  1  0.91793692  0.67217991  0.16781924  1
  Ca2+  Ca46  1  0.92632555  0.66859258  0.49188548  1
  Ca2+  Ca47  1  0.92094125  0.67206286  0.82983915  1
  Al0+  Al48  1  -0.00099663  0.00030390  -0.00771206  1
  Al0+  Al49  1  -0.00277783  0.00009058  0.33298729  1
  Al0+  Al50  1  -0.00141054  0.00118317  0.66757547  1
  Al0+  Al51  1  0.00003667  0.50076709  0.00101599  1
  Al0+  Al52  1  -0.00225919  0.49985672  0.33788472  1
  Al0+  Al53  1  -0.00008428  0.50156566  0.66768426  1
  Al0+  Al54  1  0.49916449  -0.00023526  0.00317371  1
  Al0+  Al55  1  0.49974216  -0.00134621  0.33328956  1
  Al0+  Al56  1  0.49953246  0.00015286  0.66997367  1
  Al0+  Al57  1  0.50069111  0.50106592  0.00441657  1
  Al0+  Al58  1  0.49914452  0.49850936  0.32912677  1
  Al0+  Al59  1  0.49998008  0.50135362  0.66253193  1
  Al0+  Al60  1  0.25253392  0.25109845  0.00088594  1
  Al0+  Al61  1  0.25263983  0.24836212  0.32612976  1
  Al0+  Al62  1  0.25035895  0.24946109  0.67244214  1
  Al0+  Al63  1  0.25095228  0.75235979  0.00170848  1
  Al0+  Al64  1  0.25223649  0.74913092  0.33764341  1
  Al0+  Al65  1  0.24926240  0.74931027  0.66285181  1
  Al0+  Al66  1  0.74990051  0.24846415  -0.00145308  1
  Al0+  Al67  1  0.74889381  0.24658338  0.33469367  1
  Al0+  Al68  1  0.75211530  0.24937040  0.66528346  1
  Al0+  Al69  1  0.75020263  0.74971055  -0.00035021  1
  Al0+  Al70  1  0.74932073  0.74797888  0.33419646  1
  Al0+  Al71  1  0.75086131  0.75184326  0.66617993  1
  Al0+  Al72  1  0.07377206  0.67665595  0.31719268  1
  Al0+  Al73  1  0.57102672  0.68006011  0.65307185  1
  Al0+  Al74  1  0.07325895  0.17970202  0.98263354  1
  Al0+  Al75  1  0.67900163  0.42653801  0.01369943  1
  Al0+  Al76  1  0.92955897  0.32371715  0.98524860  1
  Al0+  Al77  1  0.17948046  0.43012874  0.68136088  1
  Al0+  Al78  1  0.57290849  0.17698096  0.65082023  1
  Al0+  Al79  1  0.17923468  0.42983718  0.01442658  1
  Al0+  Al80  1  0.81971213  0.57056289  0.34780799  1
  Al0+  Al81  1  0.17619797  0.93017661  0.34704068  1
  Al0+  Al82  1  0.43087569  0.32025247  0.31693294  1
  Al0+  Al83  1  0.56949627  0.17892431  0.98680564  1
  Al0+  Al84  1  0.17776978  0.93077046  0.01227197  1
  Al0+  Al85  1  0.07072965  0.67894863  0.65259649  1
  Al0+  Al86  1  0.92871927  0.81993010  0.31822763  1
  Al0+  Al87  1  0.92822194  0.82038567  0.98423160  1
  Al0+  Al88  1  0.67880842  0.43009476  0.67845969  1
  Al0+  Al89  1  0.68139264  0.93087559  0.67983700  1
  Al0+  Al90  1  0.67905104  0.92814929  0.01498911  1
  Al0+  Al91  1  0.42788853  0.32072841  0.65199198  1
  Al0+  Al92  1  0.32259396  0.57113879  0.34954249  1
  Al0+  Al93  1  0.17912025  0.42703877  0.34778146  1
  Al0+  Al94  1  0.07046782  0.18070822  0.32146593  1
  Al0+  Al95  1  0.31887903  0.07006118  0.68035335  1
  Si0+  Si96  1  0.32410262  0.07045373  0.34967027  1
  Si0+  Si97  1  0.57348381  0.17491158  0.31607936  1
  Si0+  Si98  1  0.32283287  0.57384610  0.68336086  1
  Si0+  Si99  1  0.32225514  0.07201054  0.01877516  1
  Si0+  Si100  1  0.07107149  0.17977631  0.65240734  1
  Si0+  Si101  1  0.82153545  0.57223451  0.01599135  1
  Si0+  Si102  1  0.43008720  0.32479344  0.98223361  1
  Si0+  Si103  1  0.42836202  0.82068059  0.98587021  1
  Si0+  Si104  1  0.92460440  0.32234698  0.31924448  1
  Si0+  Si105  1  0.82184856  0.57241504  0.68507892  1
  Si0+  Si106  1  0.32281488  0.57382771  0.01553191  1
  Si0+  Si107  1  0.92898302  0.32174717  0.65124081  1
  Si0+  Si108  1  0.82511646  0.07420482  0.68556269  1
  Si0+  Si109  1  0.81986976  0.07066710  0.34826590  1
  Si0+  Si110  1  0.92886857  0.82317257  0.64947043  1
  Si0+  Si111  1  0.42974959  0.82347878  0.31784624  1
  Si0+  Si112  1  0.07443973  0.67916709  0.98399635  1
  Si0+  Si113  1  0.42716863  0.82295422  0.64963227  1
  Si0+  Si114  1  0.67802187  0.42589429  0.34941514  1
  Si0+  Si115  1  0.17652417  0.92631338  0.68253563  1
  Si0+  Si116  1  0.57092787  0.67950444  0.98613487  1
  Si0+  Si117  1  0.57060620  0.67951973  0.31687940  1
  Si0+  Si118  1  0.67756489  0.92847309  0.34835258  1
  Si0+  Si119  1  0.82191266  0.07094370  0.01727657  1
  O2-  O120  1  0.24718346  0.00946370  0.06171516  1
  O2-  O121  1  0.25185945  0.00470100  0.39295925  1
  O2-  O122  1  0.24475024  -0.00529205  0.72739759  1
  O2-  O123  1  0.25366650  0.50562504  0.05874766  1
  O2-  O124  1  0.24731837  0.50243830  0.39912355  1
  O2-  O125  1  0.25404759  0.50581943  0.72804872  1
  O2-  O126  1  0.75410678  0.00144791  0.06292713  1
  O2-  O127  1  0.74792242  0.00004516  0.38989561  1
  O2-  O128  1  0.75323025  0.00758385  0.72765086  1
  O2-  O129  1  0.75642184  0.49911947  0.05936833  1
  O2-  O130  1  0.74818556  0.49241385  0.39412039  1
  O2-  O131  1  0.75205592  0.50474255  0.72882758  1
  O2-  O132  1  -0.00077910  0.25963018  0.27641716  1
  O2-  O133  1  0.00063315  0.25097347  0.60943655  1
  O2-  O134  1  0.00472907  0.25562704  0.93315135  1
  O2-  O135  1  0.00373946  0.75127626  0.26755471  1
  O2-  O136  1  0.00017541  0.75756572  0.60607694  1
  O2-  O137  1  0.00543438  0.74755611  0.93904708  1
  O2-  O138  1  0.50811502  0.24659758  0.27245705  1
  O2-  O139  1  0.50334860  0.25151088  0.60141121  1
  O2-  O140  1  0.49926731  0.25658114  0.93861948  1
  O2-  O141  1  0.49784335  0.74920935  0.27520657  1
  O2-  O142  1  0.49492538  0.75313530  0.60515399  1
  O2-  O143  1  0.50002702  0.75048997  0.94368522  1
  O2-  O144  1  0.06862345  0.17884495  0.09628309  1
  O2-  O145  1  0.06824156  0.17985946  0.43536704  1
  O2-  O146  1  0.06991447  0.17898630  0.75708164  1
  O2-  O147  1  0.07547894  0.68019397  0.08912707  1
  O2-  O148  1  0.07028400  0.67829389  0.43100221  1
  O2-  O149  1  0.06794836  0.67965129  0.76618989  1
  O2-  O150  1  0.56624518  0.17865686  0.10032109  1
  O2-  O151  1  0.57387991  0.17178383  0.42117764  1
  O2-  O152  1  0.57044205  0.17657195  0.76452942  1
  O2-  O153  1  0.57039290  0.68036696  0.09148290  1
  O2-  O154  1  0.57216215  0.68166966  0.42198656  1
  O2-  O155  1  0.56918991  0.68096124  0.76667392  1
  O2-  O156  1  0.18161692  0.42639371  0.23413974  1
  O2-  O157  1  0.17887405  0.42794731  0.56882536  1
  O2-  O158  1  0.18040829  0.43199648  0.90093142  1
  O2-  O159  1  0.17608275  0.93265334  0.23374491  1
  O2-  O160  1  0.17652132  0.92847098  0.57686611  1
  O2-  O161  1  0.18382934  0.92772683  0.89917656  1
  O2-  O162  1  0.67958262  0.42683729  0.24345380  1
  O2-  O163  1  0.68187685  0.43298137  0.56524451  1
  O2-  O164  1  0.67664860  0.42934656  0.90058911  1
  O2-  O165  1  0.67591364  0.92891300  0.24329768  1
  O2-  O166  1  0.68424343  0.92979305  0.56612019  1
  O2-  O167  1  0.67907532  0.92767825  0.90215143  1
  O2-  O168  1  0.43184950  0.32426332  0.08801555  1
  O2-  O169  1  0.43056086  0.31959983  0.42983565  1
  O2-  O170  1  0.42803443  0.31863974  0.76564617  1
  O2-  O171  1  0.42806972  0.81912337  0.09114146  1
  O2-  O172  1  0.43468635  0.82945474  0.42253355  1
  O2-  O173  1  0.42716923  0.82152746  0.75572119  1
  O2-  O174  1  0.92892519  0.32157224  0.09910893  1
  O2-  O175  1  0.91921954  0.31724262  0.42501065  1
  O2-  O176  1  0.92829824  0.32145150  0.75604937  1
  O2-  O177  1  0.92693295  0.81760949  0.09698401  1
  O2-  O178  1  0.92744910  0.81941600  0.43198281  1
  O2-  O179  1  0.92823492  0.82212988  0.75519550  1
  O2-  O180  1  0.32998055  0.06601082  0.24440963  1
  O2-  O181  1  0.31520547  0.06975858  0.56693650  1
  O2-  O182  1  0.32449478  0.06768544  0.91308044  1
  O2-  O183  1  0.32411193  0.56793243  0.23551643  1
  O2-  O184  1  0.32227407  0.57405365  0.57829854  1
  O2-  O185  1  0.32543363  0.57563690  0.90993527  1
  O2-  O186  1  0.81891760  0.07312413  0.24363214  1
  O2-  O187  1  0.82934991  0.07214008  0.57960207  1
  O2-  O188  1  0.82038075  0.07016203  0.91164227  1
  O2-  O189  1  0.81520479  0.57260036  0.23462364  1
  O2-  O190  1  0.82129304  0.57097723  0.57931962  1
  O2-  O191  1  0.81854941  0.57451190  0.91037877  1
  O2-  O192  1  0.03219320  0.08664127  0.26764389  1
  O2-  O193  1  0.04311453  0.08725165  0.60528507  1
  O2-  O194  1  0.04212764  0.08322091  0.92714750  1
  O2-  O195  1  0.04095612  0.57800162  0.26680166  1
  O2-  O196  1  0.03619786  0.58356469  0.59852219  1
  O2-  O197  1  0.04720735  0.58593713  0.93820372  1
  O2-  O198  1  0.54468343  0.08202271  0.26918779  1
  O2-  O199  1  0.54131591  0.07868076  0.59900541  1
  O2-  O200  1  0.53594710  0.08182345  0.93449234  1
  O2-  O201  1  0.54481231  0.58765088  0.26874881  1
  O2-  O202  1  0.54217026  0.58482990  0.59589083  1
  O2-  O203  1  0.54204633  0.58758995  0.93914664  1
  O2-  O204  1  0.16785504  0.20238202  0.26576900  1
  O2-  O205  1  0.16276830  0.20774298  0.60605601  1
  O2-  O206  1  0.17437745  0.20458241  0.93354147  1
  O2-  O207  1  0.17540516  0.70065369  0.26909464  1
  O2-  O208  1  0.16859743  0.70450320  0.59869560  1
  O2-  O209  1  0.16791845  0.70576801  0.93725869  1
  O2-  O210  1  0.66830550  0.19706520  0.27035955  1
  O2-  O211  1  0.67416894  0.19934505  0.60050939  1
  O2-  O212  1  0.66785272  0.20267817  0.93436608  1
  O2-  O213  1  0.66050272  0.71062648  0.26806275  1
  O2-  O214  1  0.66728315  0.71323838  0.59896039  1
  O2-  O215  1  0.66170984  0.70697118  0.93777900  1
  O2-  O216  1  0.08159895  0.45810727  0.06743993  1
  O2-  O217  1  0.07816499  0.44779235  0.39894928  1
  O2-  O218  1  0.08269386  0.46268880  0.73509159  1
  O2-  O219  1  0.07874150  0.95816221  0.06280587  1
  O2-  O220  1  0.08017813  0.96161454  0.40189390  1
  O2-  O221  1  0.08219958  0.95159168  0.72724324  1
  O2-  O222  1  0.58446207  0.46189059  0.06987932  1
  O2-  O223  1  0.58524977  0.45592776  0.39302385  1
  O2-  O224  1  0.58193532  0.46157217  0.73185480  1
  O2-  O225  1  0.58230148  0.95871020  0.06983273  1
  O2-  O226  1  0.58614325  0.95619438  0.39670842  1
  O2-  O227  1  0.58318971  0.95551018  0.73335563  1
  O2-  O228  1  0.21088561  0.33291604  0.06740383  1
  O2-  O229  1  0.21332635  0.32808144  0.39778170  1
  O2-  O230  1  0.20976787  0.33438364  0.73693506  1
  O2-  O231  1  0.21291681  0.83590400  0.06778546  1
  O2-  O232  1  0.20915644  0.83438490  0.40059323  1
  O2-  O233  1  0.20213815  0.83229203  0.72761393  1
  O2-  O234  1  0.70720417  0.32952222  0.06792698  1
  O2-  O235  1  0.69924100  0.33062506  0.39395273  1
  O2-  O236  1  0.71029606  0.33256514  0.73033791  1
  O2-  O237  1  0.70861416  0.83078286  0.06854189  1
  O2-  O238  1  0.70539346  0.83673157  0.39536179  1
  O2-  O239  1  0.71372441  0.83457910  0.73475762  1
  O2-  O240  1  0.46192559  0.41598702  0.26058394  1
  O2-  O241  1  0.45388872  0.41963144  0.59892462  1
  O2-  O242  1  0.45405333  0.41979020  0.93853951  1
  O2-  O243  1  0.46158186  0.91254253  0.26666577  1
  O2-  O244  1  0.45522641  0.91537426  0.60337501  1
  O2-  O245  1  0.45601953  0.91262003  0.93941864  1
  O2-  O246  1  0.94163893  0.41839345  0.27683262  1
  O2-  O247  1  0.95542458  0.41440419  0.60525966  1
  O2-  O248  1  0.95276940  0.42373048  0.93230818  1
  O2-  O249  1  0.95203928  0.91992320  0.26663044  1
  O2-  O250  1  0.95041470  0.91877943  0.60491863  1
  O2-  O251  1  0.95517584  0.91648415  0.92816192  1
  O2-  O252  1  0.33729845  0.28643827  0.25919850  1
  O2-  O253  1  0.33035048  0.28611370  0.60005867  1
  O2-  O254  1  0.33644578  0.29846890  0.93774854  1
  O2-  O255  1  0.33723127  0.79777098  0.27115246  1
  O2-  O256  1  0.33315396  0.80045858  0.60333903  1
  O2-  O257  1  0.33786524  0.79289028  0.93558118  1
  O2-  O258  1  0.83319696  0.29009625  0.27099211  1
  O2-  O259  1  0.83885260  0.29343422  0.60088335  1
  O2-  O260  1  0.83231699  0.29045295  0.93195629  1
  O2-  O261  1  0.82986174  0.78855245  0.26624521  1
  O2-  O262  1  0.83630189  0.79574472  0.60277817  1
  O2-  O263  1  0.83212560  0.78640840  0.92979453  1
  O2-  O264  1  0.41211316  0.03889499  0.06785024  1
  O2-  O265  1  0.41571431  0.04034589  0.39848031  1
  O2-  O266  1  0.41461144  0.03866217  0.73573745  1
  O2-  O267  1  0.41594570  0.54937781  0.06382845  1
  O2-  O268  1  0.42167820  0.53918744  0.40039218  1
  O2-  O269  1  0.41708223  0.54976048  0.72880111  1
  O2-  O270  1  0.91599046  0.04476713  0.06117501  1
  O2-  O271  1  0.90960906  0.04176754  0.39910287  1
  O2-  O272  1  0.91715019  0.04570932  0.73421251  1
  O2-  O273  1  0.91612406  0.55179502  0.06162311  1
  O2-  O274  1  0.91539078  0.54317911  0.40496242  1
  O2-  O275  1  0.91437735  0.54550990  0.73188795  1
  O2-  O276  1  0.30473262  0.16818882  0.06167891  1
  O2-  O277  1  0.29980301  0.16503086  0.39247995  1
  O2-  O278  1  0.28729021  0.16390111  0.73847340  1
  O2-  O279  1  0.29876940  0.66775512  0.06206957  1
  O2-  O280  1  0.30647078  0.67251267  0.40119785  1
  O2-  O281  1  0.29848382  0.66868592  0.72906851  1
  O2-  O282  1  0.79514996  0.16355483  0.06468238  1
  O2-  O283  1  0.79285977  0.16159727  0.39929521  1
  O2-  O284  1  0.80368057  0.16887710  0.73012218  1
  O2-  O285  1  0.78889621  0.66271231  0.06435014  1
  O2-  O286  1  0.78338654  0.66500524  0.40378345  1
  O2-  O287  1  0.79759289  0.66709508  0.72879258  1
