# generated using pymatgen
data_Ca2Al2SiO7
_symmetry_space_group_name_H-M   'P 1'
_cell_length_a   15.45868049
_cell_length_b   15.46121930
_cell_length_c   15.28504438
_cell_angle_alpha   90.01106017
_cell_angle_beta   90.00143020
_cell_angle_gamma   90.01196290
_symmetry_Int_Tables_number   1
_chemical_formula_structural   Ca2Al2SiO7
_chemical_formula_sum   'Ca48 Al48 Si24 O168'
_cell_volume   3653.27906072
_cell_formula_units_Z   24
loop_
 _symmetry_equiv_pos_site_id
 _symmetry_equiv_pos_as_xyz
  1  'x, y, z'
loop_
 _atom_type_symbol
 _atom_type_oxidation_number
  Ca2+  2.0
  Al0+  0.0
  Si0+  0.0
  O2-  -2.0
loop_
 _atom_site_type_symbol
 _atom_site_label
 _atom_site_symmetry_multiplicity
 _atom_site_fract_x
 _atom_site_fract_y
 _atom_site_fract_z
 _atom_site_occupancy
  Ca2+  Ca0  1  0.17903157  0.08355975  0.17086937  1
  Ca2+  Ca1  1  0.17033746  0.07442809  0.50299132  1
  Ca2+  Ca2  1  0.16994147  0.08646938  0.83744693  1
  Ca2+  Ca3  1  0.16435780  0.57682765  0.16579518  1
  Ca2+  Ca4  1  0.17524418  0.58110623  0.50837723  1
  Ca2+  Ca5  1  0.17328729  0.57490329  0.83693508  1
  Ca2+  Ca6  1  0.66757868  0.07648476  0.16610854  1
  Ca2+  Ca7  1  0.66809002  0.07179198  0.50858916  1
  Ca2+  Ca8  1  0.66991487  0.08284005  0.84221637  1
  Ca2+  Ca9  1  0.65985224  0.57057494  0.16871119  1
  Ca2+  Ca10  1  0.66912893  0.57808212  0.50405947  1
  Ca2+  Ca11  1  0.66965851  0.57544298  0.83586595  1
  Ca2+  Ca12  1  0.08223277  0.32723020  0.15577248  1
  Ca2+  Ca13  1  0.08256400  0.32425674  0.49907189  1
  Ca2+  Ca14  1  0.08824550  0.32135578  0.83059154  1
  Ca2+  Ca15  1  0.07172208  0.84434091  0.16421420  1
  Ca2+  Ca16  1  0.07922183  0.84022051  0.49253703  1
  Ca2+  Ca17  1  0.07459535  0.84181453  0.82924224  1
  Ca2+  Ca18  1  0.58087634  0.32978580  0.16055977  1
  Ca2+  Ca19  1  0.57650330  0.32920759  0.49525306  1
  Ca2+  Ca20  1  0.58485422  0.32142754  0.82728611  1
  Ca2+  Ca21  1  0.57583950  0.84607844  0.16192350  1
  Ca2+  Ca22  1  0.58366756  0.83462384  0.49210152  1
  Ca2+  Ca23  1  0.57896787  0.84488395  0.83340433  1
  Ca2+  Ca24  1  0.32826338  0.41116157  0.17110376  1
  Ca2+  Ca25  1  0.34239777  0.41980579  0.50662424  1
  Ca2+  Ca26  1  0.33602052  0.41809607  0.83592857  1
  Ca2+  Ca27  1  0.33817659  0.92861789  0.17369861  1
  Ca2+  Ca28  1  0.32598747  0.91697166  0.50150039  1
  Ca2+  Ca29  1  0.32767154  0.92226227  0.84176485  1
  Ca2+  Ca30  1  0.81790925  0.41185573  0.16954514  1
  Ca2+  Ca31  1  0.82745944  0.42299944  0.50479114  1
  Ca2+  Ca32  1  0.83221805  0.42302565  0.83993621  1
  Ca2+  Ca33  1  0.82831085  0.91629413  0.16860169  1
  Ca2+  Ca34  1  0.82350012  0.91584801  0.50692748  1
  Ca2+  Ca35  1  0.82249605  0.92712627  0.83892414  1
  Ca2+  Ca36  1  0.41983213  0.16400418  0.16065786  1
  Ca2+  Ca37  1  0.41937181  0.17326067  0.49690419  1
  Ca2+  Ca38  1  0.42925649  0.16577002  0.82937860  1
  Ca2+  Ca39  1  0.41724646  0.68298866  0.16315788  1
  Ca2+  Ca40  1  0.41575604  0.67254600  0.49480991  1
  Ca2+  Ca41  1  0.41512834  0.67148976  0.83069952  1
  Ca2+  Ca42  1  0.92488810  0.16075940  0.15684388  1
  Ca2+  Ca43  1  0.92218168  0.15286237  0.50373325  1
  Ca2+  Ca44  1  0.92453924  0.15543708  0.82900847  1
  Ca2+  Ca45  1  0.91455483  0.68126146  0.16149500  1
  Ca2+  Ca46  1  0.91678394  0.67139585  0.49374039  1
  Ca2+  Ca47  1  0.91218314  0.67218821  0.83018962  1
  Al0+  Al48  1  -0.00046558  -0.00033972  -0.00705765  1
  Al0+  Al49  1  0.00179787  -0.00044768  0.33009929  1
  Al0+  Al50  1  -0.00138556  -0.00164381  0.66717067  1
  Al0+  Al51  1  0.00108258  0.50174498  0.00458770  1
  Al0+  Al52  1  0.00034316  0.49857994  0.33223577  1
  Al0+  Al53  1  0.00065147  0.50046759  0.66964519  1
  Al0+  Al54  1  0.49872341  0.00206308  -0.00239376  1
  Al0+  Al55  1  0.50202853  0.00224334  0.33942988  1
  Al0+  Al56  1  0.49639009  -0.00019914  0.66304937  1
  Al0+  Al57  1  0.49918810  0.50380703  0.00432214  1
  Al0+  Al58  1  0.49908829  0.49795346  0.33251742  1
  Al0+  Al59  1  0.50025000  0.50300045  0.66876588  1
  Al0+  Al60  1  0.24936697  0.25119885  0.00364039  1
  Al0+  Al61  1  0.25053484  0.25009704  0.33474250  1
  Al0+  Al62  1  0.24807134  0.24911392  0.65611439  1
  Al0+  Al63  1  0.24889127  0.74921207  -0.00353625  1
  Al0+  Al64  1  0.24993603  0.74816005  0.33020951  1
  Al0+  Al65  1  0.24816757  0.74790418  0.67561850  1
  Al0+  Al66  1  0.75115883  0.25101782  0.00465117  1
  Al0+  Al67  1  0.75089121  0.25049885  0.33993603  1
  Al0+  Al68  1  0.75163269  0.24917573  0.66306774  1
  Al0+  Al69  1  0.74864655  0.74976243  -0.00210165  1
  Al0+  Al70  1  0.75133125  0.74804317  0.33059185  1
  Al0+  Al71  1  0.74807587  0.74934612  0.67383713  1
  Al0+  Al72  1  0.32243308  0.57027892  0.68073930  1
  Al0+  Al73  1  0.42988186  0.82217621  0.32150798  1
  Al0+  Al74  1  0.92930997  0.82019983  0.32035897  1
  Al0+  Al75  1  0.42946183  0.82212227  0.98555274  1
  Al0+  Al76  1  0.67823508  0.92965861  0.01567557  1
  Al0+  Al77  1  0.82020127  0.07132007  0.68111973  1
  Al0+  Al78  1  0.92789739  0.82065363  0.98262883  1
  Al0+  Al79  1  0.57403977  0.17611308  0.64973178  1
  Al0+  Al80  1  0.82223340  0.57051417  0.67983108  1
  Al0+  Al81  1  0.42956845  0.32047547  0.31747473  1
  Al0+  Al82  1  0.07169662  0.18041294  0.98672461  1
  Al0+  Al83  1  0.18101906  0.42993445  0.01311987  1
  Al0+  Al84  1  0.32001402  0.07042138  0.01130050  1
  Al0+  Al85  1  0.43095033  0.32193063  0.65322115  1
  Al0+  Al86  1  0.67903193  0.42919637  0.01238918  1
  Al0+  Al87  1  0.17925445  0.92848183  0.34582082  1
  Al0+  Al88  1  0.06911568  0.17733601  0.65027750  1
  Al0+  Al89  1  0.57140375  0.18151904  0.98859650  1
  Al0+  Al90  1  0.67738701  0.42835919  0.34936085  1
  Al0+  Al91  1  0.32296882  0.07311597  0.35113339  1
  Al0+  Al92  1  0.67504435  0.92900952  0.68235083  1
  Al0+  Al93  1  0.82331444  0.07104736  0.01581054  1
  Al0+  Al94  1  0.17927651  0.92863180  0.68119313  1
  Al0+  Al95  1  0.68071604  0.92831705  0.34641285  1
  Si0+  Si96  1  0.82256188  0.57295019  0.01867580  1
  Si0+  Si97  1  0.06948509  0.18019511  0.31734414  1
  Si0+  Si98  1  0.17717606  0.42831269  0.34989113  1
  Si0+  Si99  1  0.92850331  0.32576620  0.64977176  1
  Si0+  Si100  1  0.07108937  0.67593935  0.98056106  1
  Si0+  Si101  1  0.67830449  0.42860717  0.68196095  1
  Si0+  Si102  1  0.82448144  0.07169074  0.34964494  1
  Si0+  Si103  1  0.82240206  0.57037529  0.34834841  1
  Si0+  Si104  1  0.17853283  0.42651701  0.68133810  1
  Si0+  Si105  1  0.17755354  0.92642363  0.01541783  1
  Si0+  Si106  1  0.31937997  0.07369104  0.68284754  1
  Si0+  Si107  1  0.92821259  0.32357889  0.98513958  1
  Si0+  Si108  1  0.57107676  0.68051445  0.65187375  1
  Si0+  Si109  1  0.31941658  0.56965891  0.34708322  1
  Si0+  Si110  1  0.92884383  0.81748536  0.65153971  1
  Si0+  Si111  1  0.07143788  0.67748311  0.65239687  1
  Si0+  Si112  1  0.42765552  0.32444608  0.98563674  1
  Si0+  Si113  1  0.07307703  0.67487488  0.31612227  1
  Si0+  Si114  1  0.57433638  0.17904552  0.31632260  1
  Si0+  Si115  1  0.42528192  0.81940131  0.65237837  1
  Si0+  Si116  1  0.57085620  0.67612011  0.98183711  1
  Si0+  Si117  1  0.92879888  0.32326474  0.31806911  1
  Si0+  Si118  1  0.57216930  0.67725333  0.31706818  1
  Si0+  Si119  1  0.32206350  0.57457391  0.02017537  1
  O2-  O120  1  0.24755245  -0.00662656  0.05888826  1
  O2-  O121  1  0.25277474  -0.00275981  0.39808591  1
  O2-  O122  1  0.25283937  0.00367621  0.72820437  1
  O2-  O123  1  0.25542350  0.50339223  0.06332806  1
  O2-  O124  1  0.24878948  0.49884712  0.39105950  1
  O2-  O125  1  0.25168834  0.49066689  0.72498283  1
  O2-  O126  1  0.75273577  -0.00155932  0.06672183  1
  O2-  O127  1  0.75595927  0.00247204  0.39257425  1
  O2-  O128  1  0.74091494  0.00746705  0.73052328  1
  O2-  O129  1  0.75373644  0.50381623  0.06144573  1
  O2-  O130  1  0.75288037  0.50360136  0.39387337  1
  O2-  O131  1  0.75207473  0.49181716  0.72637627  1
  O2-  O132  1  -0.00250498  0.25062119  0.27542578  1
  O2-  O133  1  -0.00738099  0.25241860  0.60511034  1
  O2-  O134  1  -0.00479321  0.25415754  0.94020348  1
  O2-  O135  1  0.00598554  0.74608527  0.27406009  1
  O2-  O136  1  0.00053241  0.74712279  0.60838169  1
  O2-  O137  1  0.00406272  0.74591422  0.93628571  1
  O2-  O138  1  0.50415374  0.24613944  0.27123879  1
  O2-  O139  1  0.50260860  0.25050820  0.60167610  1
  O2-  O140  1  0.49886797  0.25912540  0.94196412  1
  O2-  O141  1  0.50853575  0.75108780  0.27399719  1
  O2-  O142  1  0.50135145  0.75319128  0.61007979  1
  O2-  O143  1  0.50494740  0.74780540  0.93821803  1
  O2-  O144  1  0.07198639  0.18302200  0.10028390  1
  O2-  O145  1  0.06733626  0.18057601  0.42248523  1
  O2-  O146  1  0.07125174  0.18034360  0.76313311  1
  O2-  O147  1  0.06988640  0.67357463  0.08627497  1
  O2-  O148  1  0.07211431  0.67017494  0.42182319  1
  O2-  O149  1  0.07061651  0.67627032  0.75713313  1
  O2-  O150  1  0.56979590  0.18174023  0.10174008  1
  O2-  O151  1  0.57472669  0.18183182  0.42170377  1
  O2-  O152  1  0.57291042  0.17829235  0.76372958  1
  O2-  O153  1  0.56779140  0.67143778  0.08737177  1
  O2-  O154  1  0.57086417  0.67573266  0.42310658  1
  O2-  O155  1  0.57023889  0.67688386  0.75660623  1
  O2-  O156  1  0.17572726  0.42932780  0.24484555  1
  O2-  O157  1  0.17540377  0.43099471  0.57547127  1
  O2-  O158  1  0.18253678  0.43073799  0.90007339  1
  O2-  O159  1  0.17613562  0.93319230  0.23253813  1
  O2-  O160  1  0.18059356  0.92650159  0.56804815  1
  O2-  O161  1  0.17937154  0.92715671  0.90955166  1
  O2-  O162  1  0.67834772  0.42938498  0.23614926  1
  O2-  O163  1  0.67746012  0.43450161  0.57629281  1
  O2-  O164  1  0.68135527  0.43140846  0.89929093  1
  O2-  O165  1  0.68080108  0.92951953  0.23384244  1
  O2-  O166  1  0.68016593  0.92324610  0.56840209  1
  O2-  O167  1  0.67776089  0.93291599  0.90250145  1
  O2-  O168  1  0.42787417  0.32314094  0.09134322  1
  O2-  O169  1  0.43150096  0.32357493  0.43024760  1
  O2-  O170  1  0.43190568  0.32256352  0.76704973  1
  O2-  O171  1  0.42989388  0.82104721  0.09890038  1
  O2-  O172  1  0.42780317  0.81597947  0.43483873  1
  O2-  O173  1  0.42448897  0.81672352  0.75743276  1
  O2-  O174  1  0.93062486  0.32416928  0.09120669  1
  O2-  O175  1  0.93246650  0.32890587  0.42283124  1
  O2-  O176  1  0.93228055  0.33200039  0.75490036  1
  O2-  O177  1  0.93003619  0.81911680  0.09617023  1
  O2-  O178  1  0.92922915  0.81698374  0.43380372  1
  O2-  O179  1  0.93065780  0.81521524  0.75639024  1
  O2-  O180  1  0.32097437  0.07399357  0.23721199  1
  O2-  O181  1  0.31769984  0.07214612  0.57734785  1
  O2-  O182  1  0.31887422  0.07069180  0.89810643  1
  O2-  O183  1  0.31742318  0.56939653  0.24222209  1
  O2-  O184  1  0.31957613  0.57285375  0.56718739  1
  O2-  O185  1  0.32194363  0.57400214  0.91452898  1
  O2-  O186  1  0.82588094  0.07297922  0.24434253  1
  O2-  O187  1  0.82350967  0.06265840  0.56715876  1
  O2-  O188  1  0.82256029  0.07103577  0.90269631  1
  O2-  O189  1  0.82351486  0.56825814  0.24309268  1
  O2-  O190  1  0.82061947  0.57101764  0.56639574  1
  O2-  O191  1  0.82355937  0.57056617  0.91281537  1
  O2-  O192  1  0.04334863  0.08893811  0.26871626  1
  O2-  O193  1  0.03625599  0.08072894  0.59603413  1
  O2-  O194  1  0.04440122  0.08416538  0.93108444  1
  O2-  O195  1  0.04448541  0.58215341  0.26801980  1
  O2-  O196  1  0.04491052  0.58552762  0.60355939  1
  O2-  O197  1  0.04362886  0.58258250  0.93408917  1
  O2-  O198  1  0.54955947  0.08459410  0.27259241  1
  O2-  O199  1  0.54237432  0.07840143  0.59601577  1
  O2-  O200  1  0.53700784  0.08771690  0.93224897  1
  O2-  O201  1  0.53952785  0.58624208  0.26967023  1
  O2-  O202  1  0.54184252  0.58989333  0.60243792  1
  O2-  O203  1  0.54062116  0.58435963  0.93295716  1
  O2-  O204  1  0.16117506  0.21059591  0.27194925  1
  O2-  O205  1  0.16285334  0.20931793  0.59128837  1
  O2-  O206  1  0.16702523  0.21597329  0.93249663  1
  O2-  O207  1  0.16669417  0.69631552  0.26888833  1
  O2-  O208  1  0.16399118  0.70541690  0.60618383  1
  O2-  O209  1  0.16599267  0.69774311  0.93561619  1
  O2-  O210  1  0.66882354  0.20661575  0.27251210  1
  O2-  O211  1  0.67368023  0.20091438  0.59665205  1
  O2-  O212  1  0.66895286  0.21219802  0.93597894  1
  O2-  O213  1  0.66765966  0.69441375  0.27201399  1
  O2-  O214  1  0.66355826  0.70704602  0.60435111  1
  O2-  O215  1  0.66613985  0.69572142  0.93750465  1
  O2-  O216  1  0.08488455  0.46157774  0.06969885  1
  O2-  O217  1  0.08560389  0.45701436  0.39777767  1
  O2-  O218  1  0.08789785  0.45704611  0.73002872  1
  O2-  O219  1  0.08370156  0.95399048  0.05808973  1
  O2-  O220  1  0.08161396  0.96011739  0.39985591  1
  O2-  O221  1  0.08242766  0.95910262  0.73323213  1
  O2-  O222  1  0.58289621  0.46183234  0.06759968  1
  O2-  O223  1  0.58147675  0.46191083  0.40250229  1
  O2-  O224  1  0.58822248  0.46119734  0.73012659  1
  O2-  O225  1  0.58051803  0.96253390  0.06692389  1
  O2-  O226  1  0.58550740  0.95781874  0.40304900  1
  O2-  O227  1  0.57248360  0.94985540  0.72921754  1
  O2-  O228  1  0.21035853  0.33533303  0.07128284  1
  O2-  O229  1  0.20353032  0.33672779  0.39699803  1
  O2-  O230  1  0.20017308  0.33077278  0.72325656  1
  O2-  O231  1  0.19837164  0.83067877  0.05895656  1
  O2-  O232  1  0.20236121  0.82686748  0.39583127  1
  O2-  O233  1  0.20755925  0.83289133  0.73762530  1
  O2-  O234  1  0.71039679  0.33540755  0.07094583  1
  O2-  O235  1  0.71040286  0.33380204  0.40553151  1
  O2-  O236  1  0.69858659  0.33259425  0.72329354  1
  O2-  O237  1  0.70125921  0.82782052  0.06431137  1
  O2-  O238  1  0.70952461  0.82913587  0.39777198  1
  O2-  O239  1  0.70697361  0.83257611  0.73688083  1
  O2-  O240  1  0.45857151  0.41777713  0.26307431  1
  O2-  O241  1  0.45919641  0.42218953  0.60160287  1
  O2-  O242  1  0.44922484  0.42084485  0.94325393  1
  O2-  O243  1  0.45927750  0.92068975  0.27088276  1
  O2-  O244  1  0.44441332  0.91289856  0.60556850  1
  O2-  O245  1  0.45894942  0.91764268  0.92962055  1
  O2-  O246  1  0.95790502  0.41353602  0.26765686  1
  O2-  O247  1  0.95987756  0.41739144  0.60055237  1
  O2-  O248  1  0.95510364  0.41805025  0.94079741  1
  O2-  O249  1  0.96044780  0.91622379  0.26484448  1
  O2-  O250  1  0.95724953  0.90850961  0.60411755  1
  O2-  O251  1  0.95953694  0.91554293  0.92651975  1
  O2-  O252  1  0.33048401  0.29241577  0.26612902  1
  O2-  O253  1  0.33194879  0.29763225  0.59845209  1
  O2-  O254  1  0.33447762  0.29795508  0.94038609  1
  O2-  O255  1  0.33483377  0.78755446  0.26589833  1
  O2-  O256  1  0.33502638  0.78360055  0.60645104  1
  O2-  O257  1  0.33257257  0.78958596  0.93186545  1
  O2-  O258  1  0.83505474  0.29704750  0.27417355  1
  O2-  O259  1  0.83346205  0.30675058  0.60410158  1
  O2-  O260  1  0.83382953  0.30217566  0.94033816  1
  O2-  O261  1  0.83467712  0.78655636  0.26349905  1
  O2-  O262  1  0.83641495  0.78684729  0.60667206  1
  O2-  O263  1  0.83146563  0.78793042  0.92932139  1
  O2-  O264  1  0.41537585  0.03979328  0.06674793  1
  O2-  O265  1  0.42148303  0.04860559  0.40416396  1
  O2-  O266  1  0.41383937  0.04917237  0.72663695  1
  O2-  O267  1  0.41601249  0.55339375  0.06652709  1
  O2-  O268  1  0.41116017  0.54216028  0.39453785  1
  O2-  O269  1  0.41918190  0.54460116  0.73693942  1
  O2-  O270  1  0.92289436  0.04088075  0.06622607  1
  O2-  O271  1  0.91814312  0.04467899  0.39440843  1
  O2-  O272  1  0.91598190  0.03575025  0.73435121  1
  O2-  O273  1  0.91623693  0.54962403  0.06532537  1
  O2-  O274  1  0.91601977  0.54325431  0.39510450  1
  O2-  O275  1  0.91938732  0.54378292  0.73522330  1
  O2-  O276  1  0.28846721  0.16573915  0.06724500  1
  O2-  O277  1  0.28921875  0.17024691  0.40399272  1
  O2-  O278  1  0.29074476  0.16757253  0.72592671  1
  O2-  O279  1  0.29143002  0.66704394  0.06611290  1
  O2-  O280  1  0.29157845  0.66086229  0.39571223  1
  O2-  O281  1  0.28621077  0.66211038  0.73967322  1
  O2-  O282  1  0.79854799  0.17024342  0.06891165  1
  O2-  O283  1  0.80209555  0.16555997  0.39698435  1
  O2-  O284  1  0.80661596  0.17534576  0.72809188  1
  O2-  O285  1  0.79549317  0.66616806  0.06357450  1
  O2-  O286  1  0.79819800  0.66383225  0.39481714  1
  O2-  O287  1  0.78723367  0.66335340  0.73720476  1
