# generated using pymatgen
data_Ca2Al2SiO7
_symmetry_space_group_name_H-M   'P 1'
_cell_length_a   15.46145308
_cell_length_b   15.46003796
_cell_length_c   15.28454408
_cell_angle_alpha   90.01342301
_cell_angle_beta   89.99323035
_cell_angle_gamma   90.00190416
_symmetry_Int_Tables_number   1
_chemical_formula_structural   Ca2Al2SiO7
_chemical_formula_sum   'Ca48 Al48 Si24 O168'
_cell_volume   3653.53554038
_cell_formula_units_Z   24
loop_
 _symmetry_equiv_pos_site_id
 _symmetry_equiv_pos_as_xyz
  1  'x, y, z'
loop_
 _atom_type_symbol
 _atom_type_oxidation_number
  Ca2+  2.0
  Al0+  0.0
  Si0+  0.0
  O2-  -2.0
loop_
 _atom_site_type_symbol
 _atom_site_label
 _atom_site_symmetry_multiplicity
 _atom_site_fract_x
 _atom_site_fract_y
 _atom_site_fract_z
 _atom_site_occupancy
  Ca2+  Ca0  1  0.16694175  0.07716731  0.17413673  1
  Ca2+  Ca1  1  0.15686629  0.07409402  0.49916509  1
  Ca2+  Ca2  1  0.16282085  0.07164911  0.83568290  1
  Ca2+  Ca3  1  0.17447469  0.58248195  0.16986725  1
  Ca2+  Ca4  1  0.17501566  0.58132912  0.50636346  1
  Ca2+  Ca5  1  0.18095417  0.58248433  0.83655482  1
  Ca2+  Ca6  1  0.66729717  0.07499597  0.17753676  1
  Ca2+  Ca7  1  0.67084815  0.07757982  0.50156462  1
  Ca2+  Ca8  1  0.67076268  0.07391263  0.83497266  1
  Ca2+  Ca9  1  0.66532432  0.57883814  0.16772955  1
  Ca2+  Ca10  1  0.68045402  0.58354204  0.50155297  1
  Ca2+  Ca11  1  0.67123736  0.58066599  0.83878320  1
  Ca2+  Ca12  1  0.07709869  0.32808828  0.16941375  1
  Ca2+  Ca13  1  0.07209483  0.32508137  0.49167842  1
  Ca2+  Ca14  1  0.07634997  0.32980481  0.82453213  1
  Ca2+  Ca15  1  0.07648309  0.84475090  0.16751611  1
  Ca2+  Ca16  1  0.07247552  0.84039007  0.49524184  1
  Ca2+  Ca17  1  0.08030395  0.83568972  0.82599261  1
  Ca2+  Ca18  1  0.58057483  0.33047899  0.16292306  1
  Ca2+  Ca19  1  0.57480767  0.32639206  0.49258358  1
  Ca2+  Ca20  1  0.57677097  0.34074577  0.83097663  1
  Ca2+  Ca21  1  0.58316022  0.83248870  0.16180636  1
  Ca2+  Ca22  1  0.58053908  0.83895817  0.49120613  1
  Ca2+  Ca23  1  0.59225286  0.82939549  0.83094157  1
  Ca2+  Ca24  1  0.34510087  0.41969234  0.16781567  1
  Ca2+  Ca25  1  0.33741730  0.41721484  0.50622172  1
  Ca2+  Ca26  1  0.34549412  0.42482510  0.83780942  1
  Ca2+  Ca27  1  0.32238035  0.91032213  0.17522494  1
  Ca2+  Ca28  1  0.32206082  0.91222467  0.50274800  1
  Ca2+  Ca29  1  0.31934184  0.91429490  0.83841204  1
  Ca2+  Ca30  1  0.82879241  0.42150718  0.17638593  1
  Ca2+  Ca31  1  0.84367947  0.42459060  0.50491592  1
  Ca2+  Ca32  1  0.83132270  0.42116014  0.83759610  1
  Ca2+  Ca33  1  0.82135858  0.91870760  0.17846156  1
  Ca2+  Ca34  1  0.83022592  0.92546954  0.50539649  1
  Ca2+  Ca35  1  0.82685215  0.91733287  0.83154611  1
  Ca2+  Ca36  1  0.42258015  0.17470969  0.16538481  1
  Ca2+  Ca37  1  0.42252509  0.17420174  0.48990270  1
  Ca2+  Ca38  1  0.41781277  0.17896224  0.82630080  1
  Ca2+  Ca39  1  0.42209234  0.67156596  0.16057670  1
  Ca2+  Ca40  1  0.41853178  0.67145984  0.49578031  1
  Ca2+  Ca41  1  0.42248972  0.65950167  0.83209324  1
  Ca2+  Ca42  1  0.91843367  0.15941876  0.17147284  1
  Ca2+  Ca43  1  0.91238437  0.17102287  0.49157097  1
  Ca2+  Ca44  1  0.91326372  0.17093418  0.82460832  1
  Ca2+  Ca45  1  0.91167558  0.67205904  0.16918197  1
  Ca2+  Ca46  1  0.90850009  0.67697439  0.49543110  1
  Ca2+  Ca47  1  0.91703723  0.67354114  0.82299361  1
  Al0+  Al48  1  0.00025895  0.00074887  0.00127749  1
  Al0+  Al49  1  -0.00151918  -0.00060373  0.33171855  1
  Al0+  Al50  1  -0.00119373  -0.00093199  0.67223141  1
  Al0+  Al51  1  0.00259323  0.50176449  -0.00154371  1
  Al0+  Al52  1  0.00235744  0.50015519  0.33335813  1
  Al0+  Al53  1  0.00340207  0.50050945  0.66873916  1
  Al0+  Al54  1  0.49844057  0.00129655  0.00054632  1
  Al0+  Al55  1  0.49562930  0.00032673  0.32752212  1
  Al0+  Al56  1  0.49875553  -0.00107249  0.67150608  1
  Al0+  Al57  1  0.50267510  0.50237821  0.00127445  1
  Al0+  Al58  1  0.50139851  0.50212281  0.33296455  1
  Al0+  Al59  1  0.50136165  0.50113945  0.66318505  1
  Al0+  Al60  1  0.24802812  0.25033487  -0.00632026  1
  Al0+  Al61  1  0.24859965  0.25133562  0.32575544  1
  Al0+  Al62  1  0.24914899  0.24939965  0.66183692  1
  Al0+  Al63  1  0.24863093  0.74885996  0.00827814  1
  Al0+  Al64  1  0.25038843  0.74857628  0.33482745  1
  Al0+  Al65  1  0.25182449  0.74797646  0.67527395  1
  Al0+  Al66  1  0.75023809  0.25072988  0.00314279  1
  Al0+  Al67  1  0.74719320  0.25028451  0.32904276  1
  Al0+  Al68  1  0.74843594  0.24997296  0.66556136  1
  Al0+  Al69  1  0.75041718  0.75163779  -0.00123706  1
  Al0+  Al70  1  0.74960987  0.74739588  0.33523576  1
  Al0+  Al71  1  0.75113988  0.74734644  0.66922917  1
  Al0+  Al72  1  0.17941334  0.92882449  0.34825626  1
  Al0+  Al73  1  0.92869733  0.81958489  0.32022104  1
  Al0+  Al74  1  0.17961632  0.93005863  0.01626854  1
  Al0+  Al75  1  0.67662765  0.92748115  0.68167874  1
  Al0+  Al76  1  0.92936490  0.81957531  0.65310749  1
  Al0+  Al77  1  0.43155254  0.32006063  0.98476904  1
  Al0+  Al78  1  0.68094079  0.43017298  0.01343298  1
  Al0+  Al79  1  0.81968476  0.07148142  0.34793155  1
  Al0+  Al80  1  0.92800539  0.32186217  0.65458387  1
  Al0+  Al81  1  0.92729430  0.32379749  0.31761312  1
  Al0+  Al82  1  0.06893811  0.17765631  0.31751490  1
  Al0+  Al83  1  0.57091712  0.17745532  0.31770798  1
  Al0+  Al84  1  0.57072418  0.68220863  0.98542198  1
  Al0+  Al85  1  0.32277484  0.56855168  0.68029050  1
  Al0+  Al86  1  0.82368761  0.56969489  0.68113220  1
  Al0+  Al87  1  0.82267033  0.56857183  0.34669754  1
  Al0+  Al88  1  0.42904098  0.32349912  0.31729795  1
  Al0+  Al89  1  0.67898831  0.92882413  0.01464143  1
  Al0+  Al90  1  0.42705443  0.82024713  0.32118166  1
  Al0+  Al91  1  0.32120413  0.56800278  0.01592261  1
  Al0+  Al92  1  0.17969578  0.93004693  0.68038675  1
  Al0+  Al93  1  0.82039250  0.07293258  0.68170443  1
  Al0+  Al94  1  0.67519798  0.92762992  0.34726128  1
  Al0+  Al95  1  0.43001840  0.32154647  0.65205458  1
  Si0+  Si96  1  0.17599839  0.42645170  0.01719781  1
  Si0+  Si97  1  0.07081621  0.17670666  0.65065427  1
  Si0+  Si98  1  0.82485005  0.57273046  0.01602611  1
  Si0+  Si99  1  0.93083265  0.82071454  0.98459295  1
  Si0+  Si100  1  0.32263513  0.07387990  0.68284786  1
  Si0+  Si101  1  0.07367542  0.67759140  0.31692413  1
  Si0+  Si102  1  0.07300855  0.67802728  0.98404564  1
  Si0+  Si103  1  0.92851533  0.32273317  0.98499562  1
  Si0+  Si104  1  0.17973205  0.42797360  0.34846392  1
  Si0+  Si105  1  0.57238786  0.67953341  0.31686828  1
  Si0+  Si106  1  0.67662122  0.42833343  0.35075734  1
  Si0+  Si107  1  0.31981080  0.07462775  0.34878495  1
  Si0+  Si108  1  0.32054154  0.07510467  0.01579832  1
  Si0+  Si109  1  0.42757571  0.82062799  0.65463101  1
  Si0+  Si110  1  0.82152891  0.07252513  0.01728470  1
  Si0+  Si111  1  0.06901509  0.17862348  0.98236539  1
  Si0+  Si112  1  0.07545634  0.67906414  0.65126651  1
  Si0+  Si113  1  0.42498122  0.82240680  0.98297362  1
  Si0+  Si114  1  0.57136735  0.67957976  0.65084802  1
  Si0+  Si115  1  0.57077118  0.17492902  0.65057259  1
  Si0+  Si116  1  0.32199908  0.56977499  0.34927703  1
  Si0+  Si117  1  0.57440453  0.17642810  0.98070555  1
  Si0+  Si118  1  0.17961851  0.42604774  0.68292355  1
  Si0+  Si119  1  0.67856396  0.42916969  0.68110188  1
  O2-  O120  1  0.25750661  0.00191223  0.06139404  1
  O2-  O121  1  0.25271765  0.00508352  0.39473113  1
  O2-  O122  1  0.25390215  0.00526550  0.72749451  1
  O2-  O123  1  0.24795438  0.49131326  0.06217285  1
  O2-  O124  1  0.25367650  0.49615668  0.39086834  1
  O2-  O125  1  0.25181463  0.49053552  0.72771287  1
  O2-  O126  1  0.75023205  0.00657882  0.06024756  1
  O2-  O127  1  0.74741448  -0.00079178  0.39706630  1
  O2-  O128  1  0.74875944  0.00008266  0.73106224  1
  O2-  O129  1  0.75886903  0.50188339  0.05971055  1
  O2-  O130  1  0.75162797  0.49040422  0.39436511  1
  O2-  O131  1  0.75201673  0.49205296  0.72677639  1
  O2-  O132  1  -0.00523300  0.24772282  0.26669812  1
  O2-  O133  1  0.00072982  0.24486697  0.60866698  1
  O2-  O134  1  -0.00171782  0.25077959  0.94171476  1
  O2-  O135  1  0.00467065  0.74584709  0.27239210  1
  O2-  O136  1  0.00529701  0.74519350  0.60658886  1
  O2-  O137  1  0.00167298  0.74892133  0.94248545  1
  O2-  O138  1  0.50140990  0.25240296  0.26772372  1
  O2-  O139  1  0.50102661  0.24341440  0.60720282  1
  O2-  O140  1  0.50529882  0.24501730  0.93613252  1
  O2-  O141  1  0.50636484  0.75125677  0.27382138  1
  O2-  O142  1  0.50335652  0.75503064  0.61146284  1
  O2-  O143  1  0.49718816  0.75832547  0.93714857  1
  O2-  O144  1  0.06942893  0.17743388  0.08699072  1
  O2-  O145  1  0.07048977  0.18022142  0.43115641  1
  O2-  O146  1  0.07245405  0.17903629  0.75689131  1
  O2-  O147  1  0.07258384  0.67426306  0.08885300  1
  O2-  O148  1  0.07635929  0.67730070  0.42235670  1
  O2-  O149  1  0.07606921  0.68095306  0.75732738  1
  O2-  O150  1  0.57372482  0.17690105  0.08580271  1
  O2-  O151  1  0.56786705  0.17841986  0.43179745  1
  O2-  O152  1  0.56935587  0.17501991  0.75640852  1
  O2-  O153  1  0.56948367  0.68243466  0.09838449  1
  O2-  O154  1  0.56967500  0.67619852  0.42267817  1
  O2-  O155  1  0.57005730  0.67681229  0.75602947  1
  O2-  O156  1  0.17746826  0.43092678  0.24326024  1
  O2-  O157  1  0.17900561  0.42817392  0.57737827  1
  O2-  O158  1  0.17212696  0.42934857  0.91172654  1
  O2-  O159  1  0.18141801  0.92942583  0.23511496  1
  O2-  O160  1  0.18044723  0.92921133  0.56764400  1
  O2-  O161  1  0.17812825  0.93118869  0.90284161  1
  O2-  O162  1  0.67384553  0.43392056  0.24507311  1
  O2-  O163  1  0.67614228  0.43275438  0.57581225  1
  O2-  O164  1  0.68322824  0.43206366  0.89992587  1
  O2-  O165  1  0.67801559  0.92705826  0.23332707  1
  O2-  O166  1  0.67360104  0.92884177  0.56880499  1
  O2-  O167  1  0.68383529  0.92771342  0.90169901  1
  O2-  O168  1  0.43311458  0.31855694  0.09722519  1
  O2-  O169  1  0.43019707  0.32321113  0.43124614  1
  O2-  O170  1  0.43336619  0.32261879  0.76537638  1
  O2-  O171  1  0.42405976  0.81871167  0.08850508  1
  O2-  O172  1  0.42387451  0.81541164  0.43483740  1
  O2-  O173  1  0.42464991  0.81788291  0.75960614  1
  O2-  O174  1  0.93048379  0.32491891  0.08949283  1
  O2-  O175  1  0.93335862  0.32628611  0.43109374  1
  O2-  O176  1  0.93136288  0.32177208  0.76860388  1
  O2-  O177  1  0.93107841  0.81986816  0.08968457  1
  O2-  O178  1  0.92954136  0.81915956  0.43312269  1
  O2-  O179  1  0.93163370  0.81790982  0.76705714  1
  O2-  O180  1  0.31730007  0.07438603  0.24303307  1
  O2-  O181  1  0.32411627  0.07315350  0.57763077  1
  O2-  O182  1  0.31649670  0.07561915  0.90993245  1
  O2-  O183  1  0.32100972  0.57024744  0.24418645  1
  O2-  O184  1  0.32066361  0.57003792  0.56701232  1
  O2-  O185  1  0.31998880  0.56730885  0.90268581  1
  O2-  O186  1  0.81974968  0.06667235  0.23389716  1
  O2-  O187  1  0.82032827  0.07319499  0.56883989  1
  O2-  O188  1  0.82316985  0.07256540  0.91166604  1
  O2-  O189  1  0.82049124  0.56930341  0.23326918  1
  O2-  O190  1  0.82127568  0.57091492  0.56826058  1
  O2-  O191  1  0.82574001  0.57160188  0.91027727  1
  O2-  O192  1  0.04197241  0.07982903  0.26251616  1
  O2-  O193  1  0.04607267  0.08239312  0.60740872  1
  O2-  O194  1  0.03923782  0.08720880  0.93418822  1
  O2-  O195  1  0.04876806  0.58459165  0.26929260  1
  O2-  O196  1  0.05426486  0.58374241  0.60727486  1
  O2-  O197  1  0.04741812  0.58637383  0.93386881  1
  O2-  O198  1  0.53887530  0.08170252  0.26122873  1
  O2-  O199  1  0.54429509  0.08112091  0.60544863  1
  O2-  O200  1  0.54838259  0.08243607  0.93460497  1
  O2-  O201  1  0.54203067  0.58794691  0.26920026  1
  O2-  O202  1  0.53884108  0.59096937  0.60026052  1
  O2-  O203  1  0.53836421  0.58639442  0.93073589  1
  O2-  O204  1  0.16529522  0.20925825  0.26154591  1
  O2-  O205  1  0.16383304  0.20120767  0.60281434  1
  O2-  O206  1  0.15989204  0.20524644  0.93227340  1
  O2-  O207  1  0.16677209  0.70326495  0.26976760  1
  O2-  O208  1  0.16942080  0.70565633  0.60616023  1
  O2-  O209  1  0.16497356  0.70762928  0.93787331  1
  O2-  O210  1  0.66857695  0.20288500  0.26233177  1
  O2-  O211  1  0.66339814  0.20191989  0.60431433  1
  O2-  O212  1  0.66890741  0.20284786  0.93640007  1
  O2-  O213  1  0.66613963  0.70021291  0.26999121  1
  O2-  O214  1  0.66431359  0.70312729  0.60464764  1
  O2-  O215  1  0.66846027  0.71085754  0.93070192  1
  O2-  O216  1  0.08427278  0.45702144  0.06517582  1
  O2-  O217  1  0.09022661  0.45898484  0.39815027  1
  O2-  O218  1  0.08878785  0.45560685  0.73272766  1
  O2-  O219  1  0.08337868  0.96455155  0.06845727  1
  O2-  O220  1  0.08247550  0.95980621  0.40020023  1
  O2-  O221  1  0.08471426  0.96054626  0.73762032  1
  O2-  O222  1  0.58728534  0.46557072  0.06884401  1
  O2-  O223  1  0.58589454  0.46155530  0.39939100  1
  O2-  O224  1  0.58784878  0.46276323  0.72877588  1
  O2-  O225  1  0.57850403  0.95336228  0.06394632  1
  O2-  O226  1  0.57439967  0.95499182  0.39597489  1
  O2-  O227  1  0.57781604  0.95282144  0.73731558  1
  O2-  O228  1  0.19755410  0.33060537  0.05933640  1
  O2-  O229  1  0.20529611  0.33535054  0.39474551  1
  O2-  O230  1  0.19988220  0.33040631  0.72739630  1
  O2-  O231  1  0.20533268  0.83280264  0.07061460  1
  O2-  O232  1  0.21184920  0.83210308  0.40135858  1
  O2-  O233  1  0.21214617  0.83472870  0.73670416  1
  O2-  O234  1  0.70774189  0.33283060  0.06785742  1
  O2-  O235  1  0.69309496  0.33186691  0.39251989  1
  O2-  O236  1  0.69608903  0.33370522  0.72602182  1
  O2-  O237  1  0.71254184  0.83275582  0.06808551  1
  O2-  O238  1  0.70103692  0.82789754  0.39788520  1
  O2-  O239  1  0.70826548  0.82964166  0.73413981  1
  O2-  O240  1  0.45868113  0.42267015  0.26641595  1
  O2-  O241  1  0.46273466  0.41727366  0.59747927  1
  O2-  O242  1  0.46586572  0.41695268  0.93328400  1
  O2-  O243  1  0.44708096  0.91779768  0.26541981  1
  O2-  O244  1  0.44867700  0.91484792  0.60910782  1
  O2-  O245  1  0.44324632  0.91910648  0.94007907  1
  O2-  O246  1  0.96309548  0.41997241  0.26325309  1
  O2-  O247  1  0.96313387  0.41815783  0.60222677  1
  O2-  O248  1  0.95763536  0.41478920  0.93736726  1
  O2-  O249  1  0.95963905  0.91449609  0.26391130  1
  O2-  O250  1  0.96077717  0.91727967  0.60246811  1
  O2-  O251  1  0.96041084  0.91263882  0.93814410  1
  O2-  O252  1  0.33057394  0.29838594  0.26375321  1
  O2-  O253  1  0.33129577  0.29538553  0.59965024  1
  O2-  O254  1  0.33252362  0.29360413  0.93137586  1
  O2-  O255  1  0.33331093  0.78254107  0.26517362  1
  O2-  O256  1  0.33769499  0.78642737  0.60680944  1
  O2-  O257  1  0.33150163  0.79151749  0.93885643  1
  O2-  O258  1  0.82651734  0.30385949  0.26763879  1
  O2-  O259  1  0.82969095  0.29730962  0.60170889  1
  O2-  O260  1  0.83609003  0.29586411  0.93836257  1
  O2-  O261  1  0.83313193  0.78471584  0.26575667  1
  O2-  O262  1  0.83327265  0.78598948  0.60055695  1
  O2-  O263  1  0.83973272  0.79264523  0.93655712  1
  O2-  O264  1  0.41666240  0.05680306  0.05888631  1
  O2-  O265  1  0.41352134  0.04982571  0.39374327  1
  O2-  O266  1  0.41486544  0.04951178  0.73210111  1
  O2-  O267  1  0.41775700  0.53922408  0.06959404  1
  O2-  O268  1  0.41478333  0.54556333  0.39658491  1
  O2-  O269  1  0.42013985  0.53872072  0.73357556  1
  O2-  O270  1  0.91452070  0.04372997  0.06246401  1
  O2-  O271  1  0.91843995  0.04330770  0.39939505  1
  O2-  O272  1  0.91788999  0.04473007  0.73743012  1
  O2-  O273  1  0.92002935  0.55035605  0.06051345  1
  O2-  O274  1  0.92105179  0.54285380  0.40002984  1
  O2-  O275  1  0.92195718  0.54400036  0.73523898  1
  O2-  O276  1  0.28897300  0.16709998  0.06160710  1
  O2-  O277  1  0.29386118  0.16898004  0.39357836  1
  O2-  O278  1  0.29558746  0.16788264  0.72861576  1
  O2-  O279  1  0.28788998  0.66296041  0.07139212  1
  O2-  O280  1  0.29034272  0.65944485  0.39838036  1
  O2-  O281  1  0.29039856  0.66221188  0.73890434  1
  O2-  O282  1  0.80128841  0.16744450  0.06246859  1
  O2-  O283  1  0.79381699  0.17238462  0.39722630  1
  O2-  O284  1  0.79155674  0.17163264  0.73574797  1
  O2-  O285  1  0.79621358  0.66566928  0.06075001  1
  O2-  O286  1  0.78724848  0.66278258  0.40240619  1
  O2-  O287  1  0.78924717  0.66362834  0.73750371  1
