# generated using pymatgen
data_Ca2Al2SiO7
_symmetry_space_group_name_H-M   'P 1'
_cell_length_a   15.45770738
_cell_length_b   15.45860044
_cell_length_c   15.28425262
_cell_angle_alpha   89.99172461
_cell_angle_beta   90.00442059
_cell_angle_gamma   89.99558071
_symmetry_Int_Tables_number   1
_chemical_formula_structural   Ca2Al2SiO7
_chemical_formula_sum   'Ca48 Al48 Si24 O168'
_cell_volume   3652.24122119
_cell_formula_units_Z   24
loop_
 _symmetry_equiv_pos_site_id
 _symmetry_equiv_pos_as_xyz
  1  'x, y, z'
loop_
 _atom_type_symbol
 _atom_type_oxidation_number
  Ca2+  2.0
  Al0+  0.0
  Si0+  0.0
  O2-  -2.0
loop_
 _atom_site_type_symbol
 _atom_site_label
 _atom_site_symmetry_multiplicity
 _atom_site_fract_x
 _atom_site_fract_y
 _atom_site_fract_z
 _atom_site_occupancy
  Ca2+  Ca0  1  0.17227944  0.07596118  0.18036224  1
  Ca2+  Ca1  1  0.16628880  0.08356626  0.49864401  1
  Ca2+  Ca2  1  0.16317755  0.08200190  0.83516543  1
  Ca2+  Ca3  1  0.16328535  0.57950228  0.17604423  1
  Ca2+  Ca4  1  0.16514186  0.57523812  0.50647951  1
  Ca2+  Ca5  1  0.16923489  0.58147485  0.83512615  1
  Ca2+  Ca6  1  0.66289692  0.07430240  0.16947127  1
  Ca2+  Ca7  1  0.66477904  0.07303881  0.50211199  1
  Ca2+  Ca8  1  0.67303422  0.07625398  0.84761387  1
  Ca2+  Ca9  1  0.67652299  0.59740224  0.16978044  1
  Ca2+  Ca10  1  0.67379542  0.59395563  0.50320647  1
  Ca2+  Ca11  1  0.67564630  0.59291839  0.83760610  1
  Ca2+  Ca12  1  0.08733202  0.32898549  0.16762990  1
  Ca2+  Ca13  1  0.08862470  0.33095619  0.49692608  1
  Ca2+  Ca14  1  0.07686158  0.32749809  0.82190258  1
  Ca2+  Ca15  1  0.09056389  0.82042894  0.16530107  1
  Ca2+  Ca16  1  0.07707804  0.82847910  0.49149676  1
  Ca2+  Ca17  1  0.07408566  0.82679582  0.82750424  1
  Ca2+  Ca18  1  0.57491519  0.32619829  0.15573657  1
  Ca2+  Ca19  1  0.58176080  0.33179789  0.49615334  1
  Ca2+  Ca20  1  0.58268568  0.32938098  0.83420937  1
  Ca2+  Ca21  1  0.58676229  0.83133490  0.16768679  1
  Ca2+  Ca22  1  0.57498993  0.82431885  0.49408128  1
  Ca2+  Ca23  1  0.58488717  0.82513914  0.82773035  1
  Ca2+  Ca24  1  0.32989982  0.41655034  0.17294786  1
  Ca2+  Ca25  1  0.32208450  0.42483729  0.50712626  1
  Ca2+  Ca26  1  0.33067372  0.41916602  0.83296247  1
  Ca2+  Ca27  1  0.33218071  0.92266305  0.17948350  1
  Ca2+  Ca28  1  0.33324774  0.91360497  0.49919962  1
  Ca2+  Ca29  1  0.33420111  0.91244405  0.83273833  1
  Ca2+  Ca30  1  0.83223374  0.42901417  0.17110403  1
  Ca2+  Ca31  1  0.83653429  0.42870168  0.50584133  1
  Ca2+  Ca32  1  0.83841580  0.42672573  0.83549248  1
  Ca2+  Ca33  1  0.82092186  0.91882087  0.16799382  1
  Ca2+  Ca34  1  0.82730971  0.90859672  0.50364087  1
  Ca2+  Ca35  1  0.83037518  0.92016721  0.84197706  1
  Ca2+  Ca36  1  0.41729187  0.17012906  0.16115401  1
  Ca2+  Ca37  1  0.41162776  0.16724536  0.49464410  1
  Ca2+  Ca38  1  0.42195662  0.17035988  0.83566101  1
  Ca2+  Ca39  1  0.42811615  0.67295815  0.16128877  1
  Ca2+  Ca40  1  0.42218404  0.67048876  0.49294989  1
  Ca2+  Ca41  1  0.42892400  0.66920216  0.82241710  1
  Ca2+  Ca42  1  0.92054499  0.16327253  0.16361672  1
  Ca2+  Ca43  1  0.92918648  0.17484186  0.49671583  1
  Ca2+  Ca44  1  0.91874937  0.17062753  0.82125654  1
  Ca2+  Ca45  1  0.92493315  0.65938048  0.16406757  1
  Ca2+  Ca46  1  0.91480957  0.66709107  0.49579000  1
  Ca2+  Ca47  1  0.91511589  0.66697610  0.82905328  1
  Al0+  Al48  1  0.00061250  -0.00188225  0.00565562  1
  Al0+  Al49  1  -0.00022530  0.00185688  0.33155881  1
  Al0+  Al50  1  0.00014744  -0.00043608  0.65865909  1
  Al0+  Al51  1  0.00192933  0.49825090  -0.00011137  1
  Al0+  Al52  1  -0.00181755  0.50022473  0.33774012  1
  Al0+  Al53  1  -0.00138081  0.49866412  0.67307635  1
  Al0+  Al54  1  0.49809040  0.00108778  -0.00012263  1
  Al0+  Al55  1  0.50078750  0.00076531  0.33951832  1
  Al0+  Al56  1  0.49895698  -0.00156482  0.66618118  1
  Al0+  Al57  1  0.49855082  0.50156421  -0.00811609  1
  Al0+  Al58  1  0.50204083  0.49932012  0.32816238  1
  Al0+  Al59  1  0.50176565  0.49755965  0.66619526  1
  Al0+  Al60  1  0.24846014  0.25008064  -0.00483131  1
  Al0+  Al61  1  0.24861850  0.25005289  0.33623481  1
  Al0+  Al62  1  0.25190615  0.24789752  0.66948942  1
  Al0+  Al63  1  0.24996171  0.74680008  -0.00480713  1
  Al0+  Al64  1  0.25013507  0.75123704  0.32923431  1
  Al0+  Al65  1  0.25019936  0.75146107  0.66945692  1
  Al0+  Al66  1  0.75121595  0.25163744  0.00091232  1
  Al0+  Al67  1  0.75024784  0.25169831  0.33243744  1
  Al0+  Al68  1  0.75110171  0.25004516  0.66083286  1
  Al0+  Al69  1  0.75129813  0.75199935  0.00543238  1
  Al0+  Al70  1  0.75034234  0.75237080  0.33808845  1
  Al0+  Al71  1  0.74934242  0.74973612  0.66485472  1
  Al0+  Al72  1  0.82351814  0.07450336  0.01451616  1
  Al0+  Al73  1  0.81867252  0.56999316  0.34768427  1
  Al0+  Al74  1  0.42901838  0.82253192  0.31706656  1
  Al0+  Al75  1  0.68070649  0.93113232  0.35068826  1
  Al0+  Al76  1  0.57240512  0.67903419  0.31631222  1
  Al0+  Al77  1  0.82111034  0.56985083  0.01468582  1
  Al0+  Al78  1  0.06907561  0.67858655  0.32229752  1
  Al0+  Al79  1  0.17930350  0.42797312  0.68459010  1
  Al0+  Al80  1  0.57194583  0.17806812  0.98607317  1
  Al0+  Al81  1  0.17735874  0.92608111  0.34869403  1
  Al0+  Al82  1  0.32243619  0.57302128  0.68167344  1
  Al0+  Al83  1  0.92882889  0.82021258  0.65403276  1
  Al0+  Al84  1  0.57319142  0.68229622  0.98548491  1
  Al0+  Al85  1  0.81825732  0.57102102  0.68174719  1
  Al0+  Al86  1  0.92840186  0.32315838  0.65049451  1
  Al0+  Al87  1  0.57118025  0.67691303  0.65080640  1
  Al0+  Al88  1  0.17988690  0.43077544  0.34596102  1
  Al0+  Al89  1  0.42628755  0.32184913  0.98326768  1
  Al0+  Al90  1  0.07319335  0.17878942  0.65060748  1
  Al0+  Al91  1  0.42755310  0.82178200  0.65094431  1
  Al0+  Al92  1  0.07137145  0.67624650  0.98472266  1
  Al0+  Al93  1  0.67716498  0.93012248  0.01511311  1
  Al0+  Al94  1  0.07087957  0.18067098  0.31739811  1
  Al0+  Al95  1  0.32062460  0.07064671  0.34880659  1
  Si0+  Si96  1  0.92986231  0.32125636  0.98661198  1
  Si0+  Si97  1  0.92684521  0.82372109  0.31496088  1
  Si0+  Si98  1  0.42861610  0.32012458  0.32042024  1
  Si0+  Si99  1  0.42639384  0.82261505  0.98321219  1
  Si0+  Si100  1  0.07169605  0.67787780  0.65231666  1
  Si0+  Si101  1  0.18081887  0.42856678  0.01582814  1
  Si0+  Si102  1  0.32489723  0.57210721  0.34599598  1
  Si0+  Si103  1  0.92761750  0.32268706  0.31439650  1
  Si0+  Si104  1  0.42974270  0.31943795  0.65036304  1
  Si0+  Si105  1  0.67768578  0.42330897  0.68406277  1
  Si0+  Si106  1  0.67903441  0.93071000  0.68232959  1
  Si0+  Si107  1  0.32245468  0.07014785  0.68521073  1
  Si0+  Si108  1  0.67621516  0.42563425  0.34883781  1
  Si0+  Si109  1  0.82277398  0.07573626  0.35228285  1
  Si0+  Si110  1  0.31772383  0.07139639  0.01323040  1
  Si0+  Si111  1  0.06932628  0.17724297  0.98631612  1
  Si0+  Si112  1  0.17637072  0.92971321  0.68231973  1
  Si0+  Si113  1  0.57130293  0.17793632  0.65152607  1
  Si0+  Si114  1  0.93044323  0.82127255  0.98586377  1
  Si0+  Si115  1  0.57226031  0.17939114  0.32005531  1
  Si0+  Si116  1  0.67535323  0.42872047  0.01565798  1
  Si0+  Si117  1  0.82091428  0.07053028  0.67819291  1
  Si0+  Si118  1  0.32194480  0.57120736  0.01547196  1
  Si0+  Si119  1  0.17929759  0.92636535  0.01379136  1
  O2-  O120  1  0.25084476  -0.00296288  0.05525412  1
  O2-  O121  1  0.24999153  -0.00255701  0.39924762  1
  O2-  O122  1  0.24934130  -0.00037333  0.72533669  1
  O2-  O123  1  0.25199853  0.49914160  0.05828932  1
  O2-  O124  1  0.25258783  0.50788934  0.39102843  1
  O2-  O125  1  0.24954476  0.50227057  0.73426784  1
  O2-  O126  1  0.74657082  0.00684258  0.06308522  1
  O2-  O127  1  0.75707278  0.00490942  0.39762574  1
  O2-  O128  1  0.75034197  0.00156883  0.72416412  1
  O2-  O129  1  0.74208591  0.49869400  0.06100243  1
  O2-  O130  1  0.74149325  0.49693446  0.39289116  1
  O2-  O131  1  0.74381491  0.49475682  0.72758930  1
  O2-  O132  1  -0.00558920  0.25264447  0.26876196  1
  O2-  O133  1  0.00516310  0.25534075  0.60193035  1
  O2-  O134  1  -0.00665923  0.24271934  0.94499586  1
  O2-  O135  1  -0.00173565  0.75645401  0.27254704  1
  O2-  O136  1  0.00240346  0.74483421  0.60729520  1
  O2-  O137  1  -0.00342850  0.75123023  0.93973250  1
  O2-  O138  1  0.50118791  0.25054947  0.27860249  1
  O2-  O139  1  0.50156184  0.24934366  0.60766864  1
  O2-  O140  1  0.50214685  0.25203351  0.93502485  1
  O2-  O141  1  0.49941653  0.74990502  0.26589010  1
  O2-  O142  1  0.49389193  0.74421131  0.60252471  1
  O2-  O143  1  0.49861873  0.75766106  0.93975005  1
  O2-  O144  1  0.07298912  0.17977863  0.09101577  1
  O2-  O145  1  0.07182736  0.18382115  0.42987543  1
  O2-  O146  1  0.06832318  0.17570169  0.76529272  1
  O2-  O147  1  0.07227615  0.67603862  0.09789533  1
  O2-  O148  1  0.06585746  0.67674267  0.43521476  1
  O2-  O149  1  0.07051376  0.68137845  0.75836315  1
  O2-  O150  1  0.56698910  0.17854017  0.09994282  1
  O2-  O151  1  0.57323724  0.18193304  0.42558705  1
  O2-  O152  1  0.57093674  0.17799513  0.75632964  1
  O2-  O153  1  0.57142439  0.68278258  0.09821030  1
  O2-  O154  1  0.57012417  0.67805583  0.42943315  1
  O2-  O155  1  0.57405030  0.68232828  0.76473314  1
  O2-  O156  1  0.18244524  0.42970005  0.23208428  1
  O2-  O157  1  0.18220719  0.42826234  0.57090383  1
  O2-  O158  1  0.18089418  0.42744792  0.91119756  1
  O2-  O159  1  0.17945524  0.92847959  0.23416756  1
  O2-  O160  1  0.17468665  0.93012197  0.57797637  1
  O2-  O161  1  0.17719529  0.92930335  0.90835143  1
  O2-  O162  1  0.67725809  0.41968842  0.24356368  1
  O2-  O163  1  0.67830743  0.41908156  0.57851579  1
  O2-  O164  1  0.67837812  0.42689292  0.91016866  1
  O2-  O165  1  0.68054975  0.93375335  0.23766990  1
  O2-  O166  1  0.67903979  0.93335263  0.57741722  1
  O2-  O167  1  0.68073250  0.92994358  0.90086395  1
  O2-  O168  1  0.42349869  0.31822937  0.09742820  1
  O2-  O169  1  0.43012005  0.32002128  0.42562300  1
  O2-  O170  1  0.42982720  0.31699966  0.75525487  1
  O2-  O171  1  0.42192383  0.82115123  0.08822993  1
  O2-  O172  1  0.43033622  0.82061579  0.43031392  1
  O2-  O173  1  0.43310760  0.82595375  0.76496244  1
  O2-  O174  1  0.93458273  0.32428962  0.09151464  1
  O2-  O175  1  0.92713754  0.32143518  0.41952921  1
  O2-  O176  1  0.92644138  0.31780169  0.76484543  1
  O2-  O177  1  0.93354305  0.82247678  0.09108239  1
  O2-  O178  1  0.92663959  0.82120560  0.42095405  1
  O2-  O179  1  0.93014856  0.82298214  0.76749005  1
  O2-  O180  1  0.31946389  0.07309228  0.23448303  1
  O2-  O181  1  0.32492967  0.07197685  0.58081888  1
  O2-  O182  1  0.31560778  0.07223593  0.90791242  1
  O2-  O183  1  0.32623779  0.56702697  0.23998559  1
  O2-  O184  1  0.32102263  0.56996214  0.56772553  1
  O2-  O185  1  0.31994924  0.57206339  0.91075699  1
  O2-  O186  1  0.81921264  0.07730057  0.24667302  1
  O2-  O187  1  0.81777294  0.06976906  0.57344326  1
  O2-  O188  1  0.82638180  0.07110406  0.90014441  1
  O2-  O189  1  0.82039854  0.56736542  0.23429374  1
  O2-  O190  1  0.81718492  0.57138700  0.56881841  1
  O2-  O191  1  0.82180641  0.56849570  0.90178488  1
  O2-  O192  1  0.04259428  0.08309795  0.26324681  1
  O2-  O193  1  0.04125605  0.08315387  0.59533465  1
  O2-  O194  1  0.04724914  0.08268229  0.94134637  1
  O2-  O195  1  0.03509803  0.58263251  0.26725190  1
  O2-  O196  1  0.04810201  0.58254176  0.61087160  1
  O2-  O197  1  0.04115090  0.57957771  0.93134105  1
  O2-  O198  1  0.54359549  0.08810030  0.27406283  1
  O2-  O199  1  0.54084578  0.08700307  0.60444637  1
  O2-  O200  1  0.53997540  0.08134736  0.93086173  1
  O2-  O201  1  0.54884885  0.57865481  0.26344655  1
  O2-  O202  1  0.55219375  0.57479054  0.60144134  1
  O2-  O203  1  0.54372506  0.58569561  0.93136450  1
  O2-  O204  1  0.16712834  0.21446941  0.26341756  1
  O2-  O205  1  0.17424942  0.20232732  0.60183190  1
  O2-  O206  1  0.15847581  0.20881990  0.93587668  1
  O2-  O207  1  0.16652390  0.70439029  0.26632323  1
  O2-  O208  1  0.16530144  0.70387503  0.60795354  1
  O2-  O209  1  0.16709458  0.70756413  0.92923285  1
  O2-  O210  1  0.66358753  0.20667882  0.27143642  1
  O2-  O211  1  0.66245390  0.20369470  0.60197482  1
  O2-  O212  1  0.67196205  0.20435645  0.93436358  1
  O2-  O213  1  0.67083429  0.71313422  0.26688991  1
  O2-  O214  1  0.66655657  0.71274647  0.59751585  1
  O2-  O215  1  0.67092450  0.71369338  0.93379280  1
  O2-  O216  1  0.08961289  0.45639042  0.06395067  1
  O2-  O217  1  0.08336305  0.45864192  0.40025499  1
  O2-  O218  1  0.08009632  0.45226369  0.73767673  1
  O2-  O219  1  0.08906124  0.95331548  0.06374515  1
  O2-  O220  1  0.07783796  0.95532654  0.39893558  1
  O2-  O221  1  0.08525304  0.96120377  0.73045796  1
  O2-  O222  1  0.57922269  0.45082041  0.05809789  1
  O2-  O223  1  0.58108859  0.44763766  0.39393569  1
  O2-  O224  1  0.58259025  0.44349538  0.72895365  1
  O2-  O225  1  0.57735144  0.95680359  0.06703084  1
  O2-  O226  1  0.58623888  0.96487381  0.40650276  1
  O2-  O227  1  0.58752326  0.95981404  0.72953729  1
  O2-  O228  1  0.20896376  0.33567579  0.06212493  1
  O2-  O229  1  0.21362438  0.33642410  0.40105443  1
  O2-  O230  1  0.21096119  0.32927844  0.73684490  1
  O2-  O231  1  0.20703986  0.83334366  0.05850814  1
  O2-  O232  1  0.20335805  0.82670205  0.40089453  1
  O2-  O233  1  0.20210436  0.83847405  0.73252336  1
  O2-  O234  1  0.70115986  0.33544065  0.06297566  1
  O2-  O235  1  0.70331680  0.33318511  0.39784087  1
  O2-  O236  1  0.70592521  0.32982543  0.73064753  1
  O2-  O237  1  0.71100137  0.83529492  0.07129872  1
  O2-  O238  1  0.71168076  0.83573526  0.40608529  1
  O2-  O239  1  0.70820178  0.83916558  0.72817582  1
  O2-  O240  1  0.45453003  0.41092132  0.26988493  1
  O2-  O241  1  0.45608965  0.41068869  0.60194009  1
  O2-  O242  1  0.45122054  0.41994924  0.92910195  1
  O2-  O243  1  0.45954607  0.92266674  0.26780544  1
  O2-  O244  1  0.45957497  0.91926902  0.59784042  1
  O2-  O245  1  0.44596038  0.91846564  0.93929661  1
  O2-  O246  1  0.95617677  0.41541473  0.26892263  1
  O2-  O247  1  0.95341407  0.42343990  0.60098799  1
  O2-  O248  1  0.96582349  0.40868430  0.93604715  1
  O2-  O249  1  0.94732839  0.91901918  0.27069834  1
  O2-  O250  1  0.95860846  0.91484193  0.59651318  1
  O2-  O251  1  0.95907560  0.91445458  0.93872597  1
  O2-  O252  1  0.33812951  0.29020413  0.27233438  1
  O2-  O253  1  0.33900664  0.28833120  0.60353170  1
  O2-  O254  1  0.33049013  0.28716570  0.92768866  1
  O2-  O255  1  0.32981077  0.79870963  0.26344981  1
  O2-  O256  1  0.32542705  0.80211423  0.60281444  1
  O2-  O257  1  0.33485562  0.79324088  0.93411293  1
  O2-  O258  1  0.83310226  0.29858137  0.26830134  1
  O2-  O259  1  0.83193399  0.29169774  0.59472584  1
  O2-  O260  1  0.83548213  0.30359484  0.94060471  1
  O2-  O261  1  0.83411340  0.79535133  0.26992050  1
  O2-  O262  1  0.83321715  0.78980655  0.59917679  1
  O2-  O263  1  0.83619476  0.79809803  0.94097407  1
  O2-  O264  1  0.41082302  0.04896829  0.06005352  1
  O2-  O265  1  0.41933594  0.04770920  0.40330870  1
  O2-  O266  1  0.41359559  0.03993821  0.73395566  1
  O2-  O267  1  0.41451665  0.54394339  0.06159139  1
  O2-  O268  1  0.41697718  0.54154122  0.39270255  1
  O2-  O269  1  0.42119477  0.54085298  0.73324777  1
  O2-  O270  1  0.91991531  0.04160634  0.07058336  1
  O2-  O271  1  0.91813976  0.05384784  0.39501185  1
  O2-  O272  1  0.91356137  0.04270101  0.72401967  1
  O2-  O273  1  0.91715214  0.53319258  0.06735179  1
  O2-  O274  1  0.91289700  0.53627583  0.40371618  1
  O2-  O275  1  0.91474406  0.54190126  0.73740793  1
  O2-  O276  1  0.28621223  0.16239999  0.06028863  1
  O2-  O277  1  0.28938098  0.16783081  0.40300140  1
  O2-  O278  1  0.29611425  0.16135797  0.73460927  1
  O2-  O279  1  0.29258773  0.66291329  0.06255243  1
  O2-  O280  1  0.30385785  0.66746763  0.38797448  1
  O2-  O281  1  0.29691668  0.67223426  0.73587540  1
  O2-  O282  1  0.80278790  0.17520530  0.06631816  1
  O2-  O283  1  0.79449267  0.16900313  0.39805077  1
  O2-  O284  1  0.79388006  0.16325370  0.72454400  1
  O2-  O285  1  0.79527358  0.66744132  0.06846646  1
  O2-  O286  1  0.79137695  0.66714553  0.40133035  1
  O2-  O287  1  0.78681313  0.66810268  0.73586480  1
