# generated using pymatgen
data_Ca2Al2SiO7
_symmetry_space_group_name_H-M   'P 1'
_cell_length_a   15.45963509
_cell_length_b   15.45831158
_cell_length_c   15.28397439
_cell_angle_alpha   89.99958566
_cell_angle_beta   90.00625858
_cell_angle_gamma   90.01133110
_symmetry_Int_Tables_number   1
_chemical_formula_structural   Ca2Al2SiO7
_chemical_formula_sum   'Ca48 Al48 Si24 O168'
_cell_volume   3652.56190838
_cell_formula_units_Z   24
loop_
 _symmetry_equiv_pos_site_id
 _symmetry_equiv_pos_as_xyz
  1  'x, y, z'
loop_
 _atom_type_symbol
 _atom_type_oxidation_number
  Ca2+  2.0
  Al0+  0.0
  Si0+  0.0
  O2-  -2.0
loop_
 _atom_site_type_symbol
 _atom_site_label
 _atom_site_symmetry_multiplicity
 _atom_site_fract_x
 _atom_site_fract_y
 _atom_site_fract_z
 _atom_site_occupancy
  Ca2+  Ca0  1  0.17972899  0.09260628  0.16877177  1
  Ca2+  Ca1  1  0.17108229  0.08329170  0.50839408  1
  Ca2+  Ca2  1  0.16488944  0.08340237  0.83735725  1
  Ca2+  Ca3  1  0.17652545  0.57843182  0.17246151  1
  Ca2+  Ca4  1  0.16975568  0.57308576  0.50169346  1
  Ca2+  Ca5  1  0.16967702  0.57569440  0.83689800  1
  Ca2+  Ca6  1  0.65972876  0.07879046  0.17309000  1
  Ca2+  Ca7  1  0.65827632  0.07422956  0.50435169  1
  Ca2+  Ca8  1  0.65786714  0.08195703  0.83601885  1
  Ca2+  Ca9  1  0.67441182  0.57514836  0.16887783  1
  Ca2+  Ca10  1  0.67592467  0.58087224  0.51159905  1
  Ca2+  Ca11  1  0.67316912  0.57233903  0.83702232  1
  Ca2+  Ca12  1  0.08074601  0.33281142  0.15940801  1
  Ca2+  Ca13  1  0.08315674  0.33933056  0.50108010  1
  Ca2+  Ca14  1  0.07577039  0.32998334  0.82434742  1
  Ca2+  Ca15  1  0.07586024  0.83217263  0.16399708  1
  Ca2+  Ca16  1  0.07655277  0.83435311  0.49517545  1
  Ca2+  Ca17  1  0.08357219  0.83153574  0.82580606  1
  Ca2+  Ca18  1  0.58711685  0.32181113  0.15905897  1
  Ca2+  Ca19  1  0.59160788  0.32201968  0.49836317  1
  Ca2+  Ca20  1  0.58995010  0.32733394  0.82653721  1
  Ca2+  Ca21  1  0.57788367  0.83169727  0.16194941  1
  Ca2+  Ca22  1  0.59283147  0.82839973  0.49785706  1
  Ca2+  Ca23  1  0.57704137  0.82792246  0.82629235  1
  Ca2+  Ca24  1  0.32978773  0.42664987  0.17442072  1
  Ca2+  Ca25  1  0.32269964  0.41483300  0.50235199  1
  Ca2+  Ca26  1  0.32908504  0.41890689  0.83745640  1
  Ca2+  Ca27  1  0.33852755  0.92646921  0.16797854  1
  Ca2+  Ca28  1  0.32804638  0.92423544  0.50397958  1
  Ca2+  Ca29  1  0.32945625  0.92077007  0.83934559  1
  Ca2+  Ca30  1  0.83441442  0.42126902  0.16580212  1
  Ca2+  Ca31  1  0.83252923  0.42716432  0.51053632  1
  Ca2+  Ca32  1  0.82915345  0.41615567  0.83744176  1
  Ca2+  Ca33  1  0.82632049  0.91801117  0.17616540  1
  Ca2+  Ca34  1  0.82400496  0.91485367  0.50387178  1
  Ca2+  Ca35  1  0.82487631  0.91924048  0.83317746  1
  Ca2+  Ca36  1  0.42344924  0.16033402  0.16176690  1
  Ca2+  Ca37  1  0.42426329  0.16500347  0.49580948  1
  Ca2+  Ca38  1  0.42487693  0.16378184  0.83200578  1
  Ca2+  Ca39  1  0.41022328  0.67126960  0.15742387  1
  Ca2+  Ca40  1  0.42290804  0.66449482  0.49687939  1
  Ca2+  Ca41  1  0.41804669  0.67006119  0.82828542  1
  Ca2+  Ca42  1  0.92613229  0.17553049  0.15318186  1
  Ca2+  Ca43  1  0.92114185  0.17357764  0.50044825  1
  Ca2+  Ca44  1  0.92434015  0.18020919  0.82723595  1
  Ca2+  Ca45  1  0.90918785  0.66689235  0.16750472  1
  Ca2+  Ca46  1  0.90981330  0.66934373  0.49296875  1
  Ca2+  Ca47  1  0.91011474  0.66274711  0.82988468  1
  Al0+  Al48  1  -0.00199540  -0.00205363  -0.00353585  1
  Al0+  Al49  1  -0.00102713  0.00065572  0.32619494  1
  Al0+  Al50  1  0.00031027  0.00011795  0.66690071  1
  Al0+  Al51  1  -0.00110579  0.50233915  0.00077171  1
  Al0+  Al52  1  0.00037473  0.50119452  0.33823874  1
  Al0+  Al53  1  0.00299509  0.50184242  0.67042751  1
  Al0+  Al54  1  0.49669653  -0.00235461  -0.00509068  1
  Al0+  Al55  1  0.49959689  -0.00221652  0.33879100  1
  Al0+  Al56  1  0.49809116  -0.00016863  0.66689309  1
  Al0+  Al57  1  0.50155566  0.49878443  0.00887617  1
  Al0+  Al58  1  0.50123180  0.49832382  0.33559348  1
  Al0+  Al59  1  0.50142010  0.50143222  0.66406054  1
  Al0+  Al60  1  0.25243517  0.24779010  0.00081178  1
  Al0+  Al61  1  0.25175298  0.25038862  0.34110045  1
  Al0+  Al62  1  0.25169779  0.25059101  0.66835377  1
  Al0+  Al63  1  0.24721763  0.75140377  -0.00113521  1
  Al0+  Al64  1  0.24995920  0.74989090  0.33581207  1
  Al0+  Al65  1  0.24907512  0.75320850  0.66739548  1
  Al0+  Al66  1  0.75118223  0.24781969  -0.00417901  1
  Al0+  Al67  1  0.75237728  0.24813894  0.32684386  1
  Al0+  Al68  1  0.75204958  0.24987289  0.65852002  1
  Al0+  Al69  1  0.74858978  0.74913936  0.00276739  1
  Al0+  Al70  1  0.74919565  0.75040822  0.33364124  1
  Al0+  Al71  1  0.74830125  0.75216700  0.67205041  1
  Al0+  Al72  1  0.82137899  0.57187929  0.01785171  1
  Al0+  Al73  1  0.92788087  0.82061953  0.31961837  1
  Al0+  Al74  1  0.18107038  0.42923481  0.68301914  1
  Al0+  Al75  1  0.57070738  0.17874423  0.65177440  1
  Al0+  Al76  1  0.32443819  0.57425855  0.34981429  1
  Al0+  Al77  1  0.93070764  0.32386241  0.64882079  1
  Al0+  Al78  1  0.07442641  0.17811303  0.98525087  1
  Al0+  Al79  1  0.56957741  0.17887133  0.98619583  1
  Al0+  Al80  1  0.93057995  0.32320601  0.98433261  1
  Al0+  Al81  1  0.82155533  0.57218729  0.68214880  1
  Al0+  Al82  1  0.67779292  0.93112613  0.68228681  1
  Al0+  Al83  1  0.67877368  0.42648083  0.67973681  1
  Al0+  Al84  1  0.07251960  0.17868154  0.65026023  1
  Al0+  Al85  1  0.32085336  0.06939458  0.34836682  1
  Al0+  Al86  1  0.67943272  0.42419904  0.01626872  1
  Al0+  Al87  1  0.57045496  0.68057843  0.65378050  1
  Al0+  Al88  1  0.68029470  0.93105251  0.34619900  1
  Al0+  Al89  1  0.17960145  0.42947317  0.34810367  1
  Al0+  Al90  1  0.81757123  0.56922271  0.34769782  1
  Al0+  Al91  1  0.56934560  0.17807388  0.31923206  1
  Al0+  Al92  1  0.42792529  0.81884483  0.98612156  1
  Al0+  Al93  1  0.17759852  0.93024101  0.67966107  1
  Al0+  Al94  1  0.32079249  0.57218014  0.01124138  1
  Al0+  Al95  1  0.31995661  0.06925611  0.01295181  1
  Si0+  Si96  1  0.06991207  0.68129929  0.98483349  1
  Si0+  Si97  1  0.32267448  0.57359093  0.68255377  1
  Si0+  Si98  1  0.32155140  0.07188243  0.68509881  1
  Si0+  Si99  1  0.93108216  0.32265838  0.31740735  1
  Si0+  Si100  1  0.82182162  0.06905184  0.01382817  1
  Si0+  Si101  1  0.57245675  0.67643601  0.98495230  1
  Si0+  Si102  1  0.82268421  0.07194891  0.68247771  1
  Si0+  Si103  1  0.82487661  0.07358939  0.34824525  1
  Si0+  Si104  1  0.17456553  0.92755123  0.01794909  1
  Si0+  Si105  1  0.92858507  0.82041784  0.65296816  1
  Si0+  Si106  1  0.67806987  0.93026201  0.01452464  1
  Si0+  Si107  1  0.42690142  0.32152801  0.31659433  1
  Si0+  Si108  1  0.42630561  0.82177826  0.64744660  1
  Si0+  Si109  1  0.07204649  0.67812048  0.31660332  1
  Si0+  Si110  1  0.92549097  0.82076549  0.98334276  1
  Si0+  Si111  1  0.07319613  0.17906891  0.31837721  1
  Si0+  Si112  1  0.17511399  0.92852778  0.34775165  1
  Si0+  Si113  1  0.67881574  0.42353859  0.34977027  1
  Si0+  Si114  1  0.57164414  0.67762322  0.31812314  1
  Si0+  Si115  1  0.42862308  0.32467954  0.98540444  1
  Si0+  Si116  1  0.42819582  0.81893752  0.31945163  1
  Si0+  Si117  1  0.07316882  0.68017277  0.65143237  1
  Si0+  Si118  1  0.17903865  0.42813080  0.01496080  1
  Si0+  Si119  1  0.42806050  0.32418868  0.64975368  1
  O2-  O120  1  0.24093705  -0.00107802  0.06110479  1
  O2-  O121  1  0.24197605  -0.00195131  0.39286216  1
  O2-  O122  1  0.24920254  0.00628457  0.72784671  1
  O2-  O123  1  0.24971484  0.49477864  0.05924067  1
  O2-  O124  1  0.25339122  0.50069619  0.39753369  1
  O2-  O125  1  0.25666215  0.50354910  0.72843875  1
  O2-  O126  1  0.74867545  0.00081693  0.05782722  1
  O2-  O127  1  0.75471840  0.00639523  0.39240733  1
  O2-  O128  1  0.74875186  0.00935908  0.72874453  1
  O2-  O129  1  0.75128265  0.49707980  0.06599515  1
  O2-  O130  1  0.74425670  0.49448691  0.39472320  1
  O2-  O131  1  0.75250641  0.49654204  0.73016117  1
  O2-  O132  1  0.00240511  0.25065386  0.27643391  1
  O2-  O133  1  0.00365380  0.25231692  0.59802866  1
  O2-  O134  1  0.00584205  0.25332810  0.93612238  1
  O2-  O135  1  0.00366977  0.74728509  0.27175396  1
  O2-  O136  1  -0.00159586  0.74825958  0.61049786  1
  O2-  O137  1  -0.00370101  0.74961759  0.94195783  1
  O2-  O138  1  0.49706625  0.25460146  0.27145831  1
  O2-  O139  1  0.49932139  0.25726699  0.60615463  1
  O2-  O140  1  0.49908470  0.25798862  0.94065171  1
  O2-  O141  1  0.49435090  0.74303064  0.27684010  1
  O2-  O142  1  0.49593962  0.75427352  0.60333904  1
  O2-  O143  1  0.49911852  0.74043319  0.94085036  1
  O2-  O144  1  0.07267676  0.17938680  0.09981219  1
  O2-  O145  1  0.07115102  0.17580325  0.42292639  1
  O2-  O146  1  0.06966855  0.17840801  0.76352103  1
  O2-  O147  1  0.07237771  0.68395763  0.08996934  1
  O2-  O148  1  0.07202968  0.67973972  0.42214986  1
  O2-  O149  1  0.07623480  0.68314653  0.75681191  1
  O2-  O150  1  0.56683361  0.17519160  0.09949992  1
  O2-  O151  1  0.56776694  0.17795321  0.43206796  1
  O2-  O152  1  0.56651461  0.17667569  0.76490239  1
  O2-  O153  1  0.57400325  0.68120277  0.09100063  1
  O2-  O154  1  0.57378920  0.68132438  0.42304123  1
  O2-  O155  1  0.56700364  0.68267616  0.76685537  1
  O2-  O156  1  0.17974629  0.43024448  0.23395043  1
  O2-  O157  1  0.18217419  0.43193453  0.57020164  1
  O2-  O158  1  0.17983010  0.43065260  0.90950805  1
  O2-  O159  1  0.17556840  0.92789580  0.24210699  1
  O2-  O160  1  0.17935425  0.92918747  0.56630604  1
  O2-  O161  1  0.17523284  0.92535191  0.91243908  1
  O2-  O162  1  0.68068224  0.42345040  0.24416127  1
  O2-  O163  1  0.67990417  0.42909290  0.56575578  1
  O2-  O164  1  0.67886362  0.42503250  0.90305667  1
  O2-  O165  1  0.67928826  0.93113762  0.23246983  1
  O2-  O166  1  0.68114624  0.92951370  0.56915090  1
  O2-  O167  1  0.67978896  0.93016818  0.90955455  1
  O2-  O168  1  0.42702670  0.32312631  0.09100368  1
  O2-  O169  1  0.42623454  0.31986142  0.42205515  1
  O2-  O170  1  0.42633177  0.32383689  0.75551179  1
  O2-  O171  1  0.43112331  0.82034624  0.09989103  1
  O2-  O172  1  0.42864370  0.82014228  0.42427621  1
  O2-  O173  1  0.42526470  0.82013504  0.75323710  1
  O2-  O174  1  0.93318772  0.32125723  0.09900491  1
  O2-  O175  1  0.93032477  0.32223709  0.42196379  1
  O2-  O176  1  0.93164184  0.32267923  0.76215712  1
  O2-  O177  1  0.92581776  0.82239616  0.08850169  1
  O2-  O178  1  0.92868249  0.82010690  0.43282106  1
  O2-  O179  1  0.92971229  0.82052241  0.75844304  1
  O2-  O180  1  0.32145620  0.06747959  0.23507189  1
  O2-  O181  1  0.32250949  0.06896762  0.57921434  1
  O2-  O182  1  0.32251968  0.06509404  0.90049459  1
  O2-  O183  1  0.32048737  0.57527632  0.23580463  1
  O2-  O184  1  0.31994535  0.57447150  0.57716817  1
  O2-  O185  1  0.31750926  0.57218078  0.89823553  1
  O2-  O186  1  0.82541276  0.07180525  0.24227300  1
  O2-  O187  1  0.82510057  0.06659074  0.57672170  1
  O2-  O188  1  0.82272735  0.06505963  0.90904026  1
  O2-  O189  1  0.81671613  0.56848999  0.23485996  1
  O2-  O190  1  0.81913678  0.57460003  0.56826082  1
  O2-  O191  1  0.81835383  0.57593508  0.90512408  1
  O2-  O192  1  0.04685808  0.08809615  0.26806016  1
  O2-  O193  1  0.04210643  0.07974003  0.59779906  1
  O2-  O194  1  0.04293428  0.07927539  0.93435739  1
  O2-  O195  1  0.04503573  0.58490518  0.27049652  1
  O2-  O196  1  0.04962513  0.58757042  0.60507719  1
  O2-  O197  1  0.04500678  0.58883315  0.93785279  1
  O2-  O198  1  0.53557827  0.08034984  0.26803048  1
  O2-  O199  1  0.53530983  0.08245807  0.59849355  1
  O2-  O200  1  0.53399548  0.08409992  0.93133263  1
  O2-  O201  1  0.55146111  0.58272742  0.27312394  1
  O2-  O202  1  0.54244605  0.58442564  0.59690345  1
  O2-  O203  1  0.55178228  0.58020915  0.94356666  1
  O2-  O204  1  0.16617296  0.20806627  0.27372084  1
  O2-  O205  1  0.17333187  0.20409852  0.60079963  1
  O2-  O206  1  0.17514093  0.19940685  0.93459528  1
  O2-  O207  1  0.16585923  0.70467850  0.27023004  1
  O2-  O208  1  0.16276598  0.71240952  0.60197314  1
  O2-  O209  1  0.15912487  0.71202089  0.93407759  1
  O2-  O210  1  0.66815809  0.20349024  0.26517003  1
  O2-  O211  1  0.66829761  0.20249968  0.59619143  1
  O2-  O212  1  0.66801782  0.20164988  0.93303156  1
  O2-  O213  1  0.65972055  0.71283619  0.26833297  1
  O2-  O214  1  0.66660036  0.71594519  0.60048667  1
  O2-  O215  1  0.66365108  0.70836839  0.93792530  1
  O2-  O216  1  0.08674313  0.45740892  0.06114558  1
  O2-  O217  1  0.08326100  0.46093494  0.40310377  1
  O2-  O218  1  0.08679313  0.46341960  0.73820911  1
  O2-  O219  1  0.07899067  0.94902844  0.06217362  1
  O2-  O220  1  0.08035940  0.95303391  0.39184798  1
  O2-  O221  1  0.08036136  0.95612539  0.73496981  1
  O2-  O222  1  0.58176995  0.45108283  0.07286932  1
  O2-  O223  1  0.58340309  0.44380443  0.39329354  1
  O2-  O224  1  0.57969652  0.45541525  0.73139150  1
  O2-  O225  1  0.58582625  0.95831245  0.06031880  1
  O2-  O226  1  0.58506924  0.95936774  0.40310070  1
  O2-  O227  1  0.57939054  0.95787043  0.73452491  1
  O2-  O228  1  0.20197773  0.33355537  0.05975963  1
  O2-  O229  1  0.20689786  0.33233367  0.40393124  1
  O2-  O230  1  0.21145171  0.33253032  0.73654125  1
  O2-  O231  1  0.20244530  0.83524220  0.06511100  1
  O2-  O232  1  0.20063738  0.83535999  0.39430326  1
  O2-  O233  1  0.20980205  0.83454047  0.73572712  1
  O2-  O234  1  0.70917679  0.32509186  0.06822167  1
  O2-  O235  1  0.70768748  0.32985880  0.39351258  1
  O2-  O236  1  0.70518629  0.32584142  0.72877691  1
  O2-  O237  1  0.70577380  0.83871224  0.06233177  1
  O2-  O238  1  0.71353716  0.83558319  0.40027944  1
  O2-  O239  1  0.71229934  0.83767002  0.73923743  1
  O2-  O240  1  0.45001184  0.41692469  0.27187817  1
  O2-  O241  1  0.44859177  0.41855816  0.60316923  1
  O2-  O242  1  0.45087996  0.41975161  0.94066297  1
  O2-  O243  1  0.46215521  0.90892176  0.27187037  1
  O2-  O244  1  0.45093586  0.91597370  0.60309967  1
  O2-  O245  1  0.46229912  0.91177941  0.92839864  1
  O2-  O246  1  0.96039269  0.41469686  0.27100625  1
  O2-  O247  1  0.96193362  0.42332715  0.59858217  1
  O2-  O248  1  0.95472990  0.42347013  0.93382582  1
  O2-  O249  1  0.95649277  0.91697951  0.26196253  1
  O2-  O250  1  0.95744379  0.91116862  0.60461721  1
  O2-  O251  1  0.95281566  0.91154991  0.93394080  1
  O2-  O252  1  0.33303017  0.29494752  0.27123447  1
  O2-  O253  1  0.33622264  0.29405772  0.60235590  1
  O2-  O254  1  0.33596821  0.29698043  0.93829464  1
  O2-  O255  1  0.33459252  0.79711120  0.27173321  1
  O2-  O256  1  0.33284533  0.79580479  0.60078319  1
  O2-  O257  1  0.32969097  0.79262186  0.93272582  1
  O2-  O258  1  0.84020681  0.29472459  0.26779293  1
  O2-  O259  1  0.83379981  0.29468111  0.59293936  1
  O2-  O260  1  0.83417188  0.28976338  0.93139115  1
  O2-  O261  1  0.83212492  0.78812869  0.26403161  1
  O2-  O262  1  0.83618643  0.79374651  0.60661604  1
  O2-  O263  1  0.83316197  0.79325280  0.93665318  1
  O2-  O264  1  0.41473993  0.03107802  0.06750970  1
  O2-  O265  1  0.41372119  0.03295751  0.40490357  1
  O2-  O266  1  0.41276533  0.04061124  0.73218075  1
  O2-  O267  1  0.41769112  0.54813583  0.06754313  1
  O2-  O268  1  0.42419609  0.54815104  0.40076776  1
  O2-  O269  1  0.41721102  0.55088362  0.72678995  1
  O2-  O270  1  0.91242095  0.03831292  0.06301384  1
  O2-  O271  1  0.91819964  0.04647918  0.39366692  1
  O2-  O272  1  0.91291812  0.03960098  0.73118231  1
  O2-  O273  1  0.92162644  0.54777405  0.07029992  1
  O2-  O274  1  0.91568888  0.54350260  0.40019169  1
  O2-  O275  1  0.92220399  0.55064249  0.73249435  1
  O2-  O276  1  0.29553532  0.16700650  0.06930004  1
  O2-  O277  1  0.29435076  0.16576432  0.40348034  1
  O2-  O278  1  0.30163370  0.16666132  0.72975849  1
  O2-  O279  1  0.28514802  0.66770787  0.06539727  1
  O2-  O280  1  0.29534379  0.67226877  0.40334253  1
  O2-  O281  1  0.29416717  0.66685462  0.72772662  1
  O2-  O282  1  0.79806703  0.16171533  0.06035163  1
  O2-  O283  1  0.80146651  0.16790804  0.39284248  1
  O2-  O284  1  0.80251122  0.16791217  0.72381160  1
  O2-  O285  1  0.78999333  0.67034972  0.07147635  1
  O2-  O286  1  0.78629070  0.66615439  0.39996517  1
  O2-  O287  1  0.79056171  0.66935082  0.73577853  1
