# generated using pymatgen
data_Ca2Al2SiO7
_symmetry_space_group_name_H-M   'P 1'
_cell_length_a   15.46280176
_cell_length_b   15.46405673
_cell_length_c   15.28754824
_cell_angle_alpha   90.02224153
_cell_angle_beta   90.00736067
_cell_angle_gamma   90.02272202
_symmetry_Int_Tables_number   1
_chemical_formula_structural   Ca2Al2SiO7
_chemical_formula_sum   'Ca48 Al48 Si24 O168'
_cell_volume   3655.52191895
_cell_formula_units_Z   24
loop_
 _symmetry_equiv_pos_site_id
 _symmetry_equiv_pos_as_xyz
  1  'x, y, z'
loop_
 _atom_type_symbol
 _atom_type_oxidation_number
  Ca2+  2.0
  Al0+  0.0
  Si0+  0.0
  O2-  -2.0
loop_
 _atom_site_type_symbol
 _atom_site_label
 _atom_site_symmetry_multiplicity
 _atom_site_fract_x
 _atom_site_fract_y
 _atom_site_fract_z
 _atom_site_occupancy
  Ca2+  Ca0  1  0.16929704  0.07816182  0.17172669  1
  Ca2+  Ca1  1  0.17294745  0.07841940  0.50131164  1
  Ca2+  Ca2  1  0.17388792  0.07791073  0.83910549  1
  Ca2+  Ca3  1  0.16666372  0.57161947  0.17355762  1
  Ca2+  Ca4  1  0.17085402  0.57620986  0.50153245  1
  Ca2+  Ca5  1  0.15570918  0.57054012  0.83564741  1
  Ca2+  Ca6  1  0.67769621  0.07705438  0.17545444  1
  Ca2+  Ca7  1  0.66992685  0.07044071  0.50038412  1
  Ca2+  Ca8  1  0.66994507  0.07716818  0.83349101  1
  Ca2+  Ca9  1  0.66720408  0.57811089  0.16584835  1
  Ca2+  Ca10  1  0.66587487  0.58060553  0.50961594  1
  Ca2+  Ca11  1  0.66429385  0.57545119  0.83445786  1
  Ca2+  Ca12  1  0.08795300  0.32200697  0.15868823  1
  Ca2+  Ca13  1  0.08520520  0.33026268  0.49355247  1
  Ca2+  Ca14  1  0.08289568  0.33057563  0.82746336  1
  Ca2+  Ca15  1  0.08213226  0.83934403  0.15828900  1
  Ca2+  Ca16  1  0.08248793  0.84510057  0.49792792  1
  Ca2+  Ca17  1  0.07546387  0.84468389  0.82987391  1
  Ca2+  Ca18  1  0.58114987  0.33132301  0.15924797  1
  Ca2+  Ca19  1  0.58194991  0.33289292  0.49760211  1
  Ca2+  Ca20  1  0.58432576  0.33487457  0.82693218  1
  Ca2+  Ca21  1  0.56857769  0.84225012  0.16480143  1
  Ca2+  Ca22  1  0.58102184  0.83430476  0.49471474  1
  Ca2+  Ca23  1  0.57755047  0.83034925  0.82479857  1
  Ca2+  Ca24  1  0.32077161  0.42179979  0.17242793  1
  Ca2+  Ca25  1  0.32069312  0.41763891  0.50125520  1
  Ca2+  Ca26  1  0.31993423  0.41822955  0.83731499  1
  Ca2+  Ca27  1  0.32734621  0.92228560  0.17386552  1
  Ca2+  Ca28  1  0.32651303  0.92334774  0.50421285  1
  Ca2+  Ca29  1  0.32682868  0.92423115  0.84180121  1
  Ca2+  Ca30  1  0.83153066  0.40881221  0.16382484  1
  Ca2+  Ca31  1  0.82979156  0.41720731  0.51003421  1
  Ca2+  Ca32  1  0.82672938  0.40624174  0.83812619  1
  Ca2+  Ca33  1  0.83170161  0.92198427  0.17608844  1
  Ca2+  Ca34  1  0.82845392  0.92032157  0.50591851  1
  Ca2+  Ca35  1  0.83026297  0.90599309  0.83533051  1
  Ca2+  Ca36  1  0.41439684  0.16000695  0.16333865  1
  Ca2+  Ca37  1  0.41195916  0.16150432  0.49626799  1
  Ca2+  Ca38  1  0.41189026  0.16278581  0.83094530  1
  Ca2+  Ca39  1  0.40677049  0.67987370  0.16587878  1
  Ca2+  Ca40  1  0.42136741  0.66952644  0.49109411  1
  Ca2+  Ca41  1  0.42106757  0.67257228  0.82901256  1
  Ca2+  Ca42  1  0.93166510  0.16440245  0.16091930  1
  Ca2+  Ca43  1  0.92225595  0.17091129  0.49262195  1
  Ca2+  Ca44  1  0.92570521  0.17541354  0.83201902  1
  Ca2+  Ca45  1  0.92008687  0.67590495  0.16075931  1
  Ca2+  Ca46  1  0.91801214  0.67402684  0.50121378  1
  Ca2+  Ca47  1  0.91726084  0.67745729  0.82993170  1
  Al0+  Al48  1  -0.00037913  0.00193375  -0.00742086  1
  Al0+  Al49  1  -0.00072590  0.00372482  0.33569226  1
  Al0+  Al50  1  0.00052478  0.00369760  0.66422916  1
  Al0+  Al51  1  -0.00423443  0.50103056  0.00272384  1
  Al0+  Al52  1  -0.00379570  0.50084633  0.33558909  1
  Al0+  Al53  1  -0.00138740  0.50212699  0.66549871  1
  Al0+  Al54  1  0.50063999  -0.00065045  -0.00307833  1
  Al0+  Al55  1  0.50138383  -0.00038961  0.33488565  1
  Al0+  Al56  1  0.50303113  0.00089497  0.67292488  1
  Al0+  Al57  1  0.50117527  0.49882780  0.00470476  1
  Al0+  Al58  1  0.50032673  0.49996107  0.33309082  1
  Al0+  Al59  1  0.50028314  0.49957612  0.66551887  1
  Al0+  Al60  1  0.25280983  0.25033159  0.00204698  1
  Al0+  Al61  1  0.24958458  0.25012527  0.33466110  1
  Al0+  Al62  1  0.25118219  0.25162315  0.67253451  1
  Al0+  Al63  1  0.24969270  0.74961899  -0.00542548  1
  Al0+  Al64  1  0.24975109  0.74823648  0.33655975  1
  Al0+  Al65  1  0.24988740  0.75073403  0.66971782  1
  Al0+  Al66  1  0.74887038  0.24782189  0.00176677  1
  Al0+  Al67  1  0.74905552  0.24994058  0.33582368  1
  Al0+  Al68  1  0.74945241  0.24942503  0.66462011  1
  Al0+  Al69  1  0.74913708  0.74655881  -0.00149330  1
  Al0+  Al70  1  0.74913520  0.74652845  0.33394588  1
  Al0+  Al71  1  0.75023797  0.74938799  0.66199713  1
  Al0+  Al72  1  0.17662820  0.43019962  0.01344356  1
  Al0+  Al73  1  0.56867285  0.67887705  0.65277794  1
  Al0+  Al74  1  0.07114193  0.18072731  0.31970659  1
  Al0+  Al75  1  0.92853624  0.32130803  0.65225146  1
  Al0+  Al76  1  0.32164878  0.57157380  0.34771504  1
  Al0+  Al77  1  0.17744323  0.92749383  0.34708722  1
  Al0+  Al78  1  0.32318195  0.07001093  0.01708839  1
  Al0+  Al79  1  0.32222223  0.07092031  0.34776380  1
  Al0+  Al80  1  0.17702156  0.42853803  0.34781603  1
  Al0+  Al81  1  0.17704478  0.92907318  0.01449396  1
  Al0+  Al82  1  0.82213648  0.07232751  0.34847096  1
  Al0+  Al83  1  0.92796367  0.32079546  0.98612478  1
  Al0+  Al84  1  0.42927002  0.82056029  0.32121781  1
  Al0+  Al85  1  0.67965552  0.42756122  0.01439413  1
  Al0+  Al86  1  0.92870494  0.82176094  0.98844630  1
  Al0+  Al87  1  0.17804818  0.43188249  0.68064807  1
  Al0+  Al88  1  0.68255806  0.92748519  0.68176628  1
  Al0+  Al89  1  0.42852206  0.82135698  0.98451258  1
  Al0+  Al90  1  0.67975470  0.92697697  0.34665793  1
  Al0+  Al91  1  0.07515717  0.18035228  0.98237833  1
  Al0+  Al92  1  0.93119593  0.82232875  0.65117373  1
  Al0+  Al93  1  0.67962759  0.42874311  0.67938829  1
  Al0+  Al94  1  0.17701252  0.92833410  0.68332089  1
  Al0+  Al95  1  0.32195600  0.07072911  0.68290317  1
  Si0+  Si96  1  0.32344079  0.57207369  0.68351049  1
  Si0+  Si97  1  0.92935549  0.82048255  0.32019331  1
  Si0+  Si98  1  0.07437956  0.18174644  0.64790073  1
  Si0+  Si99  1  0.07329437  0.67745122  0.64893505  1
  Si0+  Si100  1  0.81928932  0.06989832  0.01288864  1
  Si0+  Si101  1  0.43113175  0.32242810  0.98514260  1
  Si0+  Si102  1  0.57161959  0.17809817  0.65037414  1
  Si0+  Si103  1  0.57152378  0.17969875  0.31802184  1
  Si0+  Si104  1  0.82191483  0.07293004  0.68436760  1
  Si0+  Si105  1  0.82019939  0.57142660  0.35004691  1
  Si0+  Si106  1  0.07156234  0.67696824  0.98452722  1
  Si0+  Si107  1  0.57136463  0.17880781  0.98449180  1
  Si0+  Si108  1  0.57330132  0.67530299  0.31377511  1
  Si0+  Si109  1  0.42867811  0.82380976  0.64989415  1
  Si0+  Si110  1  0.42922231  0.32047402  0.65171417  1
  Si0+  Si111  1  0.82040161  0.57364587  0.01875563  1
  Si0+  Si112  1  0.82143169  0.57238351  0.68417723  1
  Si0+  Si113  1  0.92551067  0.32392368  0.31646638  1
  Si0+  Si114  1  0.42988888  0.32177043  0.31776178  1
  Si0+  Si115  1  0.67888729  0.42899410  0.34833136  1
  Si0+  Si116  1  0.06999222  0.67716926  0.31930297  1
  Si0+  Si117  1  0.57123066  0.67621537  0.98328644  1
  Si0+  Si118  1  0.32347415  0.57154640  0.01538953  1
  Si0+  Si119  1  0.67972361  0.92566341  0.01351242  1
  O2-  O120  1  0.24976994  -0.00076529  0.06587331  1
  O2-  O121  1  0.25126639  -0.00207720  0.39638226  1
  O2-  O122  1  0.25182578  -0.00252642  0.73246327  1
  O2-  O123  1  0.25031874  0.50688361  0.05855052  1
  O2-  O124  1  0.24928886  0.50033507  0.39765883  1
  O2-  O125  1  0.24988900  0.50907640  0.72840011  1
  O2-  O126  1  0.75399572  -0.00686369  0.05501732  1
  O2-  O127  1  0.75377798  -0.00367206  0.39721091  1
  O2-  O128  1  0.75957203  -0.00106242  0.73031394  1
  O2-  O129  1  0.75529416  0.50046934  0.06203401  1
  O2-  O130  1  0.74974502  0.49921979  0.39075031  1
  O2-  O131  1  0.75586968  0.50042163  0.72783330  1
  O2-  O132  1  -0.00357917  0.25719753  0.27414670  1
  O2-  O133  1  0.00499701  0.25029316  0.60381167  1
  O2-  O134  1  0.00617145  0.25729088  0.93437447  1
  O2-  O135  1  0.00396136  0.75354120  0.27721949  1
  O2-  O136  1  0.01055365  0.75204781  0.60450205  1
  O2-  O137  1  0.00733818  0.75076968  0.94188804  1
  O2-  O138  1  0.49924019  0.24901078  0.27492911  1
  O2-  O139  1  0.49820722  0.24735757  0.60910145  1
  O2-  O140  1  0.49954347  0.24904328  0.94253312  1
  O2-  O141  1  0.50483839  0.74548419  0.27233885  1
  O2-  O142  1  0.49442439  0.75274782  0.60467844  1
  O2-  O143  1  0.50342725  0.74546342  0.93954328  1
  O2-  O144  1  0.07254026  0.17866374  0.09615929  1
  O2-  O145  1  0.07018715  0.18305262  0.43279861  1
  O2-  O146  1  0.07436988  0.18359162  0.75342799  1
  O2-  O147  1  0.06898511  0.67516216  0.09048410  1
  O2-  O148  1  0.06545647  0.67277907  0.42389848  1
  O2-  O149  1  0.06820208  0.67243895  0.75427618  1
  O2-  O150  1  0.57329739  0.18006610  0.08988735  1
  O2-  O151  1  0.57334944  0.18288403  0.42304224  1
  O2-  O152  1  0.57411952  0.17972171  0.75565654  1
  O2-  O153  1  0.57247063  0.67562324  0.08881578  1
  O2-  O154  1  0.57400463  0.67226897  0.41919051  1
  O2-  O155  1  0.56659359  0.67767338  0.76610466  1
  O2-  O156  1  0.17825153  0.43025666  0.23416829  1
  O2-  O157  1  0.18028490  0.43147404  0.56789896  1
  O2-  O158  1  0.17835832  0.43221792  0.90007524  1
  O2-  O159  1  0.17623827  0.92759311  0.23370663  1
  O2-  O160  1  0.17860103  0.93072428  0.56979716  1
  O2-  O161  1  0.17792821  0.93126577  0.90134826  1
  O2-  O162  1  0.67919784  0.42842169  0.24313179  1
  O2-  O163  1  0.67966538  0.43037753  0.56589571  1
  O2-  O164  1  0.67856264  0.42881762  0.90163354  1
  O2-  O165  1  0.68112588  0.92983075  0.23230626  1
  O2-  O166  1  0.68166261  0.92967461  0.56899118  1
  O2-  O167  1  0.68026309  0.92655447  0.90841773  1
  O2-  O168  1  0.43429117  0.32468525  0.09042611  1
  O2-  O169  1  0.43327468  0.32366248  0.42301403  1
  O2-  O170  1  0.43115609  0.32212601  0.75690486  1
  O2-  O171  1  0.43024302  0.82157330  0.09781794  1
  O2-  O172  1  0.43280963  0.81901570  0.43411517  1
  O2-  O173  1  0.43227807  0.82184174  0.75567849  1
  O2-  O174  1  0.92566697  0.31490468  0.09969116  1
  O2-  O175  1  0.92333784  0.32425592  0.42212849  1
  O2-  O176  1  0.92726889  0.31806376  0.76498849  1
  O2-  O177  1  0.92526618  0.81932921  0.10204952  1
  O2-  O178  1  0.92754137  0.81687109  0.42502087  1
  O2-  O179  1  0.92888924  0.81737314  0.76427897  1
  O2-  O180  1  0.32290608  0.06990866  0.23469158  1
  O2-  O181  1  0.32175143  0.07122026  0.56947756  1
  O2-  O182  1  0.32530816  0.06820486  0.90385845  1
  O2-  O183  1  0.31939138  0.56978258  0.23383557  1
  O2-  O184  1  0.32479700  0.56826803  0.57810303  1
  O2-  O185  1  0.32811081  0.56712068  0.90984649  1
  O2-  O186  1  0.82058355  0.07101246  0.23410947  1
  O2-  O187  1  0.81777016  0.07300784  0.57889406  1
  O2-  O188  1  0.81476355  0.07297210  0.90805362  1
  O2-  O189  1  0.82017771  0.57432551  0.24511577  1
  O2-  O190  1  0.81972076  0.57178427  0.57806304  1
  O2-  O191  1  0.81799995  0.57927165  0.91393900  1
  O2-  O192  1  0.03743859  0.08474092  0.26472403  1
  O2-  O193  1  0.04831750  0.08840377  0.60226583  1
  O2-  O194  1  0.04001327  0.08535213  0.92690665  1
  O2-  O195  1  0.03494521  0.58813446  0.26923254  1
  O2-  O196  1  0.04086083  0.58735319  0.59899111  1
  O2-  O197  1  0.03792252  0.58625876  0.93663651  1
  O2-  O198  1  0.54702370  0.08738304  0.27041629  1
  O2-  O199  1  0.54531673  0.08547248  0.60374615  1
  O2-  O200  1  0.54593053  0.08723783  0.93548010  1
  O2-  O201  1  0.54745947  0.58154527  0.26697730  1
  O2-  O202  1  0.53885152  0.58190005  0.59741318  1
  O2-  O203  1  0.54418480  0.58215426  0.93816279  1
  O2-  O204  1  0.16790298  0.21124017  0.26534679  1
  O2-  O205  1  0.16815001  0.21028309  0.60387337  1
  O2-  O206  1  0.17498484  0.20701724  0.93163383  1
  O2-  O207  1  0.16382337  0.69765006  0.27358385  1
  O2-  O208  1  0.17021174  0.69540242  0.60659223  1
  O2-  O209  1  0.16640482  0.69275094  0.93776612  1
  O2-  O210  1  0.66240021  0.21061229  0.26908877  1
  O2-  O211  1  0.66097546  0.20901149  0.60035555  1
  O2-  O212  1  0.66150857  0.20869975  0.93555227  1
  O2-  O213  1  0.66780177  0.69876676  0.26767938  1
  O2-  O214  1  0.66554251  0.70723804  0.59820450  1
  O2-  O215  1  0.66470320  0.70009023  0.93649999  1
  O2-  O216  1  0.07934288  0.45883771  0.06698739  1
  O2-  O217  1  0.07777066  0.45681397  0.39880942  1
  O2-  O218  1  0.08056208  0.46191039  0.73342583  1
  O2-  O219  1  0.07634413  0.95723541  0.06368726  1
  O2-  O220  1  0.08007881  0.95846775  0.39990367  1
  O2-  O221  1  0.07800700  0.95982746  0.73328077  1
  O2-  O222  1  0.58460020  0.45976867  0.07140619  1
  O2-  O223  1  0.58714239  0.45624793  0.39535811  1
  O2-  O224  1  0.58310282  0.46034389  0.73313599  1
  O2-  O225  1  0.58976678  0.95923909  0.06011678  1
  O2-  O226  1  0.58441944  0.96009984  0.40139335  1
  O2-  O227  1  0.58821363  0.96168839  0.73766048  1
  O2-  O228  1  0.21225190  0.33537680  0.06650750  1
  O2-  O229  1  0.20931889  0.33258577  0.40181290  1
  O2-  O230  1  0.21314815  0.33790290  0.73592205  1
  O2-  O231  1  0.20103612  0.82658835  0.06158795  1
  O2-  O232  1  0.20066453  0.82809925  0.39954717  1
  O2-  O233  1  0.19770058  0.82672817  0.73370940  1
  O2-  O234  1  0.70882070  0.33072749  0.06958615  1
  O2-  O235  1  0.70424914  0.33720973  0.39641885  1
  O2-  O236  1  0.70755109  0.33092037  0.73220375  1
  O2-  O237  1  0.70238824  0.83242494  0.05961395  1
  O2-  O238  1  0.70367890  0.82675912  0.39715324  1
  O2-  O239  1  0.71151428  0.82975837  0.73411712  1
  O2-  O240  1  0.46098110  0.41209308  0.26858121  1
  O2-  O241  1  0.46027054  0.41022439  0.60235689  1
  O2-  O242  1  0.46272902  0.41288121  0.93710529  1
  O2-  O243  1  0.46315648  0.91651598  0.26616343  1
  O2-  O244  1  0.45940227  0.91701654  0.60662062  1
  O2-  O245  1  0.46392111  0.91598636  0.92942902  1
  O2-  O246  1  0.94619430  0.41943580  0.27173139  1
  O2-  O247  1  0.95357248  0.42066602  0.60043684  1
  O2-  O248  1  0.94295685  0.42433954  0.93906950  1
  O2-  O249  1  0.95179312  0.91435508  0.27513572  1
  O2-  O250  1  0.95550529  0.92153761  0.59857307  1
  O2-  O251  1  0.95202903  0.91802791  0.93117139  1
  O2-  O252  1  0.33754376  0.29629789  0.27123531  1
  O2-  O253  1  0.33690425  0.29387868  0.60464239  1
  O2-  O254  1  0.33917113  0.29756492  0.93743636  1
  O2-  O255  1  0.33238897  0.78813370  0.26723894  1
  O2-  O256  1  0.33270061  0.80194614  0.60763543  1
  O2-  O257  1  0.33284876  0.79101210  0.92830737  1
  O2-  O258  1  0.83132560  0.29680906  0.27140440  1
  O2-  O259  1  0.83196634  0.28923550  0.59755895  1
  O2-  O260  1  0.83064584  0.28517848  0.93383489  1
  O2-  O261  1  0.83861751  0.78765917  0.27241616  1
  O2-  O262  1  0.83663777  0.78600801  0.59609510  1
  O2-  O263  1  0.83326882  0.78518924  0.93389285  1
  O2-  O264  1  0.42351024  0.04138539  0.06745823  1
  O2-  O265  1  0.42160804  0.04585621  0.39989657  1
  O2-  O266  1  0.42186465  0.04709343  0.73513351  1
  O2-  O267  1  0.41443400  0.54253837  0.06476800  1
  O2-  O268  1  0.42069088  0.54232289  0.39936765  1
  O2-  O269  1  0.41424102  0.53976237  0.73097803  1
  O2-  O270  1  0.91265111  0.04581854  0.05776711  1
  O2-  O271  1  0.91928159  0.04749578  0.40314367  1
  O2-  O272  1  0.91801171  0.05521398  0.72672969  1
  O2-  O273  1  0.91378821  0.55228183  0.06692005  1
  O2-  O274  1  0.91081239  0.54496258  0.39988347  1
  O2-  O275  1  0.91593911  0.55158414  0.72917648  1
  O2-  O276  1  0.30158738  0.17130826  0.06652050  1
  O2-  O277  1  0.29535395  0.16981170  0.39990436  1
  O2-  O278  1  0.29481216  0.16962278  0.73584642  1
  O2-  O279  1  0.30032670  0.66694059  0.05767261  1
  O2-  O280  1  0.29444481  0.66796212  0.40365380  1
  O2-  O281  1  0.30486081  0.66777445  0.72761647  1
  O2-  O282  1  0.78465615  0.15732968  0.06410111  1
  O2-  O283  1  0.78933240  0.16919856  0.40205659  1
  O2-  O284  1  0.78742778  0.16320518  0.73116465  1
  O2-  O285  1  0.78843060  0.66412645  0.06934963  1
  O2-  O286  1  0.79156672  0.66169482  0.39983561  1
  O2-  O287  1  0.79116287  0.66417880  0.73008365  1
