# generated using pymatgen
data_Ca2Al2SiO7
_symmetry_space_group_name_H-M   'P 1'
_cell_length_a   15.46190796
_cell_length_b   15.46300548
_cell_length_c   15.28642360
_cell_angle_alpha   89.99868832
_cell_angle_beta   89.99717362
_cell_angle_gamma   89.99926740
_symmetry_Int_Tables_number   1
_chemical_formula_structural   Ca2Al2SiO7
_chemical_formula_sum   'Ca48 Al48 Si24 O168'
_cell_volume   3654.79382794
_cell_formula_units_Z   24
loop_
 _symmetry_equiv_pos_site_id
 _symmetry_equiv_pos_as_xyz
  1  'x, y, z'
loop_
 _atom_type_symbol
 _atom_type_oxidation_number
  Ca2+  2.0
  Al0+  0.0
  Si0+  0.0
  O2-  -2.0
loop_
 _atom_site_type_symbol
 _atom_site_label
 _atom_site_symmetry_multiplicity
 _atom_site_fract_x
 _atom_site_fract_y
 _atom_site_fract_z
 _atom_site_occupancy
  Ca2+  Ca0  1  0.16359462  0.08126370  0.16234498  1
  Ca2+  Ca1  1  0.16670795  0.07567205  0.50479554  1
  Ca2+  Ca2  1  0.16606923  0.07408874  0.84642816  1
  Ca2+  Ca3  1  0.17379643  0.58562273  0.17509696  1
  Ca2+  Ca4  1  0.17411694  0.58082938  0.49869577  1
  Ca2+  Ca5  1  0.17963006  0.58464964  0.84257289  1
  Ca2+  Ca6  1  0.67015905  0.08568608  0.17172203  1
  Ca2+  Ca7  1  0.66415228  0.07941306  0.50257935  1
  Ca2+  Ca8  1  0.67170078  0.07542898  0.84012513  1
  Ca2+  Ca9  1  0.67419848  0.58567721  0.17307856  1
  Ca2+  Ca10  1  0.66699836  0.58156386  0.49374631  1
  Ca2+  Ca11  1  0.67131582  0.58409848  0.84371365  1
  Ca2+  Ca12  1  0.08045013  0.33606967  0.16346049  1
  Ca2+  Ca13  1  0.07967400  0.33495149  0.48985751  1
  Ca2+  Ca14  1  0.08510904  0.32552670  0.83510023  1
  Ca2+  Ca15  1  0.07650497  0.82204842  0.16057318  1
  Ca2+  Ca16  1  0.07948724  0.82799960  0.49093199  1
  Ca2+  Ca17  1  0.08520418  0.83505878  0.83576793  1
  Ca2+  Ca18  1  0.57248313  0.34182975  0.16676960  1
  Ca2+  Ca19  1  0.57564527  0.33236249  0.48824384  1
  Ca2+  Ca20  1  0.57074955  0.33256171  0.83075413  1
  Ca2+  Ca21  1  0.58147840  0.81958826  0.16283621  1
  Ca2+  Ca22  1  0.58241461  0.82867589  0.49246945  1
  Ca2+  Ca23  1  0.58614288  0.82827736  0.83311915  1
  Ca2+  Ca24  1  0.32968763  0.42068790  0.17307825  1
  Ca2+  Ca25  1  0.34155813  0.42535097  0.49805539  1
  Ca2+  Ca26  1  0.34023108  0.42230287  0.83830666  1
  Ca2+  Ca27  1  0.32880040  0.92021704  0.16631540  1
  Ca2+  Ca28  1  0.32636545  0.91745451  0.50759202  1
  Ca2+  Ca29  1  0.31987947  0.92258733  0.84435206  1
  Ca2+  Ca30  1  0.83091037  0.42799026  0.17846551  1
  Ca2+  Ca31  1  0.83209409  0.41944615  0.49454814  1
  Ca2+  Ca32  1  0.82753638  0.42378789  0.84295147  1
  Ca2+  Ca33  1  0.84590377  0.91930748  0.16652543  1
  Ca2+  Ca34  1  0.82727456  0.91271092  0.50213156  1
  Ca2+  Ca35  1  0.82977258  0.91658806  0.84236328  1
  Ca2+  Ca36  1  0.41661309  0.17778704  0.16127203  1
  Ca2+  Ca37  1  0.42231078  0.17862747  0.48966223  1
  Ca2+  Ca38  1  0.40373100  0.17892672  0.83226042  1
  Ca2+  Ca39  1  0.42712412  0.64949974  0.16322889  1
  Ca2+  Ca40  1  0.41777751  0.66325631  0.49293671  1
  Ca2+  Ca41  1  0.42024896  0.65849785  0.83239611  1
  Ca2+  Ca42  1  0.91869660  0.17408328  0.16061168  1
  Ca2+  Ca43  1  0.91893848  0.17414649  0.49109146  1
  Ca2+  Ca44  1  0.92194525  0.15559008  0.83790890  1
  Ca2+  Ca45  1  0.92320192  0.66742685  0.15865617  1
  Ca2+  Ca46  1  0.92360817  0.67248905  0.48409600  1
  Ca2+  Ca47  1  0.92262731  0.66724973  0.83785095  1
  Al0+  Al48  1  -0.00249502  -0.00010496  0.00149284  1
  Al0+  Al49  1  -0.00015126  0.00026487  0.33334355  1
  Al0+  Al50  1  -0.00061558  -0.00098352  0.66732779  1
  Al0+  Al51  1  -0.00071856  0.50093521  -0.00404119  1
  Al0+  Al52  1  0.00202279  0.50022767  0.33412921  1
  Al0+  Al53  1  0.00161728  0.49983683  0.66697644  1
  Al0+  Al54  1  0.49975530  -0.00032380  0.00332150  1
  Al0+  Al55  1  0.50079036  0.00087465  0.33078755  1
  Al0+  Al56  1  0.50071845  -0.00079739  0.67255091  1
  Al0+  Al57  1  0.49981588  0.49869039  -0.00697660  1
  Al0+  Al58  1  0.50114358  0.49998021  0.33366956  1
  Al0+  Al59  1  0.50211106  0.49926001  0.66542219  1
  Al0+  Al60  1  0.24834104  0.25032247  -0.00547221  1
  Al0+  Al61  1  0.25075607  0.24810744  0.33476143  1
  Al0+  Al62  1  0.24828898  0.25218078  0.65802930  1
  Al0+  Al63  1  0.25144865  0.74992970  0.00620388  1
  Al0+  Al64  1  0.24900130  0.75261096  0.33493004  1
  Al0+  Al65  1  0.25136241  0.74894594  0.67441518  1
  Al0+  Al66  1  0.74598922  0.24863242  0.00238639  1
  Al0+  Al67  1  0.75234529  0.24955970  0.33146698  1
  Al0+  Al68  1  0.75088512  0.25072110  0.66833939  1
  Al0+  Al69  1  0.74931682  0.74856097  -0.00468776  1
  Al0+  Al70  1  0.74865891  0.75373458  0.33031117  1
  Al0+  Al71  1  0.75114108  0.75014438  0.66999599  1
  Al0+  Al72  1  0.68040085  0.42828865  0.34789303  1
  Al0+  Al73  1  0.32149739  0.56758987  0.68172015  1
  Al0+  Al74  1  0.56844213  0.68006128  0.98504840  1
  Al0+  Al75  1  0.32211880  0.56939498  0.01356829  1
  Al0+  Al76  1  0.57252490  0.17731888  0.31806942  1
  Al0+  Al77  1  0.82177300  0.57486558  0.34754319  1
  Al0+  Al78  1  0.92797992  0.82224373  0.31922144  1
  Al0+  Al79  1  0.42899765  0.32107153  0.31645763  1
  Al0+  Al80  1  0.42989301  0.32116285  0.64946188  1
  Al0+  Al81  1  0.93087026  0.32160055  0.32049860  1
  Al0+  Al82  1  0.81879856  0.07032197  0.01544072  1
  Al0+  Al83  1  0.17729925  0.92824852  0.01897202  1
  Al0+  Al84  1  0.07240644  0.67845732  0.31975307  1
  Al0+  Al85  1  0.32071550  0.07406701  0.01543838  1
  Al0+  Al86  1  0.17885531  0.92965267  0.68044763  1
  Al0+  Al87  1  0.93021374  0.82001151  0.98277433  1
  Al0+  Al88  1  0.42947138  0.31867400  0.98508166  1
  Al0+  Al89  1  0.17875921  0.42627507  0.34761241  1
  Al0+  Al90  1  0.32145447  0.57175338  0.34814403  1
  Al0+  Al91  1  0.07470824  0.67717911  0.98313509  1
  Al0+  Al92  1  0.82072396  0.57026632  0.01285502  1
  Al0+  Al93  1  0.56857899  0.68015409  0.32127278  1
  Al0+  Al94  1  0.67861762  0.92765242  0.68082767  1
  Al0+  Al95  1  0.06767674  0.18100183  0.98728346  1
  Si0+  Si96  1  0.57390951  0.17714284  0.65185465  1
  Si0+  Si97  1  0.92908158  0.82008329  0.65130692  1
  Si0+  Si98  1  0.92406654  0.32267314  0.98287820  1
  Si0+  Si99  1  0.42609538  0.82416675  0.31803222  1
  Si0+  Si100  1  0.67761575  0.92617525  0.01914328  1
  Si0+  Si101  1  0.67714414  0.93044768  0.34763510  1
  Si0+  Si102  1  0.82216322  0.07059760  0.34910566  1
  Si0+  Si103  1  0.57287822  0.68020592  0.65091832  1
  Si0+  Si104  1  0.68061428  0.42917495  0.68193408  1
  Si0+  Si105  1  0.82304675  0.57106879  0.68159945  1
  Si0+  Si106  1  0.17745683  0.42814988  0.01340541  1
  Si0+  Si107  1  0.17878741  0.93183476  0.34955865  1
  Si0+  Si108  1  0.07263692  0.17650189  0.31777802  1
  Si0+  Si109  1  0.07312575  0.67928901  0.65208039  1
  Si0+  Si110  1  0.57279107  0.17494265  0.98129614  1
  Si0+  Si111  1  0.67716853  0.42811721  0.01527865  1
  Si0+  Si112  1  0.32354576  0.07024532  0.34977887  1
  Si0+  Si113  1  0.06849426  0.17798168  0.65083604  1
  Si0+  Si114  1  0.42869273  0.82068863  0.65454608  1
  Si0+  Si115  1  0.32062744  0.07402683  0.68080140  1
  Si0+  Si116  1  0.82115269  0.07276928  0.68264117  1
  Si0+  Si117  1  0.42770141  0.82515705  0.98290490  1
  Si0+  Si118  1  0.92792903  0.32270862  0.65197229  1
  Si0+  Si119  1  0.17515889  0.42676306  0.68486687  1
  O2-  O120  1  0.25099792  0.00053733  0.06673105  1
  O2-  O121  1  0.25174645  0.00031612  0.39307433  1
  O2-  O122  1  0.25222867  0.00604100  0.72582401  1
  O2-  O123  1  0.24158782  0.50040603  0.05765637  1
  O2-  O124  1  0.25063076  0.49839690  0.39879008  1
  O2-  O125  1  0.24684616  0.49234438  0.72812355  1
  O2-  O126  1  0.74473194  -0.00399320  0.06365200  1
  O2-  O127  1  0.74922296  0.00094228  0.39030779  1
  O2-  O128  1  0.75158748  0.00467249  0.72572466  1
  O2-  O129  1  0.75021925  0.49188690  0.05838074  1
  O2-  O130  1  0.75145630  0.50144007  0.39945313  1
  O2-  O131  1  0.75217939  0.49966077  0.72372427  1
  O2-  O132  1  0.00954394  0.25064490  0.27529236  1
  O2-  O133  1  -0.00131093  0.25074746  0.61028336  1
  O2-  O134  1  -0.00854489  0.25321282  0.93716695  1
  O2-  O135  1  -0.00569730  0.74468938  0.27141391  1
  O2-  O136  1  0.00078074  0.74961405  0.60983999  1
  O2-  O137  1  0.00434811  0.75067945  0.93133734  1
  O2-  O138  1  0.50284218  0.25040209  0.26735938  1
  O2-  O139  1  0.50356838  0.24310564  0.60671533  1
  O2-  O140  1  0.50084037  0.24017696  0.93717201  1
  O2-  O141  1  0.48911508  0.75005012  0.27506643  1
  O2-  O142  1  0.50099163  0.75160232  0.61048953  1
  O2-  O143  1  0.49379457  0.75442186  0.93710911  1
  O2-  O144  1  0.06708915  0.18426875  0.10002802  1
  O2-  O145  1  0.06814088  0.17218757  0.42418035  1
  O2-  O146  1  0.06795622  0.17659584  0.75566113  1
  O2-  O147  1  0.07250538  0.67552968  0.09600801  1
  O2-  O148  1  0.07407015  0.68416740  0.43467034  1
  O2-  O149  1  0.07163249  0.67882053  0.75667423  1
  O2-  O150  1  0.57562098  0.17645353  0.08616523  1
  O2-  O151  1  0.56844004  0.17365839  0.43253960  1
  O2-  O152  1  0.57698545  0.17954789  0.75708275  1
  O2-  O153  1  0.56839624  0.67970485  0.09775214  1
  O2-  O154  1  0.56949232  0.68471415  0.43528320  1
  O2-  O155  1  0.57374717  0.68006756  0.75590164  1
  O2-  O156  1  0.18022264  0.42392152  0.23421541  1
  O2-  O157  1  0.16986249  0.42861087  0.57996162  1
  O2-  O158  1  0.17950298  0.42688470  0.90722594  1
  O2-  O159  1  0.17789285  0.93406972  0.24540315  1
  O2-  O160  1  0.17961390  0.93123830  0.56677576  1
  O2-  O161  1  0.17851629  0.93174273  0.90459532  1
  O2-  O162  1  0.68133425  0.42964447  0.23466947  1
  O2-  O163  1  0.68133865  0.42795389  0.57746979  1
  O2-  O164  1  0.67828340  0.42954805  0.90848052  1
  O2-  O165  1  0.67377601  0.93139739  0.24343858  1
  O2-  O166  1  0.68054025  0.92657913  0.56750341  1
  O2-  O167  1  0.67913004  0.92797048  0.91278465  1
  O2-  O168  1  0.43076183  0.32036667  0.09725521  1
  O2-  O169  1  0.43106561  0.31854738  0.43057313  1
  O2-  O170  1  0.43110726  0.32022464  0.76260975  1
  O2-  O171  1  0.43162693  0.82888737  0.08821668  1
  O2-  O172  1  0.42861512  0.82784272  0.42451023  1
  O2-  O173  1  0.42908099  0.82016405  0.75900008  1
  O2-  O174  1  0.92537549  0.32250718  0.08803062  1
  O2-  O175  1  0.92994263  0.31630775  0.43461165  1
  O2-  O176  1  0.92678583  0.32372555  0.75683591  1
  O2-  O177  1  0.93057856  0.81803898  0.09579879  1
  O2-  O178  1  0.93136609  0.82493945  0.43411593  1
  O2-  O179  1  0.92770203  0.82088518  0.75569965  1
  O2-  O180  1  0.32429680  0.06903341  0.24536724  1
  O2-  O181  1  0.31986827  0.07078010  0.57485164  1
  O2-  O182  1  0.31670004  0.07326787  0.90097047  1
  O2-  O183  1  0.32103648  0.56989658  0.23506238  1
  O2-  O184  1  0.32132681  0.56986383  0.56912414  1
  O2-  O185  1  0.32396835  0.56509267  0.89982942  1
  O2-  O186  1  0.82466343  0.06950609  0.24462214  1
  O2-  O187  1  0.82214307  0.07385313  0.57697312  1
  O2-  O188  1  0.81631079  0.06931047  0.90153987  1
  O2-  O189  1  0.81918585  0.57418072  0.23435085  1
  O2-  O190  1  0.82353492  0.57205217  0.57696631  1
  O2-  O191  1  0.81805838  0.56791258  0.89846704  1
  O2-  O192  1  0.04015466  0.08632660  0.27023291  1
  O2-  O193  1  0.03873498  0.08678561  0.60198297  1
  O2-  O194  1  0.03528260  0.08505686  0.93245740  1
  O2-  O195  1  0.05267586  0.57823353  0.26964177  1
  O2-  O196  1  0.04587887  0.58651838  0.60595460  1
  O2-  O197  1  0.04365798  0.57973645  0.92704628  1
  O2-  O198  1  0.54346715  0.07974103  0.26397023  1
  O2-  O199  1  0.55098788  0.08110984  0.60871630  1
  O2-  O200  1  0.55176494  0.07917462  0.93738661  1
  O2-  O201  1  0.54348793  0.58302964  0.26729328  1
  O2-  O202  1  0.54563164  0.58810353  0.60469576  1
  O2-  O203  1  0.53847926  0.58454327  0.92749932  1
  O2-  O204  1  0.16862479  0.19346414  0.27532812  1
  O2-  O205  1  0.15992633  0.20301270  0.60106014  1
  O2-  O206  1  0.16203083  0.21190552  0.92851232  1
  O2-  O207  1  0.16869232  0.71339913  0.26705732  1
  O2-  O208  1  0.16525662  0.70903654  0.60674128  1
  O2-  O209  1  0.17508760  0.70540095  0.93334104  1
  O2-  O210  1  0.67295348  0.19986087  0.26870552  1
  O2-  O211  1  0.66784247  0.20339339  0.60552051  1
  O2-  O212  1  0.66497376  0.20412449  0.93261472  1
  O2-  O213  1  0.66259405  0.71586014  0.26636362  1
  O2-  O214  1  0.66488407  0.70948016  0.60449298  1
  O2-  O215  1  0.66362036  0.71167075  0.92801893  1
  O2-  O216  1  0.08132017  0.44791591  0.05576300  1
  O2-  O217  1  0.08076140  0.45379425  0.40292285  1
  O2-  O218  1  0.08231639  0.45276504  0.73326166  1
  O2-  O219  1  0.07984604  0.96039349  0.06971386  1
  O2-  O220  1  0.08831236  0.96338607  0.39915677  1
  O2-  O221  1  0.08161455  0.95999169  0.73312595  1
  O2-  O222  1  0.58568269  0.46024229  0.05943126  1
  O2-  O223  1  0.58298807  0.45804894  0.40249542  1
  O2-  O224  1  0.58994508  0.45885286  0.73008682  1
  O2-  O225  1  0.58325353  0.94885084  0.06381044  1
  O2-  O226  1  0.58614842  0.95900495  0.39811739  1
  O2-  O227  1  0.58212193  0.95461930  0.73759620  1
  O2-  O228  1  0.20550507  0.33583327  0.05906534  1
  O2-  O229  1  0.20318070  0.32596897  0.40149070  1
  O2-  O230  1  0.19869641  0.33038152  0.72641696  1
  O2-  O231  1  0.20614865  0.83077992  0.07212413  1
  O2-  O232  1  0.20497791  0.84042094  0.39872377  1
  O2-  O233  1  0.21074934  0.83490561  0.73591526  1
  O2-  O234  1  0.69447775  0.33267500  0.05935438  1
  O2-  O235  1  0.71087457  0.32975809  0.40163733  1
  O2-  O236  1  0.70790291  0.33743778  0.73085134  1
  O2-  O237  1  0.70432235  0.83228260  0.06201012  1
  O2-  O238  1  0.70490099  0.83994323  0.39785785  1
  O2-  O239  1  0.71198832  0.83258163  0.73662559  1
  O2-  O240  1  0.45713871  0.41974258  0.26576217  1
  O2-  O241  1  0.46645371  0.41654116  0.59682097  1
  O2-  O242  1  0.46626934  0.41159792  0.92699465  1
  O2-  O243  1  0.45761145  0.91444019  0.26974160  1
  O2-  O244  1  0.45418929  0.91417141  0.60770498  1
  O2-  O245  1  0.45506319  0.91793229  0.93453082  1
  O2-  O246  1  0.95702878  0.41865498  0.26711338  1
  O2-  O247  1  0.95626122  0.41428153  0.60420518  1
  O2-  O248  1  0.95070522  0.41469702  0.93394746  1
  O2-  O249  1  0.96246907  0.91886167  0.26697578  1
  O2-  O250  1  0.95486786  0.91306201  0.60423816  1
  O2-  O251  1  0.95488195  0.92013179  0.93098563  1
  O2-  O252  1  0.33061223  0.28912001  0.26641323  1
  O2-  O253  1  0.33173914  0.29538530  0.59559808  1
  O2-  O254  1  0.33296803  0.29050442  0.92845132  1
  O2-  O255  1  0.33045382  0.80676430  0.27489345  1
  O2-  O256  1  0.33712283  0.79157758  0.60643474  1
  O2-  O257  1  0.33266018  0.80185783  0.94015786  1
  O2-  O258  1  0.83696317  0.28735630  0.26524014  1
  O2-  O259  1  0.83611792  0.29430238  0.60444560  1
  O2-  O260  1  0.82926430  0.29738326  0.93821507  1
  O2-  O261  1  0.82708075  0.80606332  0.26880710  1
  O2-  O262  1  0.83702917  0.79100632  0.60420257  1
  O2-  O263  1  0.83224568  0.78958156  0.92881698  1
  O2-  O264  1  0.42063732  0.04865814  0.06658115  1
  O2-  O265  1  0.41460251  0.04052501  0.39841234  1
  O2-  O266  1  0.41468699  0.05168165  0.72676284  1
  O2-  O267  1  0.41785628  0.53205311  0.06419811  1
  O2-  O268  1  0.42003274  0.54385876  0.40171246  1
  O2-  O269  1  0.41969511  0.53686952  0.73356048  1
  O2-  O270  1  0.91491514  0.04165307  0.06973381  1
  O2-  O271  1  0.91282719  0.04092960  0.39942624  1
  O2-  O272  1  0.91396281  0.04430445  0.72857619  1
  O2-  O273  1  0.91890592  0.54243401  0.06388691  1
  O2-  O274  1  0.92026026  0.54668077  0.40048275  1
  O2-  O275  1  0.91479422  0.54261616  0.72905022  1
  O2-  O276  1  0.28815471  0.17170687  0.06656538  1
  O2-  O277  1  0.29600745  0.16111252  0.39900370  1
  O2-  O278  1  0.29308977  0.16872912  0.72290373  1
  O2-  O279  1  0.30257934  0.66828939  0.06623189  1
  O2-  O280  1  0.29424966  0.67211297  0.40091907  1
  O2-  O281  1  0.29232347  0.66395550  0.73683271  1
  O2-  O282  1  0.78909139  0.16781315  0.06868902  1
  O2-  O283  1  0.79614835  0.16193758  0.39824687  1
  O2-  O284  1  0.79825120  0.16657167  0.73005344  1
  O2-  O285  1  0.78636865  0.66609634  0.06388783  1
  O2-  O286  1  0.79083289  0.67365990  0.40039162  1
  O2-  O287  1  0.79409361  0.66197742  0.72966954  1
