# generated using pymatgen
data_Ca2Al2SiO7
_symmetry_space_group_name_H-M   'P 1'
_cell_length_a   15.46522341
_cell_length_b   15.46404110
_cell_length_c   15.28820903
_cell_angle_alpha   89.99911985
_cell_angle_beta   89.99459666
_cell_angle_gamma   90.02174069
_symmetry_Int_Tables_number   1
_chemical_formula_structural   Ca2Al2SiO7
_chemical_formula_sum   'Ca48 Al48 Si24 O168'
_cell_volume   3656.24906376
_cell_formula_units_Z   24
loop_
 _symmetry_equiv_pos_site_id
 _symmetry_equiv_pos_as_xyz
  1  'x, y, z'
loop_
 _atom_type_symbol
 _atom_type_oxidation_number
  Ca2+  2.0
  Al0+  0.0
  Si0+  0.0
  O2-  -2.0
loop_
 _atom_site_type_symbol
 _atom_site_label
 _atom_site_symmetry_multiplicity
 _atom_site_fract_x
 _atom_site_fract_y
 _atom_site_fract_z
 _atom_site_occupancy
  Ca2+  Ca0  1  0.16734044  0.08669178  0.16458821  1
  Ca2+  Ca1  1  0.17154965  0.08151882  0.50606058  1
  Ca2+  Ca2  1  0.17380832  0.08038685  0.84262631  1
  Ca2+  Ca3  1  0.17079253  0.56677927  0.17460019  1
  Ca2+  Ca4  1  0.17940687  0.57703892  0.49841526  1
  Ca2+  Ca5  1  0.17620344  0.57538114  0.83790463  1
  Ca2+  Ca6  1  0.66700165  0.08375898  0.17495908  1
  Ca2+  Ca7  1  0.65227261  0.07308658  0.49923053  1
  Ca2+  Ca8  1  0.67007721  0.07720096  0.83832435  1
  Ca2+  Ca9  1  0.67258254  0.58083666  0.17218307  1
  Ca2+  Ca10  1  0.67469764  0.57540145  0.49935882  1
  Ca2+  Ca11  1  0.67558849  0.58719172  0.84019680  1
  Ca2+  Ca12  1  0.08809599  0.32705136  0.16386929  1
  Ca2+  Ca13  1  0.08042508  0.32952748  0.48767440  1
  Ca2+  Ca14  1  0.08830642  0.32897851  0.83611480  1
  Ca2+  Ca15  1  0.08302665  0.83092878  0.15938263  1
  Ca2+  Ca16  1  0.08471211  0.83191859  0.49547994  1
  Ca2+  Ca17  1  0.08655607  0.83816918  0.82982797  1
  Ca2+  Ca18  1  0.57290429  0.34255138  0.16556259  1
  Ca2+  Ca19  1  0.57461915  0.32960236  0.48930151  1
  Ca2+  Ca20  1  0.56920667  0.33157613  0.82783649  1
  Ca2+  Ca21  1  0.58058450  0.82929424  0.16648046  1
  Ca2+  Ca22  1  0.57880192  0.83524730  0.49057602  1
  Ca2+  Ca23  1  0.58768199  0.82791472  0.83093553  1
  Ca2+  Ca24  1  0.32806251  0.41224871  0.17274631  1
  Ca2+  Ca25  1  0.33875239  0.42014767  0.50111746  1
  Ca2+  Ca26  1  0.33470151  0.41485981  0.83886382  1
  Ca2+  Ca27  1  0.33422585  0.92125717  0.16975358  1
  Ca2+  Ca28  1  0.33119054  0.92426590  0.50795578  1
  Ca2+  Ca29  1  0.32343875  0.92970110  0.83853256  1
  Ca2+  Ca30  1  0.83116964  0.42584181  0.17911751  1
  Ca2+  Ca31  1  0.83298241  0.41902641  0.49863541  1
  Ca2+  Ca32  1  0.83390312  0.42829451  0.83992408  1
  Ca2+  Ca33  1  0.82728065  0.92568160  0.16965966  1
  Ca2+  Ca34  1  0.81809739  0.91781520  0.50247754  1
  Ca2+  Ca35  1  0.82731946  0.92125685  0.83806605  1
  Ca2+  Ca36  1  0.42008431  0.17633950  0.16400691  1
  Ca2+  Ca37  1  0.41590985  0.17629596  0.49307107  1
  Ca2+  Ca38  1  0.40264304  0.17493357  0.83176179  1
  Ca2+  Ca39  1  0.41680901  0.67140708  0.16277846  1
  Ca2+  Ca40  1  0.40925195  0.67304491  0.49109060  1
  Ca2+  Ca41  1  0.42459025  0.66268474  0.82785247  1
  Ca2+  Ca42  1  0.92480046  0.17077606  0.16228242  1
  Ca2+  Ca43  1  0.92777832  0.17234784  0.48683730  1
  Ca2+  Ca44  1  0.92310344  0.15849319  0.83383912  1
  Ca2+  Ca45  1  0.91164149  0.66454703  0.16187730  1
  Ca2+  Ca46  1  0.91280974  0.66336076  0.49661453  1
  Ca2+  Ca47  1  0.91645347  0.66363505  0.82858570  1
  Al0+  Al48  1  -0.00213717  -0.00027664  0.00259994  1
  Al0+  Al49  1  -0.00068988  -0.00177105  0.32978057  1
  Al0+  Al50  1  -0.00259551  -0.00254487  0.66446409  1
  Al0+  Al51  1  0.00128429  0.50094878  0.00591558  1
  Al0+  Al52  1  0.00297168  0.50117839  0.33819453  1
  Al0+  Al53  1  0.00050161  0.50062716  0.66916346  1
  Al0+  Al54  1  0.49874187  -0.00049052  0.00200604  1
  Al0+  Al55  1  0.49813253  -0.00053643  0.32852786  1
  Al0+  Al56  1  0.49906365  -0.00160221  0.67853512  1
  Al0+  Al57  1  0.50176771  0.50207227  -0.01095234  1
  Al0+  Al58  1  0.50300283  0.50266442  0.33715224  1
  Al0+  Al59  1  0.50190099  0.49944207  0.66442989  1
  Al0+  Al60  1  0.24895658  0.24907709  -0.00081400  1
  Al0+  Al61  1  0.25028814  0.24807068  0.33040449  1
  Al0+  Al62  1  0.24856144  0.25084429  0.66287020  1
  Al0+  Al63  1  0.24923083  0.75100160  -0.00073991  1
  Al0+  Al64  1  0.24861449  0.75070291  0.32985671  1
  Al0+  Al65  1  0.24999384  0.74684195  0.67366215  1
  Al0+  Al66  1  0.74876563  0.25160911  0.00184720  1
  Al0+  Al67  1  0.75269865  0.25028251  0.33154470  1
  Al0+  Al68  1  0.74961052  0.24928340  0.66572315  1
  Al0+  Al69  1  0.75010366  0.75060886  -0.00097197  1
  Al0+  Al70  1  0.74981395  0.75280650  0.33983291  1
  Al0+  Al71  1  0.75102140  0.74979799  0.67214799  1
  Al0+  Al72  1  0.57009353  0.68243392  0.98589745  1
  Al0+  Al73  1  0.82224593  0.57197333  0.34893127  1
  Al0+  Al74  1  0.32117662  0.07178859  0.01909417  1
  Al0+  Al75  1  0.32340779  0.56957473  0.68108766  1
  Al0+  Al76  1  0.42700916  0.82059265  0.32081397  1
  Al0+  Al77  1  0.82032458  0.57089924  0.01408941  1
  Al0+  Al78  1  0.57110686  0.17778472  0.31973022  1
  Al0+  Al79  1  0.43010563  0.31883365  0.98543086  1
  Al0+  Al80  1  0.32230517  0.57276711  0.34504110  1
  Al0+  Al81  1  0.67860190  0.42589512  0.34831657  1
  Al0+  Al82  1  0.31906164  0.07325625  0.68102347  1
  Al0+  Al83  1  0.07187737  0.17660252  0.31671270  1
  Al0+  Al84  1  0.67806825  0.93284732  0.34525475  1
  Al0+  Al85  1  0.18204585  0.42555700  0.34936040  1
  Al0+  Al86  1  0.93009323  0.32412097  0.31831469  1
  Al0+  Al87  1  0.82020279  0.56800665  0.68198379  1
  Al0+  Al88  1  0.67813526  0.92914168  0.68173356  1
  Al0+  Al89  1  0.17684018  0.92771495  0.67958719  1
  Al0+  Al90  1  0.43085505  0.32422256  0.31816743  1
  Al0+  Al91  1  0.42895409  0.32025628  0.65095325  1
  Al0+  Al92  1  0.18134508  0.42981334  0.01292842  1
  Al0+  Al93  1  0.17822105  0.92834083  0.01719519  1
  Al0+  Al94  1  0.06736607  0.17955838  0.98418794  1
  Al0+  Al95  1  0.81956619  0.07291109  0.01381840  1
  Si0+  Si96  1  0.06846839  0.17796072  0.65230047  1
  Si0+  Si97  1  0.92791351  0.82017070  0.65024074  1
  Si0+  Si98  1  0.07099412  0.68074179  0.31820746  1
  Si0+  Si99  1  0.92993655  0.81952253  0.98413256  1
  Si0+  Si100  1  0.57444115  0.68052608  0.31935732  1
  Si0+  Si101  1  0.17815446  0.42857256  0.68329574  1
  Si0+  Si102  1  0.92699346  0.81975820  0.31803343  1
  Si0+  Si103  1  0.82244783  0.07269452  0.68090529  1
  Si0+  Si104  1  0.07139241  0.67725560  0.98419679  1
  Si0+  Si105  1  0.92867247  0.32283522  0.65349919  1
  Si0+  Si106  1  0.42957086  0.81873388  0.65440846  1
  Si0+  Si107  1  0.92662042  0.32466752  0.98307989  1
  Si0+  Si108  1  0.32021234  0.06885404  0.34746509  1
  Si0+  Si109  1  0.57325655  0.17545582  0.65226132  1
  Si0+  Si110  1  0.57430243  0.17549791  0.98250013  1
  Si0+  Si111  1  0.07142883  0.67833978  0.65144435  1
  Si0+  Si112  1  0.67848062  0.92807665  0.01742198  1
  Si0+  Si113  1  0.42535114  0.82398889  0.97979809  1
  Si0+  Si114  1  0.82429497  0.07172569  0.34974827  1
  Si0+  Si115  1  0.57410175  0.68011591  0.64960801  1
  Si0+  Si116  1  0.32537441  0.57189597  0.01435567  1
  Si0+  Si117  1  0.17689966  0.92799289  0.34741706  1
  Si0+  Si118  1  0.67796443  0.42547074  0.68470786  1
  Si0+  Si119  1  0.67627561  0.42977206  0.01417445  1
  O2-  O120  1  0.25135545  -0.00281088  0.06908415  1
  O2-  O121  1  0.24621514  0.00002642  0.38924933  1
  O2-  O122  1  0.24444911  0.00284302  0.72963993  1
  O2-  O123  1  0.25734683  0.50370064  0.05858689  1
  O2-  O124  1  0.25782008  0.49498571  0.39760573  1
  O2-  O125  1  0.25194828  0.49180059  0.72729851  1
  O2-  O126  1  0.73963098  0.00364140  0.06041557  1
  O2-  O127  1  0.74920611  0.01017740  0.39434652  1
  O2-  O128  1  0.75124562  0.00679323  0.72531686  1
  O2-  O129  1  0.74890229  0.49359448  0.05899086  1
  O2-  O130  1  0.75369273  0.49610175  0.39769425  1
  O2-  O131  1  0.74684610  0.49342926  0.73008825  1
  O2-  O132  1  0.00141618  0.25142013  0.26855695  1
  O2-  O133  1  -0.00311683  0.24892859  0.61172475  1
  O2-  O134  1  -0.00859432  0.25334568  0.93618189  1
  O2-  O135  1  -0.00430163  0.74714486  0.27554655  1
  O2-  O136  1  0.00195774  0.75158199  0.60896941  1
  O2-  O137  1  0.00189292  0.74969845  0.94095224  1
  O2-  O138  1  0.50663704  0.25569241  0.26848544  1
  O2-  O139  1  0.50428046  0.24375597  0.60850575  1
  O2-  O140  1  0.50357699  0.24199131  0.93815861  1
  O2-  O141  1  0.49990100  0.74321449  0.27570793  1
  O2-  O142  1  0.50022729  0.74887856  0.60842403  1
  O2-  O143  1  0.49452665  0.75519381  0.93618717  1
  O2-  O144  1  0.06635868  0.18007126  0.09634945  1
  O2-  O145  1  0.06967429  0.17281240  0.43134590  1
  O2-  O146  1  0.06743982  0.17694995  0.75729377  1
  O2-  O147  1  0.06996991  0.67768014  0.08913131  1
  O2-  O148  1  0.07354736  0.68521804  0.42366620  1
  O2-  O149  1  0.06898309  0.67703541  0.75664365  1
  O2-  O150  1  0.57561497  0.17660372  0.08750510  1
  O2-  O151  1  0.56232552  0.17290805  0.43358189  1
  O2-  O152  1  0.57793820  0.17838815  0.75768287  1
  O2-  O153  1  0.57043120  0.68408860  0.09883675  1
  O2-  O154  1  0.57741718  0.68524401  0.42514350  1
  O2-  O155  1  0.57506370  0.68231544  0.75495543  1
  O2-  O156  1  0.18141856  0.42820643  0.23586229  1
  O2-  O157  1  0.17521611  0.43047591  0.57822304  1
  O2-  O158  1  0.18055139  0.43247842  0.89921110  1
  O2-  O159  1  0.17616594  0.92568548  0.24301988  1
  O2-  O160  1  0.17801027  0.92835055  0.56546601  1
  O2-  O161  1  0.17809307  0.92963240  0.90349059  1
  O2-  O162  1  0.67721986  0.43184703  0.23457686  1
  O2-  O163  1  0.67987571  0.42590044  0.57957089  1
  O2-  O164  1  0.67752975  0.43226539  0.90818897  1
  O2-  O165  1  0.68184801  0.93049766  0.23247415  1
  O2-  O166  1  0.67761460  0.92843071  0.56869398  1
  O2-  O167  1  0.68281455  0.92617787  0.91142517  1
  O2-  O168  1  0.43236079  0.32230421  0.09782518  1
  O2-  O169  1  0.42997017  0.32032870  0.43194637  1
  O2-  O170  1  0.42900987  0.31965122  0.76427163  1
  O2-  O171  1  0.42528626  0.82226957  0.08546132  1
  O2-  O172  1  0.42664803  0.82221439  0.43469447  1
  O2-  O173  1  0.43190594  0.81567713  0.75917256  1
  O2-  O174  1  0.92858130  0.32558158  0.08786028  1
  O2-  O175  1  0.93309325  0.32085736  0.43319623  1
  O2-  O176  1  0.92962577  0.32422482  0.75858191  1
  O2-  O177  1  0.92844726  0.81704146  0.08927689  1
  O2-  O178  1  0.92849012  0.82117973  0.42345958  1
  O2-  O179  1  0.92664591  0.82050692  0.75534189  1
  O2-  O180  1  0.32141875  0.06685424  0.24297206  1
  O2-  O181  1  0.31907242  0.07096336  0.56691051  1
  O2-  O182  1  0.31701452  0.07162699  0.90523253  1
  O2-  O183  1  0.31673939  0.57726743  0.23174761  1
  O2-  O184  1  0.31990421  0.57420600  0.56860063  1
  O2-  O185  1  0.32367122  0.56998151  0.90826769  1
  O2-  O186  1  0.82706854  0.06551762  0.24444069  1
  O2-  O187  1  0.82619902  0.07045720  0.57579182  1
  O2-  O188  1  0.81950585  0.06737339  0.89994779  1
  O2-  O189  1  0.81810487  0.57568499  0.23545119  1
  O2-  O190  1  0.82033344  0.56792404  0.56961345  1
  O2-  O191  1  0.82013365  0.57137150  0.90064256  1
  O2-  O192  1  0.04077332  0.07852939  0.26388403  1
  O2-  O193  1  0.04078471  0.08590069  0.60426298  1
  O2-  O194  1  0.03416430  0.08230072  0.93112969  1
  O2-  O195  1  0.04742653  0.58759916  0.27281264  1
  O2-  O196  1  0.04027807  0.58771517  0.60358422  1
  O2-  O197  1  0.04124807  0.58644111  0.93573736  1
  O2-  O198  1  0.53789027  0.08258523  0.26306726  1
  O2-  O199  1  0.54644854  0.07970932  0.61127972  1
  O2-  O200  1  0.55199301  0.07963063  0.93861375  1
  O2-  O201  1  0.55672562  0.58522803  0.27542229  1
  O2-  O202  1  0.55086259  0.58644547  0.60483012  1
  O2-  O203  1  0.54300124  0.58752102  0.92564878  1
  O2-  O204  1  0.17045186  0.20201757  0.26443377  1
  O2-  O205  1  0.15933996  0.20564846  0.60359312  1
  O2-  O206  1  0.16333692  0.21221570  0.92999676  1
  O2-  O207  1  0.15876689  0.71353434  0.26688625  1
  O2-  O208  1  0.16393976  0.70562481  0.60506874  1
  O2-  O209  1  0.16392122  0.70305489  0.93616927  1
  O2-  O210  1  0.67428598  0.19382103  0.27303807  1
  O2-  O211  1  0.66737630  0.19815373  0.60428214  1
  O2-  O212  1  0.66792180  0.20182089  0.93510852  1
  O2-  O213  1  0.66505534  0.71463597  0.27163197  1
  O2-  O214  1  0.66530091  0.71182789  0.60387700  1
  O2-  O215  1  0.66626500  0.71624598  0.93008442  1
  O2-  O216  1  0.08668122  0.46268109  0.06853114  1
  O2-  O217  1  0.08606883  0.45975337  0.40379372  1
  O2-  O218  1  0.08737670  0.46001583  0.73191206  1
  O2-  O219  1  0.07894415  0.95502224  0.06801011  1
  O2-  O220  1  0.08397068  0.95321960  0.39477948  1
  O2-  O221  1  0.07540276  0.95021099  0.72908789  1
  O2-  O222  1  0.58460981  0.46296282  0.05880657  1
  O2-  O223  1  0.58280156  0.45767262  0.40512936  1
  O2-  O224  1  0.58488664  0.45302639  0.72988711  1
  O2-  O225  1  0.58169585  0.94386679  0.05905514  1
  O2-  O226  1  0.58031784  0.96108945  0.39930022  1
  O2-  O227  1  0.58360544  0.95515339  0.74125778  1
  O2-  O228  1  0.20995336  0.33337876  0.06536673  1
  O2-  O229  1  0.20476239  0.32527166  0.40083879  1
  O2-  O230  1  0.19883931  0.33304528  0.72665287  1
  O2-  O231  1  0.20304000  0.82728526  0.06758692  1
  O2-  O232  1  0.20604084  0.83710195  0.39548374  1
  O2-  O233  1  0.20515264  0.83048641  0.73406599  1
  O2-  O234  1  0.69355652  0.33427970  0.05825737  1
  O2-  O235  1  0.70435710  0.32642794  0.40150092  1
  O2-  O236  1  0.70173503  0.33101106  0.73033091  1
  O2-  O237  1  0.71308677  0.83803204  0.06410851  1
  O2-  O238  1  0.71245039  0.83939545  0.40323854  1
  O2-  O239  1  0.71493673  0.83535737  0.73735857  1
  O2-  O240  1  0.45577740  0.42518227  0.26796748  1
  O2-  O241  1  0.46096076  0.41731251  0.59812578  1
  O2-  O242  1  0.46208319  0.41445799  0.92848166  1
  O2-  O243  1  0.46120074  0.91351305  0.26321865  1
  O2-  O244  1  0.45668726  0.91270893  0.61060422  1
  O2-  O245  1  0.45150264  0.91807054  0.93486276  1
  O2-  O246  1  0.95732239  0.42432943  0.26872946  1
  O2-  O247  1  0.95976348  0.41350870  0.60572166  1
  O2-  O248  1  0.95794820  0.41760465  0.93710492  1
  O2-  O249  1  0.95653196  0.90982466  0.26859048  1
  O2-  O250  1  0.95152004  0.91215120  0.60026522  1
  O2-  O251  1  0.95622988  0.91133056  0.93624448  1
  O2-  O252  1  0.33365196  0.29108190  0.26668687  1
  O2-  O253  1  0.33131419  0.29196921  0.59715401  1
  O2-  O254  1  0.33326269  0.28854070  0.93124099  1
  O2-  O255  1  0.33118809  0.79175794  0.26397758  1
  O2-  O256  1  0.33669519  0.79056441  0.60870239  1
  O2-  O257  1  0.33129834  0.79897482  0.93409306  1
  O2-  O258  1  0.83101782  0.29968237  0.26570899  1
  O2-  O259  1  0.83542429  0.29860152  0.60682742  1
  O2-  O260  1  0.83074227  0.30415582  0.93846905  1
  O2-  O261  1  0.83480667  0.79361888  0.27097452  1
  O2-  O262  1  0.83711690  0.78804081  0.60297456  1
  O2-  O263  1  0.83905131  0.79053328  0.93503562  1
  O2-  O264  1  0.42142673  0.04545281  0.06937557  1
  O2-  O265  1  0.40977124  0.03642040  0.39570244  1
  O2-  O266  1  0.41531802  0.04470417  0.73747480  1
  O2-  O267  1  0.42040514  0.54838364  0.05659161  1
  O2-  O268  1  0.42303697  0.55645360  0.39720342  1
  O2-  O269  1  0.42214645  0.54280137  0.73280359  1
  O2-  O270  1  0.91234767  0.03540327  0.06906722  1
  O2-  O271  1  0.91464501  0.03662529  0.39800881  1
  O2-  O272  1  0.91380065  0.04197834  0.72901840  1
  O2-  O273  1  0.91754223  0.54504838  0.06767846  1
  O2-  O274  1  0.92200426  0.54956240  0.40147707  1
  O2-  O275  1  0.91752474  0.53867716  0.73628785  1
  O2-  O276  1  0.28959532  0.16919202  0.06983888  1
  O2-  O277  1  0.29386283  0.16063248  0.39488494  1
  O2-  O278  1  0.28827986  0.17157557  0.73255022  1
  O2-  O279  1  0.30060306  0.66680279  0.05676205  1
  O2-  O280  1  0.28410596  0.66890186  0.39951271  1
  O2-  O281  1  0.28946422  0.66301014  0.73904725  1
  O2-  O282  1  0.79615809  0.17178083  0.06624607  1
  O2-  O283  1  0.80956316  0.16811080  0.39221703  1
  O2-  O284  1  0.80135388  0.16729203  0.72716735  1
  O2-  O285  1  0.78802016  0.66775406  0.06598894  1
  O2-  O286  1  0.79096345  0.66922962  0.40357743  1
  O2-  O287  1  0.79031489  0.66482575  0.73587875  1
