# generated using pymatgen
data_Ca2Al2SiO7
_symmetry_space_group_name_H-M   'P 1'
_cell_length_a   15.45892575
_cell_length_b   15.45932976
_cell_length_c   15.28412291
_cell_angle_alpha   90.00576416
_cell_angle_beta   89.98752819
_cell_angle_gamma   90.00636380
_symmetry_Int_Tables_number   1
_chemical_formula_structural   Ca2Al2SiO7
_chemical_formula_sum   'Ca48 Al48 Si24 O168'
_cell_volume   3652.67034445
_cell_formula_units_Z   24
loop_
 _symmetry_equiv_pos_site_id
 _symmetry_equiv_pos_as_xyz
  1  'x, y, z'
loop_
 _atom_type_symbol
 _atom_type_oxidation_number
  Ca2+  2.0
  Al0+  0.0
  Si0+  0.0
  O2-  -2.0
loop_
 _atom_site_type_symbol
 _atom_site_label
 _atom_site_symmetry_multiplicity
 _atom_site_fract_x
 _atom_site_fract_y
 _atom_site_fract_z
 _atom_site_occupancy
  Ca2+  Ca0  1  0.15955003  0.07238848  0.16725141  1
  Ca2+  Ca1  1  0.17093501  0.07134806  0.50861911  1
  Ca2+  Ca2  1  0.17089314  0.07375219  0.83628691  1
  Ca2+  Ca3  1  0.17077758  0.57821578  0.16501699  1
  Ca2+  Ca4  1  0.16470203  0.58363278  0.50128680  1
  Ca2+  Ca5  1  0.17428482  0.57494722  0.84540975  1
  Ca2+  Ca6  1  0.67691050  0.09748582  0.16590891  1
  Ca2+  Ca7  1  0.67913681  0.07884010  0.50855770  1
  Ca2+  Ca8  1  0.67340425  0.08569934  0.83724942  1
  Ca2+  Ca9  1  0.67277133  0.57609250  0.16983503  1
  Ca2+  Ca10  1  0.66526548  0.57995655  0.50832296  1
  Ca2+  Ca11  1  0.67606618  0.59171794  0.83520514  1
  Ca2+  Ca12  1  0.07738482  0.32425914  0.15147545  1
  Ca2+  Ca13  1  0.07873869  0.32873556  0.49615209  1
  Ca2+  Ca14  1  0.08284824  0.33020455  0.83590915  1
  Ca2+  Ca15  1  0.08940726  0.83096521  0.16439318  1
  Ca2+  Ca16  1  0.08131456  0.83605479  0.49715703  1
  Ca2+  Ca17  1  0.07966235  0.83850139  0.82809304  1
  Ca2+  Ca18  1  0.57812639  0.33234062  0.16039925  1
  Ca2+  Ca19  1  0.57304052  0.33635929  0.49451841  1
  Ca2+  Ca20  1  0.57504495  0.32723486  0.83194211  1
  Ca2+  Ca21  1  0.57423585  0.83229317  0.15732357  1
  Ca2+  Ca22  1  0.58578869  0.83368396  0.50557100  1
  Ca2+  Ca23  1  0.57363522  0.83150989  0.82254787  1
  Ca2+  Ca24  1  0.33671105  0.41496263  0.16529457  1
  Ca2+  Ca25  1  0.33609682  0.41352170  0.50525055  1
  Ca2+  Ca26  1  0.33442936  0.41989826  0.84213159  1
  Ca2+  Ca27  1  0.32342070  0.91281293  0.16798705  1
  Ca2+  Ca28  1  0.32419884  0.91901301  0.51099723  1
  Ca2+  Ca29  1  0.32691932  0.91018141  0.83900456  1
  Ca2+  Ca30  1  0.83017026  0.41550560  0.16759415  1
  Ca2+  Ca31  1  0.82316279  0.42331039  0.50580755  1
  Ca2+  Ca32  1  0.83760793  0.42932620  0.84200785  1
  Ca2+  Ca33  1  0.83281129  0.93152174  0.16920327  1
  Ca2+  Ca34  1  0.83207149  0.92433155  0.51201977  1
  Ca2+  Ca35  1  0.82850229  0.92158048  0.83376505  1
  Ca2+  Ca36  1  0.42382879  0.17813852  0.15434003  1
  Ca2+  Ca37  1  0.41002883  0.17486292  0.49816839  1
  Ca2+  Ca38  1  0.41146949  0.17548857  0.82784302  1
  Ca2+  Ca39  1  0.41491048  0.67068357  0.15786273  1
  Ca2+  Ca40  1  0.42139427  0.67342443  0.50298205  1
  Ca2+  Ca41  1  0.41686384  0.67556446  0.82889791  1
  Ca2+  Ca42  1  0.91771756  0.16905559  0.15292824  1
  Ca2+  Ca43  1  0.91442887  0.15886335  0.49677584  1
  Ca2+  Ca44  1  0.91889423  0.16145259  0.83561506  1
  Ca2+  Ca45  1  0.92396188  0.66383409  0.16141391  1
  Ca2+  Ca46  1  0.91794645  0.67418187  0.49973164  1
  Ca2+  Ca47  1  0.91350875  0.67115866  0.82326218  1
  Al0+  Al48  1  -0.00081336  -0.00139115  0.00466136  1
  Al0+  Al49  1  0.00023762  -0.00113816  0.34026087  1
  Al0+  Al50  1  0.00146601  -0.00011267  0.66855882  1
  Al0+  Al51  1  0.00213191  0.49996378  0.00482294  1
  Al0+  Al52  1  0.00137229  0.50103953  0.33008322  1
  Al0+  Al53  1  -0.00138280  0.49803245  0.66775729  1
  Al0+  Al54  1  0.49937633  -0.00152099  -0.00719722  1
  Al0+  Al55  1  0.50124734  0.00139671  0.33209860  1
  Al0+  Al56  1  0.49991093  0.00309459  0.66668170  1
  Al0+  Al57  1  0.50274358  0.50163695  -0.00008987  1
  Al0+  Al58  1  0.49944391  0.50155706  0.33312115  1
  Al0+  Al59  1  0.49895218  0.49861123  0.66011677  1
  Al0+  Al60  1  0.24879697  0.24778476  -0.00379969  1
  Al0+  Al61  1  0.24858931  0.25130331  0.32772155  1
  Al0+  Al62  1  0.24714097  0.24848024  0.66412180  1
  Al0+  Al63  1  0.24955030  0.74835813  0.00409716  1
  Al0+  Al64  1  0.24920783  0.74839012  0.33426761  1
  Al0+  Al65  1  0.25049357  0.74695489  0.66593289  1
  Al0+  Al66  1  0.75024483  0.25241305  -0.00593093  1
  Al0+  Al67  1  0.74874314  0.25255951  0.34433445  1
  Al0+  Al68  1  0.74935411  0.25226703  0.66982741  1
  Al0+  Al69  1  0.75142604  0.75088223  0.00865570  1
  Al0+  Al70  1  0.75111097  0.75160083  0.33004615  1
  Al0+  Al71  1  0.75151829  0.75014685  0.66371544  1
  Al0+  Al72  1  0.17964941  0.92959626  0.01497370  1
  Al0+  Al73  1  0.82196088  0.07315609  0.68482222  1
  Al0+  Al74  1  0.18039774  0.42556614  0.01552838  1
  Al0+  Al75  1  0.18156077  0.92608555  0.68271051  1
  Al0+  Al76  1  0.18192382  0.92840348  0.34863601  1
  Al0+  Al77  1  0.32108594  0.07313901  0.68074206  1
  Al0+  Al78  1  0.42744910  0.81851692  0.98751991  1
  Al0+  Al79  1  0.81769137  0.07039973  0.01281861  1
  Al0+  Al80  1  0.42669489  0.82415014  0.65069133  1
  Al0+  Al81  1  0.32292761  0.56974111  0.01473675  1
  Al0+  Al82  1  0.07110221  0.67937784  0.31766045  1
  Al0+  Al83  1  0.81979256  0.56931371  0.67827222  1
  Al0+  Al84  1  0.82264342  0.57354052  0.01531359  1
  Al0+  Al85  1  0.57149453  0.68024264  0.65216220  1
  Al0+  Al86  1  0.42888002  0.32234542  0.98402131  1
  Al0+  Al87  1  0.67833560  0.43254270  0.34795987  1
  Al0+  Al88  1  0.67856375  0.92828971  0.68153602  1
  Al0+  Al89  1  0.42840154  0.31817502  0.65173882  1
  Al0+  Al90  1  0.57251425  0.17819510  0.98374271  1
  Al0+  Al91  1  0.07060220  0.17438836  0.98371632  1
  Al0+  Al92  1  0.81905860  0.07029009  0.34660513  1
  Al0+  Al93  1  0.42848520  0.32127093  0.31753313  1
  Al0+  Al94  1  0.92953152  0.32289190  0.98427778  1
  Al0+  Al95  1  0.93155418  0.82141195  0.65427677  1
  Si0+  Si96  1  0.32036493  0.57012072  0.35057840  1
  Si0+  Si97  1  0.57328258  0.17893356  0.31862533  1
  Si0+  Si98  1  0.57555873  0.67931065  0.98585499  1
  Si0+  Si99  1  0.42958816  0.82132167  0.31909635  1
  Si0+  Si100  1  0.06881706  0.17823552  0.31953706  1
  Si0+  Si101  1  0.07048525  0.67942494  0.98539916  1
  Si0+  Si102  1  0.67474956  0.42927809  0.68537505  1
  Si0+  Si103  1  0.32142172  0.56836469  0.67945280  1
  Si0+  Si104  1  0.17740496  0.42818000  0.67949487  1
  Si0+  Si105  1  0.57202091  0.67921501  0.31728938  1
  Si0+  Si106  1  0.17827659  0.42782654  0.34882571  1
  Si0+  Si107  1  0.67548547  0.92761740  0.01736477  1
  Si0+  Si108  1  0.32434378  0.07178343  0.01642058  1
  Si0+  Si109  1  0.92858453  0.81972911  0.98710260  1
  Si0+  Si110  1  0.32281723  0.07406624  0.34668610  1
  Si0+  Si111  1  0.92786230  0.32390190  0.65014101  1
  Si0+  Si112  1  0.67557443  0.92530555  0.34920466  1
  Si0+  Si113  1  0.92783594  0.32059898  0.32092596  1
  Si0+  Si114  1  0.07188356  0.67413603  0.65194379  1
  Si0+  Si115  1  0.06804255  0.18022853  0.64978747  1
  Si0+  Si116  1  0.92851876  0.82373171  0.31451356  1
  Si0+  Si117  1  0.57540574  0.17879747  0.64719397  1
  Si0+  Si118  1  0.67959595  0.42905196  0.01532915  1
  Si0+  Si119  1  0.82424406  0.57320805  0.35045102  1
  O2-  O120  1  0.25438640  0.00474381  0.06195068  1
  O2-  O121  1  0.25761873  0.00305721  0.39243363  1
  O2-  O122  1  0.25888844  -0.00711513  0.73162178  1
  O2-  O123  1  0.25607323  0.49356720  0.06651965  1
  O2-  O124  1  0.25050824  0.49702251  0.39236578  1
  O2-  O125  1  0.24843465  0.49913820  0.72027630  1
  O2-  O126  1  0.73951655  0.00053500  0.06209940  1
  O2-  O127  1  0.74553317  -0.00627681  0.39118455  1
  O2-  O128  1  0.74718182  0.00296973  0.73268460  1
  O2-  O129  1  0.74942877  0.49676844  0.06039385  1
  O2-  O130  1  0.75204408  0.50878930  0.39466679  1
  O2-  O131  1  0.74460306  0.49701855  0.72814954  1
  O2-  O132  1  -0.00381512  0.24776211  0.27802828  1
  O2-  O133  1  -0.00685404  0.24781897  0.60690528  1
  O2-  O134  1  0.00068778  0.24956613  0.93453414  1
  O2-  O135  1  -0.00472893  0.75305284  0.27031239  1
  O2-  O136  1  0.00760325  0.74693691  0.60800119  1
  O2-  O137  1  -0.00315582  0.74686652  0.94335360  1
  O2-  O138  1  0.50169390  0.24405956  0.27371756  1
  O2-  O139  1  0.50289932  0.24411655  0.60309518  1
  O2-  O140  1  0.49604099  0.24595769  0.93414363  1
  O2-  O141  1  0.50457303  0.75424462  0.27642690  1
  O2-  O142  1  0.50176798  0.75451321  0.60066092  1
  O2-  O143  1  0.50519024  0.74618938  0.94280881  1
  O2-  O144  1  0.06557298  0.17330358  0.09843371  1
  O2-  O145  1  0.06984169  0.18074147  0.42495250  1
  O2-  O146  1  0.07030798  0.18238053  0.75411500  1
  O2-  O147  1  0.07055287  0.68133456  0.09080411  1
  O2-  O148  1  0.06950110  0.67782443  0.43083925  1
  O2-  O149  1  0.06952234  0.66956013  0.75724592  1
  O2-  O150  1  0.57316627  0.18275523  0.09832566  1
  O2-  O151  1  0.57309216  0.17934111  0.42392364  1
  O2-  O152  1  0.57851921  0.18348685  0.75220814  1
  O2-  O153  1  0.57593054  0.68127543  0.09213878  1
  O2-  O154  1  0.57097261  0.67775018  0.42203884  1
  O2-  O155  1  0.56863424  0.67841730  0.76562840  1
  O2-  O156  1  0.17712030  0.42747003  0.24464169  1
  O2-  O157  1  0.17594269  0.42904833  0.57362379  1
  O2-  O158  1  0.17828338  0.43145395  0.90149166  1
  O2-  O159  1  0.18186476  0.92905466  0.23546402  1
  O2-  O160  1  0.17962454  0.92923708  0.56862502  1
  O2-  O161  1  0.17940351  0.92738336  0.90258148  1
  O2-  O162  1  0.68072042  0.43248318  0.23491087  1
  O2-  O163  1  0.67611112  0.43072684  0.57907603  1
  O2-  O164  1  0.67877250  0.43151157  0.91008988  1
  O2-  O165  1  0.67407223  0.92338551  0.24377487  1
  O2-  O166  1  0.68401920  0.92961911  0.56709228  1
  O2-  O167  1  0.67956165  0.92199311  0.91262763  1
  O2-  O168  1  0.43327693  0.32221037  0.09803466  1
  O2-  O169  1  0.42757691  0.32007877  0.43079442  1
  O2-  O170  1  0.42803409  0.32047469  0.76399933  1
  O2-  O171  1  0.42823949  0.81670704  0.10177832  1
  O2-  O172  1  0.42898318  0.81975599  0.42378206  1
  O2-  O173  1  0.42335696  0.81645333  0.76380760  1
  O2-  O174  1  0.92860002  0.32016396  0.09907238  1
  O2-  O175  1  0.93131702  0.32137244  0.42637246  1
  O2-  O176  1  0.93296433  0.33021677  0.75413448  1
  O2-  O177  1  0.92968239  0.81894123  0.09244898  1
  O2-  O178  1  0.92854768  0.82339371  0.42008358  1
  O2-  O179  1  0.93164096  0.81954303  0.76765879  1
  O2-  O180  1  0.32205571  0.07342785  0.24133977  1
  O2-  O181  1  0.31292339  0.07674689  0.56649076  1
  O2-  O182  1  0.32356794  0.06993681  0.91115282  1
  O2-  O183  1  0.32063899  0.57143369  0.24591858  1
  O2-  O184  1  0.32056460  0.56774365  0.57369857  1
  O2-  O185  1  0.31923278  0.57150580  0.90088507  1
  O2-  O186  1  0.81912635  0.07252915  0.23349316  1
  O2-  O187  1  0.82151054  0.07141148  0.57049359  1
  O2-  O188  1  0.81921298  0.06596357  0.90076591  1
  O2-  O189  1  0.82432177  0.57065593  0.24482550  1
  O2-  O190  1  0.82198192  0.56577105  0.56490760  1
  O2-  O191  1  0.82071366  0.57631807  0.90232153  1
  O2-  O192  1  0.04217704  0.08505707  0.27499709  1
  O2-  O193  1  0.04255475  0.08794505  0.60191539  1
  O2-  O194  1  0.03724375  0.07711869  0.93167086  1
  O2-  O195  1  0.04155670  0.58230871  0.26253399  1
  O2-  O196  1  0.04200833  0.58242531  0.60244336  1
  O2-  O197  1  0.04668858  0.58626892  0.94013000  1
  O2-  O198  1  0.55442710  0.08362226  0.27204857  1
  O2-  O199  1  0.55571542  0.08354403  0.60253159  1
  O2-  O200  1  0.55219040  0.07758534  0.93308458  1
  O2-  O201  1  0.53974200  0.58964933  0.26860713  1
  O2-  O202  1  0.53887990  0.58346091  0.59635817  1
  O2-  O203  1  0.55480511  0.58512327  0.94039204  1
  O2-  O204  1  0.15925850  0.20682973  0.27058251  1
  O2-  O205  1  0.15670656  0.21308858  0.59853124  1
  O2-  O206  1  0.16955825  0.19870806  0.93124130  1
  O2-  O207  1  0.16802625  0.71039182  0.26406954  1
  O2-  O208  1  0.16674436  0.69436412  0.60611713  1
  O2-  O209  1  0.16127993  0.70938887  0.93834334  1
  O2-  O210  1  0.66623203  0.21147368  0.27444442  1
  O2-  O211  1  0.66806775  0.20933995  0.59978784  1
  O2-  O212  1  0.66785170  0.21116111  0.92834678  1
  O2-  O213  1  0.66585550  0.70174566  0.27030328  1
  O2-  O214  1  0.66967390  0.70555248  0.59654939  1
  O2-  O215  1  0.66927806  0.70744466  0.94150602  1
  O2-  O216  1  0.08451719  0.45871630  0.07138042  1
  O2-  O217  1  0.08671831  0.45791215  0.39699677  1
  O2-  O218  1  0.08667790  0.45582632  0.72804108  1
  O2-  O219  1  0.08369001  0.95954497  0.07154096  1
  O2-  O220  1  0.08570490  0.95944339  0.40296605  1
  O2-  O221  1  0.08496740  0.96030916  0.73430292  1
  O2-  O222  1  0.58759820  0.45649835  0.06424767  1
  O2-  O223  1  0.58185556  0.46448838  0.40213389  1
  O2-  O224  1  0.58077860  0.45554931  0.72896005  1
  O2-  O225  1  0.57952485  0.94843665  0.06090109  1
  O2-  O226  1  0.58198476  0.95081122  0.39574679  1
  O2-  O227  1  0.57732828  0.94987584  0.73031173  1
  O2-  O228  1  0.20166635  0.32452830  0.06646992  1
  O2-  O229  1  0.20448429  0.33509397  0.39632909  1
  O2-  O230  1  0.20457900  0.33664124  0.72542406  1
  O2-  O231  1  0.21229993  0.83385830  0.07016483  1
  O2-  O232  1  0.21130880  0.83114973  0.40151676  1
  O2-  O233  1  0.20225799  0.82433892  0.73242136  1
  O2-  O234  1  0.70536865  0.33593614  0.06206435  1
  O2-  O235  1  0.70910417  0.33857337  0.40702892  1
  O2-  O236  1  0.69952080  0.33577339  0.73004867  1
  O2-  O237  1  0.70558377  0.83729001  0.06889004  1
  O2-  O238  1  0.70067597  0.83092213  0.39454312  1
  O2-  O239  1  0.70925535  0.83035350  0.73294346  1
  O2-  O240  1  0.46065471  0.41874813  0.26643534  1
  O2-  O241  1  0.45905834  0.41398203  0.59514374  1
  O2-  O242  1  0.45994983  0.42115190  0.93282467  1
  O2-  O243  1  0.45283365  0.91485957  0.27201535  1
  O2-  O244  1  0.44969789  0.92470781  0.59917354  1
  O2-  O245  1  0.45265271  0.91501098  0.93251856  1
  O2-  O246  1  0.95628498  0.41180313  0.27328564  1
  O2-  O247  1  0.96173185  0.41216763  0.59808185  1
  O2-  O248  1  0.96117899  0.42168247  0.93338459  1
  O2-  O249  1  0.95836610  0.91693958  0.26969703  1
  O2-  O250  1  0.96269217  0.91764226  0.59863111  1
  O2-  O251  1  0.95894196  0.91019694  0.94042188  1
  O2-  O252  1  0.33067557  0.29430341  0.26369233  1
  O2-  O253  1  0.33067132  0.28824945  0.59704504  1
  O2-  O254  1  0.32852094  0.29906808  0.93368507  1
  O2-  O255  1  0.33934821  0.78785260  0.27217635  1
  O2-  O256  1  0.33014859  0.78809094  0.59593738  1
  O2-  O257  1  0.33228709  0.78293796  0.93428083  1
  O2-  O258  1  0.83395923  0.29525280  0.27744143  1
  O2-  O259  1  0.83316653  0.30198083  0.60556407  1
  O2-  O260  1  0.83148268  0.29955534  0.93052584  1
  O2-  O261  1  0.83358647  0.80223257  0.26836270  1
  O2-  O262  1  0.83741702  0.78875886  0.59678879  1
  O2-  O263  1  0.83543508  0.79334830  0.94214045  1
  O2-  O264  1  0.41831187  0.04534203  0.06204707  1
  O2-  O265  1  0.41828752  0.05327559  0.39148925  1
  O2-  O266  1  0.42422085  0.06149586  0.72711433  1
  O2-  O267  1  0.42380735  0.54873843  0.06689387  1
  O2-  O268  1  0.41232416  0.54376427  0.39787066  1
  O2-  O269  1  0.41219497  0.53808327  0.72588433  1
  O2-  O270  1  0.91202156  0.03568861  0.06932619  1
  O2-  O271  1  0.91509064  0.04001692  0.40208397  1
  O2-  O272  1  0.92039221  0.04320574  0.73454615  1
  O2-  O273  1  0.91883481  0.54344964  0.06961090  1
  O2-  O274  1  0.91710293  0.54404887  0.39591786  1
  O2-  O275  1  0.91583608  0.53701140  0.73314940  1
  O2-  O276  1  0.30072481  0.16632095  0.06100144  1
  O2-  O277  1  0.29287302  0.16727785  0.39203678  1
  O2-  O278  1  0.28192369  0.16796028  0.73463072  1
  O2-  O279  1  0.28704923  0.66428831  0.07142918  1
  O2-  O280  1  0.28921017  0.66028238  0.39917356  1
  O2-  O281  1  0.29567881  0.65988823  0.72733719  1
  O2-  O282  1  0.79014851  0.16988153  0.06401963  1
  O2-  O283  1  0.79023114  0.16573484  0.40420278  1
  O2-  O284  1  0.79757444  0.17405197  0.73427925  1
  O2-  O285  1  0.79160106  0.66785513  0.07483332  1
  O2-  O286  1  0.80226888  0.66981550  0.39174620  1
  O2-  O287  1  0.79196748  0.66633288  0.73119417  1
