# generated using pymatgen
data_Sr24Ta24N11O13
_symmetry_space_group_name_H-M   'P 1'
_cell_length_a   16.81592871
_cell_length_b   16.77625591
_cell_length_c   15.74030529
_cell_angle_alpha   89.88677262
_cell_angle_beta   90.02612414
_cell_angle_gamma   90.17145976
_symmetry_Int_Tables_number   1
_chemical_formula_structural   Sr24Ta24N11O13
_chemical_formula_sum   'Sr72 Ta72 N33 O39'
_cell_volume   4440.44213347
_cell_formula_units_Z   3
loop_
 _symmetry_equiv_pos_site_id
 _symmetry_equiv_pos_as_xyz
  1  'x, y, z'
loop_
 _atom_site_type_symbol
 _atom_site_label
 _atom_site_symmetry_multiplicity
 _atom_site_fract_x
 _atom_site_fract_y
 _atom_site_fract_z
 _atom_site_occupancy
  Sr  Sr0  1  0.03145707  0.16335773  0.16225646  1
  Sr  Sr1  1  -0.00216548  0.17122965  0.61735594  1
  Sr  Sr2  1  -0.00409628  0.49473852  0.12950154  1
  Sr  Sr3  1  0.01804803  0.49773777  0.58566847  1
  Sr  Sr4  1  0.01675772  0.84880259  0.09829720  1
  Sr  Sr5  1  0.01635522  0.81946974  0.64190938  1
  Sr  Sr6  1  0.33102863  0.17797762  0.08482199  1
  Sr  Sr7  1  0.35488997  0.13440563  0.63882721  1
  Sr  Sr8  1  0.32851755  0.48720745  0.16061254  1
  Sr  Sr9  1  0.32721345  0.50798842  0.64572284  1
  Sr  Sr10  1  0.34523826  0.82684744  0.14345717  1
  Sr  Sr11  1  0.34054849  0.82643881  0.58872126  1
  Sr  Sr12  1  0.68627187  0.16282784  0.12841550  1
  Sr  Sr13  1  0.67051871  0.16574134  0.65801189  1
  Sr  Sr14  1  0.64720390  0.49945411  0.07725941  1
  Sr  Sr15  1  0.66977270  0.49376152  0.63056047  1
  Sr  Sr16  1  0.68760998  0.82660119  0.13037900  1
  Sr  Sr17  1  0.67857746  0.84609831  0.60744720  1
  Sr  Sr18  1  0.17682906  0.00880608  0.12481788  1
  Sr  Sr19  1  0.15749939  0.00309058  0.67195118  1
  Sr  Sr20  1  0.15414479  0.34752974  0.14016570  1
  Sr  Sr21  1  0.15342493  0.33060793  0.61126156  1
  Sr  Sr22  1  0.14952454  0.67610803  0.08514741  1
  Sr  Sr23  1  0.16670660  0.66573508  0.62863058  1
  Sr  Sr24  1  0.48693425  0.01372423  0.14351465  1
  Sr  Sr25  1  0.51658791  -0.01610477  0.62198112  1
  Sr  Sr26  1  0.48995106  0.33125719  0.13116990  1
  Sr  Sr27  1  0.49028130  0.34087819  0.58762245  1
  Sr  Sr28  1  0.50964362  0.67865431  0.11009849  1
  Sr  Sr29  1  0.49039493  0.64196364  0.66036439  1
  Sr  Sr30  1  0.82216670  -0.00508109  0.12788602  1
  Sr  Sr31  1  0.85208313  -0.00188695  0.57448738  1
  Sr  Sr32  1  0.82651831  0.35092867  0.10771747  1
  Sr  Sr33  1  0.81383859  0.32787697  0.65495724  1
  Sr  Sr34  1  0.84106383  0.66261637  0.16263678  1
  Sr  Sr35  1  0.81202279  0.65524159  0.61759151  1
  Sr  Sr36  1  0.00846811  0.16260767  0.38831603  1
  Sr  Sr37  1  0.01153327  0.17814255  0.82996041  1
  Sr  Sr38  1  -0.00885970  0.50189001  0.36091745  1
  Sr  Sr39  1  0.00765564  0.48726333  0.91432059  1
  Sr  Sr40  1  0.01587469  0.83547972  0.38673471  1
  Sr  Sr41  1  0.01581876  0.82920677  0.87047496  1
  Sr  Sr42  1  0.34551191  0.18307978  0.43091866  1
  Sr  Sr43  1  0.34101847  0.15756849  0.87955882  1
  Sr  Sr44  1  0.33664780  0.49830269  0.35369670  1
  Sr  Sr45  1  0.31758152  0.50384901  0.84252564  1
  Sr  Sr46  1  0.33390320  0.84162025  0.36689411  1
  Sr  Sr47  1  0.35446170  0.80178345  0.91776211  1
  Sr  Sr48  1  0.66329288  0.17546379  0.33339029  1
  Sr  Sr49  1  0.69174256  0.15892176  0.87866862  1
  Sr  Sr50  1  0.65944888  0.49046002  0.41776805  1
  Sr  Sr51  1  0.67894907  0.50816350  0.85554731  1
  Sr  Sr52  1  0.68619671  0.82698924  0.37767795  1
  Sr  Sr53  1  0.66579957  0.84256893  0.87395612  1
  Sr  Sr54  1  0.16622907  -0.00787078  0.33353578  1
  Sr  Sr55  1  0.17391919  0.01036476  0.87797801  1
  Sr  Sr56  1  0.15081749  0.33744025  0.37570262  1
  Sr  Sr57  1  0.16535258  0.33931441  0.87637790  1
  Sr  Sr58  1  0.16036952  0.68027943  0.41812311  1
  Sr  Sr59  1  0.15818793  0.66341914  0.87323106  1
  Sr  Sr60  1  0.48719394  0.00210088  0.39182282  1
  Sr  Sr61  1  0.50818927  0.01604193  0.84320659  1
  Sr  Sr62  1  0.49432638  0.33886904  0.37505124  1
  Sr  Sr63  1  0.48509652  0.33227633  0.91079518  1
  Sr  Sr64  1  0.47358335  0.66735625  0.33194685  1
  Sr  Sr65  1  0.51295799  0.66201644  0.88944540  1
  Sr  Sr66  1  0.82095833  0.00132429  0.36612608  1
  Sr  Sr67  1  0.83051078  -0.01338525  0.91943022  1
  Sr  Sr68  1  0.81313487  0.33343994  0.35927360  1
  Sr  Sr69  1  0.83032060  0.34338756  0.87920110  1
  Sr  Sr70  1  0.80959280  0.65605229  0.37973238  1
  Sr  Sr71  1  0.83303575  0.68156814  0.82788074  1
  Ta  Ta72  1  0.13587868  0.17169691  -0.00583103  1
  Ta  Ta73  1  0.17030470  0.11966854  0.50140070  1
  Ta  Ta74  1  0.19720443  0.49986915  0.00397658  1
  Ta  Ta75  1  0.19892383  0.50107406  0.49713608  1
  Ta  Ta76  1  0.19932185  0.85858629  0.00699962  1
  Ta  Ta77  1  0.17075637  0.87707410  0.50059092  1
  Ta  Ta78  1  0.52700014  0.15914414  0.00851939  1
  Ta  Ta79  1  0.54371836  0.16750963  0.49857323  1
  Ta  Ta80  1  0.44439085  0.50224687  0.00340543  1
  Ta  Ta81  1  0.47694192  0.52649496  0.49295779  1
  Ta  Ta82  1  0.50982095  0.88022976  -0.00033217  1
  Ta  Ta83  1  0.50655230  0.78743264  0.49882302  1
  Ta  Ta84  1  0.88738812  0.16500362  0.00093219  1
  Ta  Ta85  1  0.80882597  0.18286690  0.49437306  1
  Ta  Ta86  1  0.83175942  0.54611409  -0.01131106  1
  Ta  Ta87  1  0.84361503  0.48061837  0.50226248  1
  Ta  Ta88  1  0.83938095  0.79203907  0.00175747  1
  Ta  Ta89  1  0.86110400  0.81269311  0.49464822  1
  Ta  Ta90  1  0.20958758  0.17480267  0.26226681  1
  Ta  Ta91  1  0.19670596  0.19186413  0.75019517  1
  Ta  Ta92  1  0.15691677  0.54806621  0.25251813  1
  Ta  Ta93  1  0.13216284  0.49624829  0.74928901  1
  Ta  Ta94  1  0.16252722  0.80204427  0.25091230  1
  Ta  Ta95  1  0.21134972  0.82656131  0.75430183  1
  Ta  Ta96  1  0.46620883  0.17082083  0.25626056  1
  Ta  Ta97  1  0.49902943  0.21424084  0.75175631  1
  Ta  Ta98  1  0.53738832  0.49963679  0.25034580  1
  Ta  Ta99  1  0.49684894  0.44993842  0.75418985  1
  Ta  Ta100  1  0.52626111  0.84696833  0.25009062  1
  Ta  Ta101  1  0.48145639  0.82224153  0.75651658  1
  Ta  Ta102  1  0.86081540  0.16980076  0.25046591  1
  Ta  Ta103  1  0.84264646  0.11583579  0.74748637  1
  Ta  Ta104  1  0.78130513  0.49594753  0.25230909  1
  Ta  Ta105  1  0.87683649  0.50085609  0.74494949  1
  Ta  Ta106  1  0.87889232  0.83808535  0.24826365  1
  Ta  Ta107  1  0.83933826  0.87088435  0.74736766  1
  Ta  Ta108  1  -0.01681051  -0.00906741  0.25055464  1
  Ta  Ta109  1  -0.04364645  -0.00563247  0.75214771  1
  Ta  Ta110  1  -0.02791616  0.31923068  0.24642197  1
  Ta  Ta111  1  -0.00136587  0.36600979  0.74858978  1
  Ta  Ta112  1  0.02471534  0.68283913  0.24878323  1
  Ta  Ta113  1  -0.00063662  0.62275939  0.74894730  1
  Ta  Ta114  1  0.33384042  0.06510319  0.25754153  1
  Ta  Ta115  1  0.33849581  -0.06288865  0.75392483  1
  Ta  Ta116  1  0.32745462  0.28983077  0.25834870  1
  Ta  Ta117  1  0.34709326  0.31925594  0.75259240  1
  Ta  Ta118  1  0.27396909  0.66947700  0.25031653  1
  Ta  Ta119  1  0.32963949  0.70541463  0.74980025  1
  Ta  Ta120  1  0.64224904  -0.01581224  0.25330830  1
  Ta  Ta121  1  0.72270926  -0.00406979  0.74115087  1
  Ta  Ta122  1  0.65500815  0.37190702  0.25273342  1
  Ta  Ta123  1  0.61949014  0.33345365  0.74862499  1
  Ta  Ta124  1  0.65488908  0.62770512  0.25003847  1
  Ta  Ta125  1  0.65246391  0.69104837  0.74689264  1
  Ta  Ta126  1  0.00876083  0.04752116  -0.00324287  1
  Ta  Ta127  1  0.04895465  -0.00535771  0.50453764  1
  Ta  Ta128  1  -0.00060394  0.29297921  -0.00200727  1
  Ta  Ta129  1  -0.04977613  0.33263533  0.50408586  1
  Ta  Ta130  1  -0.04197950  0.66614677  -0.00952657  1
  Ta  Ta131  1  -0.02859344  0.67038904  0.50378019  1
  Ta  Ta132  1  0.34646383  -0.01813949  0.00201768  1
  Ta  Ta133  1  0.28768766  -0.00097659  0.50268061  1
  Ta  Ta134  1  0.32064551  0.37006925  -0.00031137  1
  Ta  Ta135  1  0.31715378  0.37235254  0.49745659  1
  Ta  Ta136  1  0.33031866  0.62074896  0.00650187  1
  Ta  Ta137  1  0.35272080  0.64914356  0.50138581  1
  Ta  Ta138  1  0.63422203  0.00280256  0.00659772  1
  Ta  Ta139  1  0.66828201  0.04488818  0.49582276  1
  Ta  Ta140  1  0.65280978  0.31162480  -0.00159227  1
  Ta  Ta141  1  0.67171654  0.30016848  0.50090989  1
  Ta  Ta142  1  0.71315879  0.67260036  -0.00610687  1
  Ta  Ta143  1  0.61194248  0.66466975  0.49288248  1
  N  N144  1  0.17204500  0.16385464  0.38329749  1
  N  N145  1  0.67257223  0.67516222  0.86733070  1
  N  N146  1  0.64781673  0.65685366  0.37201014  1
  N  N147  1  0.81677083  0.49812479  0.37323791  1
  N  N148  1  0.84386800  0.82723409  0.37367021  1
  N  N149  1  0.50216636  0.17359507  0.38294159  1
  N  N150  1  -0.01425001  0.32878270  0.62341048  1
  N  N151  1  0.82748285  0.49842844  0.62862066  1
  N  N152  1  0.50342332  0.17154003  0.12787973  1
  N  N153  1  0.17049450  0.50352358  0.62606564  1
  N  N154  1  0.66799939  0.00426106  0.12573949  1
  N  N155  1  0.49544384  0.50383706  0.37114342  1
  N  N156  1  -0.00546781  0.66168099  0.62340963  1
  N  N157  1  0.33441767  0.66933979  0.62419724  1
  N  N158  1  0.68515697  0.00438293  0.62075891  1
  N  N159  1  0.17369411  0.83805443  0.37789017  1
  N  N160  1  0.65605674  0.33603984  0.37343950  1
  N  N161  1  -0.00544805  0.33151943  0.87479113  1
  N  N162  1  -0.00523874  0.33274561  0.12613947  1
  N  N163  1  0.83367947  0.16301880  0.37187551  1
  N  N164  1  0.15883827  0.50877970  0.12504564  1
  N  N165  1  0.32942796  0.33413656  0.37714005  1
  N  N166  1  0.16328499  0.50340539  0.87609371  1
  N  N167  1  0.83551681  0.50795306  0.87077864  1
  N  N168  1  0.50506695  0.83987911  0.87784398  1
  N  N169  1  -0.00181104  0.66425126  0.87347181  1
  N  N170  1  0.84844045  0.82440626  0.12411229  1
  N  N171  1  0.17764391  0.84299894  0.12707016  1
  N  N172  1  0.65586316  0.33183682  0.62389520  1
  N  N173  1  0.17401025  0.17009146  0.87093336  1
  N  N174  1  0.16147481  0.51192229  0.37516851  1
  N  N175  1  0.32976930  0.33484616  0.87582724  1
  N  N176  1  0.66616306  0.00709282  0.37508168  1
  O  O177  1  0.84728273  0.14174947  0.87912276  1
  O  O178  1  0.84051663  0.83981147  0.87361945  1
  O  O179  1  0.00620564  0.67101599  0.37302027  1
  O  O180  1  0.84017371  0.14780630  0.61776503  1
  O  O181  1  0.17532851  0.16820968  0.11892672  1
  O  O182  1  0.18376319  0.83449706  0.62549675  1
  O  O183  1  0.84631807  0.15553713  0.11897933  1
  O  O184  1  0.31954524  0.67374808  0.37345838  1
  O  O185  1  0.33084370  0.65964624  0.87124954  1
  O  O186  1  0.48638675  0.49041813  0.63086913  1
  O  O187  1  0.00578165  -0.00595945  0.62804383  1
  O  O188  1  0.84362411  0.84659390  0.61995951  1
  O  O189  1  0.66804747  0.65572308  0.11368161  1
  O  O190  1  0.33017153  0.32888112  0.12371950  1
  O  O191  1  0.50013694  0.18916079  0.62505731  1
  O  O192  1  0.51086720  0.83871185  0.12200935  1
  O  O193  1  0.18868645  0.83061202  0.88194442  1
  O  O194  1  0.68092028  0.00266851  0.88053624  1
  O  O195  1  0.51039075  0.82079108  0.37091767  1
  O  O196  1  0.64927704  0.65789333  0.62233122  1
  O  O197  1  -0.00220226  0.00753065  0.12375818  1
  O  O198  1  -0.00710768  0.00155359  0.87873527  1
  O  O199  1  0.49198128  0.49929380  0.12428431  1
  O  O200  1  0.32094375  0.01477481  0.37507728  1
  O  O201  1  0.01047122  -0.00429537  0.37442263  1
  O  O202  1  0.31420495  -0.01740441  0.63594361  1
  O  O203  1  0.49537680  0.80984339  0.62123153  1
  O  O204  1  0.33426640  0.02210160  0.12354734  1
  O  O205  1  0.47693994  0.48596297  0.87280357  1
  O  O206  1  0.81702505  0.50889005  0.12583085  1
  O  O207  1  0.49951722  0.18066798  0.87619797  1
  O  O208  1  -0.01550884  0.32735386  0.38071615  1
  O  O209  1  0.66337817  0.31823578  0.87413483  1
  O  O210  1  0.34566247  -0.01662791  0.87509699  1
  O  O211  1  0.31495764  0.66137680  0.12801477  1
  O  O212  1  -0.00002240  0.67221431  0.12256311  1
  O  O213  1  0.33271402  0.34587903  0.62102969  1
  O  O214  1  0.65280352  0.33775099  0.12105478  1
  O  O215  1  0.17708315  0.15777979  0.63040472  1
