# generated using pymatgen
data_Sr24Ta24N11O13
_symmetry_space_group_name_H-M   'P 1'
_cell_length_a   16.84786066
_cell_length_b   16.76041196
_cell_length_c   15.75418976
_cell_angle_alpha   89.97249222
_cell_angle_beta   90.10520886
_cell_angle_gamma   90.06275434
_symmetry_Int_Tables_number   1
_chemical_formula_structural   Sr24Ta24N11O13
_chemical_formula_sum   'Sr72 Ta72 N33 O39'
_cell_volume   4448.61150699
_cell_formula_units_Z   3
loop_
 _symmetry_equiv_pos_site_id
 _symmetry_equiv_pos_as_xyz
  1  'x, y, z'
loop_
 _atom_site_type_symbol
 _atom_site_label
 _atom_site_symmetry_multiplicity
 _atom_site_fract_x
 _atom_site_fract_y
 _atom_site_fract_z
 _atom_site_occupancy
  Sr  Sr0  1  -0.00678012  0.15786026  0.13518609  1
  Sr  Sr1  1  0.01523503  0.16160528  0.59214064  1
  Sr  Sr2  1  -0.01417652  0.49294026  0.14903320  1
  Sr  Sr3  1  -0.02818623  0.49731940  0.63015979  1
  Sr  Sr4  1  -0.01263432  0.81577137  0.10013304  1
  Sr  Sr5  1  0.00497650  0.82547645  0.65796691  1
  Sr  Sr6  1  0.32969075  0.17578365  0.13119198  1
  Sr  Sr7  1  0.33082722  0.14777345  0.66914237  1
  Sr  Sr8  1  0.29299953  0.49699117  0.10213646  1
  Sr  Sr9  1  0.33826188  0.51270986  0.63271124  1
  Sr  Sr10  1  0.33359859  0.82958041  0.13479496  1
  Sr  Sr11  1  0.32445592  0.84865644  0.57560624  1
  Sr  Sr12  1  0.65212760  0.14299684  0.08630390  1
  Sr  Sr13  1  0.66353744  0.17406735  0.63280067  1
  Sr  Sr14  1  0.64966126  0.47960003  0.13818041  1
  Sr  Sr15  1  0.65488309  0.49457863  0.59836706  1
  Sr  Sr16  1  0.66912983  0.84424065  0.15667198  1
  Sr  Sr17  1  0.67087630  0.81987177  0.62315515  1
  Sr  Sr18  1  0.19076155  0.02467859  0.17105239  1
  Sr  Sr19  1  0.16665216  0.00053749  0.62107409  1
  Sr  Sr20  1  0.16442261  0.32170611  0.08656377  1
  Sr  Sr21  1  0.19024401  0.34044539  0.63808535  1
  Sr  Sr22  1  0.15290488  0.65955655  0.13966898  1
  Sr  Sr23  1  0.19770934  0.67081905  0.61024695  1
  Sr  Sr24  1  0.49750702  0.00143418  0.08943833  1
  Sr  Sr25  1  0.52066457  0.01365976  0.63831384  1
  Sr  Sr26  1  0.50026236  0.33048536  0.14079036  1
  Sr  Sr27  1  0.51579662  0.34756358  0.58522369  1
  Sr  Sr28  1  0.52542232  0.66389292  0.12283633  1
  Sr  Sr29  1  0.50593265  0.66003395  0.66082945  1
  Sr  Sr30  1  0.83235427  -0.01102432  0.13220943  1
  Sr  Sr31  1  0.85156285  0.02967153  0.59518063  1
  Sr  Sr32  1  0.84311383  0.33160871  0.14966886  1
  Sr  Sr33  1  0.82609467  0.32838474  0.65200564  1
  Sr  Sr34  1  0.82961161  0.65078102  0.07166762  1
  Sr  Sr35  1  0.84299452  0.67267379  0.63176277  1
  Sr  Sr36  1  0.00241668  0.15772538  0.37244472  1
  Sr  Sr37  1  -0.00123285  0.17266143  0.90061601  1
  Sr  Sr38  1  -0.01405364  0.50114470  0.37078264  1
  Sr  Sr39  1  -0.03484005  0.49317119  0.84928738  1
  Sr  Sr40  1  -0.01535352  0.81042510  0.36911010  1
  Sr  Sr41  1  0.00411108  0.83860813  0.87650950  1
  Sr  Sr42  1  0.33963356  0.17365331  0.33911961  1
  Sr  Sr43  1  0.31951737  0.17229762  0.87087861  1
  Sr  Sr44  1  0.31364963  0.48916316  0.40682309  1
  Sr  Sr45  1  0.31884730  0.50787735  0.85882015  1
  Sr  Sr46  1  0.32978770  0.83617324  0.36528095  1
  Sr  Sr47  1  0.35229330  0.83707000  0.91755352  1
  Sr  Sr48  1  0.64702800  0.15602628  0.41778378  1
  Sr  Sr49  1  0.66910504  0.16572595  0.86765273  1
  Sr  Sr50  1  0.64902948  0.48543396  0.35916424  1
  Sr  Sr51  1  0.65239550  0.50903636  0.91592227  1
  Sr  Sr52  1  0.67584989  0.83165835  0.37497033  1
  Sr  Sr53  1  0.65945754  0.83095637  0.82416301  1
  Sr  Sr54  1  0.17653417  0.01247929  0.38288859  1
  Sr  Sr55  1  0.17032225  0.00485709  0.83633533  1
  Sr  Sr56  1  0.14725781  0.33800615  0.42449529  1
  Sr  Sr57  1  0.17279660  0.33278266  0.87600329  1
  Sr  Sr58  1  0.17475641  0.66626739  0.36422399  1
  Sr  Sr59  1  0.18646854  0.68654489  0.90259030  1
  Sr  Sr60  1  0.51131276  -0.01069867  0.41799501  1
  Sr  Sr61  1  0.51039372  0.00989823  0.86364045  1
  Sr  Sr62  1  0.50047212  0.32904418  0.36754839  1
  Sr  Sr63  1  0.52505550  0.34352640  0.91162271  1
  Sr  Sr64  1  0.52279775  0.67930268  0.33080766  1
  Sr  Sr65  1  0.50873572  0.66263635  0.87112907  1
  Sr  Sr66  1  0.83787729  -0.00462589  0.35952641  1
  Sr  Sr67  1  0.85398029  0.01242042  0.91489313  1
  Sr  Sr68  1  0.83624609  0.34002993  0.34082951  1
  Sr  Sr69  1  0.83380903  0.32499822  0.85018280  1
  Sr  Sr70  1  0.82791179  0.66303767  0.42102200  1
  Sr  Sr71  1  0.85059994  0.68647174  0.85217891  1
  Ta  Ta72  1  0.17037577  0.12924137  -0.00192764  1
  Ta  Ta73  1  0.21372051  0.17152496  0.50507863  1
  Ta  Ta74  1  0.11327758  0.49905724  0.00118360  1
  Ta  Ta75  1  0.12986410  0.52006502  0.50295107  1
  Ta  Ta76  1  0.17278627  0.88608782  0.00327838  1
  Ta  Ta77  1  0.12907997  0.82858337  0.50381811  1
  Ta  Ta78  1  0.47122156  0.17970468  -0.00317244  1
  Ta  Ta79  1  0.45711810  0.16859095  0.50464781  1
  Ta  Ta80  1  0.46075011  0.50533081  0.00509165  1
  Ta  Ta81  1  0.49448963  0.54125117  0.49594618  1
  Ta  Ta82  1  0.53755229  0.83001493  -0.00839125  1
  Ta  Ta83  1  0.50676265  0.79528160  0.49637759  1
  Ta  Ta84  1  0.82758925  0.20165084  0.00333954  1
  Ta  Ta85  1  0.82994819  0.20298790  0.49516496  1
  Ta  Ta86  1  0.83603397  0.45730557  0.00237410  1
  Ta  Ta87  1  0.82289601  0.46411490  0.49660562  1
  Ta  Ta88  1  0.79962534  0.83385461  -0.01118734  1
  Ta  Ta89  1  0.84426191  0.85418115  0.51486640  1
  Ta  Ta90  1  0.16491254  0.21763771  0.26146945  1
  Ta  Ta91  1  0.13218793  0.17642461  0.74890642  1
  Ta  Ta92  1  0.16193710  0.45859913  0.24985654  1
  Ta  Ta93  1  0.13785213  0.50945279  0.75297929  1
  Ta  Ta94  1  0.13921099  0.85148191  0.24914435  1
  Ta  Ta95  1  0.20175054  0.82622961  0.74621136  1
  Ta  Ta96  1  0.52093828  0.13582850  0.25739455  1
  Ta  Ta97  1  0.50089432  0.22155315  0.74578779  1
  Ta  Ta98  1  0.44557525  0.50175567  0.24287046  1
  Ta  Ta99  1  0.51136762  0.47582322  0.75394016  1
  Ta  Ta100  1  0.50179853  0.87646190  0.25398933  1
  Ta  Ta101  1  0.46715872  0.83867343  0.74535041  1
  Ta  Ta102  1  0.78369601  0.15853445  0.24957317  1
  Ta  Ta103  1  0.85185232  0.14323953  0.75659268  1
  Ta  Ta104  1  0.82011883  0.54431475  0.24846493  1
  Ta  Ta105  1  0.77981058  0.50042457  0.75369184  1
  Ta  Ta106  1  0.83562374  0.78882728  0.23892168  1
  Ta  Ta107  1  0.83908213  0.88704407  0.74848963  1
  Ta  Ta108  1  0.01578248  -0.03370213  0.24786219  1
  Ta  Ta109  1  -0.01554537  0.02069896  0.75127378  1
  Ta  Ta110  1  0.03670478  0.32804074  0.25489596  1
  Ta  Ta111  1  0.01545057  0.31348548  0.74787021  1
  Ta  Ta112  1  -0.05361796  0.66165663  0.24394443  1
  Ta  Ta113  1  0.05015003  0.65348157  0.74983302  1
  Ta  Ta114  1  0.38053759  0.00066080  0.25306880  1
  Ta  Ta115  1  0.33881219  -0.05233670  0.74829992  1
  Ta  Ta116  1  0.30053179  0.35421337  0.24904247  1
  Ta  Ta117  1  0.38064284  0.33967454  0.74859596  1
  Ta  Ta118  1  0.34520126  0.63629173  0.25149575  1
  Ta  Ta119  1  0.33779309  0.72472150  0.74458720  1
  Ta  Ta120  1  0.64618508  0.02231898  0.25979348  1
  Ta  Ta121  1  0.71709442  0.00711910  0.74909803  1
  Ta  Ta122  1  0.66355178  0.27599309  0.24706395  1
  Ta  Ta123  1  0.64952559  0.35740495  0.75773837  1
  Ta  Ta124  1  0.71716654  0.66767071  0.24460266  1
  Ta  Ta125  1  0.67935114  0.62818860  0.74694888  1
  Ta  Ta126  1  0.04826101  -0.00020439  -0.00076013  1
  Ta  Ta127  1  0.00461916  -0.04274113  0.50565097  1
  Ta  Ta128  1  -0.02329537  0.35168673  -0.00438629  1
  Ta  Ta129  1  -0.04596573  0.33634372  0.49562780  1
  Ta  Ta130  1  0.00805152  0.63085262  -0.00238855  1
  Ta  Ta131  1  0.02274971  0.66390156  0.50925348  1
  Ta  Ta132  1  0.30915320  0.01139607  0.00522878  1
  Ta  Ta133  1  0.33982162  0.04224418  0.49559496  1
  Ta  Ta134  1  0.35658793  0.33377473  0.00324515  1
  Ta  Ta135  1  0.33925726  0.29015856  0.50277040  1
  Ta  Ta136  1  0.36097509  0.65601310  0.00261354  1
  Ta  Ta137  1  0.38514264  0.67128770  0.49895182  1
  Ta  Ta138  1  0.67322394  -0.04827618  -0.01548663  1
  Ta  Ta139  1  0.69538870  -0.02048306  0.50910500  1
  Ta  Ta140  1  0.70570525  0.32530335  0.00687861  1
  Ta  Ta141  1  0.70713922  0.33013237  0.48712157  1
  Ta  Ta142  1  0.66946650  0.72537598  -0.01001716  1
  Ta  Ta143  1  0.63236309  0.66313786  0.50045529  1
  N  N144  1  0.33974072  0.00407258  0.12533234  1
  N  N145  1  0.84317818  0.84212613  0.86486142  1
  N  N146  1  0.67252501  0.33806292  0.87659543  1
  N  N147  1  0.49944275  0.17664598  0.63151295  1
  N  N148  1  0.50543531  0.83258984  0.37302363  1
  N  N149  1  0.17126515  0.83150379  0.62183128  1
  N  N150  1  0.66669875  0.32066170  0.12914892  1
  N  N151  1  0.83164822  0.82053797  0.11733193  1
  N  N152  1  0.49646857  0.50504498  0.61808359  1
  N  N153  1  0.49421172  0.49956848  0.87680460  1
  N  N154  1  -0.01299642  0.65395781  0.11868066  1
  N  N155  1  0.50560909  0.83669555  0.86878666  1
  N  N156  1  0.17214087  0.18152664  0.37977107  1
  N  N157  1  0.83465225  0.16947667  0.87749145  1
  N  N158  1  0.35000008  0.68502252  0.62385417  1
  N  N159  1  0.32515847  0.33585319  0.12569905  1
  N  N160  1  0.67724524  0.01514047  0.62515332  1
  N  N161  1  0.00818323  -0.00428851  0.62364742  1
  N  N162  1  0.00491949  0.66670346  0.63257746  1
  N  N163  1  0.66511582  0.32433213  0.37056178  1
  N  N164  1  0.49698922  0.16102296  0.37687610  1
  N  N165  1  0.67386551  0.00137507  0.87318569  1
  N  N166  1  0.34049269  0.00677250  0.37455310  1
  N  N167  1  -0.00195251  0.33658214  0.87288166  1
  N  N168  1  0.83954580  0.82671910  0.63396301  1
  N  N169  1  0.16467361  0.16417140  0.87859221  1
  N  N170  1  0.66736597  0.65814270  0.62277809  1
  N  N171  1  0.14258392  0.48800751  0.12818642  1
  N  N172  1  0.17497781  0.16800449  0.63324229  1
  N  N173  1  0.01257956  0.00104938  0.87733757  1
  N  N174  1  0.49396787  0.49408599  0.13075264  1
  N  N175  1  0.66897131  -0.00241404  0.37920057  1
  N  N176  1  -0.00609305  0.33029174  0.37835945  1
  O  O177  1  0.82646216  0.49757591  0.12473204  1
  O  O178  1  -0.01952180  0.65829668  0.37429077  1
  O  O179  1  -0.00113353  -0.02277620  0.37241466  1
  O  O180  1  -0.00008008  0.33136034  0.12980990  1
  O  O181  1  0.83367245  0.81693493  0.38567861  1
  O  O182  1  0.34258264  0.66319137  0.12557399  1
  O  O183  1  0.66834331  0.67612445  0.86714668  1
  O  O184  1  0.80883997  0.48991726  0.88282037  1
  O  O185  1  0.33855484  0.65471228  0.37500466  1
  O  O186  1  0.34872797  0.68286265  0.87774196  1
  O  O187  1  0.81668133  0.17124921  0.37034008  1
  O  O188  1  0.80748832  0.15192902  0.12161308  1
  O  O189  1  0.51551692  0.84879653  0.12853753  1
  O  O190  1  0.00440206  -0.00788733  0.12499204  1
  O  O191  1  0.17372634  0.86574190  0.13128752  1
  O  O192  1  0.33166669  0.33299980  0.37993608  1
  O  O193  1  0.35530176  0.34030752  0.62158229  1
  O  O194  1  0.17247729  0.17181821  0.12626729  1
  O  O195  1  0.67623352  0.66906241  0.37809073  1
  O  O196  1  0.33059723  -0.01524436  0.87184457  1
  O  O197  1  0.35215095  0.34071308  0.86944396  1
  O  O198  1  0.14576415  0.50567013  0.37585725  1
  O  O199  1  0.66970499  0.33564533  0.61549576  1
  O  O200  1  0.14793698  0.49009958  0.87558029  1
  O  O201  1  0.33535907  -0.00530930  0.62720113  1
  O  O202  1  0.67205319  -0.00759849  0.11254728  1
  O  O203  1  -0.01727787  0.33470935  0.62692947  1
  O  O204  1  0.14597262  0.82265800  0.37161696  1
  O  O205  1  0.83919438  0.18053292  0.62321835  1
  O  O206  1  0.17973143  0.85158597  0.88095116  1
  O  O207  1  0.48585158  0.17717411  0.87161202  1
  O  O208  1  0.82596785  0.49959692  0.37373211  1
  O  O209  1  0.81027503  0.48294614  0.62271473  1
  O  O210  1  0.50821309  0.82946410  0.62180034  1
  O  O211  1  0.13828297  0.49483100  0.62329686  1
  O  O212  1  0.49331900  0.15975310  0.12034744  1
  O  O213  1  0.00785248  0.66691312  0.86924671  1
  O  O214  1  0.48683697  0.49884004  0.37106057  1
  O  O215  1  0.67911277  0.68861787  0.11473641  1
