# generated using pymatgen
data_Sr24Ta24N11O13
_symmetry_space_group_name_H-M   'P 1'
_cell_length_a   16.78386642
_cell_length_b   16.84763763
_cell_length_c   15.76053098
_cell_angle_alpha   89.98616161
_cell_angle_beta   89.94353369
_cell_angle_gamma   89.99733713
_symmetry_Int_Tables_number   1
_chemical_formula_structural   Sr24Ta24N11O13
_chemical_formula_sum   'Sr72 Ta72 N33 O39'
_cell_volume   4456.57939606
_cell_formula_units_Z   3
loop_
 _symmetry_equiv_pos_site_id
 _symmetry_equiv_pos_as_xyz
  1  'x, y, z'
loop_
 _atom_site_type_symbol
 _atom_site_label
 _atom_site_symmetry_multiplicity
 _atom_site_fract_x
 _atom_site_fract_y
 _atom_site_fract_z
 _atom_site_occupancy
  Sr  Sr0  1  0.00325348  0.17061431  0.13486044  1
  Sr  Sr1  1  0.01487132  0.18300983  0.58009570  1
  Sr  Sr2  1  0.01328746  0.50666122  0.16486881  1
  Sr  Sr3  1  -0.00696068  0.51080301  0.63920268  1
  Sr  Sr4  1  0.00863523  0.83236428  0.08739926  1
  Sr  Sr5  1  -0.00858512  0.85727114  0.63439875  1
  Sr  Sr6  1  0.33741936  0.16720441  0.10719854  1
  Sr  Sr7  1  0.31892148  0.17919138  0.67349501  1
  Sr  Sr8  1  0.32001720  0.50281107  0.09334537  1
  Sr  Sr9  1  0.32982520  0.48909718  0.60144143  1
  Sr  Sr10  1  0.32468799  0.82219033  0.16671076  1
  Sr  Sr11  1  0.32773581  0.84436468  0.61169632  1
  Sr  Sr12  1  0.67027526  0.17546366  0.14297594  1
  Sr  Sr13  1  0.67028485  0.18069949  0.62287316  1
  Sr  Sr14  1  0.67187210  0.49677736  0.12145675  1
  Sr  Sr15  1  0.64765143  0.52520432  0.63981562  1
  Sr  Sr16  1  0.67520963  0.85971684  0.10896299  1
  Sr  Sr17  1  0.66543152  0.84492061  0.62189063  1
  Sr  Sr18  1  0.16944341  -0.02370296  0.12783338  1
  Sr  Sr19  1  0.16015114  -0.00481004  0.61928951  1
  Sr  Sr20  1  0.17192844  0.31187455  0.12181356  1
  Sr  Sr21  1  0.16632263  0.33337508  0.62211194  1
  Sr  Sr22  1  0.16505878  0.66368786  0.12364953  1
  Sr  Sr23  1  0.19023542  0.65092262  0.61845483  1
  Sr  Sr24  1  0.49426040  -0.00674646  0.11159289  1
  Sr  Sr25  1  0.51406785  -0.00516461  0.58373890  1
  Sr  Sr26  1  0.51290611  0.31930374  0.16901519  1
  Sr  Sr27  1  0.50437240  0.34326979  0.61378023  1
  Sr  Sr28  1  0.50921049  0.65235397  0.11183508  1
  Sr  Sr29  1  0.50006082  0.68234187  0.66714012  1
  Sr  Sr30  1  0.83558800  -0.01291484  0.12256259  1
  Sr  Sr31  1  0.81995878  -0.00524694  0.67222685  1
  Sr  Sr32  1  0.81770850  0.32495195  0.08429732  1
  Sr  Sr33  1  0.83850507  0.31676443  0.62882440  1
  Sr  Sr34  1  0.83530890  0.64173175  0.15604249  1
  Sr  Sr35  1  0.83615733  0.66668712  0.60096803  1
  Sr  Sr36  1  0.00776265  0.15682000  0.36525259  1
  Sr  Sr37  1  0.00637462  0.19868145  0.91342017  1
  Sr  Sr38  1  -0.00947974  0.52363206  0.36415996  1
  Sr  Sr39  1  0.00626886  0.49913391  0.83783357  1
  Sr  Sr40  1  -0.00889002  0.83900652  0.40442606  1
  Sr  Sr41  1  0.00452059  0.85015852  0.87593106  1
  Sr  Sr42  1  0.33250967  0.19523150  0.33469223  1
  Sr  Sr43  1  0.33045804  0.15933249  0.88289368  1
  Sr  Sr44  1  0.32278047  0.49083913  0.40701243  1
  Sr  Sr45  1  0.32469777  0.50012418  0.90119928  1
  Sr  Sr46  1  0.32578632  0.82756429  0.37801557  1
  Sr  Sr47  1  0.32651171  0.81904966  0.83019335  1
  Sr  Sr48  1  0.64950069  0.17546669  0.38793480  1
  Sr  Sr49  1  0.68729922  0.17984423  0.85155353  1
  Sr  Sr50  1  0.66031179  0.51839182  0.35426323  1
  Sr  Sr51  1  0.65945557  0.51211858  0.88642070  1
  Sr  Sr52  1  0.67192931  0.85140678  0.38540667  1
  Sr  Sr53  1  0.65278815  0.84880067  0.88186959  1
  Sr  Sr54  1  0.16426398  -0.01710616  0.39151222  1
  Sr  Sr55  1  0.18047755  -0.01789199  0.84267356  1
  Sr  Sr56  1  0.15347017  0.32773549  0.36603294  1
  Sr  Sr57  1  0.18397576  0.32253564  0.88983529  1
  Sr  Sr58  1  0.18079722  0.65792973  0.36955878  1
  Sr  Sr59  1  0.16613926  0.65561100  0.88683219  1
  Sr  Sr60  1  0.49025092  -0.01848865  0.38570977  1
  Sr  Sr61  1  0.50114552  0.00472605  0.90875383  1
  Sr  Sr62  1  0.51124355  0.34577025  0.38565335  1
  Sr  Sr63  1  0.50710371  0.31297432  0.82906230  1
  Sr  Sr64  1  0.49625038  0.66656437  0.33830839  1
  Sr  Sr65  1  0.50317305  0.65727725  0.88381933  1
  Sr  Sr66  1  0.82152282  0.00945198  0.33248269  1
  Sr  Sr67  1  0.82837727  -0.02439993  0.88150461  1
  Sr  Sr68  1  0.83338289  0.29759053  0.41828522  1
  Sr  Sr69  1  0.83854977  0.33027589  0.87588229  1
  Sr  Sr70  1  0.82372669  0.68011720  0.38820195  1
  Sr  Sr71  1  0.84405685  0.64140268  0.86251641  1
  Ta  Ta72  1  0.16148927  0.11820694  -0.00612413  1
  Ta  Ta73  1  0.20803589  0.16586931  0.50248836  1
  Ta  Ta74  1  0.12205146  0.49276184  -0.00297176  1
  Ta  Ta75  1  0.13262402  0.49729227  0.50029255  1
  Ta  Ta76  1  0.20118337  0.82801234  -0.00394192  1
  Ta  Ta77  1  0.14971528  0.80389865  0.50494981  1
  Ta  Ta78  1  0.52118924  0.19035349  0.00242969  1
  Ta  Ta79  1  0.44960102  0.16917179  0.50053400  1
  Ta  Ta80  1  0.50106249  0.45303120  -0.00540213  1
  Ta  Ta81  1  0.50444068  0.54018072  0.50420783  1
  Ta  Ta82  1  0.45201151  0.82648348  -0.00302690  1
  Ta  Ta83  1  0.50023774  0.79515296  0.49762052  1
  Ta  Ta84  1  0.83551400  0.13912537  0.00264192  1
  Ta  Ta85  1  0.83647706  0.11770878  0.50903976  1
  Ta  Ta86  1  0.88110890  0.50144318  0.00354028  1
  Ta  Ta87  1  0.83111150  0.47951771  0.49938667  1
  Ta  Ta88  1  0.83435597  0.78507740  0.00382211  1
  Ta  Ta89  1  0.82962554  0.87922064  0.50123186  1
  Ta  Ta90  1  0.17677879  0.12889709  0.24284648  1
  Ta  Ta91  1  0.12873311  0.16774951  0.75082307  1
  Ta  Ta92  1  0.20134501  0.49231999  0.25321692  1
  Ta  Ta93  1  0.19325510  0.49260995  0.75006698  1
  Ta  Ta94  1  0.12955593  0.82550308  0.25270380  1
  Ta  Ta95  1  0.14734279  0.79821395  0.74463707  1
  Ta  Ta96  1  0.49535975  0.13011165  0.24693292  1
  Ta  Ta97  1  0.50153590  0.12621307  0.74592597  1
  Ta  Ta98  1  0.45441745  0.49558659  0.24739197  1
  Ta  Ta99  1  0.46521752  0.49630059  0.75338840  1
  Ta  Ta100  1  0.52293398  0.83596832  0.24815517  1
  Ta  Ta101  1  0.49871305  0.87384691  0.74266850  1
  Ta  Ta102  1  0.83588961  0.20376836  0.24690742  1
  Ta  Ta103  1  0.88517565  0.16748236  0.74721705  1
  Ta  Ta104  1  0.83075898  0.44317384  0.25495680  1
  Ta  Ta105  1  0.81168828  0.48552921  0.74831846  1
  Ta  Ta106  1  0.86120579  0.82539297  0.24881844  1
  Ta  Ta107  1  0.83080221  0.80079725  0.74651177  1
  Ta  Ta108  1  0.00702311  -0.02987291  0.24968521  1
  Ta  Ta109  1  0.00157331  0.05113311  0.74644532  1
  Ta  Ta110  1  -0.04152243  0.33357168  0.25405731  1
  Ta  Ta111  1  0.00580258  0.30821945  0.74507042  1
  Ta  Ta112  1  0.00255476  0.71406080  0.25206437  1
  Ta  Ta113  1  0.00648062  0.69015558  0.74975679  1
  Ta  Ta114  1  0.33549624  0.02012725  0.24773998  1
  Ta  Ta115  1  0.37971955  0.00095705  0.74934079  1
  Ta  Ta116  1  0.33385815  0.37345395  0.24599347  1
  Ta  Ta117  1  0.33261406  0.36606468  0.75375918  1
  Ta  Ta118  1  0.33339236  0.62191279  0.25098382  1
  Ta  Ta119  1  0.33007749  0.62646111  0.75599987  1
  Ta  Ta120  1  0.63459549  0.00643347  0.25178185  1
  Ta  Ta121  1  0.62935732  0.00860352  0.75065250  1
  Ta  Ta122  1  0.70825284  0.33635889  0.26217697  1
  Ta  Ta123  1  0.68440988  0.36606785  0.74476773  1
  Ta  Ta124  1  0.66403110  0.71196885  0.24955054  1
  Ta  Ta125  1  0.69311633  0.68779883  0.74867080  1
  Ta  Ta126  1  0.00528237  0.02130373  -0.00431450  1
  Ta  Ta127  1  -0.04365344  0.00695332  0.50593480  1
  Ta  Ta128  1  -0.00152071  0.37960846  0.00350488  1
  Ta  Ta129  1  -0.00430000  0.37562858  0.50213209  1
  Ta  Ta130  1  -0.01292830  0.63804077  0.00334753  1
  Ta  Ta131  1  0.02673700  0.67052577  0.50336029  1
  Ta  Ta132  1  0.32271274  -0.03971136  -0.00847572  1
  Ta  Ta133  1  0.33038728  0.04978615  0.50327913  1
  Ta  Ta134  1  0.39011770  0.32741449  -0.00585052  1
  Ta  Ta135  1  0.33270890  0.29814128  0.50655552  1
  Ta  Ta136  1  0.33507954  0.70200379  -0.00191005  1
  Ta  Ta137  1  0.37220621  0.66769671  0.49739116  1
  Ta  Ta138  1  0.67523292  0.04432573  0.00062219  1
  Ta  Ta139  1  0.70232511  0.01214857  0.50217809  1
  Ta  Ta140  1  0.62073890  0.32752327  -0.00236830  1
  Ta  Ta141  1  0.68138253  0.38049101  0.50522538  1
  Ta  Ta142  1  0.69877755  0.68555193  0.00119634  1
  Ta  Ta143  1  0.62006655  0.67591361  0.49834121  1
  N  N144  1  0.66244218  0.33981808  0.62669317  1
  N  N145  1  0.16676160  0.82311210  0.87185494  1
  N  N146  1  0.66655796  0.00816832  0.62649990  1
  N  N147  1  0.16993271  0.83707353  0.62723192  1
  N  N148  1  0.49856314  0.82885779  0.36813875  1
  N  N149  1  0.49841339  0.84016298  0.62377240  1
  N  N150  1  0.33683301  0.33124974  0.62598525  1
  N  N151  1  0.66340626  0.01167275  0.87723433  1
  N  N152  1  0.16365551  0.82673711  0.37759761  1
  N  N153  1  0.34190534  0.65708111  0.37640153  1
  N  N154  1  0.16721881  0.82188619  0.12421434  1
  N  N155  1  0.17211667  0.15052390  0.12193917  1
  N  N156  1  0.49344948  0.51165043  0.62313980  1
  N  N157  1  0.16206553  0.49648752  0.62525376  1
  N  N158  1  -0.00338799  0.34039727  0.62447860  1
  N  N159  1  0.33930573  -0.01053517  0.87089717  1
  N  N160  1  0.67062249  0.34499535  0.38197982  1
  N  N161  1  0.84055901  0.82303146  0.12316859  1
  N  N162  1  0.33669263  0.66037942  0.87873592  1
  N  N163  1  0.84131535  0.16654617  0.12562695  1
  N  N164  1  0.50069348  0.16404789  0.12760487  1
  N  N165  1  0.15751723  0.49385788  0.87743446  1
  N  N166  1  0.66547181  0.01332149  0.12541641  1
  N  N167  1  0.83337619  0.84413162  0.38128248  1
  N  N168  1  0.34724245  0.32755478  0.87763273  1
  N  N169  1  0.49998239  0.49415724  0.87529625  1
  N  N170  1  -0.00319875  0.01285198  0.62484573  1
  N  N171  1  0.16929931  0.16542692  0.62232202  1
  N  N172  1  0.16275110  0.49558175  0.37035463  1
  N  N173  1  0.83356131  0.83345578  0.62901700  1
  N  N174  1  0.16843361  0.15487291  0.87119175  1
  N  N175  1  0.84305925  0.16033620  0.62851632  1
  N  N176  1  0.66288507  0.01170614  0.37629309  1
  O  O177  1  0.33283991  0.34150276  0.37447127  1
  O  O178  1  -0.01599329  0.34951340  0.13191738  1
  O  O179  1  0.48262706  0.50240483  0.37398881  1
  O  O180  1  0.00510453  0.67520114  0.37507924  1
  O  O181  1  -0.00599234  -0.00622549  0.37316914  1
  O  O182  1  0.68618099  0.67128484  0.87723931  1
  O  O183  1  0.66435933  0.68552346  0.37598729  1
  O  O184  1  0.66443625  0.33717550  0.12126176  1
  O  O185  1  0.47885474  0.82963960  0.12189144  1
  O  O186  1  0.47919554  0.49270348  0.12116272  1
  O  O187  1  0.34503843  0.34634132  0.12048396  1
  O  O188  1  0.00005015  0.67077064  0.62519951  1
  O  O189  1  -0.00277500  0.66082950  0.13100642  1
  O  O190  1  0.48482433  0.16167370  0.37615336  1
  O  O191  1  0.33254229  -0.00872643  0.12475784  1
  O  O192  1  0.65904048  0.33886640  0.87408910  1
  O  O193  1  0.16097008  0.49943950  0.12566598  1
  O  O194  1  0.34570511  0.65786548  0.63157005  1
  O  O195  1  0.49114588  0.15254666  0.61962755  1
  O  O196  1  -0.00407985  0.00898744  0.87261925  1
  O  O197  1  0.33652604  0.02229261  0.62753338  1
  O  O198  1  0.00370254  -0.00782918  0.12478862  1
  O  O199  1  -0.00300186  0.34744935  0.86990200  1
  O  O200  1  0.84915640  0.82039443  0.88088735  1
  O  O201  1  0.67315186  0.69326420  0.12835125  1
  O  O202  1  0.50654607  0.15774832  0.86917918  1
  O  O203  1  0.33092167  0.66218440  0.12753452  1
  O  O204  1  0.84538833  0.15715629  0.36816094  1
  O  O205  1  0.17474853  0.15878362  0.37018320  1
  O  O206  1  0.83403172  0.48983258  0.37541662  1
  O  O207  1  0.83735154  0.48845117  0.87576853  1
  O  O208  1  0.66532778  0.68157221  0.62461104  1
  O  O209  1  0.83645691  0.48342268  0.12178010  1
  O  O210  1  0.84965830  0.17589367  0.87996665  1
  O  O211  1  -0.00146153  0.66020273  0.87844169  1
  O  O212  1  0.48122937  0.83612136  0.87285865  1
  O  O213  1  0.83085831  0.50429033  0.62697399  1
  O  O214  1  -0.01476674  0.33207982  0.38144800  1
  O  O215  1  0.33229638  0.02525630  0.37300059  1
