# generated using pymatgen
data_Sr24Ta24N11O13
_symmetry_space_group_name_H-M   'P 1'
_cell_length_a   16.72336899
_cell_length_b   16.76187584
_cell_length_c   15.75561041
_cell_angle_alpha   90.04940448
_cell_angle_beta   89.88956937
_cell_angle_gamma   90.15740020
_symmetry_Int_Tables_number   1
_chemical_formula_structural   Sr24Ta24N11O13
_chemical_formula_sum   'Sr72 Ta72 N33 O39'
_cell_volume   4416.50798857
_cell_formula_units_Z   3
loop_
 _symmetry_equiv_pos_site_id
 _symmetry_equiv_pos_as_xyz
  1  'x, y, z'
loop_
 _atom_site_type_symbol
 _atom_site_label
 _atom_site_symmetry_multiplicity
 _atom_site_fract_x
 _atom_site_fract_y
 _atom_site_fract_z
 _atom_site_occupancy
  Sr  Sr0  1  0.01372039  0.15478019  0.17136423  1
  Sr  Sr1  1  -0.01532849  0.16380073  0.61847278  1
  Sr  Sr2  1  -0.00024146  0.49495444  0.12613284  1
  Sr  Sr3  1  0.01151543  0.49636564  0.58483443  1
  Sr  Sr4  1  -0.00481959  0.84230878  0.08409677  1
  Sr  Sr5  1  -0.00813694  0.81776555  0.62881216  1
  Sr  Sr6  1  0.32594612  0.17233633  0.09847372  1
  Sr  Sr7  1  0.34212235  0.17418950  0.59651838  1
  Sr  Sr8  1  0.33421309  0.50184284  0.12178775  1
  Sr  Sr9  1  0.31729084  0.48943094  0.66769408  1
  Sr  Sr10  1  0.32368824  0.84345645  0.13656841  1
  Sr  Sr11  1  0.32203839  0.82885338  0.62914529  1
  Sr  Sr12  1  0.67002918  0.17719108  0.10836744  1
  Sr  Sr13  1  0.65590199  0.17116422  0.66926006  1
  Sr  Sr14  1  0.66434979  0.51250225  0.14832669  1
  Sr  Sr15  1  0.66562295  0.50199388  0.61482584  1
  Sr  Sr16  1  0.67461380  0.83829736  0.14038292  1
  Sr  Sr17  1  0.66197332  0.84690209  0.61475201  1
  Sr  Sr18  1  0.17502692  -0.00694467  0.11330542  1
  Sr  Sr19  1  0.15879651  0.01140214  0.65724414  1
  Sr  Sr20  1  0.16882734  0.34153012  0.12218895  1
  Sr  Sr21  1  0.16755271  0.32783651  0.62774294  1
  Sr  Sr22  1  0.19037797  0.67042721  0.16381872  1
  Sr  Sr23  1  0.15832761  0.67639614  0.61021860  1
  Sr  Sr24  1  0.50064513  -0.02061728  0.16113475  1
  Sr  Sr25  1  0.49497562  0.00214032  0.61850042  1
  Sr  Sr26  1  0.51781680  0.33538101  0.15120142  1
  Sr  Sr27  1  0.49680490  0.33852311  0.62847006  1
  Sr  Sr28  1  0.50005943  0.66547147  0.09883033  1
  Sr  Sr29  1  0.50636108  0.66070358  0.59542798  1
  Sr  Sr30  1  0.82958317  0.00327336  0.13049320  1
  Sr  Sr31  1  0.84473263  -0.01475989  0.57583126  1
  Sr  Sr32  1  0.83364016  0.32955887  0.08756916  1
  Sr  Sr33  1  0.83703900  0.32349358  0.63548764  1
  Sr  Sr34  1  0.84935355  0.65913477  0.12285733  1
  Sr  Sr35  1  0.81205584  0.68232522  0.67588433  1
  Sr  Sr36  1  -0.00873019  0.15944176  0.37802004  1
  Sr  Sr37  1  0.01660739  0.17898739  0.82656946  1
  Sr  Sr38  1  -0.00159137  0.51010440  0.37086675  1
  Sr  Sr39  1  -0.00698483  0.48623347  0.91878877  1
  Sr  Sr40  1  -0.00189800  0.82938892  0.40755475  1
  Sr  Sr41  1  -0.00676968  0.82710666  0.87337669  1
  Sr  Sr42  1  0.33922130  0.17553325  0.40136458  1
  Sr  Sr43  1  0.32395340  0.16736828  0.90667179  1
  Sr  Sr44  1  0.32697549  0.48535491  0.33211539  1
  Sr  Sr45  1  0.33468576  0.50243670  0.87833333  1
  Sr  Sr46  1  0.32162592  0.82987774  0.36819993  1
  Sr  Sr47  1  0.33067377  0.83966681  0.86426043  1
  Sr  Sr48  1  0.65246703  0.17708255  0.33532801  1
  Sr  Sr49  1  0.66795556  0.16474201  0.88357761  1
  Sr  Sr50  1  0.65543962  0.49435007  0.38790573  1
  Sr  Sr51  1  0.67658646  0.51828669  0.85189048  1
  Sr  Sr52  1  0.66865707  0.84665320  0.37593184  1
  Sr  Sr53  1  0.66276823  0.83077229  0.86606524  1
  Sr  Sr54  1  0.16793084  0.00208360  0.34009518  1
  Sr  Sr55  1  0.17543332  -0.00873699  0.89035099  1
  Sr  Sr56  1  0.16191456  0.32723807  0.36927401  1
  Sr  Sr57  1  0.17811835  0.34761843  0.88848288  1
  Sr  Sr58  1  0.16959086  0.67776246  0.38599077  1
  Sr  Sr59  1  0.18961020  0.67061308  0.82894599  1
  Sr  Sr60  1  0.49557242  -0.00197538  0.38122542  1
  Sr  Sr61  1  0.50924177  -0.01404619  0.83236926  1
  Sr  Sr62  1  0.50422472  0.33944141  0.37055465  1
  Sr  Sr63  1  0.50978140  0.31612305  0.87179922  1
  Sr  Sr64  1  0.50850311  0.66672651  0.40337875  1
  Sr  Sr65  1  0.49886455  0.66624767  0.90608713  1
  Sr  Sr66  1  0.83032017  -0.00086423  0.36670626  1
  Sr  Sr67  1  0.81920515  -0.00504538  0.92085062  1
  Sr  Sr68  1  0.83408231  0.34947306  0.41785309  1
  Sr  Sr69  1  0.83431852  0.32184654  0.86742109  1
  Sr  Sr70  1  0.81762706  0.65804853  0.32907410  1
  Sr  Sr71  1  0.85502119  0.65994120  0.88337444  1
  Ta  Ta72  1  0.12455660  0.16850759  0.00380732  1
  Ta  Ta73  1  0.15733014  0.14121764  0.49391342  1
  Ta  Ta74  1  0.17171037  0.54554307  -0.00191761  1
  Ta  Ta75  1  0.20707836  0.49420114  0.49825779  1
  Ta  Ta76  1  0.17048341  0.79244755  -0.00139153  1
  Ta  Ta77  1  0.16613151  0.87556322  0.49858946  1
  Ta  Ta78  1  0.49882541  0.11959459  -0.00432486  1
  Ta  Ta79  1  0.53856763  0.17217794  0.50119489  1
  Ta  Ta80  1  0.51126898  0.47656403  0.00636176  1
  Ta  Ta81  1  0.45048412  0.49342624  0.49505018  1
  Ta  Ta82  1  0.49865723  0.85870211  -0.00416213  1
  Ta  Ta83  1  0.48194800  0.83907572  0.49677714  1
  Ta  Ta84  1  0.89515701  0.16243939  -0.00246998  1
  Ta  Ta85  1  0.78972583  0.16829245  0.50223671  1
  Ta  Ta86  1  0.79721635  0.50214731  -0.00324198  1
  Ta  Ta87  1  0.82932410  0.54307437  0.50402072  1
  Ta  Ta88  1  0.81059582  0.81326990  0.00235024  1
  Ta  Ta89  1  0.82697548  0.79205534  0.49726209  1
  Ta  Ta90  1  0.20225715  0.17089776  0.24694963  1
  Ta  Ta91  1  0.21574396  0.17646061  0.75245412  1
  Ta  Ta92  1  0.15313392  0.50471642  0.24715551  1
  Ta  Ta93  1  0.12379531  0.49937829  0.75658955  1
  Ta  Ta94  1  0.12308514  0.83211387  0.24697957  1
  Ta  Ta95  1  0.14570189  0.84703267  0.74919049  1
  Ta  Ta96  1  0.46981070  0.15993339  0.24572387  1
  Ta  Ta97  1  0.45759145  0.16467470  0.75635456  1
  Ta  Ta98  1  0.49889309  0.53578727  0.25370098  1
  Ta  Ta99  1  0.50504938  0.52371805  0.74989325  1
  Ta  Ta100  1  0.49820769  0.79517965  0.25291051  1
  Ta  Ta101  1  0.49866909  0.79551390  0.74801491  1
  Ta  Ta102  1  0.83011717  0.20118168  0.24874635  1
  Ta  Ta103  1  0.83782475  0.09953380  0.75005429  1
  Ta  Ta104  1  0.83594712  0.46573165  0.24938116  1
  Ta  Ta105  1  0.86870193  0.49531585  0.75213718  1
  Ta  Ta106  1  0.87169296  0.83286065  0.24992281  1
  Ta  Ta107  1  0.83329391  0.88463270  0.74520593  1
  Ta  Ta108  1  -0.00160637  -0.03908296  0.24441341  1
  Ta  Ta109  1  -0.02683072  -0.01102127  0.75244211  1
  Ta  Ta110  1  -0.04197570  0.33433340  0.24790341  1
  Ta  Ta111  1  0.00306398  0.37473765  0.75029908  1
  Ta  Ta112  1  0.00571586  0.69448451  0.24880432  1
  Ta  Ta113  1  0.00376068  0.62140133  0.75043200  1
  Ta  Ta114  1  0.33638385  0.04123680  0.24370799  1
  Ta  Ta115  1  0.33070422  0.03705433  0.75630494  1
  Ta  Ta116  1  0.33600914  0.29865753  0.24961593  1
  Ta  Ta117  1  0.33536802  0.29721365  0.75401818  1
  Ta  Ta118  1  0.37269128  0.66568988  0.25721493  1
  Ta  Ta119  1  0.38301212  0.66493119  0.74946637  1
  Ta  Ta120  1  0.66516241  0.01542083  0.24729876  1
  Ta  Ta121  1  0.70186976  -0.00158664  0.75211821  1
  Ta  Ta122  1  0.71308311  0.34186587  0.25138762  1
  Ta  Ta123  1  0.66558400  0.35585596  0.74839096  1
  Ta  Ta124  1  0.63090542  0.67483179  0.25298284  1
  Ta  Ta125  1  0.61358200  0.66974234  0.74696547  1
  Ta  Ta126  1  0.00263430  0.03600882  0.00130605  1
  Ta  Ta127  1  0.03813360  0.00271770  0.49853263  1
  Ta  Ta128  1  0.00605630  0.28989269  0.00543884  1
  Ta  Ta129  1  0.01297882  0.31736924  0.50353877  1
  Ta  Ta130  1  0.05605655  0.66585056  -0.00069099  1
  Ta  Ta131  1  -0.06218849  0.66368249  0.50121618  1
  Ta  Ta132  1  0.37729258  -0.00507230  -0.00146210  1
  Ta  Ta133  1  0.30095926  -0.00378221  0.49916902  1
  Ta  Ta134  1  0.37010687  0.34860457  0.00900989  1
  Ta  Ta135  1  0.32842531  0.36836302  0.49550993  1
  Ta  Ta136  1  0.30746064  0.67316119  -0.00483209  1
  Ta  Ta137  1  0.33034380  0.61868009  0.49656029  1
  Ta  Ta138  1  0.62756179  -0.00819428  0.00000369  1
  Ta  Ta139  1  0.66190522  0.04875005  0.49754507  1
  Ta  Ta140  1  0.66110595  0.37600608  0.00548685  1
  Ta  Ta141  1  0.66035003  0.29347519  0.49741885  1
  Ta  Ta142  1  0.68857660  0.66725914  0.00587238  1
  Ta  Ta143  1  0.70701190  0.67045842  0.49540808  1
  N  N144  1  0.50202381  0.50302655  0.12687085  1
  N  N145  1  0.49364624  0.49772304  0.37851182  1
  N  N146  1  0.16326905  0.82975876  0.12601755  1
  N  N147  1  0.83487386  0.82712844  0.36896154  1
  N  N148  1  0.49622396  0.83736676  0.37656085  1
  N  N149  1  0.15994900  0.83715192  0.37517494  1
  N  N150  1  0.16819579  0.16266638  0.37408740  1
  N  N151  1  0.16614896  0.50608688  0.12663872  1
  N  N152  1  0.83529647  0.83046716  0.12039434  1
  N  N153  1  0.66680077  0.00111945  0.87245566  1
  N  N154  1  0.00248093  -0.00156879  0.12344292  1
  N  N155  1  0.16633531  0.83018915  0.87378893  1
  N  N156  1  0.66793938  0.00547794  0.11710021  1
  N  N157  1  0.66489176  0.01102718  0.37675156  1
  N  N158  1  0.67347799  0.33204436  0.37724939  1
  N  N159  1  0.82937200  0.83680903  0.62934875  1
  N  N160  1  0.16488704  0.16519995  0.12201677  1
  N  N161  1  0.33427324  0.33095221  0.37588038  1
  N  N162  1  -0.00542244  0.32557811  0.12832448  1
  N  N163  1  0.66741031  0.66663288  0.37819184  1
  N  N164  1  0.83813118  0.49746318  0.87751499  1
  N  N165  1  0.34407486  0.33964842  0.12735860  1
  N  N166  1  0.50152389  0.82857680  0.87665788  1
  N  N167  1  0.33593675  0.00268377  0.87521107  1
  N  N168  1  0.50137225  0.15584525  0.87177908  1
  N  N169  1  0.00093695  0.33309860  0.62495515  1
  N  N170  1  0.33277539  0.65766813  0.37426714  1
  N  N171  1  0.33892030  0.00523789  0.12456376  1
  N  N172  1  0.16288694  0.83423272  0.62259624  1
  N  N173  1  0.67369382  0.34390456  0.12537167  1
  N  N174  1  0.34261105  0.66520725  0.87350208  1
  N  N175  1  0.16544950  0.50519404  0.87511904  1
  N  N176  1  0.66942490  0.67019687  0.12657363  1
  O  O177  1  -0.01617008  0.64896180  0.62738192  1
  O  O178  1  0.34659146  0.64606342  0.62706802  1
  O  O179  1  0.66004835  0.66429887  0.62547816  1
  O  O180  1  0.16594781  0.17196337  0.87184278  1
  O  O181  1  0.00992944  0.64610663  0.87777524  1
  O  O182  1  0.18341316  0.16649743  0.62692937  1
  O  O183  1  0.49221989  0.15737529  0.12117869  1
  O  O184  1  0.34060516  0.66708038  0.12208825  1
  O  O185  1  -0.00902569  -0.00980246  0.87836945  1
  O  O186  1  0.00110751  0.33217974  0.87229671  1
  O  O187  1  0.84978785  0.17611344  0.12639629  1
  O  O188  1  0.31709525  0.01146656  0.62316354  1
  O  O189  1  0.16774354  0.49520792  0.62337632  1
  O  O190  1  0.66739378  0.35060418  0.87301030  1
  O  O191  1  0.00336739  -0.00026925  0.62172222  1
  O  O192  1  -0.01960834  0.67108308  0.37158017  1
  O  O193  1  0.34717976  0.32457719  0.88287190  1
  O  O194  1  0.85895986  0.14476535  0.86785462  1
  O  O195  1  -0.01011274  0.32349060  0.37677604  1
  O  O196  1  0.50069911  0.16478323  0.62791049  1
  O  O197  1  0.49951906  0.84349499  0.62797595  1
  O  O198  1  0.83214028  0.84455876  0.87619989  1
  O  O199  1  0.66136847  0.33955082  0.62291945  1
  O  O200  1  0.16057772  0.50223137  0.38054562  1
  O  O201  1  0.49624450  0.16590825  0.37236424  1
  O  O202  1  0.82639944  0.52320274  0.63520587  1
  O  O203  1  0.83893049  0.48530010  0.11839743  1
  O  O204  1  0.33376653  0.32933407  0.62358470  1
  O  O205  1  0.01281539  0.67408517  0.12226674  1
  O  O206  1  0.66404818  0.00900328  0.62204969  1
  O  O207  1  0.65349921  0.66965841  0.87077685  1
  O  O208  1  0.83569645  0.50157270  0.37295770  1
  O  O209  1  0.81378518  0.18199663  0.37929548  1
  O  O210  1  0.01384503  0.00191777  0.37132456  1
  O  O211  1  0.49387905  0.49999676  0.62350097  1
  O  O212  1  0.49702014  0.82648522  0.12783754  1
  O  O213  1  0.81869932  0.14883564  0.62693811  1
  O  O214  1  0.32252930  0.00986561  0.37513892  1
  O  O215  1  0.50396641  0.50540711  0.87325749  1
