# generated using pymatgen
data_Sr24Ta24N11O13
_symmetry_space_group_name_H-M   'P 1'
_cell_length_a   16.86487342
_cell_length_b   16.78757019
_cell_length_c   15.71394101
_cell_angle_alpha   90.20094848
_cell_angle_beta   90.26910924
_cell_angle_gamma   90.02596587
_symmetry_Int_Tables_number   1
_chemical_formula_structural   Sr24Ta24N11O13
_chemical_formula_sum   'Sr72 Ta72 N33 O39'
_cell_volume   4448.85792244
_cell_formula_units_Z   3
loop_
 _symmetry_equiv_pos_site_id
 _symmetry_equiv_pos_as_xyz
  1  'x, y, z'
loop_
 _atom_site_type_symbol
 _atom_site_label
 _atom_site_symmetry_multiplicity
 _atom_site_fract_x
 _atom_site_fract_y
 _atom_site_fract_z
 _atom_site_occupancy
  Sr  Sr0  1  -0.02398382  0.15344806  0.11015554  1
  Sr  Sr1  1  -0.00874038  0.16746685  0.65827254  1
  Sr  Sr2  1  -0.00325723  0.49755249  0.12976754  1
  Sr  Sr3  1  -0.01665906  0.49007345  0.58978105  1
  Sr  Sr4  1  0.00442742  0.83306062  0.15853349  1
  Sr  Sr5  1  0.00415588  0.83637445  0.61603230  1
  Sr  Sr6  1  0.33989497  0.17599500  0.13891450  1
  Sr  Sr7  1  0.31641336  0.15171083  0.58740327  1
  Sr  Sr8  1  0.33643481  0.49016000  0.08794246  1
  Sr  Sr9  1  0.31496226  0.49282898  0.63476986  1
  Sr  Sr10  1  0.31988303  0.81193957  0.10834277  1
  Sr  Sr11  1  0.34441338  0.82566524  0.66201125  1
  Sr  Sr12  1  0.65110023  0.19222645  0.08405581  1
  Sr  Sr13  1  0.65743158  0.15232743  0.63747097  1
  Sr  Sr14  1  0.65615381  0.49624012  0.16207440  1
  Sr  Sr15  1  0.66167773  0.50763510  0.63828052  1
  Sr  Sr16  1  0.67342535  0.83870457  0.13195057  1
  Sr  Sr17  1  0.65385939  0.82582427  0.58007530  1
  Sr  Sr18  1  0.18261657  0.01799909  0.10714668  1
  Sr  Sr19  1  0.16430527  -0.00525647  0.59206329  1
  Sr  Sr20  1  0.17524027  0.32798020  0.16162591  1
  Sr  Sr21  1  0.16316552  0.33497472  0.61676292  1
  Sr  Sr22  1  0.16227590  0.64909492  0.11524997  1
  Sr  Sr23  1  0.18385179  0.68473392  0.67006810  1
  Sr  Sr24  1  0.50054100  0.01119493  0.15523067  1
  Sr  Sr25  1  0.49624397  0.01115255  0.61451230  1
  Sr  Sr26  1  0.48981860  0.32847466  0.11570255  1
  Sr  Sr27  1  0.52879492  0.33570655  0.67589453  1
  Sr  Sr28  1  0.51738130  0.68270849  0.14196213  1
  Sr  Sr29  1  0.50752648  0.66086631  0.60402908  1
  Sr  Sr30  1  0.83664576  -0.01059807  0.12537413  1
  Sr  Sr31  1  0.85450106  0.00522514  0.66071554  1
  Sr  Sr32  1  0.83761868  0.33900566  0.13669354  1
  Sr  Sr33  1  0.82882613  0.33124376  0.58820264  1
  Sr  Sr34  1  0.84015501  0.66435193  0.08627890  1
  Sr  Sr35  1  0.85254231  0.67360273  0.63226830  1
  Sr  Sr36  1  -0.03589802  0.15897931  0.34310450  1
  Sr  Sr37  1  -0.00756987  0.15494905  0.88151601  1
  Sr  Sr38  1  0.00791920  0.49208726  0.36948923  1
  Sr  Sr39  1  -0.01771926  0.50741723  0.91156426  1
  Sr  Sr40  1  0.01346886  0.84524513  0.38568865  1
  Sr  Sr41  1  -0.01532793  0.82045241  0.82664411  1
  Sr  Sr42  1  0.34683702  0.17163725  0.36223884  1
  Sr  Sr43  1  0.32140450  0.16092356  0.89630333  1
  Sr  Sr44  1  0.33358513  0.50136394  0.41945182  1
  Sr  Sr45  1  0.31142237  0.48532985  0.86437079  1
  Sr  Sr46  1  0.32880498  0.80003410  0.34341885  1
  Sr  Sr47  1  0.33853365  0.82692065  0.87802378  1
  Sr  Sr48  1  0.66533178  0.17213971  0.41595549  1
  Sr  Sr49  1  0.64546970  0.17673855  0.85927691  1
  Sr  Sr50  1  0.64750901  0.49844231  0.36448920  1
  Sr  Sr51  1  0.66358739  0.51197108  0.84509894  1
  Sr  Sr52  1  0.65682508  0.83855453  0.36423420  1
  Sr  Sr53  1  0.68082351  0.82410088  0.91998811  1
  Sr  Sr54  1  0.17567097  0.00944873  0.38777942  1
  Sr  Sr55  1  0.17705104  0.00971488  0.90525549  1
  Sr  Sr56  1  0.18039681  0.33894299  0.39331948  1
  Sr  Sr57  1  0.15748079  0.31940718  0.83018168  1
  Sr  Sr58  1  0.15973881  0.68234046  0.33488242  1
  Sr  Sr59  1  0.17761119  0.66613481  0.88551412  1
  Sr  Sr60  1  0.50824577  0.01398588  0.39163988  1
  Sr  Sr61  1  0.49879476  0.00377639  0.83377377  1
  Sr  Sr62  1  0.50166856  0.33417875  0.34354238  1
  Sr  Sr63  1  0.48224835  0.32749483  0.89600493  1
  Sr  Sr64  1  0.50214255  0.66367955  0.37708651  1
  Sr  Sr65  1  0.51462228  0.69171540  0.89270874  1
  Sr  Sr66  1  0.84892486  -0.00940767  0.33814334  1
  Sr  Sr67  1  0.83871202  -0.00069979  0.87148329  1
  Sr  Sr68  1  0.83345395  0.33782298  0.36802948  1
  Sr  Sr69  1  0.85270461  0.32836804  0.91868846  1
  Sr  Sr70  1  0.86814069  0.68345538  0.41746162  1
  Sr  Sr71  1  0.83497668  0.65692365  0.86496776  1
  Ta  Ta72  1  0.15632225  0.20712756  -0.00359998  1
  Ta  Ta73  1  0.11319146  0.16960061  0.49951214  1
  Ta  Ta74  1  0.15865037  0.45109777  -0.00119539  1
  Ta  Ta75  1  0.16401932  0.55504696  0.50448983  1
  Ta  Ta76  1  0.12075251  0.83644818  -0.00596357  1
  Ta  Ta77  1  0.19438748  0.81154171  0.50661400  1
  Ta  Ta78  1  0.49111838  0.12816312  -0.00244043  1
  Ta  Ta79  1  0.49804197  0.21517748  0.50765681  1
  Ta  Ta80  1  0.52137494  0.51575050  0.00477698  1
  Ta  Ta81  1  0.50350453  0.45609818  0.50447516  1
  Ta  Ta82  1  0.50133365  0.88325522  -0.00353517  1
  Ta  Ta83  1  0.45923029  0.82966226  0.49626304  1
  Ta  Ta84  1  0.80353985  0.14576894  -0.00130402  1
  Ta  Ta85  1  0.84282671  0.14187732  0.49778512  1
  Ta  Ta86  1  0.79082085  0.49677788  0.00528377  1
  Ta  Ta87  1  0.79932308  0.51142115  0.49565016  1
  Ta  Ta88  1  0.87561999  0.83277950  0.00018115  1
  Ta  Ta89  1  0.83200106  0.87038626  0.50281512  1
  Ta  Ta90  1  0.13483839  0.16248478  0.25022922  1
  Ta  Ta91  1  0.17676419  0.13457450  0.75031931  1
  Ta  Ta92  1  0.20350281  0.49934335  0.25356192  1
  Ta  Ta93  1  0.11859481  0.49721617  0.74675356  1
  Ta  Ta94  1  0.17413233  0.87274472  0.24510432  1
  Ta  Ta95  1  0.17072567  0.87614097  0.75127331  1
  Ta  Ta96  1  0.54133702  0.16974196  0.25203330  1
  Ta  Ta97  1  0.45076888  0.17206175  0.74627848  1
  Ta  Ta98  1  0.45914008  0.50154517  0.25698320  1
  Ta  Ta99  1  0.48177621  0.52053220  0.75589982  1
  Ta  Ta100  1  0.48207649  0.85434046  0.25254956  1
  Ta  Ta101  1  0.54226140  0.82884077  0.75129779  1
  Ta  Ta102  1  0.77893264  0.16640043  0.24552758  1
  Ta  Ta103  1  0.82460930  0.21098291  0.75590542  1
  Ta  Ta104  1  0.83396098  0.54336853  0.24778007  1
  Ta  Ta105  1  0.84404882  0.47133196  0.75623955  1
  Ta  Ta106  1  0.83740340  0.79207633  0.24706077  1
  Ta  Ta107  1  0.78918120  0.83174664  0.74319310  1
  Ta  Ta108  1  0.03840194  0.00386651  0.24527356  1
  Ta  Ta109  1  0.04470039  -0.00332771  0.75128079  1
  Ta  Ta110  1  0.01762667  0.31399255  0.25733552  1
  Ta  Ta111  1  -0.02863160  0.35314075  0.74500663  1
  Ta  Ta112  1  -0.03081198  0.66370233  0.24340593  1
  Ta  Ta113  1  0.01171730  0.62735525  0.75021380  1
  Ta  Ta114  1  0.32969906  -0.02938215  0.25096149  1
  Ta  Ta115  1  0.30885778  0.01309477  0.74144497  1
  Ta  Ta116  1  0.33551075  0.37896057  0.25002495  1
  Ta  Ta117  1  0.33837939  0.30439587  0.74814847  1
  Ta  Ta118  1  0.33411450  0.61422115  0.25198780  1
  Ta  Ta119  1  0.37379499  0.64690185  0.75729087  1
  Ta  Ta120  1  0.66815633  0.04029201  0.25099720  1
  Ta  Ta121  1  0.66919063  -0.05251299  0.74500528  1
  Ta  Ta122  1  0.66739316  0.30243994  0.24546808  1
  Ta  Ta123  1  0.72040476  0.33926740  0.75794933  1
  Ta  Ta124  1  0.71773369  0.67094508  0.24725624  1
  Ta  Ta125  1  0.66575022  0.70205898  0.75494752  1
  Ta  Ta126  1  0.00258297  -0.04002658  -0.00425662  1
  Ta  Ta127  1  -0.01723169  0.02442006  0.49921627  1
  Ta  Ta128  1  0.04130892  0.33045477  0.00128527  1
  Ta  Ta129  1  -0.00119603  0.29226609  0.49740572  1
  Ta  Ta130  1  0.00721752  0.70567300  -0.00445117  1
  Ta  Ta131  1  0.05400993  0.67067386  0.50961693  1
  Ta  Ta132  1  0.37244916  -0.00747238  -0.00247563  1
  Ta  Ta133  1  0.33643593  -0.05522184  0.50074741  1
  Ta  Ta134  1  0.28676697  0.32709936  -0.00164939  1
  Ta  Ta135  1  0.38008340  0.33214348  0.50906271  1
  Ta  Ta136  1  0.36331521  0.64697878  -0.00442133  1
  Ta  Ta137  1  0.30874763  0.68096806  0.50008711  1
  Ta  Ta138  1  0.64356722  0.01225193  -0.00517965  1
  Ta  Ta139  1  0.72374245  -0.00106624  0.50124017  1
  Ta  Ta140  1  0.66601228  0.37862823  0.00234207  1
  Ta  Ta141  1  0.64144732  0.34909725  0.50330888  1
  Ta  Ta142  1  0.66643603  0.62986177  0.00551247  1
  Ta  Ta143  1  0.69109912  0.64765094  0.49611925  1
  N  N144  1  0.48577691  0.16499895  0.87348974  1
  N  N145  1  0.81784240  0.16318225  0.37844729  1
  N  N146  1  0.49223385  0.49387956  0.38290428  1
  N  N147  1  0.82924017  0.49930934  0.13243441  1
  N  N148  1  0.66203284  0.34317176  0.12649979  1
  N  N149  1  0.82912480  0.49560546  0.87669941  1
  N  N150  1  0.16030548  0.16534797  0.87082071  1
  N  N151  1  -0.01013681  0.33046191  0.62387635  1
  N  N152  1  0.00201121  -0.00391573  0.86834562  1
  N  N153  1  0.00416925  0.66582118  0.12424587  1
  N  N154  1  0.32082890  0.32497545  0.86819871  1
  N  N155  1  0.51201161  0.84673994  0.87353264  1
  N  N156  1  0.33083530  -0.00965004  0.61989316  1
  N  N157  1  0.33495213  0.66736266  0.87798530  1
  N  N158  1  0.00501575  0.00102400  0.37207374  1
  N  N159  1  0.01361402  0.67186852  0.62717641  1
  N  N160  1  0.50542850  0.17709446  0.37259805  1
  N  N161  1  0.49576350  0.17069005  0.62545706  1
  N  N162  1  0.83097755  0.83454286  0.62239564  1
  N  N163  1  0.49827606  0.83241450  0.37238761  1
  N  N164  1  0.00369871  0.66393281  0.87395990  1
  N  N165  1  0.32942296  0.65341442  0.37863145  1
  N  N166  1  0.67193307  0.67047344  0.87538125  1
  N  N167  1  0.81895262  0.16584766  0.12415774  1
  N  N168  1  0.84161310  0.82889738  0.12170809  1
  N  N169  1  -0.00502003  0.33561365  0.37595698  1
  N  N170  1  0.17608430  0.83662727  0.62836724  1
  N  N171  1  0.32880543  0.33799874  0.13002428  1
  N  N172  1  0.49876837  0.16614729  0.12270963  1
  N  N173  1  0.00591403  -0.00306189  0.12152265  1
  N  N174  1  0.67490713  0.66945660  0.12410028  1
  N  N175  1  0.82609126  0.17157908  0.87675617  1
  N  N176  1  0.00625851  0.00074103  0.62361774  1
  O  O177  1  0.50044718  0.82176890  0.61971241  1
  O  O178  1  0.01159559  0.67093789  0.37028691  1
  O  O179  1  0.68030419  -0.00747558  0.62319849  1
  O  O180  1  0.17771311  0.48400470  0.12881760  1
  O  O181  1  0.17902499  0.51572703  0.38034997  1
  O  O182  1  0.15500783  0.16933231  0.12359051  1
  O  O183  1  0.34276699  -0.00391362  0.87148974  1
  O  O184  1  0.65745230  0.33664989  0.37701020  1
  O  O185  1  0.83410014  0.17455488  0.63182962  1
  O  O186  1  0.34313692  0.65104619  0.12315750  1
  O  O187  1  0.49763710  0.50295817  0.62833362  1
  O  O188  1  0.67986872  0.01463633  0.37847552  1
  O  O189  1  0.34481021  0.33844630  0.37839494  1
  O  O190  1  0.31889383  0.33755663  0.61820997  1
  O  O191  1  0.81737954  0.49943116  0.37178285  1
  O  O192  1  0.14125816  0.16413091  0.37501887  1
  O  O193  1  0.16756633  0.85683003  0.11572840  1
  O  O194  1  0.82012436  0.49534545  0.62086108  1
  O  O195  1  0.16577024  0.83612875  0.87405945  1
  O  O196  1  0.14404581  0.49935856  0.62045246  1
  O  O197  1  0.67932430  0.34050525  0.87867955  1
  O  O198  1  0.14551825  0.16936715  0.62548752  1
  O  O199  1  0.50125164  0.50595542  0.12888624  1
  O  O200  1  0.50454382  0.50471366  0.87594329  1
  O  O201  1  0.65682408  0.01707263  0.12074124  1
  O  O202  1  0.00535596  0.33383270  0.87308233  1
  O  O203  1  0.84080827  0.83160996  0.37227289  1
  O  O204  1  0.34223329  -0.01193481  0.12714261  1
  O  O205  1  0.34149655  0.66308770  0.63288723  1
  O  O206  1  0.14056348  0.47588131  0.86857911  1
  O  O207  1  0.67822078  0.66704824  0.37384357  1
  O  O208  1  0.17299097  0.84196939  0.37016989  1
  O  O209  1  0.33141349  -0.01532616  0.37572407  1
  O  O210  1  0.67434699  0.34998442  0.62895077  1
  O  O211  1  0.65811795  -0.00974629  0.87018861  1
  O  O212  1  0.01618554  0.33365376  0.12993915  1
  O  O213  1  0.67464918  0.66575721  0.62205231  1
  O  O214  1  0.83273694  0.83267577  0.87414738  1
  O  O215  1  0.50665144  0.85033447  0.12426786  1
