# generated using pymatgen
data_Sr24Ta24N11O13
_symmetry_space_group_name_H-M   'P 1'
_cell_length_a   17.00609708
_cell_length_b   16.63795256
_cell_length_c   15.61558252
_cell_angle_alpha   89.77902544
_cell_angle_beta   89.61953882
_cell_angle_gamma   90.02549034
_symmetry_Int_Tables_number   1
_chemical_formula_structural   Sr24Ta24N11O13
_chemical_formula_sum   'Sr72 Ta72 N33 O39'
_cell_volume   4418.24579212
_cell_formula_units_Z   3
loop_
 _symmetry_equiv_pos_site_id
 _symmetry_equiv_pos_as_xyz
  1  'x, y, z'
loop_
 _atom_site_type_symbol
 _atom_site_label
 _atom_site_symmetry_multiplicity
 _atom_site_fract_x
 _atom_site_fract_y
 _atom_site_fract_z
 _atom_site_occupancy
  Sr  Sr0  1  -0.00910429  0.18284582  0.13650647  1
  Sr  Sr1  1  0.04054950  0.18069683  0.58243626  1
  Sr  Sr2  1  0.00684748  0.52238754  0.07734158  1
  Sr  Sr3  1  0.00692682  0.49685689  0.63297428  1
  Sr  Sr4  1  0.00114436  0.82762259  0.17432053  1
  Sr  Sr5  1  -0.01415644  0.84627423  0.60965667  1
  Sr  Sr6  1  0.36297235  0.17126149  0.13400222  1
  Sr  Sr7  1  0.34009632  0.15331838  0.64628672  1
  Sr  Sr8  1  0.34255564  0.48995099  0.14011168  1
  Sr  Sr9  1  0.33927310  0.50439301  0.63031959  1
  Sr  Sr10  1  0.32886937  0.83269603  0.13268977  1
  Sr  Sr11  1  0.34513272  0.84048196  0.57806030  1
  Sr  Sr12  1  0.67400053  0.16799644  0.08914078  1
  Sr  Sr13  1  0.68844191  0.15916553  0.62521212  1
  Sr  Sr14  1  0.68366144  0.47830245  0.16430824  1
  Sr  Sr15  1  0.67912611  0.50714749  0.60799064  1
  Sr  Sr16  1  0.67406694  0.82471372  0.11544837  1
  Sr  Sr17  1  0.63854376  0.82567849  0.68025681  1
  Sr  Sr18  1  0.14036813  0.01788866  0.12253997  1
  Sr  Sr19  1  0.16408242  -0.00252610  0.61998661  1
  Sr  Sr20  1  0.14491787  0.33273898  0.11911663  1
  Sr  Sr21  1  0.16052162  0.34529010  0.59875158  1
  Sr  Sr22  1  0.16643587  0.67134931  0.12076381  1
  Sr  Sr23  1  0.15685978  0.66432295  0.66710412  1
  Sr  Sr24  1  0.47834648  -0.01676090  0.15640823  1
  Sr  Sr25  1  0.48642400  0.00327927  0.61231493  1
  Sr  Sr26  1  0.49423853  0.33673032  0.12058713  1
  Sr  Sr27  1  0.45742923  0.32002001  0.66817354  1
  Sr  Sr28  1  0.49304254  0.66053973  0.08437362  1
  Sr  Sr29  1  0.49403818  0.65930963  0.63589688  1
  Sr  Sr30  1  0.81929747  0.01811601  0.07970004  1
  Sr  Sr31  1  0.81093574  -0.01658413  0.64513926  1
  Sr  Sr32  1  0.82634459  0.33404289  0.15832367  1
  Sr  Sr33  1  0.82016992  0.34126733  0.63146107  1
  Sr  Sr34  1  0.82723574  0.66941277  0.13370815  1
  Sr  Sr35  1  0.85535171  0.66598834  0.57217474  1
  Sr  Sr36  1  0.00275397  0.18351159  0.35312404  1
  Sr  Sr37  1  0.01620463  0.15798481  0.91517458  1
  Sr  Sr38  1  0.01463331  0.50737336  0.40630584  1
  Sr  Sr39  1  -0.00327381  0.49426055  0.86241525  1
  Sr  Sr40  1  -0.02600899  0.83510188  0.38706169  1
  Sr  Sr41  1  0.01476876  0.85289267  0.82104507  1
  Sr  Sr42  1  0.37496224  0.16802475  0.35490406  1
  Sr  Sr43  1  0.34138274  0.16563133  0.85691800  1
  Sr  Sr44  1  0.33174820  0.49317949  0.37860787  1
  Sr  Sr45  1  0.36848759  0.49631693  0.86560784  1
  Sr  Sr46  1  0.34654279  0.83495011  0.36803090  1
  Sr  Sr47  1  0.32171166  0.83171826  0.92204530  1
  Sr  Sr48  1  0.67321255  0.15054399  0.41620583  1
  Sr  Sr49  1  0.70013697  0.17005172  0.86766652  1
  Sr  Sr50  1  0.66560566  0.49472324  0.38455389  1
  Sr  Sr51  1  0.68568778  0.48964243  0.84401562  1
  Sr  Sr52  1  0.65998032  0.83637841  0.33309231  1
  Sr  Sr53  1  0.68884904  0.82318095  0.89185811  1
  Sr  Sr54  1  0.12382594  0.00579879  0.38797343  1
  Sr  Sr55  1  0.16425274  0.00626304  0.87160287  1
  Sr  Sr56  1  0.15634552  0.34294427  0.38629579  1
  Sr  Sr57  1  0.13519640  0.33131379  0.89964664  1
  Sr  Sr58  1  0.18259668  0.67519603  0.33233330  1
  Sr  Sr59  1  0.15650699  0.66823116  0.87992349  1
  Sr  Sr60  1  0.50253226  -0.00735222  0.37817477  1
  Sr  Sr61  1  0.47133251  -0.00626171  0.86156921  1
  Sr  Sr62  1  0.48649500  0.34128515  0.34168221  1
  Sr  Sr63  1  0.49507387  0.32140547  0.89409974  1
  Sr  Sr64  1  0.48565493  0.64563049  0.42678135  1
  Sr  Sr65  1  0.51754579  0.66233598  0.86240946  1
  Sr  Sr66  1  0.81040262  0.00645391  0.40326422  1
  Sr  Sr67  1  0.83561321  -0.00707368  0.86169738  1
  Sr  Sr68  1  0.80405258  0.32741873  0.37684019  1
  Sr  Sr69  1  0.83028511  0.34801906  0.83555491  1
  Sr  Sr70  1  0.82207000  0.67858111  0.35773883  1
  Sr  Sr71  1  0.84902763  0.65759168  0.91576948  1
  Ta  Ta72  1  0.20928844  0.17059588  0.00171754  1
  Ta  Ta73  1  0.21859887  0.16789621  0.49130913  1
  Ta  Ta74  1  0.20740589  0.49729455  -0.00135280  1
  Ta  Ta75  1  0.17484209  0.54372247  0.50154245  1
  Ta  Ta76  1  0.13263074  0.84581933  0.00111154  1
  Ta  Ta77  1  0.16597830  0.79521897  0.50351746  1
  Ta  Ta78  1  0.50591292  0.12716905  -0.00298062  1
  Ta  Ta79  1  0.49858344  0.19955931  0.51028291  1
  Ta  Ta80  1  0.55654363  0.49293497  -0.00433992  1
  Ta  Ta81  1  0.49852557  0.45111122  0.50956092  1
  Ta  Ta82  1  0.50882381  0.84948058  -0.00064119  1
  Ta  Ta83  1  0.54168274  0.82614858  0.50038247  1
  Ta  Ta84  1  0.84138255  0.21587842  -0.00179444  1
  Ta  Ta85  1  0.86297071  0.17542384  0.50440968  1
  Ta  Ta86  1  0.81689723  0.47733650  -0.00014661  1
  Ta  Ta87  1  0.85007464  0.48528972  0.49286709  1
  Ta  Ta88  1  0.87231670  0.83725890  -0.00512201  1
  Ta  Ta89  1  0.78197300  0.83626834  0.49740992  1
  Ta  Ta90  1  0.19736441  0.17102609  0.25994780  1
  Ta  Ta91  1  0.15515110  0.18371488  0.74299625  1
  Ta  Ta92  1  0.13946399  0.49705721  0.24130316  1
  Ta  Ta93  1  0.17882902  0.47921399  0.76010886  1
  Ta  Ta94  1  0.17545606  0.86384588  0.25877049  1
  Ta  Ta95  1  0.21843398  0.83668155  0.74849374  1
  Ta  Ta96  1  0.55171178  0.15438732  0.25335059  1
  Ta  Ta97  1  0.53795489  0.15690360  0.75086063  1
  Ta  Ta98  1  0.50374972  0.53335289  0.25828899  1
  Ta  Ta99  1  0.52930218  0.47669875  0.74195587  1
  Ta  Ta100  1  0.50102331  0.77144984  0.25040416  1
  Ta  Ta101  1  0.43931385  0.83420840  0.75036328  1
  Ta  Ta102  1  0.80821372  0.14502553  0.24529017  1
  Ta  Ta103  1  0.89305903  0.16796084  0.74505854  1
  Ta  Ta104  1  0.87843419  0.50724338  0.24766998  1
  Ta  Ta105  1  0.84200934  0.54754700  0.74432260  1
  Ta  Ta106  1  0.82442774  0.88551475  0.24682918  1
  Ta  Ta107  1  0.83389106  0.78304268  0.74885366  1
  Ta  Ta108  1  -0.05521092  0.00651804  0.25010023  1
  Ta  Ta109  1  0.00578971  0.05280384  0.74280324  1
  Ta  Ta110  1  -0.00154059  0.38559484  0.24428721  1
  Ta  Ta111  1  0.01000616  0.30125850  0.74731431  1
  Ta  Ta112  1  0.00319421  0.63294797  0.25410254  1
  Ta  Ta113  1  -0.03268611  0.67229879  0.74289992  1
  Ta  Ta114  1  0.28872087  0.00825336  0.25842147  1
  Ta  Ta115  1  0.32273361  -0.03796704  0.75162578  1
  Ta  Ta116  1  0.29713483  0.32470785  0.24962843  1
  Ta  Ta117  1  0.28197015  0.33788215  0.75914506  1
  Ta  Ta118  1  0.37206472  0.66189849  0.25302688  1
  Ta  Ta119  1  0.33036244  0.70546109  0.74779675  1
  Ta  Ta120  1  0.67813480  0.02221268  0.24444637  1
  Ta  Ta121  1  0.63487028  0.01045096  0.76861974  1
  Ta  Ta122  1  0.65418253  0.28034720  0.25927340  1
  Ta  Ta123  1  0.63372590  0.32398032  0.73813005  1
  Ta  Ta124  1  0.62275927  0.65472639  0.25721298  1
  Ta  Ta125  1  0.71707213  0.66030677  0.74816096  1
  Ta  Ta126  1  -0.00276599  -0.05400554  -0.00002137  1
  Ta  Ta127  1  -0.03844014  0.03008938  0.50276041  1
  Ta  Ta128  1  -0.04683122  0.34104525  -0.00227671  1
  Ta  Ta129  1  -0.03769374  0.33772518  0.49935374  1
  Ta  Ta130  1  0.00758479  0.73802371  -0.00223843  1
  Ta  Ta131  1  0.04897243  0.67425111  0.49691720  1
  Ta  Ta132  1  0.32632838  0.02306069  0.00673045  1
  Ta  Ta133  1  0.31145766  0.02316358  0.47743432  1
  Ta  Ta134  1  0.30718612  0.33115041  -0.00448289  1
  Ta  Ta135  1  0.34452014  0.31387832  0.50414745  1
  Ta  Ta136  1  0.31858585  0.64117387  0.00354427  1
  Ta  Ta137  1  0.29190199  0.66479527  0.50154489  1
  Ta  Ta138  1  0.62281219  -0.00591760  -0.01179787  1
  Ta  Ta139  1  0.65368097  -0.05521267  0.51073124  1
  Ta  Ta140  1  0.68681146  0.34745316  -0.00907696  1
  Ta  Ta141  1  0.61674742  0.32603632  0.51219529  1
  Ta  Ta142  1  0.67320721  0.61841134  0.00494519  1
  Ta  Ta143  1  0.66459833  0.70906818  0.49805337  1
  N  N144  1  0.52299716  0.49417114  0.87219551  1
  N  N145  1  0.82978096  0.17496462  0.12494556  1
  N  N146  1  0.33298005  0.33133434  0.12221651  1
  N  N147  1  0.49894670  0.49525950  0.37972686  1
  N  N148  1  0.49651391  0.50573504  0.61978967  1
  N  N149  1  0.84137893  0.50882031  0.61411232  1
  N  N150  1  0.31879570  -0.00966021  0.87718882  1
  N  N151  1  -0.00528475  0.33676684  0.61892762  1
  N  N152  1  0.68293132  -0.01335245  0.88035982  1
  N  N153  1  0.65222929  0.31561464  0.37969177  1
  N  N154  1  0.81387607  0.84550184  0.36953243  1
  N  N155  1  0.00958647  0.67416395  0.37002360  1
  N  N156  1  0.35449637  -0.00071929  0.36248490  1
  N  N157  1  0.66925960  0.32795149  0.86997509  1
  N  N158  1  -0.01251082  0.33375521  0.86896466  1
  N  N159  1  0.31337644  0.33225934  0.62562639  1
  N  N160  1  0.66128128  0.66535664  0.37909479  1
  N  N161  1  0.84245679  0.82636349  0.86991476  1
  N  N162  1  0.33336363  0.66293801  0.12510646  1
  N  N163  1  0.84109371  0.50564281  0.12834732  1
  N  N164  1  -0.01035003  0.34978274  0.12416095  1
  N  N165  1  0.34057165  0.32887779  0.86614506  1
  N  N166  1  0.33372942  0.66764473  0.37716705  1
  N  N167  1  0.84022656  0.50568432  0.87541115  1
  N  N168  1  0.50243362  0.15839392  0.62739811  1
  N  N169  1  0.18639701  0.16939178  0.62171570  1
  N  N170  1  0.67605466  0.31941922  0.61915616  1
  N  N171  1  0.32780488  0.33437484  0.37110357  1
  N  N172  1  0.00447385  0.67445102  0.62359832  1
  N  N173  1  0.32259969  -0.00129173  0.13224202  1
  N  N174  1  0.16857452  0.50504883  0.11763044  1
  N  N175  1  -0.02947332  0.01140185  0.37683654  1
  N  N176  1  0.33289974  0.67415136  0.62416249  1
  O  O177  1  0.68795769  0.67027342  0.62361296  1
  O  O178  1  0.83881060  0.17927524  0.63470465  1
  O  O179  1  0.32331730  -0.00590638  0.60642307  1
  O  O180  1  0.32065048  0.67406725  0.87901457  1
  O  O181  1  0.52154153  0.14172243  0.12271708  1
  O  O182  1  0.00263743  0.34025092  0.37274679  1
  O  O183  1  0.47892227  0.83715658  0.87907180  1
  O  O184  1  0.66024988  -0.00508415  0.37409648  1
  O  O185  1  0.83534358  0.17070813  0.37839300  1
  O  O186  1  0.85631711  0.17423168  0.87455271  1
  O  O187  1  0.18001596  0.16653815  0.87689137  1
  O  O188  1  0.82897460  0.82768861  0.62111445  1
  O  O189  1  0.19634211  0.16877922  0.13407609  1
  O  O190  1  0.00681118  0.70224349  0.87058411  1
  O  O191  1  0.00429906  0.00283359  0.86585062  1
  O  O192  1  0.17664797  0.50893404  0.63518868  1
  O  O193  1  0.50610017  0.81631176  0.37302840  1
  O  O194  1  0.69118437  0.64885286  0.88118621  1
  O  O195  1  0.65196255  -0.02287205  0.64291056  1
  O  O196  1  0.51639553  0.49326371  0.12097191  1
  O  O197  1  0.82121909  0.50558205  0.36682649  1
  O  O198  1  0.15500240  0.85669964  0.13415695  1
  O  O199  1  0.52391593  0.15109092  0.38735277  1
  O  O200  1  0.49045399  0.82664508  0.63023371  1
  O  O201  1  -0.01482463  -0.01526659  0.12536816  1
  O  O202  1  0.15429595  0.17856166  0.38449305  1
  O  O203  1  0.67161145  0.32201322  0.13329019  1
  O  O204  1  0.51348785  0.82016984  0.12409112  1
  O  O205  1  0.00963362  0.68256032  0.12936269  1
  O  O206  1  0.82524568  0.84613731  0.12262317  1
  O  O207  1  0.49074971  0.15985318  0.87627837  1
  O  O208  1  0.14722209  0.49517380  0.88223517  1
  O  O209  1  0.16853419  0.51836865  0.37012430  1
  O  O210  1  0.16921925  0.84069402  0.87316853  1
  O  O211  1  0.66593824  0.00817929  0.11618727  1
  O  O212  1  0.17762594  0.83743481  0.38076790  1
  O  O213  1  0.01287514  0.00767932  0.61855565  1
  O  O214  1  0.17360233  0.82576168  0.62700754  1
  O  O215  1  0.67086801  0.63657923  0.13215177  1
