# generated using pymatgen
data_Sr24Ta24N11O13
_symmetry_space_group_name_H-M   'P 1'
_cell_length_a   16.78035280
_cell_length_b   16.81758422
_cell_length_c   15.72015791
_cell_angle_alpha   89.96231943
_cell_angle_beta   89.79879298
_cell_angle_gamma   90.01220827
_symmetry_Int_Tables_number   1
_chemical_formula_structural   Sr24Ta24N11O13
_chemical_formula_sum   'Sr72 Ta72 N33 O39'
_cell_volume   4436.27868826
_cell_formula_units_Z   3
loop_
 _symmetry_equiv_pos_site_id
 _symmetry_equiv_pos_as_xyz
  1  'x, y, z'
loop_
 _atom_site_type_symbol
 _atom_site_label
 _atom_site_symmetry_multiplicity
 _atom_site_fract_x
 _atom_site_fract_y
 _atom_site_fract_z
 _atom_site_occupancy
  Sr  Sr0  1  -0.01249306  0.18774342  0.12549408  1
  Sr  Sr1  1  -0.00358429  0.18059196  0.65060187  1
  Sr  Sr2  1  0.00557492  0.50882635  0.08790815  1
  Sr  Sr3  1  -0.01076835  0.51808926  0.61472588  1
  Sr  Sr4  1  0.00839283  0.84641398  0.14123612  1
  Sr  Sr5  1  0.01091953  0.88565680  0.57586883  1
  Sr  Sr6  1  0.31993706  0.18076274  0.14251119  1
  Sr  Sr7  1  0.33194085  0.17050588  0.58002178  1
  Sr  Sr8  1  0.31805931  0.51219739  0.17241804  1
  Sr  Sr9  1  0.33937643  0.49507366  0.61550436  1
  Sr  Sr10  1  0.35029698  0.82420506  0.08019116  1
  Sr  Sr11  1  0.33031914  0.84758325  0.64264119  1
  Sr  Sr12  1  0.66449325  0.16130187  0.12731721  1
  Sr  Sr13  1  0.66379098  0.18013037  0.59460818  1
  Sr  Sr14  1  0.65343771  0.50716141  0.11172626  1
  Sr  Sr15  1  0.66853417  0.49154037  0.66481929  1
  Sr  Sr16  1  0.65148381  0.83034464  0.16481265  1
  Sr  Sr17  1  0.67913947  0.82351746  0.61216837  1
  Sr  Sr18  1  0.17653882  -0.02555990  0.13405143  1
  Sr  Sr19  1  0.18099710  0.00323778  0.61369467  1
  Sr  Sr20  1  0.14678778  0.32763522  0.11281464  1
  Sr  Sr21  1  0.16374102  0.31823672  0.65808788  1
  Sr  Sr22  1  0.16968342  0.65979010  0.14056181  1
  Sr  Sr23  1  0.16450600  0.64988296  0.64243382  1
  Sr  Sr24  1  0.50555914  -0.00760134  0.12077675  1
  Sr  Sr25  1  0.50310155  -0.01522824  0.66890691  1
  Sr  Sr26  1  0.51132633  0.33130146  0.08334931  1
  Sr  Sr27  1  0.50060597  0.35018009  0.64024240  1
  Sr  Sr28  1  0.50599943  0.65651388  0.13363854  1
  Sr  Sr29  1  0.49331338  0.68307723  0.57687988  1
  Sr  Sr30  1  0.85173414  -0.00605174  0.10713939  1
  Sr  Sr31  1  0.83024519  -0.00604750  0.61922098  1
  Sr  Sr32  1  0.81317506  0.32343358  0.17037127  1
  Sr  Sr33  1  0.84249815  0.32684342  0.60929677  1
  Sr  Sr34  1  0.84048840  0.65006129  0.08805039  1
  Sr  Sr35  1  0.82064369  0.66022746  0.64238936  1
  Sr  Sr36  1  -0.00850458  0.21310821  0.35044005  1
  Sr  Sr37  1  -0.00641750  0.17189362  0.86843150  1
  Sr  Sr38  1  -0.01224765  0.50976726  0.40993635  1
  Sr  Sr39  1  -0.00220385  0.52719625  0.88122233  1
  Sr  Sr40  1  0.01616889  0.84294139  0.35550039  1
  Sr  Sr41  1  -0.01775019  0.85696318  0.91888722  1
  Sr  Sr42  1  0.32721743  0.14929032  0.36330088  1
  Sr  Sr43  1  0.31646272  0.19816003  0.91788578  1
  Sr  Sr44  1  0.33875815  0.50387372  0.38501499  1
  Sr  Sr45  1  0.32619785  0.48847440  0.83264983  1
  Sr  Sr46  1  0.33960352  0.83341739  0.41625549  1
  Sr  Sr47  1  0.34477616  0.82936508  0.87213736  1
  Sr  Sr48  1  0.67050447  0.17421391  0.37633510  1
  Sr  Sr49  1  0.64888389  0.15944318  0.90305100  1
  Sr  Sr50  1  0.67356481  0.49585049  0.33659387  1
  Sr  Sr51  1  0.66004630  0.51170417  0.88487391  1
  Sr  Sr52  1  0.67129742  0.81714395  0.38507961  1
  Sr  Sr53  1  0.68662433  0.84214142  0.82447246  1
  Sr  Sr54  1  0.17696275  -0.01078069  0.38846288  1
  Sr  Sr55  1  0.18304380  -0.02064389  0.86672665  1
  Sr  Sr56  1  0.17929151  0.32477396  0.32798447  1
  Sr  Sr57  1  0.14815166  0.32740804  0.89035044  1
  Sr  Sr58  1  0.16176760  0.64695977  0.36597366  1
  Sr  Sr59  1  0.17650233  0.65849743  0.85833256  1
  Sr  Sr60  1  0.51483083  0.00619756  0.33194616  1
  Sr  Sr61  1  0.50324410  -0.00855742  0.87722352  1
  Sr  Sr62  1  0.48176648  0.31254955  0.43070069  1
  Sr  Sr63  1  0.50216264  0.35120572  0.86736918  1
  Sr  Sr64  1  0.51571499  0.66328355  0.36079423  1
  Sr  Sr65  1  0.49747065  0.66551132  0.91139165  1
  Sr  Sr66  1  0.84280329  -0.02980357  0.38854101  1
  Sr  Sr67  1  0.84237286  0.01118604  0.88227383  1
  Sr  Sr68  1  0.82526847  0.33486145  0.38012829  1
  Sr  Sr69  1  0.83372211  0.32112976  0.84288614  1
  Sr  Sr70  1  0.83734022  0.65379086  0.39508233  1
  Sr  Sr71  1  0.82695097  0.66069454  0.86662671  1
  Ta  Ta72  1  0.16052635  0.12975935  0.00632187  1
  Ta  Ta73  1  0.14539824  0.18992996  0.49006826  1
  Ta  Ta74  1  0.20602230  0.49690392  -0.00186107  1
  Ta  Ta75  1  0.16875393  0.46540928  0.49531792  1
  Ta  Ta76  1  0.16057635  0.80600301  0.00225738  1
  Ta  Ta77  1  0.16473794  0.79295759  0.50337346  1
  Ta  Ta78  1  0.47366209  0.15094710  0.00522884  1
  Ta  Ta79  1  0.50456266  0.11478095  0.49737249  1
  Ta  Ta80  1  0.44138091  0.50081367  0.00599646  1
  Ta  Ta81  1  0.53938563  0.50166957  0.50057882  1
  Ta  Ta82  1  0.55024609  0.83421318  -0.01076591  1
  Ta  Ta83  1  0.50803224  0.87620575  0.49923824  1
  Ta  Ta84  1  0.82755685  0.19694436  0.00312726  1
  Ta  Ta85  1  0.85455986  0.15093275  0.48808984  1
  Ta  Ta86  1  0.82525478  0.45694802  -0.00485268  1
  Ta  Ta87  1  0.79372333  0.49544505  0.50337060  1
  Ta  Ta88  1  0.79072048  0.82912132  -0.00177480  1
  Ta  Ta89  1  0.86131175  0.80264807  0.50238464  1
  Ta  Ta90  1  0.14052692  0.13500956  0.25272402  1
  Ta  Ta91  1  0.19660698  0.15378720  0.75051834  1
  Ta  Ta92  1  0.11858563  0.49569671  0.25107057  1
  Ta  Ta93  1  0.14016832  0.48059296  0.75283347  1
  Ta  Ta94  1  0.21797500  0.82361571  0.25041140  1
  Ta  Ta95  1  0.10362464  0.83334578  0.75003238  1
  Ta  Ta96  1  0.49694110  0.20294473  0.25762586  1
  Ta  Ta97  1  0.47598145  0.17527683  0.74829534  1
  Ta  Ta98  1  0.49605962  0.45872965  0.24996397  1
  Ta  Ta99  1  0.49663828  0.55236836  0.74205266  1
  Ta  Ta100  1  0.46282281  0.82934755  0.25576438  1
  Ta  Ta101  1  0.50554629  0.79165428  0.74552831  1
  Ta  Ta102  1  0.83283128  0.12814123  0.25340791  1
  Ta  Ta103  1  0.79676677  0.15946744  0.75083434  1
  Ta  Ta104  1  0.85853149  0.51546965  0.25088202  1
  Ta  Ta105  1  0.84800302  0.48187786  0.75178723  1
  Ta  Ta106  1  0.83637252  0.79788138  0.24968459  1
  Ta  Ta107  1  0.89120347  0.84084001  0.74243046  1
  Ta  Ta108  1  0.00120120  0.03264523  0.25942409  1
  Ta  Ta109  1  0.00974387  -0.01161388  0.75517384  1
  Ta  Ta110  1  -0.00925801  0.38711734  0.24582774  1
  Ta  Ta111  1  -0.00232177  0.37329745  0.74950993  1
  Ta  Ta112  1  -0.01793867  0.64885680  0.24903912  1
  Ta  Ta113  1  -0.00373514  0.70937978  0.75394452  1
  Ta  Ta114  1  0.33956900  -0.05436364  0.25008734  1
  Ta  Ta115  1  0.33917394  0.07138295  0.75233822  1
  Ta  Ta116  1  0.38540941  0.33488260  0.25324046  1
  Ta  Ta117  1  0.33605238  0.28060095  0.74796657  1
  Ta  Ta118  1  0.33946423  0.70689791  0.24902318  1
  Ta  Ta119  1  0.36995892  0.66791440  0.75316512  1
  Ta  Ta120  1  0.70217540  0.00192805  0.25033513  1
  Ta  Ta121  1  0.67877759  0.03723409  0.75375121  1
  Ta  Ta122  1  0.60957154  0.32875662  0.25982222  1
  Ta  Ta123  1  0.67201234  0.30174519  0.74737933  1
  Ta  Ta124  1  0.70921878  0.66398194  0.24424410  1
  Ta  Ta125  1  0.62577076  0.66681128  0.74609097  1
  Ta  Ta126  1  0.03294255  0.02767592  0.00969501  1
  Ta  Ta127  1  0.00578885  0.06192791  0.48207015  1
  Ta  Ta128  1  -0.05355044  0.33926128  0.00181896  1
  Ta  Ta129  1  0.04277649  0.33548995  0.50353296  1
  Ta  Ta130  1  0.02699509  0.69275742  -0.00228267  1
  Ta  Ta131  1  0.00792431  0.69823817  0.50406408  1
  Ta  Ta132  1  0.33550515  0.02736789  0.00463061  1
  Ta  Ta133  1  0.38412750  -0.00045104  0.50071591  1
  Ta  Ta134  1  0.33108549  0.37747676  0.00596040  1
  Ta  Ta135  1  0.27602130  0.33596211  0.49572217  1
  Ta  Ta136  1  0.32030016  0.63582075  0.00152456  1
  Ta  Ta137  1  0.30414361  0.67154011  0.50391238  1
  Ta  Ta138  1  0.67513763  -0.04278918  -0.00540291  1
  Ta  Ta139  1  0.63791224  0.00061603  0.50171490  1
  Ta  Ta140  1  0.70526160  0.33084139  0.00021173  1
  Ta  Ta141  1  0.66212221  0.37099841  0.50008133  1
  Ta  Ta142  1  0.67100736  0.70830680  -0.00603461  1
  Ta  Ta143  1  0.66948818  0.62597555  0.49993480  1
  N  N144  1  0.33679048  0.66637239  0.87490719  1
  N  N145  1  0.83225104  0.49738917  0.37073737  1
  N  N146  1  0.65051731  0.33040848  0.38039588  1
  N  N147  1  0.84842495  0.83750512  0.62613509  1
  N  N148  1  0.67192624  0.66561799  0.12311033  1
  N  N149  1  0.66323383  0.33102168  0.62960062  1
  N  N150  1  0.84573908  0.81626663  0.37143334  1
  N  N151  1  0.50374702  0.83469874  0.62610448  1
  N  N152  1  0.82301661  0.50179632  0.87693918  1
  N  N153  1  0.00603840  0.34369701  0.62225924  1
  N  N154  1  0.49997386  0.51111153  0.62154836  1
  N  N155  1  0.00828632  -0.00750327  0.38499469  1
  N  N156  1  0.17892162  0.81952375  0.12498237  1
  N  N157  1  0.17159123  0.16498734  0.36983997  1
  N  N158  1  0.01169963  0.00902639  0.87605404  1
  N  N159  1  0.83039319  0.18076637  0.37001418  1
  N  N160  1  0.16776188  0.49270917  0.87576465  1
  N  N161  1  0.66994888  -0.00047014  0.87403334  1
  N  N162  1  0.82945517  0.49807819  0.62549912  1
  N  N163  1  0.00612443  0.00245335  0.13010597  1
  N  N164  1  0.50188327  0.83587566  0.37577673  1
  N  N165  1  0.49712624  0.16010702  0.37857340  1
  N  N166  1  -0.00543956  0.68154903  0.87918376  1
  N  N167  1  0.82176142  0.16545972  0.87577861  1
  N  N168  1  0.66605263  0.67064105  0.87268750  1
  N  N169  1  0.67380557  0.65782537  0.36794876  1
  N  N170  1  0.50926436  0.83283624  0.87311121  1
  N  N171  1  0.48522921  0.49569340  0.12796258  1
  N  N172  1  0.82777343  0.16378725  0.12877250  1
  N  N173  1  0.33591563  0.66943823  0.12881800  1
  N  N174  1  -0.01966423  0.35025491  0.12626236  1
  N  N175  1  0.15827833  0.49101550  0.37135652  1
  N  N176  1  0.66306572  0.66536615  0.61914800  1
  O  O177  1  0.33869360  -0.00847128  0.12465634  1
  O  O178  1  0.32173187  0.66578519  0.37905006  1
  O  O179  1  0.65987780  0.32558119  0.12318760  1
  O  O180  1  0.50477803  0.83648610  0.11729328  1
  O  O181  1  0.32913969  0.33707208  0.37901723  1
  O  O182  1  -0.00521088  0.35831989  0.38409527  1
  O  O183  1  0.14887053  0.82881532  0.86803989  1
  O  O184  1  0.32070246  0.66625054  0.62889966  1
  O  O185  1  0.68787011  -0.01097363  0.12520310  1
  O  O186  1  0.35555455  -0.00960848  0.36932762  1
  O  O187  1  -0.00892370  0.33790529  0.87833548  1
  O  O188  1  0.49707283  0.16089110  0.62404950  1
  O  O189  1  0.66239010  0.32026684  0.88022661  1
  O  O190  1  0.00072949  0.66927419  0.37403271  1
  O  O191  1  0.48566947  0.17004421  0.88184182  1
  O  O192  1  0.17107707  0.49611327  0.62996025  1
  O  O193  1  0.16785658  0.16609069  0.13163119  1
  O  O194  1  0.35294385  0.02054972  0.63343307  1
  O  O195  1  0.34016444  0.33564078  0.86652386  1
  O  O196  1  0.65492621  0.00967116  0.62877424  1
  O  O197  1  0.35104394  0.33710105  0.12762701  1
  O  O198  1  0.82584013  0.15986740  0.61377649  1
  O  O199  1  0.33609293  0.03354239  0.87745064  1
  O  O200  1  0.16222276  0.49212000  0.12404028  1
  O  O201  1  0.00817724  0.67126693  0.62555521  1
  O  O202  1  0.15269763  0.81930818  0.62827348  1
  O  O203  1  0.01636222  0.02968341  0.61456802  1
  O  O204  1  0.49740150  0.50363914  0.37689517  1
  O  O205  1  0.48245518  0.16278653  0.13046884  1
  O  O206  1  0.17601574  0.16013080  0.62134520  1
  O  O207  1  0.31537934  0.31655852  0.62496860  1
  O  O208  1  0.83709184  0.83621408  0.87288681  1
  O  O209  1  0.47894201  0.50763848  0.87931739  1
  O  O210  1  0.17261442  0.14214647  0.87357669  1
  O  O211  1  -0.00416921  0.66558588  0.12281883  1
  O  O212  1  0.17619359  0.81286159  0.37680068  1
  O  O213  1  0.67186256  -0.00207725  0.37262840  1
  O  O214  1  0.83139053  0.82546966  0.11859097  1
  O  O215  1  0.83200124  0.49820552  0.11809806  1
