# generated using pymatgen
data_Sr24Ta24N11O13
_symmetry_space_group_name_H-M   'P 1'
_cell_length_a   17.57292341
_cell_length_b   16.49490461
_cell_length_c   15.23851909
_cell_angle_alpha   89.90124172
_cell_angle_beta   88.97707505
_cell_angle_gamma   89.43774621
_symmetry_Int_Tables_number   1
_chemical_formula_structural   Sr24Ta24N11O13
_chemical_formula_sum   'Sr72 Ta72 N33 O39'
_cell_volume   4416.17157395
_cell_formula_units_Z   3
loop_
 _symmetry_equiv_pos_site_id
 _symmetry_equiv_pos_as_xyz
  1  'x, y, z'
loop_
 _atom_site_type_symbol
 _atom_site_label
 _atom_site_symmetry_multiplicity
 _atom_site_fract_x
 _atom_site_fract_y
 _atom_site_fract_z
 _atom_site_occupancy
  Sr  Sr0  1  0.00422559  0.16931916  0.11660207  1
  Sr  Sr1  1  0.03507408  0.16797949  0.59586607  1
  Sr  Sr2  1  0.02959071  0.50612086  0.13759687  1
  Sr  Sr3  1  0.00123990  0.50847467  0.60858024  1
  Sr  Sr4  1  0.01975491  0.82220939  0.10535363  1
  Sr  Sr5  1  0.00394632  0.84442622  0.66468428  1
  Sr  Sr6  1  0.37697135  0.16408281  0.10183327  1
  Sr  Sr7  1  0.34656289  0.18043023  0.65276538  1
  Sr  Sr8  1  0.34329480  0.49949712  0.11639619  1
  Sr  Sr9  1  0.37923459  0.50163715  0.59051242  1
  Sr  Sr10  1  0.35265986  0.84348453  0.14004362  1
  Sr  Sr11  1  0.33395858  0.83935949  0.61097825  1
  Sr  Sr12  1  0.69117910  0.18554562  0.13505697  1
  Sr  Sr13  1  0.66692657  0.16583259  0.61670186  1
  Sr  Sr14  1  0.70272948  0.50212098  0.10853239  1
  Sr  Sr15  1  0.67659374  0.51587465  0.64990517  1
  Sr  Sr16  1  0.67440278  0.83472471  0.12485500  1
  Sr  Sr17  1  0.71517873  0.83421590  0.58269359  1
  Sr  Sr18  1  0.14649323  -0.01088885  0.13396056  1
  Sr  Sr19  1  0.15804858  -0.01541121  0.60587630  1
  Sr  Sr20  1  0.13200329  0.32313298  0.13863552  1
  Sr  Sr21  1  0.15790202  0.33027182  0.63218162  1
  Sr  Sr22  1  0.15556653  0.66481608  0.11173473  1
  Sr  Sr23  1  0.11712414  0.67040466  0.67047533  1
  Sr  Sr24  1  0.48764987  -0.00961258  0.10689439  1
  Sr  Sr25  1  0.46077485  0.00030409  0.66383201  1
  Sr  Sr26  1  0.48299787  0.33576325  0.13677901  1
  Sr  Sr27  1  0.49238060  0.32281708  0.60049758  1
  Sr  Sr28  1  0.46219979  0.65621699  0.15069104  1
  Sr  Sr29  1  0.49134406  0.66269013  0.62941630  1
  Sr  Sr30  1  0.79285935  0.00095266  0.16072187  1
  Sr  Sr31  1  0.83529334  0.00266249  0.62067085  1
  Sr  Sr32  1  0.83123622  0.32973997  0.10797850  1
  Sr  Sr33  1  0.78820115  0.33205323  0.67333602  1
  Sr  Sr34  1  0.81698579  0.67556391  0.12941270  1
  Sr  Sr35  1  0.82638004  0.65037939  0.60390739  1
  Sr  Sr36  1  0.01841201  0.16147404  0.37296454  1
  Sr  Sr37  1  0.01323856  0.18096661  0.89970136  1
  Sr  Sr38  1  0.00283711  0.50116794  0.38748168  1
  Sr  Sr39  1  0.04983683  0.49704040  0.82640309  1
  Sr  Sr40  1  0.03450548  0.83123572  0.34016319  1
  Sr  Sr41  1  -0.00037964  0.82442281  0.87881819  1
  Sr  Sr42  1  0.36438029  0.17722110  0.35858272  1
  Sr  Sr43  1  0.34047376  0.17096429  0.86789059  1
  Sr  Sr44  1  0.35337158  0.49598830  0.36576956  1
  Sr  Sr45  1  0.34564467  0.51529197  0.89254605  1
  Sr  Sr46  1  0.33388932  0.83489909  0.39310212  1
  Sr  Sr47  1  0.37803363  0.83691808  0.83647581  1
  Sr  Sr48  1  0.67601671  0.17065282  0.38725760  1
  Sr  Sr49  1  0.70698889  0.16243269  0.83726676  1
  Sr  Sr50  1  0.70451616  0.51364254  0.35746385  1
  Sr  Sr51  1  0.67074068  0.51315911  0.86790534  1
  Sr  Sr52  1  0.68984024  0.83848291  0.36137300  1
  Sr  Sr53  1  0.67385251  0.84422386  0.90109165  1
  Sr  Sr54  1  0.16292172  -0.00346181  0.37693564  1
  Sr  Sr55  1  0.12240602  -0.00847046  0.90772335  1
  Sr  Sr56  1  0.13531688  0.33495983  0.38535850  1
  Sr  Sr57  1  0.15919524  0.31707081  0.84841089  1
  Sr  Sr58  1  0.14057950  0.65137860  0.36836295  1
  Sr  Sr59  1  0.16441932  0.66132755  0.88714449  1
  Sr  Sr60  1  0.46833998  -0.01134442  0.36711077  1
  Sr  Sr61  1  0.50307793  0.00059228  0.88445883  1
  Sr  Sr62  1  0.49157447  0.33029888  0.38036726  1
  Sr  Sr63  1  0.45477191  0.33560837  0.91254798  1
  Sr  Sr64  1  0.45694723  0.66780949  0.39591375  1
  Sr  Sr65  1  0.49352938  0.65454757  0.84604556  1
  Sr  Sr66  1  0.81202451  0.00922636  0.39565274  1
  Sr  Sr67  1  0.82409077  -0.01160167  0.83898317  1
  Sr  Sr68  1  0.80769542  0.32708297  0.35010487  1
  Sr  Sr69  1  0.83145201  0.32002567  0.89303355  1
  Sr  Sr70  1  0.82757491  0.66952145  0.38092539  1
  Sr  Sr71  1  0.79175412  0.67395729  0.91368029  1
  Ta  Ta72  1  0.20050918  0.16035461  0.00928394  1
  Ta  Ta73  1  0.21316224  0.17081002  0.49891614  1
  Ta  Ta74  1  0.17418219  0.47146037  -0.01207142  1
  Ta  Ta75  1  0.20315520  0.50208629  0.52032291  1
  Ta  Ta76  1  0.22001113  0.83539954  -0.01900515  1
  Ta  Ta77  1  0.14685498  0.80467547  0.51020108  1
  Ta  Ta78  1  0.55736938  0.17671548  -0.01967213  1
  Ta  Ta79  1  0.50042693  0.13196459  0.51046894  1
  Ta  Ta80  1  0.52772568  0.50735928  0.00520006  1
  Ta  Ta81  1  0.55655652  0.50583502  0.49298376  1
  Ta  Ta82  1  0.50097098  0.79572968  -0.00031996  1
  Ta  Ta83  1  0.53580563  0.83371604  0.50814296  1
  Ta  Ta84  1  0.83681939  0.12557390  0.00023256  1
  Ta  Ta85  1  0.85128628  0.19801507  0.51130214  1
  Ta  Ta86  1  0.89027152  0.50335575  -0.02448726  1
  Ta  Ta87  1  0.82798539  0.45502478  0.51038227  1
  Ta  Ta88  1  0.84559976  0.86511119  0.01113975  1
  Ta  Ta89  1  0.89031760  0.83545833  0.49291086  1
  Ta  Ta90  1  0.21380870  0.16399082  0.23326740  1
  Ta  Ta91  1  0.16436368  0.12698167  0.75925445  1
  Ta  Ta92  1  0.19818020  0.49080848  0.25220796  1
  Ta  Ta93  1  0.22399228  0.50681662  0.72805424  1
  Ta  Ta94  1  0.20067343  0.82261213  0.25350578  1
  Ta  Ta95  1  0.19521365  0.83942809  0.76533226  1
  Ta  Ta96  1  0.53451893  0.15773092  0.25294129  1
  Ta  Ta97  1  0.52443380  0.18720275  0.76707094  1
  Ta  Ta98  1  0.54098277  0.50207507  0.26277168  1
  Ta  Ta99  1  0.50257741  0.46425291  0.75141527  1
  Ta  Ta100  1  0.52522469  0.82220733  0.26357358  1
  Ta  Ta101  1  0.55793518  0.83240708  0.72923441  1
  Ta  Ta102  1  0.86641638  0.16278436  0.25312002  1
  Ta  Ta103  1  0.88725471  0.16874396  0.74318287  1
  Ta  Ta104  1  0.86978483  0.49666388  0.24168506  1
  Ta  Ta105  1  0.86545232  0.50025796  0.77491797  1
  Ta  Ta106  1  0.87090096  0.83900499  0.25628363  1
  Ta  Ta107  1  0.82540153  0.80017627  0.75351278  1
  Ta  Ta108  1  -0.03925659  -0.00245894  0.25229990  1
  Ta  Ta109  1  0.00356190  0.03431295  0.74692537  1
  Ta  Ta110  1  -0.03362603  0.33819510  0.24501093  1
  Ta  Ta111  1  -0.03240656  0.32863474  0.73881992  1
  Ta  Ta112  1  -0.02991907  0.66400665  0.23925053  1
  Ta  Ta113  1  -0.06123203  0.65273219  0.77574336  1
  Ta  Ta114  1  0.30730523  0.01665878  0.23726763  1
  Ta  Ta115  1  0.27965287  -0.00123836  0.76805751  1
  Ta  Ta116  1  0.29376826  0.33008236  0.23435389  1
  Ta  Ta117  1  0.33467506  0.36846773  0.74905445  1
  Ta  Ta118  1  0.29398336  0.66883170  0.26010366  1
  Ta  Ta119  1  0.30309313  0.66153017  0.72502002  1
  Ta  Ta120  1  0.62099022  0.00340622  0.25114785  1
  Ta  Ta121  1  0.64471717  -0.02443575  0.73430828  1
  Ta  Ta122  1  0.63912609  0.35213608  0.24466080  1
  Ta  Ta123  1  0.61152934  0.33229535  0.77611408  1
  Ta  Ta124  1  0.62260448  0.66745451  0.24692325  1
  Ta  Ta125  1  0.66700275  0.70530784  0.74367310  1
  Ta  Ta126  1  -0.05370803  -0.00175283  0.00995701  1
  Ta  Ta127  1  -0.00939113  -0.03137806  0.48507088  1
  Ta  Ta128  1  0.00294092  0.37372213  -0.01293898  1
  Ta  Ta129  1  -0.05711185  0.33306410  0.51105313  1
  Ta  Ta130  1  -0.02271578  0.63929986  -0.02147394  1
  Ta  Ta131  1  -0.00335902  0.70604790  0.50329854  1
  Ta  Ta132  1  0.30095690  -0.00412221  -0.01430571  1
  Ta  Ta133  1  0.32434952  0.03639495  0.50988814  1
  Ta  Ta134  1  0.28112937  0.32689188  0.00578116  1
  Ta  Ta135  1  0.30382096  0.32983544  0.49813821  1
  Ta  Ta136  1  0.33877450  0.70161325  -0.01007646  1
  Ta  Ta137  1  0.27105221  0.65769811  0.51935915  1
  Ta  Ta138  1  0.67501295  0.02842274  -0.01027101  1
  Ta  Ta139  1  0.61217831  -0.00976104  0.51484787  1
  Ta  Ta140  1  0.62972950  0.33574816  -0.02296261  1
  Ta  Ta141  1  0.67168096  0.36187111  0.50630068  1
  Ta  Ta142  1  0.61176010  0.66654589  0.01476499  1
  Ta  Ta143  1  0.63342654  0.67094814  0.48450536  1
  N  N144  1  0.49336126  0.83027169  0.38951497  1
  N  N145  1  0.82844662  0.83336287  0.88605142  1
  N  N146  1  0.17767261  0.83099706  0.38086788  1
  N  N147  1  -0.01152073  0.66518366  0.11301185  1
  N  N148  1  0.33952626  0.33511996  0.11631768  1
  N  N149  1  0.14659118  0.82609787  0.88814116  1
  N  N150  1  0.31470260  0.33284284  0.87277166  1
  N  N151  1  0.01564110  0.00184836  0.36160338  1
  N  N152  1  0.50197319  0.50204958  0.88288731  1
  N  N153  1  0.66593024  0.66803028  0.12908801  1
  N  N154  1  0.66781094  0.00068484  0.86301226  1
  N  N155  1  0.83041016  0.83292099  0.38466824  1
  N  N156  1  0.85354208  0.16116241  0.86467905  1
  N  N157  1  0.16474493  0.15891264  0.88897501  1
  N  N158  1  0.49854588  0.49742836  0.38346651  1
  N  N159  1  0.16059261  0.82964333  0.64120384  1
  N  N160  1  0.19123017  0.49788630  0.86355366  1
  N  N161  1  -0.01408826  0.33803916  0.11723139  1
  N  N162  1  0.51405023  0.16671450  0.37960194  1
  N  N163  1  0.02358509  0.66338051  0.85720290  1
  N  N164  1  0.33760775  0.33405576  0.61717110  1
  N  N165  1  0.85239975  0.83116186  0.63107630  1
  N  N166  1  0.31511936  0.00690335  0.63455714  1
  N  N167  1  0.48272282  0.16073206  0.89198057  1
  N  N168  1  0.83856306  0.16798302  0.12271327  1
  N  N169  1  0.82070348  0.83441152  0.14194609  1
  N  N170  1  0.30662076  0.66375992  0.38706664  1
  N  N171  1  0.00374308  0.33454374  0.85828297  1
  N  N172  1  0.35074052  0.67595100  0.60828168  1
  N  N173  1  0.84126577  0.17083203  0.38685141  1
  N  N174  1  0.33325671  -0.00087370  0.10790796  1
  N  N175  1  0.52285746  0.49764174  0.62544341  1
  N  N176  1  0.50389904  0.16618515  0.63848808  1
  O  O177  1  0.32064762  0.00842774  0.37246942  1
  O  O178  1  0.01735209  0.35289691  0.62015916  1
  O  O179  1  0.00600116  0.00864954  0.61571802  1
  O  O180  1  0.34243878  0.67923318  0.85801257  1
  O  O181  1  0.80628867  0.48174346  0.88905471  1
  O  O182  1  0.33737531  0.33317189  0.36152169  1
  O  O183  1  0.36154126  -0.00436524  0.86043928  1
  O  O184  1  0.51925218  0.81644833  0.86841674  1
  O  O185  1  0.18523934  0.49089915  0.38529753  1
  O  O186  1  0.14038733  0.48976221  0.63763449  1
  O  O187  1  0.63284829  -0.00572969  0.38472040  1
  O  O188  1  0.65075082  0.34243475  0.63594239  1
  O  O189  1  -0.01037718  0.66207295  0.37923641  1
  O  O190  1  0.64479592  0.34371226  0.11275658  1
  O  O191  1  0.00403258  0.00153448  0.12216513  1
  O  O192  1  0.52708584  0.17532099  0.11311688  1
  O  O193  1  0.19201310  0.83423673  0.11541653  1
  O  O194  1  0.19577119  0.17095600  0.36929012  1
  O  O195  1  0.84657569  0.48403609  0.37379220  1
  O  O196  1  0.68440209  0.67494058  0.36537153  1
  O  O197  1  0.18260090  0.16870067  0.63225845  1
  O  O198  1  0.85498316  0.49780428  0.11222557  1
  O  O199  1  0.64916165  0.67825918  0.87338222  1
  O  O200  1  0.81051726  0.16871122  0.63870767  1
  O  O201  1  0.69443126  0.35218396  0.86536488  1
  O  O202  1  0.49907941  0.82557299  0.12865901  1
  O  O203  1  0.32101534  0.67837287  0.11773558  1
  O  O204  1  0.18349491  0.50263946  0.12354116  1
  O  O205  1  0.14305311  0.14869419  0.13269702  1
  O  O206  1  0.47974713  0.82510301  0.63286641  1
  O  O207  1  0.66198140  0.34198478  0.37300330  1
  O  O208  1  0.83046862  0.48639602  0.64235177  1
  O  O209  1  0.64243429  -0.00098684  0.12050377  1
  O  O210  1  0.69234431  0.00549003  0.61727615  1
  O  O211  1  -0.01833559  0.00988364  0.87448324  1
  O  O212  1  -0.01762093  0.34005245  0.38594755  1
  O  O213  1  0.48962691  0.49784622  0.13948617  1
  O  O214  1  -0.02540263  0.66425553  0.63158731  1
  O  O215  1  0.67469286  0.67708525  0.61386418  1
