# generated using pymatgen
data_Sr24Ta24N11O13
_symmetry_space_group_name_H-M   'P 1'
_cell_length_a   16.97815718
_cell_length_b   16.76914136
_cell_length_c   15.61905612
_cell_angle_alpha   89.85547713
_cell_angle_beta   89.90612654
_cell_angle_gamma   90.29458479
_symmetry_Int_Tables_number   1
_chemical_formula_structural   Sr24Ta24N11O13
_chemical_formula_sum   'Sr72 Ta72 N33 O39'
_cell_volume   4446.80870364
_cell_formula_units_Z   3
loop_
 _symmetry_equiv_pos_site_id
 _symmetry_equiv_pos_as_xyz
  1  'x, y, z'
loop_
 _atom_site_type_symbol
 _atom_site_label
 _atom_site_symmetry_multiplicity
 _atom_site_fract_x
 _atom_site_fract_y
 _atom_site_fract_z
 _atom_site_occupancy
  Sr  Sr0  1  0.00472203  0.17690063  0.14075157  1
  Sr  Sr1  1  -0.00440948  0.16476532  0.58659885  1
  Sr  Sr2  1  0.00737672  0.51791100  0.08404355  1
  Sr  Sr3  1  -0.00486742  0.48915685  0.63941106  1
  Sr  Sr4  1  -0.02769704  0.82819172  0.16031223  1
  Sr  Sr5  1  -0.02866429  0.84526290  0.62773670  1
  Sr  Sr6  1  0.32805122  0.17651505  0.10484868  1
  Sr  Sr7  1  0.30898973  0.18208191  0.64050131  1
  Sr  Sr8  1  0.30545258  0.50891998  0.13190813  1
  Sr  Sr9  1  0.33429885  0.51479216  0.65581248  1
  Sr  Sr10  1  0.31162274  0.85070277  0.14040132  1
  Sr  Sr11  1  0.31669143  0.84026708  0.59376415  1
  Sr  Sr12  1  0.64248677  0.17153359  0.15132756  1
  Sr  Sr13  1  0.66476047  0.17192527  0.62316445  1
  Sr  Sr14  1  0.68707568  0.50256447  0.13858234  1
  Sr  Sr15  1  0.64885346  0.50982112  0.59679120  1
  Sr  Sr16  1  0.66763835  0.85335595  0.09165308  1
  Sr  Sr17  1  0.63477677  0.83177108  0.64506510  1
  Sr  Sr18  1  0.18270201  0.01766651  0.09334792  1
  Sr  Sr19  1  0.17964867  -0.01103609  0.65043037  1
  Sr  Sr20  1  0.18777460  0.32488963  0.18322405  1
  Sr  Sr21  1  0.14775001  0.33832037  0.61211055  1
  Sr  Sr22  1  0.16360281  0.66580976  0.12977896  1
  Sr  Sr23  1  0.19142738  0.66712734  0.59488050  1
  Sr  Sr24  1  0.51499477  -0.00893223  0.15381608  1
  Sr  Sr25  1  0.50289326  -0.02812307  0.59835254  1
  Sr  Sr26  1  0.50539883  0.31326867  0.08610830  1
  Sr  Sr27  1  0.51437084  0.31927397  0.62081179  1
  Sr  Sr28  1  0.54357987  0.64360493  0.09797443  1
  Sr  Sr29  1  0.50043920  0.64760642  0.65184613  1
  Sr  Sr30  1  0.84726753  -0.00454453  0.10598609  1
  Sr  Sr31  1  0.84037326  0.00382491  0.62692637  1
  Sr  Sr32  1  0.85184440  0.34324619  0.11332937  1
  Sr  Sr33  1  0.83009368  0.33252495  0.66507971  1
  Sr  Sr34  1  0.84347609  0.67051916  0.15416361  1
  Sr  Sr35  1  0.84234622  0.66248785  0.61263537  1
  Sr  Sr36  1  -0.00374164  0.17463948  0.36455901  1
  Sr  Sr37  1  -0.00906676  0.15081795  0.92827053  1
  Sr  Sr38  1  0.01517513  0.50975629  0.42307321  1
  Sr  Sr39  1  -0.00274009  0.49540124  0.86544512  1
  Sr  Sr40  1  -0.03173408  0.83416214  0.37548929  1
  Sr  Sr41  1  -0.01392196  0.84093153  0.83770485  1
  Sr  Sr42  1  0.31532597  0.20983921  0.38895499  1
  Sr  Sr43  1  0.31924255  0.16185569  0.87084683  1
  Sr  Sr44  1  0.32596205  0.50945438  0.33723596  1
  Sr  Sr45  1  0.32413024  0.51524860  0.87291811  1
  Sr  Sr46  1  0.34638915  0.83642144  0.36785245  1
  Sr  Sr47  1  0.29919107  0.83773772  0.90474712  1
  Sr  Sr48  1  0.65315197  0.17338062  0.37937631  1
  Sr  Sr49  1  0.67813139  0.18291895  0.84149164  1
  Sr  Sr50  1  0.68174672  0.50609740  0.36676406  1
  Sr  Sr51  1  0.64313661  0.49651208  0.91918369  1
  Sr  Sr52  1  0.63808674  0.85653560  0.37302073  1
  Sr  Sr53  1  0.65709451  0.82935397  0.88349945  1
  Sr  Sr54  1  0.19275534  -0.02917993  0.37816357  1
  Sr  Sr55  1  0.17245061  -0.00580589  0.87071809  1
  Sr  Sr56  1  0.14356439  0.33158211  0.39463036  1
  Sr  Sr57  1  0.17674626  0.34575973  0.82506093  1
  Sr  Sr58  1  0.18381306  0.67058565  0.36409034  1
  Sr  Sr59  1  0.17427230  0.65515740  0.91785942  1
  Sr  Sr60  1  0.50113600  0.00089358  0.36798538  1
  Sr  Sr61  1  0.51612488  -0.03125900  0.87972445  1
  Sr  Sr62  1  0.51428964  0.33119701  0.40841885  1
  Sr  Sr63  1  0.50847655  0.30712626  0.87673304  1
  Sr  Sr64  1  0.51939021  0.62687322  0.35486775  1
  Sr  Sr65  1  0.50429876  0.65299157  0.86933542  1
  Sr  Sr66  1  0.85979440  0.00497972  0.38465740  1
  Sr  Sr67  1  0.83177853  -0.00690835  0.87838509  1
  Sr  Sr68  1  0.82096526  0.32854793  0.32879262  1
  Sr  Sr69  1  0.84550551  0.34122081  0.88422123  1
  Sr  Sr70  1  0.83805373  0.66851383  0.38366933  1
  Sr  Sr71  1  0.86886735  0.66666927  0.84194880  1
  Ta  Ta72  1  0.16706649  0.23702366  -0.00001297  1
  Ta  Ta73  1  0.16755465  0.12464516  0.49204110  1
  Ta  Ta74  1  0.16863262  0.43762619  0.00577921  1
  Ta  Ta75  1  0.20797993  0.49974144  0.49732575  1
  Ta  Ta76  1  0.11306088  0.83384754  -0.00075913  1
  Ta  Ta77  1  0.12639168  0.83229930  0.50335738  1
  Ta  Ta78  1  0.50106247  0.12651055  0.00237932  1
  Ta  Ta79  1  0.47197167  0.14660720  0.50197267  1
  Ta  Ta80  1  0.45976348  0.48679803  0.00887972  1
  Ta  Ta81  1  0.46124036  0.50068421  0.50524097  1
  Ta  Ta82  1  0.46625067  0.81854391  0.00814279  1
  Ta  Ta83  1  0.49598165  0.77392942  0.49763342  1
  Ta  Ta84  1  0.79771365  0.17126111  0.00831756  1
  Ta  Ta85  1  0.82160413  0.19517221  0.49692932  1
  Ta  Ta86  1  0.83019265  0.53222567  -0.00378580  1
  Ta  Ta87  1  0.83173547  0.46636947  0.50250311  1
  Ta  Ta88  1  0.84816366  0.81232270  -0.00310842  1
  Ta  Ta89  1  0.78348813  0.83976316  0.50062497  1
  Ta  Ta90  1  0.17433519  0.13308495  0.26273389  1
  Ta  Ta91  1  0.11774220  0.16551053  0.75307448  1
  Ta  Ta92  1  0.12415580  0.49914617  0.25282638  1
  Ta  Ta93  1  0.16347653  0.53762257  0.74458805  1
  Ta  Ta94  1  0.13729050  0.84295278  0.24587288  1
  Ta  Ta95  1  0.16709357  0.79399366  0.75505085  1
  Ta  Ta96  1  0.46681227  0.18583950  0.24879756  1
  Ta  Ta97  1  0.49311890  0.12063326  0.75057489  1
  Ta  Ta98  1  0.50168291  0.46123283  0.22956356  1
  Ta  Ta99  1  0.50718753  0.46786746  0.75735132  1
  Ta  Ta100  1  0.50589619  0.79028393  0.23596208  1
  Ta  Ta101  1  0.44527126  0.82393746  0.75052525  1
  Ta  Ta102  1  0.81428216  0.14702097  0.23465294  1
  Ta  Ta103  1  0.87015447  0.16131578  0.76089031  1
  Ta  Ta104  1  0.88630666  0.50220710  0.24871817  1
  Ta  Ta105  1  0.78560847  0.50776369  0.76101402  1
  Ta  Ta106  1  0.79043732  0.84717804  0.24933734  1
  Ta  Ta107  1  0.79400202  0.82715925  0.74746492  1
  Ta  Ta108  1  0.04623014  -0.00054705  0.25025881  1
  Ta  Ta109  1  0.00360008  0.04084862  0.75506829  1
  Ta  Ta110  1  0.00091190  0.37958402  0.25589524  1
  Ta  Ta111  1  0.00039509  0.28508102  0.74880134  1
  Ta  Ta112  1  0.00968340  0.63917547  0.25564630  1
  Ta  Ta113  1  0.04967839  0.66687638  0.75244295  1
  Ta  Ta114  1  0.32909051  0.04708105  0.26091394  1
  Ta  Ta115  1  0.36472924  -0.01328437  0.75371596  1
  Ta  Ta116  1  0.38952566  0.33815457  0.24431694  1
  Ta  Ta117  1  0.36095583  0.34752660  0.74823775  1
  Ta  Ta118  1  0.37713251  0.67738776  0.22081855  1
  Ta  Ta119  1  0.31571499  0.69312724  0.76142372  1
  Ta  Ta120  1  0.70552952  0.00794564  0.24219857  1
  Ta  Ta121  1  0.66274247  0.00370694  0.75676400  1
  Ta  Ta122  1  0.62764707  0.34089219  0.25286339  1
  Ta  Ta123  1  0.66364172  0.37745196  0.75711730  1
  Ta  Ta124  1  0.66966616  0.70868041  0.23979586  1
  Ta  Ta125  1  0.68759692  0.65610434  0.75591200  1
  Ta  Ta126  1  0.00698831  -0.04218673  -0.00124885  1
  Ta  Ta127  1  0.04114038  -0.00788075  0.49583881  1
  Ta  Ta128  1  0.03437074  0.33516967  0.00102943  1
  Ta  Ta129  1  -0.05594625  0.33481082  0.49837362  1
  Ta  Ta130  1  -0.00929652  0.69904244  0.00165405  1
  Ta  Ta131  1  0.02331092  0.68977930  0.50566986  1
  Ta  Ta132  1  0.37245800  -0.00048485  0.00232558  1
  Ta  Ta133  1  0.33457063  0.03761530  0.49435583  1
  Ta  Ta134  1  0.31503085  0.34877999  -0.00063481  1
  Ta  Ta135  1  0.33779830  0.37854269  0.49886786  1
  Ta  Ta136  1  0.36525245  0.67257107  0.01466224  1
  Ta  Ta137  1  0.36323758  0.64761097  0.49062914  1
  Ta  Ta138  1  0.66460785  0.04722898  -0.00007950  1
  Ta  Ta139  1  0.68748851  0.00451710  0.49801905  1
  Ta  Ta140  1  0.68540838  0.30968923  0.00164852  1
  Ta  Ta141  1  0.71312397  0.33870300  0.49780225  1
  Ta  Ta142  1  0.72583924  0.66985373  -0.00420986  1
  Ta  Ta143  1  0.65718686  0.69653826  0.49954591  1
  N  N144  1  0.82661129  0.83344902  0.86986918  1
  N  N145  1  0.66853382  0.00672141  0.11931143  1
  N  N146  1  0.00227869  0.67318932  0.12926917  1
  N  N147  1  0.15701354  0.17684587  0.37858053  1
  N  N148  1  0.49012480  0.15934539  0.12539650  1
  N  N149  1  0.49522021  0.49295546  0.62645299  1
  N  N150  1  0.34674456  -0.00345455  0.37079651  1
  N  N151  1  0.82229153  0.83235947  0.62134116  1
  N  N152  1  0.85408212  0.16993832  0.12090387  1
  N  N153  1  0.01190472  0.00094895  0.37457492  1
  N  N154  1  0.01697538  0.66647356  0.87635530  1
  N  N155  1  0.67080432  -0.00409822  0.87941465  1
  N  N156  1  0.15842121  0.48027698  0.12392366  1
  N  N157  1  0.00650382  0.67109143  0.38421777  1
  N  N158  1  0.33135708  0.67285799  0.88379025  1
  N  N159  1  0.81740004  0.83723264  0.37608053  1
  N  N160  1  0.66917186  0.33929532  0.87935330  1
  N  N161  1  0.82504683  0.83916075  0.12337515  1
  N  N162  1  0.30575126  0.68169374  0.12298228  1
  N  N163  1  0.85316130  0.50597947  0.12340786  1
  N  N164  1  0.53013097  0.48552203  0.10875183  1
  N  N165  1  0.00199913  -0.00307923  0.87713657  1
  N  N166  1  -0.01132999  0.33975107  0.38087686  1
  N  N167  1  0.16973449  0.50204485  0.37906492  1
  N  N168  1  -0.01166394  0.32486300  0.62628373  1
  N  N169  1  0.16806926  0.50218955  0.62655819  1
  N  N170  1  0.84143412  0.49833479  0.86917770  1
  N  N171  1  0.66836896  0.34380212  0.37332110  1
  N  N172  1  0.48963873  0.48836732  0.88612053  1
  N  N173  1  0.68840616  0.67957526  0.11527361  1
  N  N174  1  0.14925412  0.83021214  0.87334235  1
  N  N175  1  0.34019272  -0.00523952  0.87715898  1
  N  N176  1  0.84136620  0.16704545  0.88127667  1
  O  O177  1  0.81969351  0.17404445  0.36832162  1
  O  O178  1  0.34746658  0.34403358  0.62404889  1
  O  O179  1  0.66974472  0.66700969  0.62813798  1
  O  O180  1  0.16075431  0.19509752  0.87860535  1
  O  O181  1  0.49066910  0.14759227  0.87107060  1
  O  O182  1  0.00705517  0.33694656  0.12900785  1
  O  O183  1  0.50187369  0.48248873  0.38111070  1
  O  O184  1  0.47221643  0.80595523  0.62440445  1
  O  O185  1  0.49248309  0.16333790  0.37630927  1
  O  O186  1  0.46170562  0.81892206  0.87517244  1
  O  O187  1  0.17420788  0.18378599  0.12223647  1
  O  O188  1  0.67496307  0.00997693  0.62214819  1
  O  O189  1  0.83830767  0.17545820  0.62471860  1
  O  O190  1  0.00595083  0.00429095  0.62776724  1
  O  O191  1  0.16189841  0.82730173  0.12180229  1
  O  O192  1  0.67239231  0.01418052  0.37205033  1
  O  O193  1  0.66515928  0.68748667  0.37342914  1
  O  O194  1  0.66055434  0.33624608  0.12539705  1
  O  O195  1  0.16864383  0.48968425  0.87015448  1
  O  O196  1  0.33362439  -0.00288106  0.61959161  1
  O  O197  1  0.33788270  0.01005588  0.12960783  1
  O  O198  1  0.15440345  0.15272589  0.62078695  1
  O  O199  1  0.51459221  0.83742265  0.11770424  1
  O  O200  1  0.66262563  0.66689651  0.87961493  1
  O  O201  1  0.16040711  0.83508902  0.62771965  1
  O  O202  1  0.49663645  0.13935124  0.62302256  1
  O  O203  1  0.35245624  0.35836584  0.37213402  1
  O  O204  1  0.33390649  0.33627453  0.12841055  1
  O  O205  1  -0.00427467  0.66836773  0.63205279  1
  O  O206  1  0.01125084  0.33194237  0.87054486  1
  O  O207  1  0.82655970  0.48952022  0.63268801  1
  O  O208  1  0.83812453  0.49111546  0.37510218  1
  O  O209  1  0.33629293  0.33775633  0.87020809  1
  O  O210  1  0.67531226  0.34639251  0.62389364  1
  O  O211  1  0.34136391  0.66544230  0.62023938  1
  O  O212  1  0.49756990  0.78592633  0.37104573  1
  O  O213  1  0.36121258  0.65765841  0.35745102  1
  O  O214  1  0.13353211  0.82467860  0.36970817  1
  O  O215  1  0.00904782  -0.00138788  0.12676940  1
