# generated using pymatgen
data_Sr24Ta24N11O13
_symmetry_space_group_name_H-M   'P 1'
_cell_length_a   16.75414895
_cell_length_b   16.83555830
_cell_length_c   15.67140495
_cell_angle_alpha   90.34751133
_cell_angle_beta   90.22876900
_cell_angle_gamma   90.06962777
_symmetry_Int_Tables_number   1
_chemical_formula_structural   Sr24Ta24N11O13
_chemical_formula_sum   'Sr72 Ta72 N33 O39'
_cell_volume   4420.24197635
_cell_formula_units_Z   3
loop_
 _symmetry_equiv_pos_site_id
 _symmetry_equiv_pos_as_xyz
  1  'x, y, z'
loop_
 _atom_site_type_symbol
 _atom_site_label
 _atom_site_symmetry_multiplicity
 _atom_site_fract_x
 _atom_site_fract_y
 _atom_site_fract_z
 _atom_site_occupancy
  Sr  Sr0  1  -0.01998249  0.15837658  0.12891317  1
  Sr  Sr1  1  -0.00033599  0.16370454  0.58552523  1
  Sr  Sr2  1  0.00590609  0.49634190  0.11859895  1
  Sr  Sr3  1  -0.00637678  0.46160676  0.65557010  1
  Sr  Sr4  1  0.00228446  0.83432817  0.13141766  1
  Sr  Sr5  1  -0.01480672  0.82606265  0.62799605  1
  Sr  Sr6  1  0.33971899  0.16391228  0.09744365  1
  Sr  Sr7  1  0.31884182  0.14851611  0.66145637  1
  Sr  Sr8  1  0.34780682  0.49336806  0.17293701  1
  Sr  Sr9  1  0.31617161  0.49171036  0.60815679  1
  Sr  Sr10  1  0.32521449  0.81012600  0.13358632  1
  Sr  Sr11  1  0.33755700  0.83852354  0.59081142  1
  Sr  Sr12  1  0.66383325  0.19455597  0.17987573  1
  Sr  Sr13  1  0.65502053  0.15450420  0.60897849  1
  Sr  Sr14  1  0.65992712  0.49391778  0.07164717  1
  Sr  Sr15  1  0.67199178  0.50521202  0.62500926  1
  Sr  Sr16  1  0.67134606  0.83584784  0.11997476  1
  Sr  Sr17  1  0.62859128  0.82545056  0.65733550  1
  Sr  Sr18  1  0.17546295  0.01178439  0.14026130  1
  Sr  Sr19  1  0.17248786  0.00000083  0.65572519  1
  Sr  Sr20  1  0.17865693  0.35913498  0.13834354  1
  Sr  Sr21  1  0.16059430  0.32910506  0.62046006  1
  Sr  Sr22  1  0.15526954  0.67262319  0.08956585  1
  Sr  Sr23  1  0.15902284  0.68391069  0.62361135  1
  Sr  Sr24  1  0.53142037  0.01853869  0.13847180  1
  Sr  Sr25  1  0.49652392  0.00475897  0.62774038  1
  Sr  Sr26  1  0.50060237  0.33312926  0.12864027  1
  Sr  Sr27  1  0.51801497  0.34169699  0.57111214  1
  Sr  Sr28  1  0.51693589  0.67687777  0.10500498  1
  Sr  Sr29  1  0.50647519  0.65387146  0.66590321  1
  Sr  Sr30  1  0.84077375  -0.00952192  0.08547782  1
  Sr  Sr31  1  0.84483880  -0.00148088  0.62444863  1
  Sr  Sr32  1  0.84293189  0.35042594  0.10662344  1
  Sr  Sr33  1  0.82108862  0.34220676  0.66382943  1
  Sr  Sr34  1  0.84724618  0.68815522  0.17081025  1
  Sr  Sr35  1  0.83214132  0.66840644  0.60607431  1
  Sr  Sr36  1  -0.00027733  0.16047314  0.37559882  1
  Sr  Sr37  1  -0.03454895  0.16232582  0.91767972  1
  Sr  Sr38  1  -0.01986211  0.48293561  0.33694417  1
  Sr  Sr39  1  0.00734826  0.48224238  0.88969157  1
  Sr  Sr40  1  -0.01068975  0.81859348  0.39077817  1
  Sr  Sr41  1  0.00365168  0.84650737  0.85638140  1
  Sr  Sr42  1  0.31138708  0.14418392  0.35184853  1
  Sr  Sr43  1  0.34320262  0.16919352  0.88092828  1
  Sr  Sr44  1  0.31855210  0.48484870  0.38894734  1
  Sr  Sr45  1  0.32992136  0.50577978  0.82856516  1
  Sr  Sr46  1  0.32889338  0.83332055  0.37481814  1
  Sr  Sr47  1  0.33282872  0.79401262  0.92258453  1
  Sr  Sr48  1  0.65287425  0.15115759  0.39175559  1
  Sr  Sr49  1  0.67026947  0.16723814  0.83092989  1
  Sr  Sr50  1  0.67616620  0.50979122  0.41132543  1
  Sr  Sr51  1  0.66177760  0.49552442  0.86714450  1
  Sr  Sr52  1  0.65794843  0.81343977  0.33812815  1
  Sr  Sr53  1  0.65506280  0.84481261  0.89469924  1
  Sr  Sr54  1  0.16473165  -0.00536900  0.34139319  1
  Sr  Sr55  1  0.17820707  0.01730234  0.87237528  1
  Sr  Sr56  1  0.16029545  0.33776272  0.39318269  1
  Sr  Sr57  1  0.18675633  0.33931278  0.85142220  1
  Sr  Sr58  1  0.17605063  0.67561306  0.42128032  1
  Sr  Sr59  1  0.15797434  0.67408514  0.88087011  1
  Sr  Sr60  1  0.50684397  -0.00361524  0.39311576  1
  Sr  Sr61  1  0.50798106  0.02226238  0.85854951  1
  Sr  Sr62  1  0.50295734  0.33942704  0.36433902  1
  Sr  Sr63  1  0.50053807  0.33116262  0.90703934  1
  Sr  Sr64  1  0.48485148  0.67548076  0.32426822  1
  Sr  Sr65  1  0.51330497  0.66299003  0.88246833  1
  Sr  Sr66  1  0.84224728  0.00635508  0.42024042  1
  Sr  Sr67  1  0.84165307  -0.00666323  0.87825607  1
  Sr  Sr68  1  0.83823455  0.31569382  0.32355773  1
  Sr  Sr69  1  0.83134377  0.34559024  0.88072073  1
  Sr  Sr70  1  0.82914443  0.66623815  0.38275650  1
  Sr  Sr71  1  0.85515050  0.68949844  0.84505356  1
  Ta  Ta72  1  0.14935188  0.18306255  -0.00007841  1
  Ta  Ta73  1  0.18215802  0.14066867  0.50073682  1
  Ta  Ta74  1  0.20508723  0.49820318  0.00310097  1
  Ta  Ta75  1  0.11370116  0.50208831  0.49666579  1
  Ta  Ta76  1  0.16613444  0.86679062  0.00971824  1
  Ta  Ta77  1  0.16179257  0.87451929  0.49996676  1
  Ta  Ta78  1  0.54963390  0.16675373  0.00758861  1
  Ta  Ta79  1  0.44869565  0.16321105  0.49555305  1
  Ta  Ta80  1  0.45820401  0.50138247  -0.00757185  1
  Ta  Ta81  1  0.49878879  0.55104435  0.49506047  1
  Ta  Ta82  1  0.48399320  0.87426337  0.01247288  1
  Ta  Ta83  1  0.51096491  0.80229013  0.48991106  1
  Ta  Ta84  1  0.77620916  0.16821024  0.00586544  1
  Ta  Ta85  1  0.82597642  0.21022341  0.49700168  1
  Ta  Ta86  1  0.84080240  0.55147806  0.00342300  1
  Ta  Ta87  1  0.85587913  0.47944089  0.50417442  1
  Ta  Ta88  1  0.84300869  0.80538304  -0.00052072  1
  Ta  Ta89  1  0.78199560  0.83188029  0.50821665  1
  Ta  Ta90  1  0.15901233  0.19517415  0.25221217  1
  Ta  Ta91  1  0.12146949  0.17112546  0.74957581  1
  Ta  Ta92  1  0.16077711  0.53949527  0.25725732  1
  Ta  Ta93  1  0.14999476  0.52834283  0.74092341  1
  Ta  Ta94  1  0.15966072  0.79814206  0.25654605  1
  Ta  Ta95  1  0.21575340  0.82967577  0.75736632  1
  Ta  Ta96  1  0.46957666  0.16686005  0.25689346  1
  Ta  Ta97  1  0.49695863  0.21450527  0.73435235  1
  Ta  Ta98  1  0.54558915  0.50649668  0.24261843  1
  Ta  Ta99  1  0.50128421  0.45786867  0.74491019  1
  Ta  Ta100  1  0.48362415  0.86229986  0.24133160  1
  Ta  Ta101  1  0.45229626  0.82802142  0.76220437  1
  Ta  Ta102  1  0.82982788  0.10834660  0.25308969  1
  Ta  Ta103  1  0.85707591  0.16041872  0.74769859  1
  Ta  Ta104  1  0.79522354  0.50823866  0.23871835  1
  Ta  Ta105  1  0.83543555  0.53003202  0.75234667  1
  Ta  Ta106  1  0.83538869  0.88083584  0.25349578  1
  Ta  Ta107  1  0.80001294  0.83938831  0.74782923  1
  Ta  Ta108  1  -0.03308440  -0.00448569  0.24982871  1
  Ta  Ta109  1  -0.00104130  0.04773557  0.75721796  1
  Ta  Ta110  1  0.02377552  0.31149556  0.24460548  1
  Ta  Ta111  1  -0.00630033  0.28122919  0.74890517  1
  Ta  Ta112  1  0.04392645  0.66218969  0.25837694  1
  Ta  Ta113  1  0.00299557  0.63201551  0.74813151  1
  Ta  Ta114  1  0.36541899  -0.00917415  0.24597404  1
  Ta  Ta115  1  0.33856787  -0.04730267  0.76838729  1
  Ta  Ta116  1  0.33083455  0.30027310  0.25606110  1
  Ta  Ta117  1  0.38493783  0.33359218  0.73656650  1
  Ta  Ta118  1  0.27770732  0.66166100  0.25453263  1
  Ta  Ta119  1  0.32449311  0.69531078  0.74795617  1
  Ta  Ta120  1  0.70491056  -0.00430825  0.25991884  1
  Ta  Ta121  1  0.68858380  -0.01321313  0.74352064  1
  Ta  Ta122  1  0.66834164  0.39064840  0.24078725  1
  Ta  Ta123  1  0.62668210  0.33734520  0.74772843  1
  Ta  Ta124  1  0.66913901  0.62127005  0.23741799  1
  Ta  Ta125  1  0.69514817  0.66812026  0.75211301  1
  Ta  Ta126  1  0.03345647  -0.00690513  0.00346878  1
  Ta  Ta127  1  0.03933640  -0.00913110  0.50405993  1
  Ta  Ta128  1  0.03761435  0.31650802  0.00393630  1
  Ta  Ta129  1  -0.03842261  0.33968806  0.49486653  1
  Ta  Ta130  1  -0.03671374  0.66876478  0.00328603  1
  Ta  Ta131  1  -0.00605742  0.61020524  0.50038457  1
  Ta  Ta132  1  0.34186476  -0.02521472  -0.00297667  1
  Ta  Ta133  1  0.31283087  0.01240834  0.49486625  1
  Ta  Ta134  1  0.33047829  0.37704228  -0.00143119  1
  Ta  Ta135  1  0.32977968  0.28285425  0.49506522  1
  Ta  Ta136  1  0.33225127  0.60991881  0.00485269  1
  Ta  Ta137  1  0.38097510  0.66374668  0.49736636  1
  Ta  Ta138  1  0.66756108  0.03902454  -0.00502053  1
  Ta  Ta139  1  0.66624638  -0.05185429  0.50456361  1
  Ta  Ta140  1  0.67171639  0.29829265  -0.00211381  1
  Ta  Ta141  1  0.72066022  0.33424482  0.49283222  1
  Ta  Ta142  1  0.72128529  0.67139814  0.00179730  1
  Ta  Ta143  1  0.63949574  0.68854365  0.50348895  1
  N  N144  1  0.16199704  0.50353775  0.62000949  1
  N  N145  1  0.15657849  0.16507063  0.37328379  1
  N  N146  1  0.83325977  0.49993344  0.62733910  1
  N  N147  1  0.83115998  0.83957727  0.87815976  1
  N  N148  1  0.83050174  0.82813615  0.62119769  1
  N  N149  1  0.49593038  0.17210579  0.61486273  1
  N  N150  1  0.15872094  0.16435480  0.62755285  1
  N  N151  1  0.83607983  0.84145164  0.13342157  1
  N  N152  1  0.84263543  0.50834363  0.12240216  1
  N  N153  1  -0.01136474  0.31266057  0.62703028  1
  N  N154  1  0.16110695  0.49892414  0.38034969  1
  N  N155  1  0.50157745  0.16807975  0.37728762  1
  N  N156  1  0.17448678  0.51071828  0.12378437  1
  N  N157  1  0.49423189  0.49558000  0.86718027  1
  N  N158  1  0.51031177  0.17370254  0.12621298  1
  N  N159  1  0.16686918  0.83642366  0.37981693  1
  N  N160  1  0.33702030  0.01286301  0.87828412  1
  N  N161  1  0.33006688  0.33030175  0.37499975  1
  N  N162  1  0.00363504  0.01030066  0.87660850  1
  N  N163  1  -0.00117704  0.33716082  0.11979497  1
  N  N164  1  0.66067916  0.33201003  0.86762568  1
  N  N165  1  0.66905585  0.34423442  0.12328393  1
  N  N166  1  0.33146750  -0.00861927  0.37304575  1
  N  N167  1  0.65878487  0.00107603  0.61725161  1
  N  N168  1  0.66373070  0.66712553  0.62818614  1
  N  N169  1  0.49882142  0.82609528  0.36781242  1
  N  N170  1  -0.00863841  0.32425460  0.37096209  1
  N  N171  1  0.67384577  -0.00658645  0.38133537  1
  N  N172  1  0.51358793  0.83005821  0.12180602  1
  N  N173  1  0.16864178  0.83764338  0.12907255  1
  N  N174  1  0.66993471  0.00774605  0.86969101  1
  N  N175  1  -0.00046302  0.00192732  0.12808151  1
  N  N176  1  0.67637126  0.66813476  0.11819074  1
  O  O177  1  0.34154175  0.33168784  0.61243402  1
  O  O178  1  -0.01041188  0.65431583  0.37519436  1
  O  O179  1  0.18560873  0.82736727  0.88288590  1
  O  O180  1  0.18928176  0.84139898  0.62924133  1
  O  O181  1  0.17133712  0.16817022  0.12145521  1
  O  O182  1  0.16963028  0.51503063  0.86962904  1
  O  O183  1  0.81611165  0.14987143  0.12992256  1
  O  O184  1  0.66969470  0.66148192  0.37614967  1
  O  O185  1  0.48240337  0.82539368  0.88746759  1
  O  O186  1  0.32816415  -0.00813896  0.63997737  1
  O  O187  1  0.34164899  0.68178237  0.62094007  1
  O  O188  1  0.00883582  -0.00360210  0.37863124  1
  O  O189  1  0.31787802  0.64763919  0.13171156  1
  O  O190  1  0.52162859  0.52244578  0.37501209  1
  O  O191  1  0.32917794  0.01181081  0.12473805  1
  O  O192  1  0.34171219  0.35215453  0.87088200  1
  O  O193  1  0.82120110  0.16466448  0.87167550  1
  O  O194  1  0.32366579  0.65368486  0.87078664  1
  O  O195  1  0.33007201  0.66417271  0.37697895  1
  O  O196  1  0.00372407  0.64823465  0.88013614  1
  O  O197  1  0.17067428  0.17713858  0.87437229  1
  O  O198  1  0.82984494  0.50859480  0.36988663  1
  O  O199  1  0.50602120  0.50106615  0.11392986  1
  O  O200  1  0.50506210  0.50636661  0.61633982  1
  O  O201  1  0.68182421  -0.00545735  0.11678684  1
  O  O202  1  0.67310565  0.34322633  0.61452995  1
  O  O203  1  0.01695113  0.00182448  0.63173751  1
  O  O204  1  0.83018338  0.15962980  0.37523954  1
  O  O205  1  0.84094116  0.16918102  0.61985597  1
  O  O206  1  0.47950826  0.82119903  0.63407879  1
  O  O207  1  0.82904275  0.83501113  0.37951625  1
  O  O208  1  0.66819818  0.66640010  0.87847197  1
  O  O209  1  0.50183733  0.17571666  0.88215582  1
  O  O210  1  0.69017923  0.35669130  0.37107630  1
  O  O211  1  0.00386103  0.66423342  0.13060841  1
  O  O212  1  0.33400180  0.34535226  0.12560468  1
  O  O213  1  0.84415445  0.50172640  0.87855231  1
  O  O214  1  -0.00544116  0.65417436  0.62329263  1
  O  O215  1  -0.00900597  0.32473695  0.88323970  1
