# generated using pymatgen
data_Sr24Ta24N11O13
_symmetry_space_group_name_H-M   'P 1'
_cell_length_a   16.73653905
_cell_length_b   16.89019851
_cell_length_c   15.69046288
_cell_angle_alpha   89.58544835
_cell_angle_beta   89.59804875
_cell_angle_gamma   90.11172613
_symmetry_Int_Tables_number   1
_chemical_formula_structural   Sr24Ta24N11O13
_chemical_formula_sum   'Sr72 Ta72 N33 O39'
_cell_volume   4435.20032870
_cell_formula_units_Z   3
loop_
 _symmetry_equiv_pos_site_id
 _symmetry_equiv_pos_as_xyz
  1  'x, y, z'
loop_
 _atom_site_type_symbol
 _atom_site_label
 _atom_site_symmetry_multiplicity
 _atom_site_fract_x
 _atom_site_fract_y
 _atom_site_fract_z
 _atom_site_occupancy
  Sr  Sr0  1  -0.01435764  0.14798828  0.11534054  1
  Sr  Sr1  1  -0.00678430  0.16585414  0.63091942  1
  Sr  Sr2  1  0.01506649  0.49389923  0.14139455  1
  Sr  Sr3  1  -0.00694018  0.51017395  0.58276087  1
  Sr  Sr4  1  0.00752498  0.83487350  0.11742343  1
  Sr  Sr5  1  -0.01382393  0.81613496  0.66977401  1
  Sr  Sr6  1  0.33546241  0.16921407  0.13729539  1
  Sr  Sr7  1  0.33304762  0.15717870  0.62260681  1
  Sr  Sr8  1  0.35220763  0.49688409  0.07642741  1
  Sr  Sr9  1  0.32630936  0.48410611  0.64120820  1
  Sr  Sr10  1  0.33141420  0.79244843  0.15466803  1
  Sr  Sr11  1  0.32563334  0.82925803  0.61953616  1
  Sr  Sr12  1  0.67350569  0.16709270  0.09544686  1
  Sr  Sr13  1  0.65269889  0.13705170  0.63720678  1
  Sr  Sr14  1  0.66545561  0.48618627  0.16710420  1
  Sr  Sr15  1  0.66213989  0.47846751  0.63171568  1
  Sr  Sr16  1  0.66249910  0.83589201  0.13054492  1
  Sr  Sr17  1  0.68052247  0.82463032  0.57946892  1
  Sr  Sr18  1  0.16824278  0.01022225  0.11575833  1
  Sr  Sr19  1  0.17356679  0.01134651  0.58489577  1
  Sr  Sr20  1  0.18034969  0.35112630  0.11443344  1
  Sr  Sr21  1  0.16806472  0.31572415  0.67478618  1
  Sr  Sr22  1  0.15497989  0.67684411  0.16797049  1
  Sr  Sr23  1  0.17769698  0.64627559  0.61178332  1
  Sr  Sr24  1  0.50602275  0.03493558  0.09408733  1
  Sr  Sr25  1  0.48326163  0.00746505  0.66783551  1
  Sr  Sr26  1  0.50570755  0.34856117  0.13776724  1
  Sr  Sr27  1  0.49101229  0.33528032  0.60628913  1
  Sr  Sr28  1  0.51251161  0.67096815  0.13445144  1
  Sr  Sr29  1  0.50899450  0.71109257  0.59552538  1
  Sr  Sr30  1  0.83396889  -0.00414351  0.16714296  1
  Sr  Sr31  1  0.81933351  0.00223538  0.60900936  1
  Sr  Sr32  1  0.83717579  0.34101067  0.11902715  1
  Sr  Sr33  1  0.85132062  0.34962420  0.61745778  1
  Sr  Sr34  1  0.85222913  0.67794499  0.08300212  1
  Sr  Sr35  1  0.82825214  0.66587404  0.63345853  1
  Sr  Sr36  1  -0.01712135  0.14364969  0.40725434  1
  Sr  Sr37  1  -0.00536583  0.16745341  0.85450099  1
  Sr  Sr38  1  0.01247331  0.50685330  0.37040189  1
  Sr  Sr39  1  -0.01592350  0.49287164  0.92495846  1
  Sr  Sr40  1  0.00290192  0.83184708  0.33690461  1
  Sr  Sr41  1  0.00063754  0.82765468  0.88065327  1
  Sr  Sr42  1  0.33667448  0.17857012  0.36102846  1
  Sr  Sr43  1  0.33149162  0.13443873  0.89619100  1
  Sr  Sr44  1  0.33385685  0.48665350  0.41137233  1
  Sr  Sr45  1  0.31827251  0.50673910  0.86219557  1
  Sr  Sr46  1  0.32213324  0.81943704  0.38792657  1
  Sr  Sr47  1  0.33771459  0.82756632  0.85067688  1
  Sr  Sr48  1  0.66647211  0.15198451  0.38792081  1
  Sr  Sr49  1  0.66333659  0.14649268  0.87540508  1
  Sr  Sr50  1  0.65660422  0.48158019  0.36862840  1
  Sr  Sr51  1  0.68246519  0.50167975  0.83380841  1
  Sr  Sr52  1  0.66739668  0.83581939  0.36629268  1
  Sr  Sr53  1  0.65437828  0.81876971  0.91495994  1
  Sr  Sr54  1  0.18115842  0.01478303  0.38405756  1
  Sr  Sr55  1  0.14943717  -0.00290733  0.91698212  1
  Sr  Sr56  1  0.16824633  0.33184932  0.33583240  1
  Sr  Sr57  1  0.17492078  0.34793818  0.88281290  1
  Sr  Sr58  1  0.16731635  0.66445711  0.38125571  1
  Sr  Sr59  1  0.17556824  0.68060978  0.83028888  1
  Sr  Sr60  1  0.48584262  0.02734607  0.34469069  1
  Sr  Sr61  1  0.50951398  0.00222685  0.87906073  1
  Sr  Sr62  1  0.49398074  0.33137411  0.38645306  1
  Sr  Sr63  1  0.50351951  0.38155672  0.85204328  1
  Sr  Sr64  1  0.51201156  0.69524359  0.35543800  1
  Sr  Sr65  1  0.48946304  0.67862803  0.91600158  1
  Sr  Sr66  1  0.81506921  -0.00505725  0.38078509  1
  Sr  Sr67  1  0.84566541  0.01103767  0.82242595  1
  Sr  Sr68  1  0.84783812  0.35645601  0.36770195  1
  Sr  Sr69  1  0.83331202  0.33289271  0.89122024  1
  Sr  Sr70  1  0.83502503  0.67209656  0.41086342  1
  Sr  Sr71  1  0.83584976  0.66999281  0.86980246  1
  Ta  Ta72  1  0.15054916  0.18991373  -0.00344402  1
  Ta  Ta73  1  0.16467715  0.21293467  0.50194286  1
  Ta  Ta74  1  0.16600594  0.54689407  -0.00079096  1
  Ta  Ta75  1  0.16637975  0.43741524  0.50558359  1
  Ta  Ta76  1  0.18607928  0.81000759  0.00641524  1
  Ta  Ta77  1  0.12515033  0.83176463  0.49706668  1
  Ta  Ta78  1  0.49848578  0.21899959  -0.01252802  1
  Ta  Ta79  1  0.49607961  0.14375198  0.50296595  1
  Ta  Ta80  1  0.55572746  0.50676931  0.00547546  1
  Ta  Ta81  1  0.50621172  0.53870882  0.50077028  1
  Ta  Ta82  1  0.46613539  0.85249886  0.01211227  1
  Ta  Ta83  1  0.48937186  0.88200229  0.49411669  1
  Ta  Ta84  1  0.83935725  0.13329334  -0.00845749  1
  Ta  Ta85  1  0.81079964  0.19451860  0.51130691  1
  Ta  Ta86  1  0.78410114  0.50411963  0.00029597  1
  Ta  Ta87  1  0.80440809  0.50638898  0.50146467  1
  Ta  Ta88  1  0.83732477  0.87121334  -0.00327107  1
  Ta  Ta89  1  0.87455962  0.83687729  0.49941203  1
  Ta  Ta90  1  0.12808220  0.16073871  0.25143941  1
  Ta  Ta91  1  0.17169576  0.12441947  0.75550659  1
  Ta  Ta92  1  0.21495232  0.50362860  0.24353867  1
  Ta  Ta93  1  0.11460785  0.49924597  0.75704252  1
  Ta  Ta94  1  0.17385305  0.87030600  0.25081168  1
  Ta  Ta95  1  0.16457577  0.87369169  0.74752680  1
  Ta  Ta96  1  0.53080721  0.18302059  0.24282948  1
  Ta  Ta97  1  0.49455253  0.19908611  0.76084839  1
  Ta  Ta98  1  0.46468656  0.50771851  0.24816445  1
  Ta  Ta99  1  0.50789174  0.56817803  0.74727075  1
  Ta  Ta100  1  0.48617744  0.87996815  0.23409407  1
  Ta  Ta101  1  0.52364503  0.82123345  0.75903817  1
  Ta  Ta102  1  0.82583242  0.18334169  0.24620343  1
  Ta  Ta103  1  0.81236002  0.19867482  0.74364024  1
  Ta  Ta104  1  0.83929566  0.54361587  0.25345881  1
  Ta  Ta105  1  0.87271682  0.50131394  0.75287247  1
  Ta  Ta106  1  0.83314820  0.79835471  0.25312337  1
  Ta  Ta107  1  0.78980075  0.83260435  0.74711309  1
  Ta  Ta108  1  0.02533300  0.00796536  0.25249982  1
  Ta  Ta109  1  0.04921526  -0.00339422  0.74682643  1
  Ta  Ta110  1  -0.00261498  0.28327865  0.25375007  1
  Ta  Ta111  1  -0.00485092  0.37192538  0.75044768  1
  Ta  Ta112  1  -0.03771193  0.66477847  0.24980273  1
  Ta  Ta113  1  -0.00155127  0.62107059  0.75336911  1
  Ta  Ta114  1  0.33081898  -0.02807349  0.24173386  1
  Ta  Ta115  1  0.28074599  -0.00405482  0.75399000  1
  Ta  Ta116  1  0.34221050  0.37138760  0.24832752  1
  Ta  Ta117  1  0.34991151  0.29896881  0.75741224  1
  Ta  Ta118  1  0.33579002  0.61587275  0.24844112  1
  Ta  Ta119  1  0.37383483  0.66453244  0.74561521  1
  Ta  Ta120  1  0.64439214  0.01196925  0.24294625  1
  Ta  Ta121  1  0.66307075  -0.05335872  0.74455442  1
  Ta  Ta122  1  0.67694082  0.29251800  0.24672450  1
  Ta  Ta123  1  0.66799662  0.30417883  0.74966492  1
  Ta  Ta124  1  0.71592166  0.66530753  0.25316569  1
  Ta  Ta125  1  0.64747627  0.68987238  0.74891483  1
  Ta  Ta126  1  -0.04909847  -0.00405145  -0.00467517  1
  Ta  Ta127  1  -0.00126184  -0.05217930  0.50329078  1
  Ta  Ta128  1  0.01395206  0.30379643  0.00039689  1
  Ta  Ta129  1  0.03834982  0.32585400  0.50630391  1
  Ta  Ta130  1  0.04807929  0.66746118  0.00243821  1
  Ta  Ta131  1  0.00372513  0.70664917  0.49602074  1
  Ta  Ta132  1  0.33096303  -0.05211316  0.01129963  1
  Ta  Ta133  1  0.37258690  -0.00285538  0.49837501  1
  Ta  Ta134  1  0.35219581  0.31385249  -0.00347480  1
  Ta  Ta135  1  0.29378720  0.32101382  0.50388628  1
  Ta  Ta136  1  0.29562602  0.67571128  -0.00652438  1
  Ta  Ta137  1  0.36048158  0.64682123  0.50478424  1
  Ta  Ta138  1  0.71896882  -0.00770584  -0.00200194  1
  Ta  Ta139  1  0.61476108  -0.00670598  0.49731727  1
  Ta  Ta140  1  0.65531185  0.35742282  0.00240601  1
  Ta  Ta141  1  0.68737222  0.31570709  0.50096324  1
  Ta  Ta142  1  0.67158629  0.62945126  0.00395375  1
  Ta  Ta143  1  0.66156774  0.63198086  0.49313934  1
  N  N144  1  0.83077356  0.50287238  0.88134614  1
  N  N145  1  0.83723894  0.50928060  0.37657858  1
  N  N146  1  0.83310512  0.16781047  0.86883666  1
  N  N147  1  0.67779975  -0.00329885  0.11611111  1
  N  N148  1  0.65491671  -0.00531587  0.36936611  1
  N  N149  1  0.32964684  0.33406735  0.36898725  1
  N  N150  1  0.50042546  0.17701604  0.37765209  1
  N  N151  1  0.67464621  0.33277552  0.12347389  1
  N  N152  1  0.16550672  0.83723404  0.37688452  1
  N  N153  1  0.50987323  0.51035191  0.12545310  1
  N  N154  1  0.49851157  0.83449107  0.88126706  1
  N  N155  1  0.00647309  0.33670371  0.62957839  1
  N  N156  1  0.33934504  0.33647062  0.11693440  1
  N  N157  1  0.17950167  0.50905592  0.12413003  1
  N  N158  1  0.50419737  0.15586624  0.88403100  1
  N  N159  1  0.33293191  0.66537155  0.62399107  1
  N  N160  1  0.83192377  0.83014524  0.62970578  1
  N  N161  1  0.33003888  0.31977880  0.63624781  1
  N  N162  1  0.65137353  -0.02102464  0.62376993  1
  N  N163  1  0.83137228  0.16473406  0.12490929  1
  N  N164  1  0.83607755  0.15566147  0.62746137  1
  N  N165  1  0.00180147  0.66980289  0.37751637  1
  N  N166  1  0.83530906  0.83525485  0.37125857  1
  N  N167  1  0.50484254  0.18579274  0.11921890  1
  N  N168  1  0.83306564  0.50536383  0.62866216  1
  N  N169  1  0.16638283  0.16411972  0.87645046  1
  N  N170  1  0.66678899  0.66195324  0.37214758  1
  N  N171  1  0.16719849  0.83316758  0.12793160  1
  N  N172  1  0.00464881  0.66664218  0.12036725  1
  N  N173  1  0.15741196  0.50676940  0.87280951  1
  N  N174  1  0.33149986  0.66803274  0.87237272  1
  N  N175  1  0.49685066  0.16952427  0.63163302  1
  N  N176  1  0.50380424  0.82321726  0.12787925  1
  O  O177  1  0.32609992  -0.00314477  0.62049764  1
  O  O178  1  0.16182899  0.84352909  0.87487604  1
  O  O179  1  -0.00161349  0.66356119  0.62952244  1
  O  O180  1  0.49227869  0.85532832  0.36309030  1
  O  O181  1  0.82269913  0.50539979  0.12475026  1
  O  O182  1  0.82955620  0.16707569  0.38656075  1
  O  O183  1  0.67386134  0.65274045  0.13270456  1
  O  O184  1  -0.00212379  -0.00760114  0.87120000  1
  O  O185  1  0.66953824  0.33299509  0.87025736  1
  O  O186  1  0.33008343  0.35594160  0.86938078  1
  O  O187  1  0.33485954  0.64766234  0.11627958  1
  O  O188  1  0.17593561  0.47895681  0.38157271  1
  O  O189  1  0.01437363  -0.01079014  0.62416976  1
  O  O190  1  0.16605983  0.16575755  0.62467758  1
  O  O191  1  0.50061703  0.51709216  0.37474212  1
  O  O192  1  0.83744100  0.83985008  0.12302335  1
  O  O193  1  0.48525932  0.85360868  0.63639386  1
  O  O194  1  0.16865458  0.85486700  0.61871893  1
  O  O195  1  0.00288076  0.32856954  0.87733070  1
  O  O196  1  0.66485302  0.66591356  0.87281192  1
  O  O197  1  0.83943670  0.84811063  0.86632888  1
  O  O198  1  0.00294453  0.66675380  0.87481797  1
  O  O199  1  0.66277035  0.67554174  0.62169142  1
  O  O200  1  -0.00682060  -0.00283141  0.12793049  1
  O  O201  1  0.15532799  0.16469857  0.12787729  1
  O  O202  1  0.67937946  0.32593098  0.37152302  1
  O  O203  1  0.14851227  0.17109225  0.37810311  1
  O  O204  1  0.16116767  0.48381185  0.62571378  1
  O  O205  1  0.52656674  0.52872095  0.87164398  1
  O  O206  1  0.30593679  -0.02225665  0.88472849  1
  O  O207  1  0.51117868  0.52526390  0.63068564  1
  O  O208  1  0.65403430  0.31872338  0.62044177  1
  O  O209  1  -0.00116554  0.30155899  0.37879579  1
  O  O210  1  -0.00237523  0.30783445  0.12988749  1
  O  O211  1  0.33582117  0.64366730  0.37867972  1
  O  O212  1  0.32626668  0.00942940  0.11988678  1
  O  O213  1  0.01723167  -0.00556770  0.37997471  1
  O  O214  1  0.33235978  -0.01489394  0.37258259  1
  O  O215  1  0.67062131  -0.01496390  0.87581928  1
