# generated using pymatgen
data_Sr24Ta24N11O13
_symmetry_space_group_name_H-M   'P 1'
_cell_length_a   16.75530860
_cell_length_b   16.76482032
_cell_length_c   15.73709569
_cell_angle_alpha   89.92488115
_cell_angle_beta   90.10129981
_cell_angle_gamma   90.38142626
_symmetry_Int_Tables_number   1
_chemical_formula_structural   Sr24Ta24N11O13
_chemical_formula_sum   'Sr72 Ta72 N33 O39'
_cell_volume   4420.43746487
_cell_formula_units_Z   3
loop_
 _symmetry_equiv_pos_site_id
 _symmetry_equiv_pos_as_xyz
  1  'x, y, z'
loop_
 _atom_site_type_symbol
 _atom_site_label
 _atom_site_symmetry_multiplicity
 _atom_site_fract_x
 _atom_site_fract_y
 _atom_site_fract_z
 _atom_site_occupancy
  Sr  Sr0  1  0.00258893  0.16924514  0.09669052  1
  Sr  Sr1  1  0.00904704  0.16448448  0.61520136  1
  Sr  Sr2  1  0.00579892  0.50121792  0.11452279  1
  Sr  Sr3  1  -0.00742357  0.49657100  0.67370966  1
  Sr  Sr4  1  0.00441440  0.84105399  0.13596068  1
  Sr  Sr5  1  0.01240214  0.82483024  0.64017107  1
  Sr  Sr6  1  0.33736340  0.17479131  0.11644046  1
  Sr  Sr7  1  0.34158666  0.14014817  0.65334942  1
  Sr  Sr8  1  0.34419047  0.50524208  0.17574309  1
  Sr  Sr9  1  0.32353103  0.50188589  0.61824330  1
  Sr  Sr10  1  0.35132625  0.82191110  0.10011722  1
  Sr  Sr11  1  0.33588251  0.82264679  0.60806322  1
  Sr  Sr12  1  0.68756497  0.14296627  0.11570401  1
  Sr  Sr13  1  0.66710332  0.17691380  0.66390895  1
  Sr  Sr14  1  0.66039290  0.50962059  0.09834690  1
  Sr  Sr15  1  0.67174473  0.48698518  0.60123470  1
  Sr  Sr16  1  0.66619578  0.82530415  0.15862234  1
  Sr  Sr17  1  0.67631625  0.85039077  0.60649136  1
  Sr  Sr18  1  0.17238234  0.00990720  0.16148534  1
  Sr  Sr19  1  0.15712082  0.00882413  0.63563179  1
  Sr  Sr20  1  0.15309659  0.31798224  0.08705875  1
  Sr  Sr21  1  0.16858444  0.35061192  0.62814210  1
  Sr  Sr22  1  0.15375218  0.65479028  0.13702257  1
  Sr  Sr23  1  0.18385923  0.67160203  0.57980420  1
  Sr  Sr24  1  0.48017279  0.00014422  0.07717572  1
  Sr  Sr25  1  0.50942346  0.00993050  0.63418841  1
  Sr  Sr26  1  0.48865097  0.32902533  0.14027746  1
  Sr  Sr27  1  0.49330452  0.35615361  0.59486946  1
  Sr  Sr28  1  0.50449173  0.67147974  0.12095454  1
  Sr  Sr29  1  0.49019016  0.66506489  0.66681705  1
  Sr  Sr30  1  0.82779180  -0.02212068  0.13847203  1
  Sr  Sr31  1  0.83236693  0.01077014  0.59019427  1
  Sr  Sr32  1  0.83704560  0.34131679  0.16473326  1
  Sr  Sr33  1  0.83112423  0.33248613  0.61944065  1
  Sr  Sr34  1  0.82656630  0.63948773  0.08455550  1
  Sr  Sr35  1  0.84664258  0.68472606  0.64226989  1
  Sr  Sr36  1  -0.00023068  0.17719267  0.41364170  1
  Sr  Sr37  1  0.00599621  0.16239563  0.88191653  1
  Sr  Sr38  1  -0.01018989  0.49281296  0.33307008  1
  Sr  Sr39  1  0.00278443  0.50830175  0.88693146  1
  Sr  Sr40  1  0.01643308  0.81993868  0.35777380  1
  Sr  Sr41  1  -0.00442889  0.83933121  0.87170743  1
  Sr  Sr42  1  0.33288188  0.15008015  0.34977077  1
  Sr  Sr43  1  0.34124176  0.15693664  0.88271390  1
  Sr  Sr44  1  0.31228613  0.49650436  0.39201947  1
  Sr  Sr45  1  0.34026223  0.49899124  0.83943776  1
  Sr  Sr46  1  0.34245773  0.83191322  0.39266262  1
  Sr  Sr47  1  0.34506385  0.81659139  0.89754819  1
  Sr  Sr48  1  0.67226742  0.18239801  0.32223027  1
  Sr  Sr49  1  0.67710731  0.15270737  0.87876214  1
  Sr  Sr50  1  0.67837387  0.49673271  0.40185064  1
  Sr  Sr51  1  0.65666800  0.50158158  0.90130242  1
  Sr  Sr52  1  0.66849675  0.83337518  0.37846300  1
  Sr  Sr53  1  0.66612724  0.81756393  0.82812300  1
  Sr  Sr54  1  0.15905106  0.01480728  0.36666008  1
  Sr  Sr55  1  0.15825061  0.00200354  0.83360239  1
  Sr  Sr56  1  0.15958297  0.33004412  0.41037717  1
  Sr  Sr57  1  0.16792704  0.35177336  0.87179869  1
  Sr  Sr58  1  0.14751360  0.64887500  0.35853177  1
  Sr  Sr59  1  0.17078556  0.68197898  0.92252737  1
  Sr  Sr60  1  0.49485637  -0.01534320  0.41703872  1
  Sr  Sr61  1  0.50714822  0.01451526  0.86404008  1
  Sr  Sr62  1  0.48805459  0.33282069  0.36521163  1
  Sr  Sr63  1  0.50031801  0.34464645  0.90700574  1
  Sr  Sr64  1  0.50575252  0.67865232  0.32674728  1
  Sr  Sr65  1  0.49757552  0.66465553  0.87720114  1
  Sr  Sr66  1  0.81744817  -0.00187742  0.36381656  1
  Sr  Sr67  1  0.84328060  0.01436178  0.91972534  1
  Sr  Sr68  1  0.83271762  0.34102398  0.37913802  1
  Sr  Sr69  1  0.81856096  0.32851121  0.82924963  1
  Sr  Sr70  1  0.80937687  0.66550910  0.41909660  1
  Sr  Sr71  1  0.83931498  0.66775043  0.86385890  1
  Ta  Ta72  1  0.17236390  0.12303798  -0.00613359  1
  Ta  Ta73  1  0.20152183  0.16049868  0.50593960  1
  Ta  Ta74  1  0.20706083  0.49940781  0.00751624  1
  Ta  Ta75  1  0.10789129  0.50234221  0.49776637  1
  Ta  Ta76  1  0.16453250  0.87692347  0.00057909  1
  Ta  Ta77  1  0.16287800  0.86536803  0.49683099  1
  Ta  Ta78  1  0.52739160  0.18252616  0.00395817  1
  Ta  Ta79  1  0.51121066  0.17414520  0.49829777  1
  Ta  Ta80  1  0.46047070  0.50451973  0.00625361  1
  Ta  Ta81  1  0.49584935  0.53874418  0.49528433  1
  Ta  Ta82  1  0.54293297  0.83400020  -0.00328975  1
  Ta  Ta83  1  0.50491044  0.79223833  0.49634116  1
  Ta  Ta84  1  0.83461012  0.22542770  -0.00593770  1
  Ta  Ta85  1  0.79520566  0.17544236  0.49551484  1
  Ta  Ta86  1  0.83108806  0.44567148  -0.00666375  1
  Ta  Ta87  1  0.88664705  0.50442313  0.50689663  1
  Ta  Ta88  1  0.80592197  0.82455077  -0.00876771  1
  Ta  Ta89  1  0.87189266  0.84211998  0.50177052  1
  Ta  Ta90  1  0.14213301  0.19286071  0.25866095  1
  Ta  Ta91  1  0.16855654  0.19619542  0.75205245  1
  Ta  Ta92  1  0.16276486  0.45149545  0.24830814  1
  Ta  Ta93  1  0.16818074  0.54330991  0.75968906  1
  Ta  Ta94  1  0.21151009  0.83042012  0.24819263  1
  Ta  Ta95  1  0.18815921  0.80890259  0.75147361  1
  Ta  Ta96  1  0.49816797  0.11214559  0.24388344  1
  Ta  Ta97  1  0.50009204  0.21923498  0.75711824  1
  Ta  Ta98  1  0.54187983  0.49942327  0.24820138  1
  Ta  Ta99  1  0.52414998  0.48220565  0.75524510  1
  Ta  Ta100  1  0.49024086  0.87053889  0.24515033  1
  Ta  Ta101  1  0.48184779  0.84688691  0.75190286  1
  Ta  Ta102  1  0.87718059  0.16628651  0.24890177  1
  Ta  Ta103  1  0.84890908  0.14010184  0.75363324  1
  Ta  Ta104  1  0.81005551  0.52340632  0.25070003  1
  Ta  Ta105  1  0.79630207  0.50467571  0.75318297  1
  Ta  Ta106  1  0.83564208  0.78610477  0.24903083  1
  Ta  Ta107  1  0.83840713  0.88027489  0.74915468  1
  Ta  Ta108  1  -0.00807449  0.04873674  0.25181933  1
  Ta  Ta109  1  -0.03810162  0.00701113  0.75305356  1
  Ta  Ta110  1  0.01942567  0.30794343  0.25575023  1
  Ta  Ta111  1  0.00542217  0.30697004  0.74653164  1
  Ta  Ta112  1  -0.05873586  0.66178437  0.24720113  1
  Ta  Ta113  1  0.06079211  0.67227384  0.75019681  1
  Ta  Ta114  1  0.35775570  -0.02355021  0.24683651  1
  Ta  Ta115  1  0.33591216  -0.04547538  0.75366300  1
  Ta  Ta116  1  0.28212456  0.32535904  0.24789883  1
  Ta  Ta117  1  0.35027960  0.31598297  0.75488423  1
  Ta  Ta118  1  0.31817585  0.69407949  0.24815532  1
  Ta  Ta119  1  0.29372857  0.67653549  0.75771199  1
  Ta  Ta120  1  0.61836873  -0.00100207  0.24772382  1
  Ta  Ta121  1  0.70651727  0.00028006  0.74881451  1
  Ta  Ta122  1  0.66271800  0.37494784  0.25328139  1
  Ta  Ta123  1  0.63364051  0.35317391  0.75025526  1
  Ta  Ta124  1  0.69301773  0.64575982  0.24868307  1
  Ta  Ta125  1  0.66963867  0.62586221  0.75066899  1
  Ta  Ta126  1  0.04207215  -0.00573988  -0.00216497  1
  Ta  Ta127  1  0.00570496  -0.03047545  0.49752597  1
  Ta  Ta128  1  -0.03823878  0.33790978  -0.00588729  1
  Ta  Ta129  1  -0.00711310  0.37223046  0.50244923  1
  Ta  Ta130  1  -0.00909120  0.68842190  0.00576564  1
  Ta  Ta131  1  -0.00511682  0.63834552  0.50812503  1
  Ta  Ta132  1  0.28850559  -0.00631372  -0.00814339  1
  Ta  Ta133  1  0.30699246  0.00219638  0.50654862  1
  Ta  Ta134  1  0.32973759  0.37778681  0.01052459  1
  Ta  Ta135  1  0.33333817  0.28488441  0.50060474  1
  Ta  Ta136  1  0.33722270  0.62384048  0.00480703  1
  Ta  Ta137  1  0.38751076  0.66175623  0.49582389  1
  Ta  Ta138  1  0.66651076  -0.04794374  -0.00879903  1
  Ta  Ta139  1  0.66185939  0.06555986  0.50010170  1
  Ta  Ta140  1  0.68756413  0.32107138  0.00426153  1
  Ta  Ta141  1  0.65819941  0.28391542  0.49175587  1
  Ta  Ta142  1  0.66687709  0.70157104  -0.00399570  1
  Ta  Ta143  1  0.61617686  0.66490418  0.49716270  1
  N  N144  1  0.32413886  0.33417861  0.12969366  1
  N  N145  1  0.67061694  0.02213465  0.61826763  1
  N  N146  1  0.83607554  0.17486206  0.87205015  1
  N  N147  1  0.49990571  0.15479476  0.12480208  1
  N  N148  1  0.84507460  0.84230275  0.62187395  1
  N  N149  1  0.50600999  0.83673568  0.12441814  1
  N  N150  1  0.14644651  0.49253957  0.37743472  1
  N  N151  1  0.66653654  0.65902766  0.87145881  1
  N  N152  1  0.65915184  0.66468692  0.37514301  1
  N  N153  1  0.50843595  0.17855751  0.87438069  1
  N  N154  1  0.50385526  0.83139697  0.37525089  1
  N  N155  1  0.67484794  -0.00931643  0.87193629  1
  N  N156  1  0.83300421  0.83824609  0.87162576  1
  N  N157  1  0.16057058  0.16971463  0.38010533  1
  N  N158  1  -0.00707626  0.66562131  0.12599874  1
  N  N159  1  -0.00512384  0.32951789  0.62757078  1
  N  N160  1  0.16973235  0.16692182  0.62756679  1
  N  N161  1  0.50136795  0.50323810  0.13269061  1
  N  N162  1  0.66946933  0.66774416  0.12172115  1
  N  N163  1  0.32831551  -0.01210859  0.62596729  1
  N  N164  1  0.82456669  0.48708778  0.87461860  1
  N  N165  1  0.01748232  0.66438906  0.62960576  1
  N  N166  1  0.16282464  0.49324272  0.13185543  1
  N  N167  1  0.32729759  0.66100194  0.87700125  1
  N  N168  1  0.49716513  0.49984890  0.87493754  1
  N  N169  1  0.17028184  0.16359953  0.87550494  1
  N  N170  1  -0.00483559  0.33330370  0.37485654  1
  N  N171  1  0.00148728  0.00103826  0.87721366  1
  N  N172  1  0.33050107  -0.00557544  0.87326530  1
  N  N173  1  0.33337030  0.66570429  0.12857471  1
  N  N174  1  0.17164573  0.51288616  0.88048874  1
  N  N175  1  0.50199075  0.83293191  0.87279595  1
  N  N176  1  0.66144903  0.33274766  0.37620118  1
  O  O177  1  0.35033695  0.67130468  0.37177779  1
  O  O178  1  0.84459097  0.81357824  0.37710582  1
  O  O179  1  0.33744167  0.34091542  0.87792007  1
  O  O180  1  0.66874740  -0.01235077  0.12959033  1
  O  O181  1  0.17352472  0.85494741  0.36710810  1
  O  O182  1  0.64688497  0.33268132  0.61460312  1
  O  O183  1  0.82081829  0.17262025  0.62265932  1
  O  O184  1  0.49685794  0.82436885  0.62468906  1
  O  O185  1  0.00043281  -0.00984469  0.62572377  1
  O  O186  1  0.15776072  0.16191055  0.11831046  1
  O  O187  1  0.00082323  0.00173781  0.37418321  1
  O  O188  1  0.16066904  0.51256512  0.61764053  1
  O  O189  1  0.50624416  0.18425616  0.62646923  1
  O  O190  1  0.01937470  0.68170472  0.87870533  1
  O  O191  1  0.17184807  0.83601788  0.88073934  1
  O  O192  1  -0.00935352  0.32836508  0.12068988  1
  O  O193  1  0.65221328  0.01713427  0.37342499  1
  O  O194  1  0.33934051  0.66281810  0.61999535  1
  O  O195  1  0.34234333  0.30760292  0.62296565  1
  O  O196  1  0.83789875  0.51033361  0.38621811  1
  O  O197  1  0.33978504  -0.00942272  0.37517893  1
  O  O198  1  -0.01453568  0.34668558  0.86664980  1
  O  O199  1  0.49566434  0.15429244  0.37307010  1
  O  O200  1  0.82534932  0.81641510  0.12716375  1
  O  O201  1  0.33099174  -0.01291051  0.12115020  1
  O  O202  1  0.84664146  0.19016552  0.12511895  1
  O  O203  1  0.49926473  0.51096412  0.62507874  1
  O  O204  1  0.67973003  0.33618085  0.13226085  1
  O  O205  1  0.17376609  0.83424862  0.61843689  1
  O  O206  1  0.84030573  0.49820036  0.63146254  1
  O  O207  1  0.32859010  0.30470366  0.37249495  1
  O  O208  1  0.50175979  0.51665434  0.37017710  1
  O  O209  1  0.64617382  0.64497637  0.62506760  1
  O  O210  1  -0.01085279  0.66068751  0.36534904  1
  O  O211  1  0.66206613  0.33676281  0.88075325  1
  O  O212  1  0.01460857  0.01475069  0.13041028  1
  O  O213  1  0.17984739  0.85094419  0.12925272  1
  O  O214  1  0.82745756  0.17550707  0.36794026  1
  O  O215  1  0.82042347  0.48962552  0.11818795  1
