# generated using pymatgen
data_Sr24Ta24N11O13
_symmetry_space_group_name_H-M   'P 1'
_cell_length_a   16.74861599
_cell_length_b   16.81751118
_cell_length_c   15.72024375
_cell_angle_alpha   90.39749872
_cell_angle_beta   89.99791069
_cell_angle_gamma   89.92593890
_symmetry_Int_Tables_number   1
_chemical_formula_structural   Sr24Ta24N11O13
_chemical_formula_sum   'Sr72 Ta72 N33 O39'
_cell_volume   4427.81136834
_cell_formula_units_Z   3
loop_
 _symmetry_equiv_pos_site_id
 _symmetry_equiv_pos_as_xyz
  1  'x, y, z'
loop_
 _atom_site_type_symbol
 _atom_site_label
 _atom_site_symmetry_multiplicity
 _atom_site_fract_x
 _atom_site_fract_y
 _atom_site_fract_z
 _atom_site_occupancy
  Sr  Sr0  1  -0.01601677  0.13906313  0.08363981  1
  Sr  Sr1  1  0.02059627  0.15668311  0.63549491  1
  Sr  Sr2  1  0.00903336  0.47655461  0.11289725  1
  Sr  Sr3  1  0.00205809  0.48735442  0.65556944  1
  Sr  Sr4  1  -0.01489227  0.82778772  0.15024978  1
  Sr  Sr5  1  -0.01157119  0.80941146  0.60573006  1
  Sr  Sr6  1  0.33511981  0.18127462  0.12882523  1
  Sr  Sr7  1  0.34409361  0.15218246  0.57196746  1
  Sr  Sr8  1  0.34158553  0.50269050  0.15999396  1
  Sr  Sr9  1  0.32821934  0.51111395  0.61437351  1
  Sr  Sr10  1  0.33112251  0.82204637  0.11381696  1
  Sr  Sr11  1  0.34149529  0.84832783  0.66854126  1
  Sr  Sr12  1  0.67829042  0.16331752  0.16129281  1
  Sr  Sr13  1  0.66363516  0.14972435  0.63711692  1
  Sr  Sr14  1  0.65412603  0.48933602  0.08939716  1
  Sr  Sr15  1  0.68285272  0.50127398  0.63034989  1
  Sr  Sr16  1  0.65698790  0.80065293  0.12330281  1
  Sr  Sr17  1  0.65634960  0.82736268  0.58987113  1
  Sr  Sr18  1  0.17448537  0.02141279  0.10982603  1
  Sr  Sr19  1  0.16967900  0.00885883  0.61964856  1
  Sr  Sr20  1  0.18639277  0.34124550  0.13170394  1
  Sr  Sr21  1  0.16095494  0.34897299  0.65633772  1
  Sr  Sr22  1  0.15169253  0.69193450  0.11370209  1
  Sr  Sr23  1  0.16404575  0.66844492  0.59217227  1
  Sr  Sr24  1  0.49480760  0.04291002  0.16060513  1
  Sr  Sr25  1  0.50835665  0.00513458  0.61503579  1
  Sr  Sr26  1  0.50833526  0.34573299  0.09152059  1
  Sr  Sr27  1  0.50677555  0.35373335  0.63590252  1
  Sr  Sr28  1  0.49498852  0.67273933  0.12161934  1
  Sr  Sr29  1  0.47383033  0.68786577  0.65303730  1
  Sr  Sr30  1  0.83269050  -0.01445851  0.11277507  1
  Sr  Sr31  1  0.84149455  0.01213025  0.66917221  1
  Sr  Sr32  1  0.83079781  0.32965775  0.13352138  1
  Sr  Sr33  1  0.84507846  0.31749569  0.58217002  1
  Sr  Sr34  1  0.83901041  0.66443569  0.16832538  1
  Sr  Sr35  1  0.82393088  0.66875059  0.61202359  1
  Sr  Sr36  1  0.00171507  0.16292472  0.41570727  1
  Sr  Sr37  1  -0.00717178  0.13896402  0.86321320  1
  Sr  Sr38  1  -0.00879818  0.46856715  0.33894979  1
  Sr  Sr39  1  0.01107796  0.49285945  0.88266000  1
  Sr  Sr40  1  -0.00750909  0.82882035  0.37495793  1
  Sr  Sr41  1  -0.02900789  0.81201691  0.86137596  1
  Sr  Sr42  1  0.32726978  0.16348036  0.35806862  1
  Sr  Sr43  1  0.34727598  0.18296267  0.91572665  1
  Sr  Sr44  1  0.32631994  0.51225865  0.38555910  1
  Sr  Sr45  1  0.33951589  0.49178783  0.83011902  1
  Sr  Sr46  1  0.33962257  0.82353119  0.34462565  1
  Sr  Sr47  1  0.32217816  0.82976717  0.88643969  1
  Sr  Sr48  1  0.67843089  0.15577022  0.36223124  1
  Sr  Sr49  1  0.65923238  0.14852232  0.84099181  1
  Sr  Sr50  1  0.66961067  0.48368706  0.41479670  1
  Sr  Sr51  1  0.67201391  0.49898935  0.87194484  1
  Sr  Sr52  1  0.65100464  0.81076945  0.38069421  1
  Sr  Sr53  1  0.66369934  0.83060778  0.91038517  1
  Sr  Sr54  1  0.16277496  0.02256966  0.40028032  1
  Sr  Sr55  1  0.18242968  0.01333505  0.87317612  1
  Sr  Sr56  1  0.17586369  0.34856078  0.34041714  1
  Sr  Sr57  1  0.17612814  0.34749581  0.86435466  1
  Sr  Sr58  1  0.15573697  0.68247721  0.38803333  1
  Sr  Sr59  1  0.14868203  0.67326704  0.90854579  1
  Sr  Sr60  1  0.50237048  0.01591883  0.38799643  1
  Sr  Sr61  1  0.50175175  0.01279831  0.85589532  1
  Sr  Sr62  1  0.49319359  0.36582331  0.41352475  1
  Sr  Sr63  1  0.51359108  0.33807563  0.86651948  1
  Sr  Sr64  1  0.48535499  0.67722629  0.34091834  1
  Sr  Sr65  1  0.49007846  0.69451283  0.89034588  1
  Sr  Sr66  1  0.83701392  0.00255291  0.34106920  1
  Sr  Sr67  1  0.83049039  -0.00985241  0.88491421  1
  Sr  Sr68  1  0.82834222  0.32069264  0.36824673  1
  Sr  Sr69  1  0.84779659  0.33579693  0.91970704  1
  Sr  Sr70  1  0.82132852  0.67508546  0.39013511  1
  Sr  Sr71  1  0.84079648  0.63835786  0.81959442  1
  Ta  Ta72  1  0.15905839  0.19107266  -0.00611230  1
  Ta  Ta73  1  0.17434043  0.22017949  0.49843135  1
  Ta  Ta74  1  0.20817053  0.50123549  -0.00370981  1
  Ta  Ta75  1  0.14027238  0.48292458  0.49352859  1
  Ta  Ta76  1  0.13633178  0.85785990  -0.00166925  1
  Ta  Ta77  1  0.21682315  0.84377124  0.50062433  1
  Ta  Ta78  1  0.53708885  0.16376103  0.00506239  1
  Ta  Ta79  1  0.52480916  0.19384193  0.49873555  1
  Ta  Ta80  1  0.45512199  0.51398090  -0.00523937  1
  Ta  Ta81  1  0.49476072  0.55308594  0.49961362  1
  Ta  Ta82  1  0.49831846  0.89068013  0.01797245  1
  Ta  Ta83  1  0.47134606  0.82737256  0.49729801  1
  Ta  Ta84  1  0.79192086  0.15974263  -0.00482628  1
  Ta  Ta85  1  0.82582939  0.12961625  0.49994663  1
  Ta  Ta86  1  0.83738131  0.52658915  -0.00214631  1
  Ta  Ta87  1  0.86660126  0.49465309  0.50468170  1
  Ta  Ta88  1  0.83614737  0.79271445  0.00657171  1
  Ta  Ta89  1  0.82746538  0.87509602  0.50137728  1
  Ta  Ta90  1  0.12678795  0.16583272  0.25282223  1
  Ta  Ta91  1  0.22168169  0.17312237  0.73961808  1
  Ta  Ta92  1  0.16170201  0.53800196  0.24850815  1
  Ta  Ta93  1  0.16807537  0.54328047  0.75312792  1
  Ta  Ta94  1  0.16917936  0.86998138  0.25426274  1
  Ta  Ta95  1  0.14678208  0.81680443  0.74618494  1
  Ta  Ta96  1  0.50546198  0.22912296  0.25239488  1
  Ta  Ta97  1  0.45816773  0.17631306  0.74083074  1
  Ta  Ta98  1  0.52414829  0.48851992  0.25629354  1
  Ta  Ta99  1  0.51626142  0.53371634  0.75065675  1
  Ta  Ta100  1  0.50373435  0.86876839  0.24499521  1
  Ta  Ta101  1  0.53557542  0.84458087  0.74906534  1
  Ta  Ta102  1  0.88193249  0.16267756  0.25141103  1
  Ta  Ta103  1  0.83374086  0.20903794  0.75508189  1
  Ta  Ta104  1  0.79259661  0.49367235  0.25191918  1
  Ta  Ta105  1  0.83728169  0.44363654  0.75152597  1
  Ta  Ta106  1  0.79911011  0.84140839  0.25572537  1
  Ta  Ta107  1  0.79037200  0.83111522  0.74321089  1
  Ta  Ta108  1  0.01733398  0.01772257  0.24786387  1
  Ta  Ta109  1  0.02264684  -0.04327706  0.74458467  1
  Ta  Ta110  1  0.00327289  0.28049159  0.24632502  1
  Ta  Ta111  1  -0.03344414  0.31779530  0.74757731  1
  Ta  Ta112  1  0.01577463  0.64073535  0.24801014  1
  Ta  Ta113  1  0.03360293  0.66302288  0.74559441  1
  Ta  Ta114  1  0.31786690  -0.01649376  0.25769890  1
  Ta  Ta115  1  0.33935679  0.04478203  0.74242707  1
  Ta  Ta116  1  0.37783042  0.34038097  0.24756918  1
  Ta  Ta117  1  0.34100212  0.29854459  0.74806713  1
  Ta  Ta118  1  0.29261766  0.66372281  0.25103819  1
  Ta  Ta119  1  0.28551598  0.67120809  0.75253563  1
  Ta  Ta120  1  0.66020429  -0.03964118  0.25182872  1
  Ta  Ta121  1  0.66717256  -0.04474555  0.74532166  1
  Ta  Ta122  1  0.64516566  0.35518033  0.25563185  1
  Ta  Ta123  1  0.71032165  0.32681764  0.75062128  1
  Ta  Ta124  1  0.66434636  0.61591643  0.25730585  1
  Ta  Ta125  1  0.65221077  0.68909039  0.74697949  1
  Ta  Ta126  1  0.01109579  -0.04027666  -0.00052386  1
  Ta  Ta127  1  -0.04296953  -0.00959843  0.50591964  1
  Ta  Ta128  1  0.03283365  0.30227919  -0.00540846  1
  Ta  Ta129  1  0.02806000  0.34834811  0.50259230  1
  Ta  Ta130  1  -0.04950348  0.65900196  -0.00675979  1
  Ta  Ta131  1  -0.00759190  0.60821132  0.50193660  1
  Ta  Ta132  1  0.35994327  -0.00045709  0.00354605  1
  Ta  Ta133  1  0.33572636  -0.04003309  0.49835361  1
  Ta  Ta134  1  0.33778607  0.37504266  -0.00427131  1
  Ta  Ta135  1  0.30518398  0.33737298  0.50065695  1
  Ta  Ta136  1  0.32755107  0.62649045  -0.00683162  1
  Ta  Ta137  1  0.34278886  0.69765412  0.50281838  1
  Ta  Ta138  1  0.64649223  0.02056055  0.00610770  1
  Ta  Ta139  1  0.70671909  -0.00002138  0.50295980  1
  Ta  Ta140  1  0.67383239  0.28096546  -0.00157567  1
  Ta  Ta141  1  0.66167590  0.29661460  0.49868526  1
  Ta  Ta142  1  0.73077368  0.65729144  -0.00291685  1
  Ta  Ta143  1  0.62050437  0.65528824  0.50228184  1
  N  N144  1  0.17273842  0.50536748  0.87656690  1
  N  N145  1  0.34037301  0.00231263  0.62551118  1
  N  N146  1  0.16253822  0.18052695  0.37310495  1
  N  N147  1  0.83017251  0.83254087  0.37728419  1
  N  N148  1  0.51094894  0.19017893  0.12576759  1
  N  N149  1  0.82796860  0.82281118  0.12934347  1
  N  N150  1  0.50169266  0.84247137  0.62993977  1
  N  N151  1  0.17914686  0.17882078  0.62204771  1
  N  N152  1  0.49950919  0.17691884  0.62068571  1
  N  N153  1  0.49557692  0.84071152  0.37282225  1
  N  N154  1  0.82426999  0.83129690  0.62574667  1
  N  N155  1  0.16070864  0.50377495  0.37367384  1
  N  N156  1  0.33326199  0.00535621  0.37703330  1
  N  N157  1  -0.00039029  -0.01551095  0.62676985  1
  N  N158  1  0.34908357  0.34469719  0.12435188  1
  N  N159  1  0.49358622  0.82925274  0.12194212  1
  N  N160  1  0.66034986  0.66996119  0.62585004  1
  N  N161  1  0.34349044  0.33464534  0.87006742  1
  N  N162  1  0.83842807  0.48794253  0.87763560  1
  N  N163  1  -0.00123381  0.64860593  0.62433199  1
  N  N164  1  0.31973315  0.67727348  0.62613737  1
  N  N165  1  0.65763170  0.65267267  0.37472592  1
  N  N166  1  0.31849573  0.66963056  0.37184956  1
  N  N167  1  0.84338759  0.15793256  0.37517759  1
  N  N168  1  0.82908601  0.16362155  0.87611121  1
  N  N169  1  -0.00915798  0.65598979  0.87479103  1
  N  N170  1  0.49680014  0.51481376  0.37526253  1
  N  N171  1  0.84141814  0.48208564  0.62492550  1
  N  N172  1  0.66806378  0.32849997  0.37557072  1
  N  N173  1  0.00254001  0.32389038  0.62252331  1
  N  N174  1  0.00256664  -0.01065299  0.12829969  1
  N  N175  1  0.67219139  -0.00459734  0.62374202  1
  N  N176  1  0.32356206  0.67091197  0.87593275  1
  O  O177  1  -0.00465819  0.65314774  0.12253300  1
  O  O178  1  -0.00526403  -0.00291654  0.38196039  1
  O  O179  1  0.81778476  0.83132832  0.88017398  1
  O  O180  1  0.50028856  0.17079635  0.87693677  1
  O  O181  1  0.68905920  0.32440372  0.62394839  1
  O  O182  1  0.16758649  0.84980789  0.37900710  1
  O  O183  1  0.32292925  0.34752739  0.62455940  1
  O  O184  1  0.00155552  0.63707449  0.37248093  1
  O  O185  1  0.51276105  0.85434648  0.88974839  1
  O  O186  1  0.82955222  0.16696814  0.62560749  1
  O  O187  1  0.49590457  0.50866709  0.11916804  1
  O  O188  1  0.81040808  0.48840381  0.12585748  1
  O  O189  1  0.00357963  0.31768772  0.37544448  1
  O  O190  1  0.17091606  0.50613565  0.62463434  1
  O  O191  1  0.83625616  0.16082461  0.12871775  1
  O  O192  1  0.68011107  0.32414713  0.87720055  1
  O  O193  1  0.50372963  0.18023235  0.36996002  1
  O  O194  1  0.68778050  0.66507581  0.87670440  1
  O  O195  1  0.50806714  0.53163168  0.87607042  1
  O  O196  1  0.33274659  0.34418329  0.37569930  1
  O  O197  1  0.16668690  0.17609915  0.12371957  1
  O  O198  1  0.34621472  0.01383960  0.87727456  1
  O  O199  1  0.66553228  -0.00120683  0.37498731  1
  O  O200  1  0.18438228  0.17820727  0.87077622  1
  O  O201  1  0.82414310  0.48807663  0.37478981  1
  O  O202  1  -0.00823042  -0.02552950  0.86740170  1
  O  O203  1  0.66275355  0.01112511  0.13186845  1
  O  O204  1  0.17094808  0.49742481  0.12535242  1
  O  O205  1  0.01020348  0.30591024  0.11719255  1
  O  O206  1  0.15267441  0.83018038  0.87766492  1
  O  O207  1  0.15710793  0.85894193  0.12975249  1
  O  O208  1  0.01312126  0.31447632  0.86887169  1
  O  O209  1  0.67162490  0.32563273  0.12158006  1
  O  O210  1  0.68506382  0.64641142  0.12027641  1
  O  O211  1  0.65919867  -0.00367898  0.87972289  1
  O  O212  1  0.33653386  0.00712674  0.12729112  1
  O  O213  1  0.49190433  0.51842464  0.62869302  1
  O  O214  1  0.31913623  0.66792665  0.12263628  1
  O  O215  1  0.17265254  0.82849033  0.62223372  1
