# generated using pymatgen
data_Sr24Ta24N11O13
_symmetry_space_group_name_H-M   'P 1'
_cell_length_a   16.71004144
_cell_length_b   16.89514684
_cell_length_c   15.63307482
_cell_angle_alpha   89.43939843
_cell_angle_beta   89.52217916
_cell_angle_gamma   89.82882115
_symmetry_Int_Tables_number   1
_chemical_formula_structural   Sr24Ta24N11O13
_chemical_formula_sum   'Sr72 Ta72 N33 O39'
_cell_volume   4413.12449364
_cell_formula_units_Z   3
loop_
 _symmetry_equiv_pos_site_id
 _symmetry_equiv_pos_as_xyz
  1  'x, y, z'
loop_
 _atom_site_type_symbol
 _atom_site_label
 _atom_site_symmetry_multiplicity
 _atom_site_fract_x
 _atom_site_fract_y
 _atom_site_fract_z
 _atom_site_occupancy
  Sr  Sr0  1  0.00575349  0.16588285  0.13790182  1
  Sr  Sr1  1  -0.00423465  0.17739963  0.60233715  1
  Sr  Sr2  1  -0.00738511  0.50474683  0.11174435  1
  Sr  Sr3  1  0.00530501  0.50073779  0.66009164  1
  Sr  Sr4  1  0.01088299  0.84157717  0.07521376  1
  Sr  Sr5  1  -0.01555047  0.83701290  0.63517492  1
  Sr  Sr6  1  0.33893267  0.19511437  0.13094165  1
  Sr  Sr7  1  0.33985705  0.16258209  0.59096706  1
  Sr  Sr8  1  0.35112202  0.51763902  0.07019047  1
  Sr  Sr9  1  0.32597717  0.47711231  0.63902602  1
  Sr  Sr10  1  0.31743882  0.82687664  0.16807029  1
  Sr  Sr11  1  0.33566759  0.84262447  0.62427701  1
  Sr  Sr12  1  0.67492132  0.21550527  0.10615538  1
  Sr  Sr13  1  0.66346595  0.17491671  0.66380671  1
  Sr  Sr14  1  0.65789149  0.51477725  0.16302867  1
  Sr  Sr15  1  0.68341957  0.51283923  0.60272346  1
  Sr  Sr16  1  0.68138909  0.82788422  0.13411161  1
  Sr  Sr17  1  0.65325442  0.87536079  0.58431216  1
  Sr  Sr18  1  0.16048306  0.01061579  0.10911913  1
  Sr  Sr19  1  0.15606741  -0.01845648  0.67412581  1
  Sr  Sr20  1  0.15355486  0.33912002  0.17033905  1
  Sr  Sr21  1  0.17720666  0.31599732  0.61137128  1
  Sr  Sr22  1  0.17332264  0.65998339  0.13510510  1
  Sr  Sr23  1  0.17005700  0.68020410  0.58451207  1
  Sr  Sr24  1  0.49873994  -0.05263341  0.14397500  1
  Sr  Sr25  1  0.48416398  -0.00335606  0.61258647  1
  Sr  Sr26  1  0.49854005  0.34539218  0.11439943  1
  Sr  Sr27  1  0.50708147  0.31148291  0.65900358  1
  Sr  Sr28  1  0.50484842  0.65917200  0.10695623  1
  Sr  Sr29  1  0.49980673  0.64495492  0.64235899  1
  Sr  Sr30  1  0.82905998  -0.00764017  0.13896014  1
  Sr  Sr31  1  0.83411224  -0.00523863  0.60763029  1
  Sr  Sr32  1  0.84962201  0.33814058  0.08376894  1
  Sr  Sr33  1  0.82369265  0.32399146  0.61655056  1
  Sr  Sr34  1  0.82068418  0.65373942  0.16133810  1
  Sr  Sr35  1  0.83782781  0.66018796  0.62234206  1
  Sr  Sr36  1  -0.00331770  0.15910927  0.37197955  1
  Sr  Sr37  1  0.01918272  0.17713662  0.87174562  1
  Sr  Sr38  1  0.02677667  0.51082879  0.32381739  1
  Sr  Sr39  1  -0.00810486  0.49731253  0.88265892  1
  Sr  Sr40  1  -0.00654562  0.82109095  0.41607170  1
  Sr  Sr41  1  -0.01084474  0.84316780  0.86091485  1
  Sr  Sr42  1  0.35084423  0.17871936  0.37304272  1
  Sr  Sr43  1  0.33788687  0.14846494  0.92525775  1
  Sr  Sr44  1  0.32516786  0.49894525  0.42443168  1
  Sr  Sr45  1  0.33632385  0.48786475  0.85877326  1
  Sr  Sr46  1  0.32440318  0.83691855  0.37855464  1
  Sr  Sr47  1  0.33740528  0.84897787  0.82692072  1
  Sr  Sr48  1  0.66091805  0.18612131  0.34569062  1
  Sr  Sr49  1  0.65570901  0.17852134  0.87691582  1
  Sr  Sr50  1  0.68409225  0.49536702  0.38830976  1
  Sr  Sr51  1  0.67932198  0.54672766  0.83588060  1
  Sr  Sr52  1  0.67097472  0.87666311  0.35305289  1
  Sr  Sr53  1  0.64788528  0.84249987  0.91878014  1
  Sr  Sr54  1  0.16647752  -0.01252158  0.34143983  1
  Sr  Sr55  1  0.16222703  0.00275214  0.88684371  1
  Sr  Sr56  1  0.18311754  0.31887485  0.38764603  1
  Sr  Sr57  1  0.16249768  0.35163817  0.82861244  1
  Sr  Sr58  1  0.17460484  0.67061559  0.36814377  1
  Sr  Sr59  1  0.14201027  0.65852801  0.92690079  1
  Sr  Sr60  1  0.48952119  -0.00809880  0.38760241  1
  Sr  Sr61  1  0.49726335  -0.00996908  0.87966967  1
  Sr  Sr62  1  0.51803034  0.32228382  0.33127022  1
  Sr  Sr63  1  0.48744417  0.31361788  0.89672667  1
  Sr  Sr64  1  0.50622174  0.61573388  0.40284876  1
  Sr  Sr65  1  0.49194670  0.66576282  0.86737413  1
  Sr  Sr66  1  0.84152328  0.00890325  0.37157288  1
  Sr  Sr67  1  0.81583202  -0.02148422  0.88470998  1
  Sr  Sr68  1  0.83797900  0.33005199  0.40972358  1
  Sr  Sr69  1  0.83333734  0.32088985  0.88323334  1
  Sr  Sr70  1  0.83174604  0.65420270  0.37333444  1
  Sr  Sr71  1  0.84193506  0.66417794  0.83362738  1
  Ta  Ta72  1  0.16577724  0.21216380  0.00223674  1
  Ta  Ta73  1  0.16459506  0.11493833  0.50383507  1
  Ta  Ta74  1  0.16868054  0.46473700  -0.00097856  1
  Ta  Ta75  1  0.13098287  0.50064748  0.49897957  1
  Ta  Ta76  1  0.20937984  0.83093653  -0.00781822  1
  Ta  Ta77  1  0.16455507  0.86794710  0.50891375  1
  Ta  Ta78  1  0.51477722  0.12456126  0.03307150  1
  Ta  Ta79  1  0.52565869  0.17883455  0.50458505  1
  Ta  Ta80  1  0.55066644  0.50227809  -0.01186629  1
  Ta  Ta81  1  0.50707554  0.44150781  0.50037977  1
  Ta  Ta82  1  0.44948707  0.82245384  -0.00677070  1
  Ta  Ta83  1  0.49687586  0.79210786  0.49856975  1
  Ta  Ta84  1  0.83871879  0.13932099  0.00145785  1
  Ta  Ta85  1  0.78997856  0.15997712  0.49866786  1
  Ta  Ta86  1  0.80780748  0.52642500  -0.00113293  1
  Ta  Ta87  1  0.88546766  0.49919741  0.49597591  1
  Ta  Ta88  1  0.83015317  0.79010202  -0.00371030  1
  Ta  Ta89  1  0.80998407  0.81526066  0.49700932  1
  Ta  Ta90  1  0.18863550  0.15404819  0.24981518  1
  Ta  Ta91  1  0.20212870  0.16411920  0.75777519  1
  Ta  Ta92  1  0.24244433  0.50507887  0.24626916  1
  Ta  Ta93  1  0.16637474  0.55268498  0.75597399  1
  Ta  Ta94  1  0.11377340  0.82830565  0.24669489  1
  Ta  Ta95  1  0.16091066  0.78815573  0.75726945  1
  Ta  Ta96  1  0.49982089  0.13014238  0.22740159  1
  Ta  Ta97  1  0.46850706  0.14840025  0.75587582  1
  Ta  Ta98  1  0.44621769  0.50048457  0.24949944  1
  Ta  Ta99  1  0.52559541  0.47084282  0.75456133  1
  Ta  Ta100  1  0.49608428  0.77696659  0.26975864  1
  Ta  Ta101  1  0.53405896  0.83497540  0.74521281  1
  Ta  Ta102  1  0.83264938  0.20111122  0.24893948  1
  Ta  Ta103  1  0.85210883  0.15664303  0.74815054  1
  Ta  Ta104  1  0.84065008  0.46468697  0.24959962  1
  Ta  Ta105  1  0.83286131  0.46674195  0.74834930  1
  Ta  Ta106  1  0.87933725  0.82801027  0.24187776  1
  Ta  Ta107  1  0.78130569  0.83917732  0.74589681  1
  Ta  Ta108  1  0.00118141  -0.03959726  0.24882155  1
  Ta  Ta109  1  -0.02732715  0.02750698  0.74784676  1
  Ta  Ta110  1  -0.03753028  0.33289180  0.24747558  1
  Ta  Ta111  1  -0.02374248  0.32730369  0.75057508  1
  Ta  Ta112  1  -0.00005225  0.70377797  0.24729198  1
  Ta  Ta113  1  0.04265444  0.66848861  0.74917561  1
  Ta  Ta114  1  0.33525899  0.02758364  0.24550222  1
  Ta  Ta115  1  0.33363332  0.04066582  0.75346001  1
  Ta  Ta116  1  0.33811572  0.37084359  0.25290892  1
  Ta  Ta117  1  0.33671984  0.27517742  0.75850239  1
  Ta  Ta118  1  0.35368432  0.63771084  0.25268306  1
  Ta  Ta119  1  0.28254053  0.66933298  0.75919595  1
  Ta  Ta120  1  0.65120515  0.04306583  0.22358046  1
  Ta  Ta121  1  0.65775804  -0.01758971  0.75284138  1
  Ta  Ta122  1  0.72017516  0.34666731  0.25296727  1
  Ta  Ta123  1  0.67072401  0.36860068  0.75222994  1
  Ta  Ta124  1  0.63881512  0.68909244  0.27451667  1
  Ta  Ta125  1  0.66242892  0.72600040  0.73862541  1
  Ta  Ta126  1  -0.02366802  0.02518360  0.00074724  1
  Ta  Ta127  1  0.03524078  -0.00061381  0.50053985  1
  Ta  Ta128  1  0.04150924  0.33398978  -0.00032173  1
  Ta  Ta129  1  0.01388076  0.37823873  0.49425201  1
  Ta  Ta130  1  -0.05445646  0.66774837  -0.00043310  1
  Ta  Ta131  1  0.00247421  0.62665743  0.49218190  1
  Ta  Ta132  1  0.33524598  -0.04625187  -0.00176025  1
  Ta  Ta133  1  0.28752857  -0.00142024  0.50582586  1
  Ta  Ta134  1  0.28611906  0.33614937  -0.00511967  1
  Ta  Ta135  1  0.38899830  0.32900447  0.49847525  1
  Ta  Ta136  1  0.32796171  0.71016552  -0.00625652  1
  Ta  Ta137  1  0.35286349  0.68141212  0.50870552  1
  Ta  Ta138  1  0.66163192  0.03134832  0.02262951  1
  Ta  Ta139  1  0.66041904  0.05376048  0.49394271  1
  Ta  Ta140  1  0.67107952  0.39606992  -0.01016823  1
  Ta  Ta141  1  0.64458891  0.31775454  0.50179933  1
  Ta  Ta142  1  0.68616022  0.65831741  0.00236642  1
  Ta  Ta143  1  0.66199484  0.70754844  0.49322911  1
  N  N144  1  0.32966154  -0.00206935  0.88096979  1
  N  N145  1  0.83460345  0.50416310  0.86827851  1
  N  N146  1  0.00116137  0.33845836  0.12874169  1
  N  N147  1  0.67942767  0.33866174  0.37603779  1
  N  N148  1  0.00284263  -0.00738805  0.37470111  1
  N  N149  1  0.32248105  0.00365024  0.62684980  1
  N  N150  1  0.67001390  -0.03031768  0.13013368  1
  N  N151  1  0.00051079  0.33474751  0.87107521  1
  N  N152  1  0.84335493  0.49899754  0.62257420  1
  N  N153  1  0.16492364  0.50705582  0.88209642  1
  N  N154  1  0.66889408  0.33813817  0.63099151  1
  N  N155  1  0.49960981  0.15703582  0.62547331  1
  N  N156  1  -0.00151927  -0.00057874  0.11942947  1
  N  N157  1  0.00624181  0.66410083  0.37119820  1
  N  N158  1  0.17491412  0.17041874  0.87937962  1
  N  N159  1  0.83374009  0.50073609  0.12010392  1
  N  N160  1  0.82702106  0.16950517  0.37388917  1
  N  N161  1  0.83193510  0.17415978  0.11755431  1
  N  N162  1  0.49716029  0.82610197  0.61811158  1
  N  N163  1  0.81741107  0.82484676  0.87063587  1
  N  N164  1  0.16078632  0.83310274  0.87779905  1
  N  N165  1  0.82528403  0.16601881  0.62689265  1
  N  N166  1  0.82415697  0.83436090  0.61860880  1
  N  N167  1  0.16979395  0.17413406  0.13041817  1
  N  N168  1  0.34937024  0.33599627  0.37658377  1
  N  N169  1  0.84047302  0.82571579  0.12323813  1
  N  N170  1  -0.00530085  0.00417853  0.62816574  1
  N  N171  1  0.49110002  0.82573815  0.87170376  1
  N  N172  1  0.49988871  0.20085533  0.12563356  1
  N  N173  1  0.33045896  0.32300257  0.87234891  1
  N  N174  1  0.66505928  0.64589442  0.38873827  1
  N  N175  1  0.84627112  0.49942283  0.37401000  1
  N  N176  1  0.16023185  0.83282765  0.62754683  1
  O  O177  1  0.47275641  0.80168405  0.13871131  1
  O  O178  1  0.33707043  0.67010922  0.11969110  1
  O  O179  1  0.33233255  0.65625048  0.87532547  1
  O  O180  1  0.33218307  0.01345630  0.37486807  1
  O  O181  1  0.66524641  0.66756202  0.13335743  1
  O  O182  1  0.68116846  0.36706167  0.12119671  1
  O  O183  1  0.17014632  0.15943694  0.62417740  1
  O  O184  1  0.48263925  0.84255613  0.37348834  1
  O  O185  1  0.16524828  0.51587260  0.62195189  1
  O  O186  1  0.65726464  0.01893128  0.62921980  1
  O  O187  1  0.83799953  0.82830321  0.37063359  1
  O  O188  1  0.66817733  0.68897029  0.87691817  1
  O  O189  1  0.33174891  -0.00721072  0.12632540  1
  O  O190  1  0.00713204  0.34698457  0.62092570  1
  O  O191  1  -0.01763300  0.66187858  0.12281188  1
  O  O192  1  0.33930789  0.34376782  0.11138544  1
  O  O193  1  0.49756536  0.14642029  0.90099002  1
  O  O194  1  0.81005767  0.16852193  0.87250379  1
  O  O195  1  0.00211848  -0.00037208  0.87191487  1
  O  O196  1  0.01145425  0.35560486  0.36813140  1
  O  O197  1  0.66218423  0.67208749  0.62328651  1
  O  O198  1  0.18151367  0.51141076  0.37680552  1
  O  O199  1  0.65970741  -0.00171710  0.88203568  1
  O  O200  1  0.34462417  0.65532608  0.38658663  1
  O  O201  1  0.50105301  0.50398559  0.11487398  1
  O  O202  1  0.51463963  0.47178688  0.62978075  1
  O  O203  1  0.32777364  0.67913523  0.63277480  1
  O  O204  1  -0.00650512  0.66531563  0.87678425  1
  O  O205  1  0.34491933  0.31577485  0.62587090  1
  O  O206  1  0.20275489  0.50689354  0.12271004  1
  O  O207  1  0.01380782  0.65905290  0.62256297  1
  O  O208  1  0.50298465  0.16815515  0.35497492  1
  O  O209  1  0.65877400  0.03081802  0.35798737  1
  O  O210  1  0.67564791  0.33147458  0.88322596  1
  O  O211  1  0.16322372  0.82382748  0.12483581  1
  O  O212  1  0.15247294  0.83067390  0.37329350  1
  O  O213  1  0.49305854  0.48317529  0.87967752  1
  O  O214  1  0.17010296  0.15869973  0.38165510  1
  O  O215  1  0.49264154  0.47346171  0.36808066  1
