# generated using pymatgen
data_Sr24Ta24N11O13
_symmetry_space_group_name_H-M   'P 1'
_cell_length_a   16.77672957
_cell_length_b   16.76010922
_cell_length_c   15.72561530
_cell_angle_alpha   89.99683561
_cell_angle_beta   89.84355817
_cell_angle_gamma   90.09261988
_symmetry_Int_Tables_number   1
_chemical_formula_structural   Sr24Ta24N11O13
_chemical_formula_sum   'Sr72 Ta72 N33 O39'
_cell_volume   4421.70341003
_cell_formula_units_Z   3
loop_
 _symmetry_equiv_pos_site_id
 _symmetry_equiv_pos_as_xyz
  1  'x, y, z'
loop_
 _atom_site_type_symbol
 _atom_site_label
 _atom_site_symmetry_multiplicity
 _atom_site_fract_x
 _atom_site_fract_y
 _atom_site_fract_z
 _atom_site_occupancy
  Sr  Sr0  1  0.01497102  0.16711703  0.09546245  1
  Sr  Sr1  1  -0.01329046  0.14548845  0.63065026  1
  Sr  Sr2  1  0.02031964  0.48306367  0.11965464  1
  Sr  Sr3  1  0.00600792  0.48876959  0.63563301  1
  Sr  Sr4  1  -0.01090392  0.82319872  0.13807450  1
  Sr  Sr5  1  0.01309685  0.81602615  0.58774319  1
  Sr  Sr6  1  0.33173387  0.16752609  0.16338889  1
  Sr  Sr7  1  0.32741337  0.15764154  0.62075869  1
  Sr  Sr8  1  0.33427242  0.49200259  0.12572501  1
  Sr  Sr9  1  0.34794391  0.51459438  0.58122319  1
  Sr  Sr10  1  0.33331760  0.85237224  0.12050476  1
  Sr  Sr11  1  0.32570766  0.82653236  0.66833111  1
  Sr  Sr12  1  0.66792240  0.16612916  0.13352722  1
  Sr  Sr13  1  0.65536719  0.17828579  0.58689585  1
  Sr  Sr14  1  0.68969469  0.51027475  0.13270216  1
  Sr  Sr15  1  0.65926680  0.49151727  0.66727018  1
  Sr  Sr16  1  0.65741381  0.82687144  0.08659861  1
  Sr  Sr17  1  0.66808109  0.83068913  0.63527043  1
  Sr  Sr18  1  0.14689009  -0.00451392  0.07851588  1
  Sr  Sr19  1  0.16555160  0.00909672  0.63088322  1
  Sr  Sr20  1  0.17296569  0.33845938  0.12227923  1
  Sr  Sr21  1  0.17778914  0.34583319  0.65882471  1
  Sr  Sr22  1  0.15890916  0.69633314  0.16020985  1
  Sr  Sr23  1  0.16601306  0.66209014  0.61872322  1
  Sr  Sr24  1  0.49800083  0.00075747  0.13399989  1
  Sr  Sr25  1  0.52094927  0.00008395  0.58852545  1
  Sr  Sr26  1  0.50110104  0.34103720  0.08308046  1
  Sr  Sr27  1  0.49053559  0.32881569  0.63225073  1
  Sr  Sr28  1  0.48924972  0.65628599  0.14133393  1
  Sr  Sr29  1  0.51262856  0.67834415  0.62943061  1
  Sr  Sr30  1  0.83490565  0.00155800  0.15297131  1
  Sr  Sr31  1  0.82839263  -0.00855572  0.65358571  1
  Sr  Sr32  1  0.81330031  0.32188195  0.13215695  1
  Sr  Sr33  1  0.84247402  0.32106899  0.62207068  1
  Sr  Sr34  1  0.83802032  0.66659990  0.12925945  1
  Sr  Sr35  1  0.83845831  0.68326992  0.58051532  1
  Sr  Sr36  1  0.00362413  0.16222695  0.39496095  1
  Sr  Sr37  1  -0.02195513  0.14633665  0.86529827  1
  Sr  Sr38  1  0.00088487  0.47349226  0.38954395  1
  Sr  Sr39  1  0.01900133  0.50123881  0.86013573  1
  Sr  Sr40  1  -0.00070793  0.82694698  0.36642224  1
  Sr  Sr41  1  -0.00200544  0.82099440  0.89963611  1
  Sr  Sr42  1  0.32163026  0.15909979  0.37880528  1
  Sr  Sr43  1  0.33513539  0.19035393  0.82560996  1
  Sr  Sr44  1  0.33394555  0.49768868  0.37475167  1
  Sr  Sr45  1  0.34904183  0.49944152  0.91897929  1
  Sr  Sr46  1  0.34114297  0.83659124  0.33402825  1
  Sr  Sr47  1  0.32849595  0.84948985  0.87816469  1
  Sr  Sr48  1  0.67164576  0.15706189  0.36114968  1
  Sr  Sr49  1  0.64508846  0.17329493  0.91559727  1
  Sr  Sr50  1  0.67860463  0.51236630  0.33861985  1
  Sr  Sr51  1  0.68558864  0.50021789  0.86418893  1
  Sr  Sr52  1  0.64351181  0.81614630  0.42614418  1
  Sr  Sr53  1  0.66912450  0.83291833  0.86591355  1
  Sr  Sr54  1  0.14994774  0.01165174  0.41881312  1
  Sr  Sr55  1  0.17394516  0.00501756  0.86318604  1
  Sr  Sr56  1  0.17246630  0.33517802  0.33398490  1
  Sr  Sr57  1  0.16777045  0.35450715  0.89214690  1
  Sr  Sr58  1  0.16421410  0.68008332  0.38587707  1
  Sr  Sr59  1  0.15738391  0.67289164  0.84406899  1
  Sr  Sr60  1  0.49358134  0.00235129  0.36180788  1
  Sr  Sr61  1  0.51521230  -0.00399699  0.91550081  1
  Sr  Sr62  1  0.48709372  0.33859790  0.41526784  1
  Sr  Sr63  1  0.50172559  0.33429218  0.86649603  1
  Sr  Sr64  1  0.49666722  0.66251520  0.37554200  1
  Sr  Sr65  1  0.50773735  0.67615476  0.84729787  1
  Sr  Sr66  1  0.84058114  -0.00451236  0.34783388  1
  Sr  Sr67  1  0.82395293  -0.00930526  0.84954761  1
  Sr  Sr68  1  0.83117486  0.32400080  0.39077463  1
  Sr  Sr69  1  0.82820825  0.32331560  0.86097194  1
  Sr  Sr70  1  0.83116207  0.66504822  0.36747995  1
  Sr  Sr71  1  0.83610646  0.67652477  0.91717493  1
  Ta  Ta72  1  0.21692219  0.17087394  -0.00069396  1
  Ta  Ta73  1  0.16800128  0.20946599  0.50774542  1
  Ta  Ta74  1  0.17369049  0.55083406  0.00687254  1
  Ta  Ta75  1  0.16387565  0.47498035  0.50148024  1
  Ta  Ta76  1  0.16872748  0.80385923  0.00046106  1
  Ta  Ta77  1  0.21159223  0.83941438  0.49878718  1
  Ta  Ta78  1  0.44726869  0.16809945  -0.00499813  1
  Ta  Ta79  1  0.48068399  0.16337011  0.49992818  1
  Ta  Ta80  1  0.53841888  0.51793689  -0.00892758  1
  Ta  Ta81  1  0.54461637  0.50529011  0.50487636  1
  Ta  Ta82  1  0.48832012  0.80190615  -0.00166760  1
  Ta  Ta83  1  0.45212209  0.83408028  0.50159440  1
  Ta  Ta84  1  0.82876522  0.13271265  -0.00132111  1
  Ta  Ta85  1  0.82852520  0.12457137  0.50511936  1
  Ta  Ta86  1  0.85517281  0.48015841  -0.00379060  1
  Ta  Ta87  1  0.80435914  0.49944375  0.50214475  1
  Ta  Ta88  1  0.83048958  0.86815073  0.00749624  1
  Ta  Ta89  1  0.83031563  0.86810301  0.49912862  1
  Ta  Ta90  1  0.15303372  0.13378772  0.24385096  1
  Ta  Ta91  1  0.14197266  0.18543223  0.75213061  1
  Ta  Ta92  1  0.16826707  0.52749027  0.25242275  1
  Ta  Ta93  1  0.21650763  0.50922770  0.75343713  1
  Ta  Ta94  1  0.16157290  0.88102887  0.25272947  1
  Ta  Ta95  1  0.13479956  0.84010168  0.74685263  1
  Ta  Ta96  1  0.50146782  0.21664558  0.24709142  1
  Ta  Ta97  1  0.52089142  0.14285434  0.75130473  1
  Ta  Ta98  1  0.50023281  0.46818842  0.24793947  1
  Ta  Ta99  1  0.46729839  0.50383183  0.74935637  1
  Ta  Ta100  1  0.53239375  0.82848164  0.24995043  1
  Ta  Ta101  1  0.50258591  0.87818496  0.74952422  1
  Ta  Ta102  1  0.87029223  0.17387097  0.24637108  1
  Ta  Ta103  1  0.77777707  0.16378581  0.75150720  1
  Ta  Ta104  1  0.86839307  0.48724533  0.25608177  1
  Ta  Ta105  1  0.84735184  0.55511316  0.74584041  1
  Ta  Ta106  1  0.78722950  0.82392624  0.24972549  1
  Ta  Ta107  1  0.85896707  0.80430481  0.74328859  1
  Ta  Ta108  1  0.02799963  0.01114878  0.25344429  1
  Ta  Ta109  1  0.00152461  -0.04862882  0.74343081  1
  Ta  Ta110  1  -0.01923060  0.31682217  0.25529588  1
  Ta  Ta111  1  0.01284104  0.30825851  0.74957783  1
  Ta  Ta112  1  0.00011100  0.62343573  0.25727338  1
  Ta  Ta113  1  -0.03255654  0.67506922  0.74764132  1
  Ta  Ta114  1  0.27012227  0.00397303  0.24937860  1
  Ta  Ta115  1  0.39174551  0.00532756  0.74971535  1
  Ta  Ta116  1  0.37634315  0.33804328  0.24621573  1
  Ta  Ta117  1  0.33841616  0.39293305  0.75220171  1
  Ta  Ta118  1  0.31990302  0.65239613  0.25294030  1
  Ta  Ta119  1  0.33623010  0.62541604  0.75186670  1
  Ta  Ta120  1  0.66312766  -0.06161046  0.25346770  1
  Ta  Ta121  1  0.64290337  0.02671836  0.75179884  1
  Ta  Ta122  1  0.62281005  0.33796474  0.24579327  1
  Ta  Ta123  1  0.66239897  0.29435379  0.75185833  1
  Ta  Ta124  1  0.65955837  0.71163951  0.25221701  1
  Ta  Ta125  1  0.72156999  0.66814501  0.74508434  1
  Ta  Ta126  1  -0.04393631  -0.00897671  -0.00033211  1
  Ta  Ta127  1  -0.03854343  -0.00978741  0.50056604  1
  Ta  Ta128  1  -0.02844973  0.34000562  -0.00290713  1
  Ta  Ta129  1  0.04927443  0.32486584  0.50192570  1
  Ta  Ta130  1  0.02520620  0.65211928  0.01074232  1
  Ta  Ta131  1  0.00411141  0.63248704  0.48784406  1
  Ta  Ta132  1  0.33193014  0.04045034  -0.00238913  1
  Ta  Ta133  1  0.33616624  -0.02624410  0.50079833  1
  Ta  Ta134  1  0.33145239  0.29759578  0.00201033  1
  Ta  Ta135  1  0.29305587  0.33031567  0.50075945  1
  Ta  Ta136  1  0.31067706  0.68173544  -0.00086955  1
  Ta  Ta137  1  0.33574315  0.70967628  0.50200630  1
  Ta  Ta138  1  0.70310524  -0.00202158  0.00603936  1
  Ta  Ta139  1  0.70408018  -0.00322195  0.49747794  1
  Ta  Ta140  1  0.67506254  0.36355026  -0.00303848  1
  Ta  Ta141  1  0.66720963  0.37629236  0.50038903  1
  Ta  Ta142  1  0.64210942  0.65528770  -0.00329043  1
  Ta  Ta143  1  0.66874178  0.62087096  0.50778655  1
  N  N144  1  0.00850848  0.31881107  0.37696910  1
  N  N145  1  0.83185480  0.49225216  0.37501268  1
  N  N146  1  0.49766633  0.84016428  0.62902681  1
  N  N147  1  0.48877905  0.16786881  0.87652805  1
  N  N148  1  0.83684754  0.83211358  0.62308388  1
  N  N149  1  0.16030986  0.84534266  0.11836593  1
  N  N150  1  0.49310317  0.83433451  0.38217678  1
  N  N151  1  0.17175114  0.83438679  0.62276730  1
  N  N152  1  0.82631348  0.82777485  0.12596165  1
  N  N153  1  0.50309269  0.83799457  0.87861964  1
  N  N154  1  0.16637002  0.16991078  0.63013058  1
  N  N155  1  0.16397854  0.83459366  0.87318609  1
  N  N156  1  0.17070956  0.84529720  0.37642650  1
  N  N157  1  0.17945152  0.50478301  0.62574416  1
  N  N158  1  0.49614494  0.83058482  0.12329273  1
  N  N159  1  0.81703048  0.15805452  0.87297316  1
  N  N160  1  0.49584924  0.16802728  0.62121576  1
  N  N161  1  0.18022818  0.51293787  0.88183929  1
  N  N162  1  0.66005952  0.32895990  0.87283454  1
  N  N163  1  0.65717032  0.33946507  0.12267619  1
  N  N164  1  0.67759925  0.66298673  0.62711447  1
  N  N165  1  -0.00371462  0.65719989  0.13013482  1
  N  N166  1  0.17659917  0.49766017  0.37383144  1
  N  N167  1  0.50319940  0.50285540  0.62167481  1
  N  N168  1  -0.00229132  -0.01570072  0.62481340  1
  N  N169  1  0.83960533  0.16296961  0.12747360  1
  N  N170  1  0.33419700  0.33242951  0.12957781  1
  N  N171  1  0.51313575  0.50473437  0.87105543  1
  N  N172  1  -0.01061811  0.67234765  0.37492005  1
  N  N173  1  0.17208737  0.16508941  0.12246002  1
  N  N174  1  -0.00135889  -0.00379663  0.37334306  1
  N  N175  1  0.81886581  0.15459225  0.62545418  1
  N  N176  1  0.17886780  0.50061100  0.12137810  1
  O  O177  1  0.33323551  0.34459223  0.87920266  1
  O  O178  1  0.66213581  0.66704281  0.37721011  1
  O  O179  1  0.65091556  0.67074962  0.12451211  1
  O  O180  1  0.49739192  0.18654121  0.37345991  1
  O  O181  1  0.84311961  0.50973964  0.62574209  1
  O  O182  1  0.51049419  0.49524785  0.12395014  1
  O  O183  1  0.83733061  0.15345919  0.37031818  1
  O  O184  1  0.00437569  0.32537837  0.62461065  1
  O  O185  1  -0.01059315  0.31939707  0.87564444  1
  O  O186  1  0.85403179  0.51409866  0.87427696  1
  O  O187  1  0.18162655  0.17081401  0.87248154  1
  O  O188  1  0.84860906  0.48836226  0.12229687  1
  O  O189  1  0.32720738  0.66903451  0.87495003  1
  O  O190  1  0.34473380  0.01713230  0.86967108  1
  O  O191  1  -0.00880327  0.66597139  0.88166103  1
  O  O192  1  0.67847699  0.66396280  0.87311773  1
  O  O193  1  0.82920551  0.83048924  0.37511197  1
  O  O194  1  -0.00716055  0.65723163  0.61432447  1
  O  O195  1  0.16431564  0.17003642  0.37115880  1
  O  O196  1  0.66533020  0.33978016  0.62363441  1
  O  O197  1  0.33193953  0.35791456  0.62008293  1
  O  O198  1  0.32585788  0.67141254  0.12988412  1
  O  O199  1  0.33386602  0.66895362  0.62530186  1
  O  O200  1  0.34573170  -0.00313350  0.62723046  1
  O  O201  1  -0.02193450  -0.01909670  0.87318458  1
  O  O202  1  0.65712505  0.35869725  0.37518805  1
  O  O203  1  0.50630564  0.48938673  0.37501152  1
  O  O204  1  0.83541044  0.82965327  0.88144697  1
  O  O205  1  0.31775854  -0.00323859  0.37470283  1
  O  O206  1  0.67179880  0.00601747  0.62139672  1
  O  O207  1  0.31377534  0.01346530  0.12368974  1
  O  O208  1  -0.01151868  0.32600122  0.12008342  1
  O  O209  1  0.67105291  0.00458029  0.88193642  1
  O  O210  1  0.67677781  -0.01483930  0.13097982  1
  O  O211  1  0.33165152  0.33846173  0.37542172  1
  O  O212  1  -0.01071613  -0.00212023  0.12315349  1
  O  O213  1  0.67850167  -0.01521619  0.37316249  1
  O  O214  1  0.49251764  0.18576573  0.12134327  1
  O  O215  1  0.33581245  0.66070989  0.37928934  1
