# generated using pymatgen
data_Sr24Ta24N11O13
_symmetry_space_group_name_H-M   'P 1'
_cell_length_a   16.77428122
_cell_length_b   16.82381159
_cell_length_c   15.67479453
_cell_angle_alpha   90.08835178
_cell_angle_beta   89.59734347
_cell_angle_gamma   89.81923817
_symmetry_Int_Tables_number   1
_chemical_formula_structural   Sr24Ta24N11O13
_chemical_formula_sum   'Sr72 Ta72 N33 O39'
_cell_volume   4423.40551608
_cell_formula_units_Z   3
loop_
 _symmetry_equiv_pos_site_id
 _symmetry_equiv_pos_as_xyz
  1  'x, y, z'
loop_
 _atom_site_type_symbol
 _atom_site_label
 _atom_site_symmetry_multiplicity
 _atom_site_fract_x
 _atom_site_fract_y
 _atom_site_fract_z
 _atom_site_occupancy
  Sr  Sr0  1  -0.01522401  0.15004796  0.16221224  1
  Sr  Sr1  1  0.00388685  0.14581120  0.60884080  1
  Sr  Sr2  1  0.01807783  0.47701061  0.07771758  1
  Sr  Sr3  1  -0.01492609  0.49349609  0.64383386  1
  Sr  Sr4  1  0.01688781  0.81423504  0.12371752  1
  Sr  Sr5  1  -0.00226146  0.81319231  0.59359581  1
  Sr  Sr6  1  0.32851792  0.16596170  0.11625029  1
  Sr  Sr7  1  0.32764455  0.15844268  0.65466636  1
  Sr  Sr8  1  0.33259649  0.49732268  0.15775987  1
  Sr  Sr9  1  0.32505925  0.48112355  0.62740977  1
  Sr  Sr10  1  0.34121646  0.80697688  0.10757428  1
  Sr  Sr11  1  0.33489547  0.84014203  0.62428507  1
  Sr  Sr12  1  0.68073565  0.16026677  0.07869022  1
  Sr  Sr13  1  0.66317334  0.18023213  0.63750929  1
  Sr  Sr14  1  0.67302912  0.49183810  0.13656550  1
  Sr  Sr15  1  0.66106306  0.52383165  0.57594745  1
  Sr  Sr16  1  0.67859058  0.83230153  0.12814258  1
  Sr  Sr17  1  0.67937156  0.82517030  0.66610574  1
  Sr  Sr18  1  0.16533567  0.02926820  0.14182664  1
  Sr  Sr19  1  0.17028218  0.01576353  0.64667462  1
  Sr  Sr20  1  0.16775794  0.33567272  0.08262351  1
  Sr  Sr21  1  0.14747155  0.35238222  0.61850548  1
  Sr  Sr22  1  0.17959448  0.66110208  0.13332062  1
  Sr  Sr23  1  0.17539876  0.70570927  0.58492285  1
  Sr  Sr24  1  0.49028206  0.00649690  0.13888370  1
  Sr  Sr25  1  0.49883625  0.00502807  0.58603725  1
  Sr  Sr26  1  0.47665472  0.34761376  0.17342112  1
  Sr  Sr27  1  0.49679764  0.32965789  0.62047850  1
  Sr  Sr28  1  0.51782257  0.66525995  0.08357406  1
  Sr  Sr29  1  0.48624623  0.68456984  0.64045736  1
  Sr  Sr30  1  0.83883477  -0.00701456  0.10810144  1
  Sr  Sr31  1  0.82711791  0.01690886  0.63069879  1
  Sr  Sr32  1  0.83418367  0.33349264  0.11624830  1
  Sr  Sr33  1  0.82387844  0.34310125  0.66203447  1
  Sr  Sr34  1  0.82400678  0.67191426  0.17734101  1
  Sr  Sr35  1  0.84421747  0.65650122  0.61478830  1
  Sr  Sr36  1  -0.00479181  0.17015576  0.37769661  1
  Sr  Sr37  1  0.00210132  0.12293213  0.84019201  1
  Sr  Sr38  1  0.00344764  0.47623920  0.39940338  1
  Sr  Sr39  1  -0.01978425  0.49822989  0.86116646  1
  Sr  Sr40  1  0.01294323  0.79178559  0.37237099  1
  Sr  Sr41  1  0.01035507  0.82350184  0.90244945  1
  Sr  Sr42  1  0.34723166  0.15395536  0.33122649  1
  Sr  Sr43  1  0.31628459  0.16946983  0.89136870  1
  Sr  Sr44  1  0.32396557  0.48180266  0.37035178  1
  Sr  Sr45  1  0.35026757  0.49919788  0.83465324  1
  Sr  Sr46  1  0.34892567  0.81693278  0.40378921  1
  Sr  Sr47  1  0.33773381  0.82207850  0.87264683  1
  Sr  Sr48  1  0.65398574  0.15215443  0.42277253  1
  Sr  Sr49  1  0.66743482  0.17333893  0.86671135  1
  Sr  Sr50  1  0.68275858  0.49524696  0.35950668  1
  Sr  Sr51  1  0.65408514  0.50900737  0.91866462  1
  Sr  Sr52  1  0.67722730  0.84549184  0.33321237  1
  Sr  Sr53  1  0.67888400  0.82486667  0.87374714  1
  Sr  Sr54  1  0.16470902  0.03994581  0.35670843  1
  Sr  Sr55  1  0.17537988  0.00893985  0.85476696  1
  Sr  Sr56  1  0.14796571  0.34055957  0.41024092  1
  Sr  Sr57  1  0.15146393  0.36370131  0.87166579  1
  Sr  Sr58  1  0.18990936  0.66839829  0.35112173  1
  Sr  Sr59  1  0.16388856  0.68421676  0.91292267  1
  Sr  Sr60  1  0.50259184  -0.00733149  0.36688253  1
  Sr  Sr61  1  0.48756200  0.03307514  0.91615666  1
  Sr  Sr62  1  0.51517992  0.33713148  0.38807147  1
  Sr  Sr63  1  0.48274122  0.32992854  0.83714593  1
  Sr  Sr64  1  0.50730512  0.67228474  0.41201350  1
  Sr  Sr65  1  0.49419743  0.67372567  0.86589253  1
  Sr  Sr66  1  0.84017371  0.01841791  0.38990025  1
  Sr  Sr67  1  0.82259267  -0.00235056  0.87440098  1
  Sr  Sr68  1  0.83787357  0.32869819  0.33787925  1
  Sr  Sr69  1  0.81224294  0.34826906  0.89382705  1
  Sr  Sr70  1  0.83591465  0.65014459  0.38686011  1
  Sr  Sr71  1  0.84578815  0.66684681  0.83382011  1
  Ta  Ta72  1  0.11962158  0.16313508  -0.00927348  1
  Ta  Ta73  1  0.20014941  0.16882583  0.50514264  1
  Ta  Ta74  1  0.22240510  0.50705010  -0.00634941  1
  Ta  Ta75  1  0.16712481  0.53157991  0.49836562  1
  Ta  Ta76  1  0.17815988  0.87716862  0.00370654  1
  Ta  Ta77  1  0.17082092  0.88701031  0.49353190  1
  Ta  Ta78  1  0.49599519  0.21591936  0.00602067  1
  Ta  Ta79  1  0.45679999  0.17043974  0.49651311  1
  Ta  Ta80  1  0.47234070  0.47592565  -0.00256476  1
  Ta  Ta81  1  0.47718802  0.50736171  0.50216161  1
  Ta  Ta82  1  0.51639896  0.85581766  -0.00084838  1
  Ta  Ta83  1  0.55239486  0.83673047  0.49970928  1
  Ta  Ta84  1  0.87398189  0.16266508  -0.00679006  1
  Ta  Ta85  1  0.82987711  0.20567044  0.50978054  1
  Ta  Ta86  1  0.83214197  0.54360470  0.00007110  1
  Ta  Ta87  1  0.83631031  0.46385387  0.50035289  1
  Ta  Ta88  1  0.84199321  0.78799138  0.00860934  1
  Ta  Ta89  1  0.80634313  0.83879142  0.49829574  1
  Ta  Ta90  1  0.15746682  0.21545814  0.24712092  1
  Ta  Ta91  1  0.15591869  0.20547462  0.75048657  1
  Ta  Ta92  1  0.14384830  0.47581557  0.25086158  1
  Ta  Ta93  1  0.16466338  0.55584934  0.74596977  1
  Ta  Ta94  1  0.17835174  0.86225155  0.25958008  1
  Ta  Ta95  1  0.15086727  0.82623181  0.74326957  1
  Ta  Ta96  1  0.54354025  0.16845420  0.25321387  1
  Ta  Ta97  1  0.49571426  0.13536186  0.74450270  1
  Ta  Ta98  1  0.50614188  0.54479390  0.25268699  1
  Ta  Ta99  1  0.54214251  0.50770335  0.75117959  1
  Ta  Ta100  1  0.49523985  0.80717190  0.25460816  1
  Ta  Ta101  1  0.50269233  0.88758023  0.75202189  1
  Ta  Ta102  1  0.79114863  0.16002970  0.24362268  1
  Ta  Ta103  1  0.84938475  0.18534088  0.76089411  1
  Ta  Ta104  1  0.88257893  0.49469796  0.24554959  1
  Ta  Ta105  1  0.77703290  0.50443966  0.74974352  1
  Ta  Ta106  1  0.86344793  0.85785263  0.25058921  1
  Ta  Ta107  1  0.87075599  0.83921558  0.74994989  1
  Ta  Ta108  1  0.00137928  -0.03666133  0.25784194  1
  Ta  Ta109  1  -0.00284812  -0.05186462  0.74836184  1
  Ta  Ta110  1  0.02351519  0.34329730  0.23707321  1
  Ta  Ta111  1  -0.00733701  0.29891976  0.75778596  1
  Ta  Ta112  1  0.00861018  0.60878646  0.24445050  1
  Ta  Ta113  1  0.03940127  0.67791295  0.74570805  1
  Ta  Ta114  1  0.32478221  -0.04719333  0.25091855  1
  Ta  Ta115  1  0.37372496  -0.00270491  0.75058780  1
  Ta  Ta116  1  0.27517571  0.32553742  0.24746028  1
  Ta  Ta117  1  0.30111612  0.31683066  0.74610475  1
  Ta  Ta118  1  0.38206638  0.66662331  0.25098068  1
  Ta  Ta119  1  0.28969192  0.66952091  0.74694143  1
  Ta  Ta120  1  0.67401288  0.03565729  0.25397077  1
  Ta  Ta121  1  0.62356071  0.00517449  0.75280760  1
  Ta  Ta122  1  0.66358601  0.28773368  0.25111441  1
  Ta  Ta123  1  0.65566611  0.38270652  0.74868926  1
  Ta  Ta124  1  0.63021916  0.66632936  0.25355581  1
  Ta  Ta125  1  0.66475557  0.63055412  0.75008721  1
  Ta  Ta126  1  0.01997313  0.00462894  0.00303581  1
  Ta  Ta127  1  0.02109479  -0.02417191  0.48629393  1
  Ta  Ta128  1  -0.00701787  0.28151673  -0.00850079  1
  Ta  Ta129  1  -0.05263795  0.32188525  0.50757856  1
  Ta  Ta130  1  -0.04388166  0.65595624  0.00434611  1
  Ta  Ta131  1  0.02311131  0.63077603  0.50407556  1
  Ta  Ta132  1  0.31360492  -0.02248039  0.00796038  1
  Ta  Ta133  1  0.31546932  0.02153811  0.50219983  1
  Ta  Ta134  1  0.35367922  0.35599915  0.00362163  1
  Ta  Ta135  1  0.32836139  0.29394870  0.49838427  1
  Ta  Ta136  1  0.33997685  0.62524047  -0.00369397  1
  Ta  Ta137  1  0.33535119  0.63003357  0.50106566  1
  Ta  Ta138  1  0.64941733  -0.02128257  -0.00215401  1
  Ta  Ta139  1  0.67581160  -0.04598347  0.50018656  1
  Ta  Ta140  1  0.60688520  0.33649554  0.00513835  1
  Ta  Ta141  1  0.70534496  0.33569858  0.49560755  1
  Ta  Ta142  1  0.71463279  0.67154003  0.00808288  1
  Ta  Ta143  1  0.67674091  0.71714082  0.49355278  1
  N  N144  1  0.32294778  0.33537461  0.12500722  1
  N  N145  1  0.15883959  0.17551757  0.62037148  1
  N  N146  1  0.81976532  0.50110213  0.61953634  1
  N  N147  1  0.16967818  0.85568298  0.62280118  1
  N  N148  1  0.67413436  0.32448925  0.37382851  1
  N  N149  1  0.33238306  0.66398279  0.87218852  1
  N  N150  1  0.50051459  0.50117012  0.87578671  1
  N  N151  1  0.84365946  0.82651184  0.13084873  1
  N  N152  1  0.00358241  -0.02607930  0.87038225  1
  N  N153  1  0.83109590  0.16281822  0.12182776  1
  N  N154  1  0.51190467  0.83269841  0.37515354  1
  N  N155  1  0.67394871  0.67437454  0.37559237  1
  N  N156  1  -0.00170444  0.32057622  0.11732746  1
  N  N157  1  0.34286954  0.65940143  0.37533412  1
  N  N158  1  0.33695002  0.00144800  0.62309777  1
  N  N159  1  0.34778868  0.65446735  0.12499733  1
  N  N160  1  0.50131358  0.16466913  0.37255965  1
  N  N161  1  0.33454841  -0.00537038  0.13296096  1
  N  N162  1  0.00572813  0.01946089  0.37240422  1
  N  N163  1  0.81890547  0.15775291  0.88416790  1
  N  N164  1  0.67347899  0.66736905  0.12836898  1
  N  N165  1  0.67048246  -0.00004766  0.37573681  1
  N  N166  1  0.49269593  0.16323430  0.62239591  1
  N  N167  1  0.81949488  0.50756396  0.87876051  1
  N  N168  1  0.16079157  0.16339073  0.87390655  1
  N  N169  1  0.82518775  0.17625103  0.63341057  1
  N  N170  1  0.84464206  0.49065727  0.36492605  1
  N  N171  1  0.65898508  0.00505076  0.87513875  1
  N  N172  1  0.32370372  0.32748752  0.62304520  1
  N  N173  1  0.16693674  0.49887699  0.37322071  1
  N  N174  1  0.00475062  -0.01180209  0.12695772  1
  N  N175  1  0.33008315  0.66746632  0.62650437  1
  N  N176  1  0.00358867  0.65861745  0.62875817  1
  O  O177  1  0.00222897  -0.01460648  0.61498517  1
  O  O178  1  0.67593054  0.66832188  0.87425710  1
  O  O179  1  0.16644763  0.50358514  0.63121624  1
  O  O180  1  0.01026128  0.63359478  0.11839971  1
  O  O181  1  0.83214759  0.83775727  0.37471973  1
  O  O182  1  0.16890450  0.85027349  0.87781835  1
  O  O183  1  0.49570804  0.50570151  0.62672632  1
  O  O184  1  0.67233560  0.67412524  0.62655170  1
  O  O185  1  0.85444995  0.82084043  0.87716963  1
  O  O186  1  0.83237761  0.49503615  0.12571658  1
  O  O187  1  0.17666454  0.82377052  0.38521629  1
  O  O188  1  0.49432021  0.18239398  0.87884597  1
  O  O189  1  0.16848970  0.86082458  0.13462334  1
  O  O190  1  0.83553435  0.17259219  0.36658166  1
  O  O191  1  0.83602968  0.83469074  0.62625698  1
  O  O192  1  0.33820488  -0.00324974  0.87793751  1
  O  O193  1  0.49439495  0.50002709  0.37698871  1
  O  O194  1  0.63353908  0.33578732  0.13121327  1
  O  O195  1  0.66422627  0.00447452  0.12364078  1
  O  O196  1  0.50696490  0.83663557  0.12300001  1
  O  O197  1  0.63498108  0.35420752  0.88130638  1
  O  O198  1  0.51832870  0.84247241  0.62900935  1
  O  O199  1  -0.00745358  0.34273258  0.87649768  1
  O  O200  1  0.17819176  0.49724078  0.11587191  1
  O  O201  1  0.30704624  0.32733249  0.37500477  1
  O  O202  1  -0.00883819  0.32512460  0.38173511  1
  O  O203  1  0.50932387  0.84171295  0.87373786  1
  O  O204  1  0.66911916  -0.01165875  0.62819134  1
  O  O205  1  0.32828926  0.32993380  0.87244460  1
  O  O206  1  -0.00514260  0.66068148  0.87685379  1
  O  O207  1  0.49140394  0.19329111  0.13216540  1
  O  O208  1  0.66685903  0.35310144  0.62167960  1
  O  O209  1  -0.00745588  0.30815378  0.62795146  1
  O  O210  1  0.00779302  0.63376463  0.36975091  1
  O  O211  1  0.17803817  0.51731874  0.87240144  1
  O  O212  1  0.33705992  0.00109927  0.36771856  1
  O  O213  1  0.15131308  0.18930306  0.38420431  1
  O  O214  1  0.15780696  0.18369969  0.11598534  1
  O  O215  1  0.49493267  0.50302322  0.13184525  1
