# generated using pymatgen
data_Sr24Ta24N11O13
_symmetry_space_group_name_H-M   'P 1'
_cell_length_a   16.62438181
_cell_length_b   17.04957220
_cell_length_c   15.67934867
_cell_angle_alpha   89.83608791
_cell_angle_beta   90.12114835
_cell_angle_gamma   90.66376541
_symmetry_Int_Tables_number   1
_chemical_formula_structural   Sr24Ta24N11O13
_chemical_formula_sum   'Sr72 Ta72 N33 O39'
_cell_volume   4443.80657488
_cell_formula_units_Z   3
loop_
 _symmetry_equiv_pos_site_id
 _symmetry_equiv_pos_as_xyz
  1  'x, y, z'
loop_
 _atom_site_type_symbol
 _atom_site_label
 _atom_site_symmetry_multiplicity
 _atom_site_fract_x
 _atom_site_fract_y
 _atom_site_fract_z
 _atom_site_occupancy
  Sr  Sr0  1  -0.00030075  0.19493750  0.09966076  1
  Sr  Sr1  1  -0.00701806  0.17238521  0.63633205  1
  Sr  Sr2  1  -0.01144044  0.51080545  0.14036433  1
  Sr  Sr3  1  -0.00244887  0.52538715  0.66049166  1
  Sr  Sr4  1  0.01268375  0.84382434  0.13496601  1
  Sr  Sr5  1  -0.00766223  0.83637183  0.58045632  1
  Sr  Sr6  1  0.32184643  0.17320344  0.14580528  1
  Sr  Sr7  1  0.32833984  0.20070528  0.64076566  1
  Sr  Sr8  1  0.33800353  0.50791764  0.13284051  1
  Sr  Sr9  1  0.31908651  0.51087284  0.59224702  1
  Sr  Sr10  1  0.33363162  0.86963735  0.09197123  1
  Sr  Sr11  1  0.32731940  0.83478500  0.64347627  1
  Sr  Sr12  1  0.66615104  0.18492354  0.12155410  1
  Sr  Sr13  1  0.65538746  0.17405647  0.59821715  1
  Sr  Sr14  1  0.66888538  0.53622768  0.09061976  1
  Sr  Sr15  1  0.67295895  0.49493894  0.63148701  1
  Sr  Sr16  1  0.65875373  0.84243380  0.14751438  1
  Sr  Sr17  1  0.66481420  0.85219412  0.64618620  1
  Sr  Sr18  1  0.16649772  -0.00728579  0.13329854  1
  Sr  Sr19  1  0.16856794  -0.03981424  0.59096416  1
  Sr  Sr20  1  0.17243770  0.33266282  0.08198796  1
  Sr  Sr21  1  0.16149294  0.32204833  0.63357506  1
  Sr  Sr22  1  0.17279172  0.65223829  0.15108368  1
  Sr  Sr23  1  0.17895693  0.65609111  0.64329698  1
  Sr  Sr24  1  0.51461756  -0.00730684  0.10330982  1
  Sr  Sr25  1  0.49882541  -0.01590560  0.62119179  1
  Sr  Sr26  1  0.49965755  0.30573367  0.13911146  1
  Sr  Sr27  1  0.50466744  0.32417156  0.65513408  1
  Sr  Sr28  1  0.50001198  0.66190075  0.14010845  1
  Sr  Sr29  1  0.50178139  0.62921490  0.59154288  1
  Sr  Sr30  1  0.84790050  -0.03394738  0.14705834  1
  Sr  Sr31  1  0.84857412  -0.01294045  0.63942854  1
  Sr  Sr32  1  0.84035460  0.32515558  0.14323348  1
  Sr  Sr33  1  0.82392633  0.31162527  0.58931074  1
  Sr  Sr34  1  0.84157693  0.66134412  0.08350914  1
  Sr  Sr35  1  0.82641874  0.65661658  0.63504395  1
  Sr  Sr36  1  -0.00708606  0.20513839  0.39691885  1
  Sr  Sr37  1  -0.00243259  0.16617902  0.86199046  1
  Sr  Sr38  1  -0.00849631  0.50739528  0.34567286  1
  Sr  Sr39  1  -0.00937408  0.52656180  0.86421718  1
  Sr  Sr40  1  0.02002732  0.84617642  0.36253849  1
  Sr  Sr41  1  -0.00480984  0.84244568  0.91223316  1
  Sr  Sr42  1  0.32519254  0.17723375  0.36065416  1
  Sr  Sr43  1  0.32549175  0.19176467  0.84871036  1
  Sr  Sr44  1  0.34015956  0.50514056  0.36584895  1
  Sr  Sr45  1  0.32137310  0.50508066  0.91086677  1
  Sr  Sr46  1  0.33535542  0.87346411  0.42108211  1
  Sr  Sr47  1  0.32611114  0.83992643  0.86295672  1
  Sr  Sr48  1  0.66776651  0.18891067  0.37303803  1
  Sr  Sr49  1  0.65203734  0.17336773  0.90256828  1
  Sr  Sr50  1  0.67610325  0.51829755  0.40993607  1
  Sr  Sr51  1  0.66532813  0.50364822  0.86042703  1
  Sr  Sr52  1  0.65697457  0.85068117  0.35601757  1
  Sr  Sr53  1  0.66783004  0.85141323  0.85192895  1
  Sr  Sr54  1  0.17301317  -0.00137698  0.36297433  1
  Sr  Sr55  1  0.16686993  -0.02878979  0.89611811  1
  Sr  Sr56  1  0.17588654  0.32536754  0.41919194  1
  Sr  Sr57  1  0.16087420  0.32511782  0.87029933  1
  Sr  Sr58  1  0.17166906  0.64727853  0.36003894  1
  Sr  Sr59  1  0.18174111  0.65854345  0.85488168  1
  Sr  Sr60  1  0.51487265  0.00074984  0.40470656  1
  Sr  Sr61  1  0.49335098  -0.01541192  0.87472142  1
  Sr  Sr62  1  0.49041089  0.31583210  0.34254047  1
  Sr  Sr63  1  0.50919810  0.31821918  0.86024789  1
  Sr  Sr64  1  0.50995620  0.65053063  0.36362908  1
  Sr  Sr65  1  0.49756079  0.63118104  0.91630787  1
  Sr  Sr66  1  0.84792119  -0.03087054  0.35993248  1
  Sr  Sr67  1  0.84742051  -0.01076859  0.85412817  1
  Sr  Sr68  1  0.82649883  0.34466629  0.36743679  1
  Sr  Sr69  1  0.83053409  0.29605230  0.90561700  1
  Sr  Sr70  1  0.83634734  0.66346504  0.41130833  1
  Sr  Sr71  1  0.81710274  0.66227548  0.86513787  1
  Ta  Ta72  1  0.17643323  0.14388738  -0.00757906  1
  Ta  Ta73  1  0.16758910  0.13827098  0.51269516  1
  Ta  Ta74  1  0.13408626  0.51507157  0.00374908  1
  Ta  Ta75  1  0.12384330  0.50174073  0.50115200  1
  Ta  Ta76  1  0.17106736  0.78948957  0.00440459  1
  Ta  Ta77  1  0.17318923  0.78379975  0.49723262  1
  Ta  Ta78  1  0.46236902  0.16405865  -0.00536796  1
  Ta  Ta79  1  0.47645127  0.18412758  0.50002335  1
  Ta  Ta80  1  0.50393400  0.45038674  0.01241971  1
  Ta  Ta81  1  0.49838276  0.45391922  0.49416339  1
  Ta  Ta82  1  0.50749061  0.80919473  0.00080187  1
  Ta  Ta83  1  0.50939732  0.80333039  0.50117323  1
  Ta  Ta84  1  0.83151040  0.11365693  0.00294281  1
  Ta  Ta85  1  0.83423679  0.12208862  0.49776456  1
  Ta  Ta86  1  0.83717329  0.47126915  -0.00244608  1
  Ta  Ta87  1  0.87198804  0.49311434  0.50628902  1
  Ta  Ta88  1  0.80429895  0.83946655  -0.00283382  1
  Ta  Ta89  1  0.79759332  0.83294480  0.50542835  1
  Ta  Ta90  1  0.14563206  0.19312507  0.25168042  1
  Ta  Ta91  1  0.16645294  0.10532610  0.73402294  1
  Ta  Ta92  1  0.16711192  0.45847494  0.24611793  1
  Ta  Ta93  1  0.18032242  0.48207731  0.75707987  1
  Ta  Ta94  1  0.21351171  0.82773129  0.25459540  1
  Ta  Ta95  1  0.13117403  0.83039250  0.74864274  1
  Ta  Ta96  1  0.50647358  0.12592522  0.25419637  1
  Ta  Ta97  1  0.51007520  0.13638661  0.74618975  1
  Ta  Ta98  1  0.53662462  0.48522886  0.23896165  1
  Ta  Ta99  1  0.47284100  0.50356528  0.75392365  1
  Ta  Ta100  1  0.45498097  0.84689871  0.25479551  1
  Ta  Ta101  1  0.49417672  0.77518391  0.75274523  1
  Ta  Ta102  1  0.83638379  0.13772041  0.24553023  1
  Ta  Ta103  1  0.79787530  0.16221915  0.75385555  1
  Ta  Ta104  1  0.80617071  0.52784745  0.25541824  1
  Ta  Ta105  1  0.83425511  0.44113528  0.74688247  1
  Ta  Ta106  1  0.83428584  0.78234427  0.24535341  1
  Ta  Ta107  1  0.87158448  0.82191846  0.75015624  1
  Ta  Ta108  1  0.00374764  0.05867618  0.25442568  1
  Ta  Ta109  1  0.02570749  -0.02236470  0.73934463  1
  Ta  Ta110  1  0.04678954  0.33377522  0.24495880  1
  Ta  Ta111  1  -0.02507015  0.34873851  0.75364614  1
  Ta  Ta112  1  -0.03322416  0.67876186  0.25122852  1
  Ta  Ta113  1  0.00217076  0.71466601  0.74629309  1
  Ta  Ta114  1  0.36175563  -0.00214966  0.25914456  1
  Ta  Ta115  1  0.32159054  0.02414023  0.73226525  1
  Ta  Ta116  1  0.28569872  0.33982903  0.25344354  1
  Ta  Ta117  1  0.33067202  0.38349612  0.74995851  1
  Ta  Ta118  1  0.34086413  0.72176533  0.25966800  1
  Ta  Ta119  1  0.37159687  0.65126769  0.74675685  1
  Ta  Ta120  1  0.67264577  0.03317993  0.25263498  1
  Ta  Ta121  1  0.66571854  0.03835875  0.74826722  1
  Ta  Ta122  1  0.66530924  0.38713724  0.24829975  1
  Ta  Ta123  1  0.69553140  0.31806460  0.74762418  1
  Ta  Ta124  1  0.69680959  0.66321246  0.25057142  1
  Ta  Ta125  1  0.61987879  0.67354739  0.75566962  1
  Ta  Ta126  1  -0.00732956  0.02410213  0.00914812  1
  Ta  Ta127  1  0.00046609  0.03062504  0.49103520  1
  Ta  Ta128  1  -0.00948777  0.37977333  0.00182753  1
  Ta  Ta129  1  0.00072026  0.38452977  0.50313895  1
  Ta  Ta130  1  0.03379830  0.66726332  0.00058004  1
  Ta  Ta131  1  0.02060841  0.64818820  0.50540477  1
  Ta  Ta132  1  0.32942040  0.04728029  -0.00627940  1
  Ta  Ta133  1  0.33095455  0.05201763  0.51095888  1
  Ta  Ta134  1  0.35857377  0.32551577  -0.00365428  1
  Ta  Ta135  1  0.36715852  0.33877570  0.50006975  1
  Ta  Ta136  1  0.32690755  0.69125992  0.00634636  1
  Ta  Ta137  1  0.33548595  0.69503283  0.49839975  1
  Ta  Ta138  1  0.70114484  -0.00455043  0.00135615  1
  Ta  Ta139  1  0.70489284  0.00146349  0.49772033  1
  Ta  Ta140  1  0.66253064  0.36093557  0.00020368  1
  Ta  Ta141  1  0.62674256  0.34538868  0.49657752  1
  Ta  Ta142  1  0.65718672  0.71807999  -0.00610289  1
  Ta  Ta143  1  0.66208392  0.70991301  0.50505230  1
  N  N144  1  0.16567608  0.49588611  0.12476895  1
  N  N145  1  0.82560803  0.14711920  0.87623933  1
  N  N146  1  0.16461819  0.81222273  0.62344965  1
  N  N147  1  0.83308364  0.81629379  0.12227061  1
  N  N148  1  0.34082725  0.01859062  0.37943975  1
  N  N149  1  0.32668676  0.33768324  0.37295597  1
  N  N150  1  0.00040713  0.67402508  0.62337945  1
  N  N151  1  0.50325205  0.15826831  0.37141892  1
  N  N152  1  0.66495495  0.35235993  0.37264318  1
  N  N153  1  0.17484030  0.83057395  0.37801429  1
  N  N154  1  0.00540125  -0.00596362  0.61707209  1
  N  N155  1  0.50087536  0.51085622  0.11670566  1
  N  N156  1  0.67646506  0.00511743  0.37437852  1
  N  N157  1  0.83500328  0.82579401  0.87244252  1
  N  N158  1  0.00860789  0.01183090  0.13203487  1
  N  N159  1  0.49092910  0.16221403  0.87341406  1
  N  N160  1  0.65921539  0.67251899  0.87736021  1
  N  N161  1  0.83210222  0.48401605  0.62503800  1
  N  N162  1  0.15330488  0.16980337  0.63260001  1
  N  N163  1  0.33931129  -0.01227991  0.61314743  1
  N  N164  1  0.00742192  0.34684592  0.12337399  1
  N  N165  1  0.33335776  0.35194084  0.62459087  1
  N  N166  1  0.66303646  0.33282718  0.62454925  1
  N  N167  1  0.00963025  0.00256075  0.36288922  1
  N  N168  1  0.82757831  0.82825532  0.62440262  1
  N  N169  1  0.83237194  0.50659043  0.37531859  1
  N  N170  1  0.33577295  0.34297216  0.87681920  1
  N  N171  1  0.49868310  0.16848927  0.62472937  1
  N  N172  1  0.17601877  0.82774911  0.12728067  1
  N  N173  1  0.16452380  0.49233435  0.87764486  1
  N  N174  1  0.16456458  0.81994474  0.87538375  1
  N  N175  1  0.34530036  0.66460522  0.62241455  1
  N  N176  1  0.66978393  0.33529384  0.88036948  1
  O  O177  1  0.82823690  0.16823639  0.11923429  1
  O  O178  1  0.82840275  0.48314222  0.87176539  1
  O  O179  1  0.00728057  -0.00315911  0.88053219  1
  O  O180  1  0.67499718  0.68294216  0.12379998  1
  O  O181  1  0.33702181  0.02124107  0.12285034  1
  O  O182  1  0.50194049  0.83155907  0.37464743  1
  O  O183  1  -0.00985007  0.66552085  0.37509924  1
  O  O184  1  0.81503234  0.82105943  0.36935283  1
  O  O185  1  -0.00146371  0.34984038  0.63065455  1
  O  O186  1  0.33171316  0.02552564  0.86762762  1
  O  O187  1  0.49090368  0.48655375  0.88128656  1
  O  O188  1  0.82771888  0.50098850  0.12187931  1
  O  O189  1  0.66310232  0.01463003  0.62170396  1
  O  O190  1  0.35245210  0.66127069  0.37614306  1
  O  O191  1  0.83507060  0.14493788  0.36944634  1
  O  O192  1  0.83223726  0.14655088  0.62495684  1
  O  O193  1  0.67222273  0.67971364  0.37504716  1
  O  O194  1  0.00833676  0.35297548  0.36981018  1
  O  O195  1  -0.00160228  0.67260695  0.12668238  1
  O  O196  1  0.15781266  0.17620561  0.38118727  1
  O  O197  1  0.67895089  -0.00817766  0.12766921  1
  O  O198  1  0.14830828  0.49691992  0.37398503  1
  O  O199  1  0.49059181  0.48431236  0.62870447  1
  O  O200  1  0.33923502  0.68715749  0.13296817  1
  O  O201  1  0.49961231  0.48633992  0.36248394  1
  O  O202  1  0.66097242  0.69202985  0.63150100  1
  O  O203  1  0.49573015  0.83508695  0.12787735  1
  O  O204  1  -0.00589358  0.33559250  0.87850093  1
  O  O205  1  0.67539024  0.00959086  0.87717364  1
  O  O206  1  0.16324952  0.17058431  0.11598407  1
  O  O207  1  0.49890903  0.80748327  0.62527495  1
  O  O208  1  0.50534475  0.15203602  0.11929213  1
  O  O209  1  0.34113113  0.66970771  0.88165993  1
  O  O210  1  0.48787247  0.81349990  0.87722399  1
  O  O211  1  0.15326872  0.49725177  0.62492600  1
  O  O212  1  0.32580870  0.32606117  0.12857898  1
  O  O213  1  0.68131685  0.33437508  0.13296671  1
  O  O214  1  0.16177286  0.13959844  0.86525981  1
  O  O215  1  0.01980196  0.67575703  0.87360990  1
