# generated using pymatgen
data_Sr24Ta24N11O13
_symmetry_space_group_name_H-M   'P 1'
_cell_length_a   19.87419365
_cell_length_b   15.85483388
_cell_length_c   13.85493344
_cell_angle_alpha   89.97212560
_cell_angle_beta   91.30107773
_cell_angle_gamma   90.41690138
_symmetry_Int_Tables_number   1
_chemical_formula_structural   Sr24Ta24N11O13
_chemical_formula_sum   'Sr72 Ta72 N33 O39'
_cell_volume   4364.47644983
_cell_formula_units_Z   3
loop_
 _symmetry_equiv_pos_site_id
 _symmetry_equiv_pos_as_xyz
  1  'x, y, z'
loop_
 _atom_site_type_symbol
 _atom_site_label
 _atom_site_symmetry_multiplicity
 _atom_site_fract_x
 _atom_site_fract_y
 _atom_site_fract_z
 _atom_site_occupancy
  Sr  Sr0  1  -0.04028068  0.16609281  0.11431765  1
  Sr  Sr1  1  -0.04819845  0.16263116  0.61162339  1
  Sr  Sr2  1  -0.04018369  0.50189989  0.11092990  1
  Sr  Sr3  1  -0.03704948  0.50149509  0.62732983  1
  Sr  Sr4  1  -0.04696840  0.82971878  0.10911129  1
  Sr  Sr5  1  -0.04718136  0.83661936  0.60581650  1
  Sr  Sr6  1  0.32237555  0.16539810  0.18618016  1
  Sr  Sr7  1  0.32009360  0.16752966  0.68804692  1
  Sr  Sr8  1  0.32134071  0.50342274  0.18782300  1
  Sr  Sr9  1  0.31720897  0.49824210  0.68858997  1
  Sr  Sr10  1  0.32155152  0.83335543  0.18758929  1
  Sr  Sr11  1  0.31908158  0.83517118  0.69120351  1
  Sr  Sr12  1  0.63421677  0.16950273  0.05671125  1
  Sr  Sr13  1  0.63915201  0.15504412  0.57141417  1
  Sr  Sr14  1  0.66782997  0.51571175  0.06048208  1
  Sr  Sr15  1  0.62095035  0.49334463  0.56920316  1
  Sr  Sr16  1  0.65204403  0.82135359  0.05765838  1
  Sr  Sr17  1  0.64607836  0.84326599  0.56225700  1
  Sr  Sr18  1  0.21992847  -0.00082401  0.10971893  1
  Sr  Sr19  1  0.21764063  0.00110900  0.60885117  1
  Sr  Sr20  1  0.22025191  0.33532308  0.12243640  1
  Sr  Sr21  1  0.21719950  0.33386382  0.61462387  1
  Sr  Sr22  1  0.22071819  0.66695181  0.11123428  1
  Sr  Sr23  1  0.21832219  0.66724643  0.61088411  1
  Sr  Sr24  1  0.51459061  0.00220384  0.20493655  1
  Sr  Sr25  1  0.50709064  0.00392795  0.70362017  1
  Sr  Sr26  1  0.51137216  0.33482816  0.19826941  1
  Sr  Sr27  1  0.52256092  0.32991961  0.69625270  1
  Sr  Sr28  1  0.52762199  0.66239762  0.19895702  1
  Sr  Sr29  1  0.52415817  0.66540782  0.69640357  1
  Sr  Sr30  1  0.85443845  -0.00176470  0.07196748  1
  Sr  Sr31  1  0.84019361  -0.00506372  0.57261193  1
  Sr  Sr32  1  0.85396744  0.33836673  0.05764963  1
  Sr  Sr33  1  0.86106928  0.33881611  0.55027792  1
  Sr  Sr34  1  0.83652364  0.66170309  0.06042207  1
  Sr  Sr35  1  0.85697580  0.66793634  0.56051724  1
  Sr  Sr36  1  -0.00494435  0.16035488  0.36266249  1
  Sr  Sr37  1  -0.00825618  0.17422969  0.86357814  1
  Sr  Sr38  1  -0.03011309  0.49704083  0.36301830  1
  Sr  Sr39  1  -0.00562766  0.48368007  0.86411454  1
  Sr  Sr40  1  -0.01070914  0.84103830  0.35371516  1
  Sr  Sr41  1  -0.01317218  0.83392918  0.85473207  1
  Sr  Sr42  1  0.28109345  0.16617826  0.43556739  1
  Sr  Sr43  1  0.28532011  0.17041150  0.93978027  1
  Sr  Sr44  1  0.28531987  0.50335739  0.44323479  1
  Sr  Sr45  1  0.28760860  0.49819537  0.94372490  1
  Sr  Sr46  1  0.28329108  0.83338748  0.44254554  1
  Sr  Sr47  1  0.28496379  0.83198118  0.94539753  1
  Sr  Sr48  1  0.62261828  0.17096372  0.31374110  1
  Sr  Sr49  1  0.62157694  0.16690033  0.81623754  1
  Sr  Sr50  1  0.61659090  0.49439436  0.31237919  1
  Sr  Sr51  1  0.62211509  0.49924569  0.81065999  1
  Sr  Sr52  1  0.61663428  0.83388784  0.31087959  1
  Sr  Sr53  1  0.61453843  0.83345189  0.80414866  1
  Sr  Sr54  1  0.18179480  -0.00086529  0.36249263  1
  Sr  Sr55  1  0.18585843  0.00118878  0.86460203  1
  Sr  Sr56  1  0.18438131  0.33605816  0.36969879  1
  Sr  Sr57  1  0.17801174  0.33357477  0.86989526  1
  Sr  Sr58  1  0.18243610  0.67074194  0.36397895  1
  Sr  Sr59  1  0.18762588  0.66508712  0.86497169  1
  Sr  Sr60  1  0.54254292  0.00051750  0.44643913  1
  Sr  Sr61  1  0.54773666  -0.00385165  0.95324086  1
  Sr  Sr62  1  0.54021230  0.32975614  0.44782969  1
  Sr  Sr63  1  0.55248507  0.33965149  0.95195602  1
  Sr  Sr64  1  0.53780239  0.66785324  0.44797363  1
  Sr  Sr65  1  0.55337103  0.66582060  0.94347995  1
  Sr  Sr66  1  0.87421434  0.00521338  0.32115960  1
  Sr  Sr67  1  0.88300758  0.00575193  0.82222428  1
  Sr  Sr68  1  0.87352615  0.31793072  0.30538813  1
  Sr  Sr69  1  0.87863034  0.33036366  0.79670121  1
  Sr  Sr70  1  0.88185001  0.67225682  0.30977255  1
  Sr  Sr71  1  0.89289103  0.65671539  0.80428046  1
  Ta  Ta72  1  0.12138127  0.16160581  0.02114673  1
  Ta  Ta73  1  0.11775940  0.17029411  0.51605791  1
  Ta  Ta74  1  0.12203341  0.50440501  0.02113199  1
  Ta  Ta75  1  0.11593898  0.50240397  0.50844337  1
  Ta  Ta76  1  0.11818652  0.83230679  0.01157401  1
  Ta  Ta77  1  0.11570452  0.83232201  0.51896249  1
  Ta  Ta78  1  0.45794505  0.16675347  0.05260331  1
  Ta  Ta79  1  0.45037579  0.16826867  0.54788617  1
  Ta  Ta80  1  0.46208764  0.50276564  0.05837256  1
  Ta  Ta81  1  0.45329694  0.50024373  0.55649712  1
  Ta  Ta82  1  0.46412636  0.83055313  0.05670313  1
  Ta  Ta83  1  0.45724806  0.83047558  0.56691154  1
  Ta  Ta84  1  0.78611901  0.16346405  -0.06011198  1
  Ta  Ta85  1  0.78236654  0.16821244  0.43700898  1
  Ta  Ta86  1  0.78907604  0.49498314  -0.11724230  1
  Ta  Ta87  1  0.77338776  0.49967790  0.46280982  1
  Ta  Ta88  1  0.78964482  0.84113542  -0.07892528  1
  Ta  Ta89  1  0.78671503  0.82550953  0.42916175  1
  Ta  Ta90  1  0.12866124  0.17405160  0.23112870  1
  Ta  Ta91  1  0.12816190  0.16290087  0.72234042  1
  Ta  Ta92  1  0.12510233  0.49894219  0.23109296  1
  Ta  Ta93  1  0.13144035  0.50094934  0.71807798  1
  Ta  Ta94  1  0.13047507  0.83168344  0.21506745  1
  Ta  Ta95  1  0.12939244  0.83553724  0.72550064  1
  Ta  Ta96  1  0.44532383  0.16607071  0.34954684  1
  Ta  Ta97  1  0.44969615  0.17069400  0.84884663  1
  Ta  Ta98  1  0.44815126  0.50182896  0.34333318  1
  Ta  Ta99  1  0.45100399  0.49822041  0.83716364  1
  Ta  Ta100  1  0.44530883  0.83205638  0.35352057  1
  Ta  Ta101  1  0.44712742  0.83132052  0.84750331  1
  Ta  Ta102  1  0.77739089  0.16451727  0.18560050  1
  Ta  Ta103  1  0.78006226  0.16345661  0.72622466  1
  Ta  Ta104  1  0.78617148  0.49751457  0.25253812  1
  Ta  Ta105  1  0.78140949  0.50258346  0.68785197  1
  Ta  Ta106  1  0.78476032  0.83969193  0.21835309  1
  Ta  Ta107  1  0.78406702  0.82015282  0.71036417  1
  Ta  Ta108  1  0.05371918  0.00183488  0.20375844  1
  Ta  Ta109  1  0.05120056  0.00035973  0.71859766  1
  Ta  Ta110  1  0.04600512  0.33723943  0.23547810  1
  Ta  Ta111  1  0.05523999  0.32502775  0.70669476  1
  Ta  Ta112  1  0.05201795  0.66505207  0.20701929  1
  Ta  Ta113  1  0.05845856  0.67524577  0.70540465  1
  Ta  Ta114  1  0.36901575  -0.00084444  0.33392363  1
  Ta  Ta115  1  0.36885243  -0.00014946  0.83528871  1
  Ta  Ta116  1  0.37272311  0.33358302  0.32370070  1
  Ta  Ta117  1  0.37907154  0.33722933  0.83106831  1
  Ta  Ta118  1  0.37744981  0.67056105  0.33140350  1
  Ta  Ta119  1  0.37262251  0.66531721  0.82840086  1
  Ta  Ta120  1  0.70405338  0.00197977  0.19925384  1
  Ta  Ta121  1  0.71243640  -0.00175793  0.72031852  1
  Ta  Ta122  1  0.70667636  0.33437266  0.18517886  1
  Ta  Ta123  1  0.70764436  0.33494548  0.70146512  1
  Ta  Ta124  1  0.70969083  0.67013893  0.24279287  1
  Ta  Ta125  1  0.70161366  0.65952850  0.66861334  1
  Ta  Ta126  1  0.04482407  -0.00102870  -0.00596568  1
  Ta  Ta127  1  0.04956862  -0.00349171  0.50679424  1
  Ta  Ta128  1  0.05089381  0.32879321  0.02465092  1
  Ta  Ta129  1  0.04099075  0.33701711  0.49568765  1
  Ta  Ta130  1  0.04238976  0.66794178  -0.00376881  1
  Ta  Ta131  1  0.03943074  0.66636915  0.49592145  1
  Ta  Ta132  1  0.38686969  -0.00203403  0.03665437  1
  Ta  Ta133  1  0.38326990  -0.00032725  0.53673735  1
  Ta  Ta134  1  0.38613681  0.33501445  0.04074881  1
  Ta  Ta135  1  0.38310927  0.33023230  0.53509139  1
  Ta  Ta136  1  0.38868995  0.66822060  0.03809659  1
  Ta  Ta137  1  0.38446425  0.67081501  0.54062443  1
  Ta  Ta138  1  0.72052160  0.00267523  -0.06937116  1
  Ta  Ta139  1  0.71296098  0.00012469  0.41263830  1
  Ta  Ta140  1  0.71778553  0.33118595  -0.08321852  1
  Ta  Ta141  1  0.70698278  0.32719292  0.45749151  1
  Ta  Ta142  1  0.72881109  0.67315074  -0.13891657  1
  Ta  Ta143  1  0.70406820  0.66098541  0.45204088  1
  N  N144  1  0.30930133  0.66414660  0.94618295  1
  N  N145  1  0.83334312  0.16721780  0.07033229  1
  N  N146  1  -0.02224685  0.33028687  0.62110745  1
  N  N147  1  -0.01977397  0.67120718  0.61562114  1
  N  N148  1  0.64342242  0.33160142  0.80914957  1
  N  N149  1  0.01615946  0.00190358  0.84914845  1
  N  N150  1  0.67286530  0.34302671  0.05336261  1
  N  N151  1  0.86188816  0.49499076  0.78206690  1
  N  N152  1  0.30294868  -0.00089477  0.44556473  1
  N  N153  1  0.85472452  0.83858869  0.32204941  1
  N  N154  1  0.48208277  0.49685780  0.70222636  1
  N  N155  1  -0.02070651  0.33277969  0.12344528  1
  N  N156  1  0.63756634  0.66436602  0.33809003  1
  N  N157  1  0.52837034  0.83031977  0.94779279  1
  N  N158  1  0.52593551  0.16895219  0.94305722  1
  N  N159  1  0.81109589  0.83048850  0.57627900  1
  N  N160  1  0.19756077  0.83327494  0.10543431  1
  N  N161  1  -0.01912476  -0.00311947  0.10610735  1
  N  N162  1  0.51982261  0.49591483  0.44816948  1
  N  N163  1  0.14623930  0.16800114  0.37182157  1
  N  N164  1  0.63896993  0.00187851  0.31119013  1
  N  N165  1  0.48100754  0.50150002  0.19776245  1
  N  N166  1  -0.00308937  0.33065529  0.36929465  1
  N  N167  1  0.64063349  0.66515879  0.79063587  1
  N  N168  1  0.63681200  0.67117195  0.56382213  1
  N  N169  1  0.47895312  0.83713827  0.70520246  1
  N  N170  1  0.64902164  0.32340198  0.57092997  1
  N  N171  1  0.19435576  0.50072735  0.60553639  1
  N  N172  1  -0.02161073  0.66955747  0.10844910  1
  N  N173  1  0.19533418  0.50012147  0.11771590  1
  N  N174  1  0.84144861  0.46507604  0.36825630  1
  N  N175  1  0.35688296  0.33303305  0.18213718  1
  N  N176  1  0.30487438  0.00204236  0.94910014  1
  O  O177  1  0.30164348  0.66847316  0.44587444  1
  O  O178  1  0.04345684  -0.00216060  0.35939274  1
  O  O179  1  0.14242130  0.16893007  0.86989337  1
  O  O180  1  0.53357602  0.50524504  0.94531683  1
  O  O181  1  0.70510407  -0.00363980  0.57284419  1
  O  O182  1  0.13814489  0.83031263  0.36415848  1
  O  O183  1  0.33966177  0.66648884  0.69050368  1
  O  O184  1  0.83605453  0.16255090  0.31758668  1
  O  O185  1  0.02281479  0.66540094  0.85232596  1
  O  O186  1  0.35298583  0.00235584  0.68850988  1
  O  O187  1  0.85974291  0.55343551  0.18616640  1
  O  O188  1  0.35781271  0.33090529  0.68767005  1
  O  O189  1  0.04255965  0.32992140  0.85941248  1
  O  O190  1  0.20511043  0.16520623  0.59769379  1
  O  O191  1  0.53066630  0.84044348  0.45406023  1
  O  O192  1  0.53253376  0.16368786  0.45007928  1
  O  O193  1  0.45762329  0.16504955  0.69486577  1
  O  O194  1  0.46071316  0.16221882  0.20392359  1
  O  O195  1  0.66233327  -0.01147260  0.05075500  1
  O  O196  1  0.86230747  0.16680545  0.81623162  1
  O  O197  1  0.65073542  0.66812128  0.12567953  1
  O  O198  1  0.65661023  0.32945138  0.31836069  1
  O  O199  1  0.35767624  -0.00255314  0.18737468  1
  O  O200  1  0.16112332  0.83310113  0.86694384  1
  O  O201  1  0.20267514  0.83663876  0.60151377  1
  O  O202  1  0.81224554  0.15950245  0.58391098  1
  O  O203  1  0.86277582  0.84598201  0.81442269  1
  O  O204  1  0.16747631  0.50744872  0.36449449  1
  O  O205  1  0.30219564  0.33354313  0.93901774  1
  O  O206  1  0.84730042  0.50521037  0.56754841  1
  O  O207  1  0.35152129  0.67133134  0.18840447  1
  O  O208  1  0.63955680  0.00109198  0.82795029  1
  O  O209  1  0.47035602  0.83924021  0.20960594  1
  O  O210  1  0.01440967  0.67476279  0.35342108  1
  O  O211  1  0.30050453  0.33651590  0.44514194  1
  O  O212  1  -0.02703601  0.00033285  0.60985373  1
  O  O213  1  0.14403583  0.49812079  0.86711244  1
  O  O214  1  0.20358502  0.16681360  0.11227497  1
  O  O215  1  0.79864805  0.82522004  0.06719439  1
