# generated using pymatgen
data_Sr24Ta24N11O13
_symmetry_space_group_name_H-M   'P 1'
_cell_length_a   17.78303875
_cell_length_b   16.45154804
_cell_length_c   15.16093899
_cell_angle_alpha   90.02526075
_cell_angle_beta   91.21043699
_cell_angle_gamma   90.45489504
_symmetry_Int_Tables_number   1
_chemical_formula_structural   Sr24Ta24N11O13
_chemical_formula_sum   'Sr72 Ta72 N33 O39'
_cell_volume   4434.33147099
_cell_formula_units_Z   3
loop_
 _symmetry_equiv_pos_site_id
 _symmetry_equiv_pos_as_xyz
  1  'x, y, z'
loop_
 _atom_site_type_symbol
 _atom_site_label
 _atom_site_symmetry_multiplicity
 _atom_site_fract_x
 _atom_site_fract_y
 _atom_site_fract_z
 _atom_site_occupancy
  Sr  Sr0  1  0.02516827  0.15154899  0.11792718  1
  Sr  Sr1  1  -0.00015025  0.15657649  0.63827391  1
  Sr  Sr2  1  0.00522345  0.50091637  0.13088629  1
  Sr  Sr3  1  0.04129153  0.49785834  0.65701776  1
  Sr  Sr4  1  0.03046735  0.84114459  0.14328795  1
  Sr  Sr5  1  0.00087029  0.81838371  0.58520993  1
  Sr  Sr6  1  0.33660276  0.16212560  0.13180130  1
  Sr  Sr7  1  0.37952047  0.16081483  0.66452522  1
  Sr  Sr8  1  0.36744703  0.50832867  0.14080902  1
  Sr  Sr9  1  0.34178263  0.48342297  0.59488118  1
  Sr  Sr10  1  0.37724361  0.83050740  0.08319423  1
  Sr  Sr11  1  0.35705132  0.83013485  0.64078145  1
  Sr  Sr12  1  0.69605031  0.17326239  0.13842957  1
  Sr  Sr13  1  0.67377317  0.14976697  0.60377335  1
  Sr  Sr14  1  0.69513815  0.48687970  0.11335918  1
  Sr  Sr15  1  0.66773765  0.50376217  0.64000184  1
  Sr  Sr16  1  0.66464973  0.83346597  0.12767447  1
  Sr  Sr17  1  0.70177754  0.82705775  0.67014152  1
  Sr  Sr18  1  0.16104614  0.00597052  0.13499155  1
  Sr  Sr19  1  0.11399443  -0.00207278  0.57241496  1
  Sr  Sr20  1  0.12417546  0.33758718  0.09675677  1
  Sr  Sr21  1  0.15948332  0.33667349  0.61863238  1
  Sr  Sr22  1  0.14448138  0.66376893  0.11852790  1
  Sr  Sr23  1  0.15785372  0.67914801  0.64800916  1
  Sr  Sr24  1  0.47060452  0.01232445  0.09923744  1
  Sr  Sr25  1  0.49625672  -0.00105563  0.62644782  1
  Sr  Sr26  1  0.48059912  0.32793719  0.11692268  1
  Sr  Sr27  1  0.48786240  0.34746923  0.64772339  1
  Sr  Sr28  1  0.50076428  0.67252742  0.14019021  1
  Sr  Sr29  1  0.47555790  0.66980663  0.60351889  1
  Sr  Sr30  1  0.80955862  0.00132307  0.11204354  1
  Sr  Sr31  1  0.82215355  0.01516446  0.64336251  1
  Sr  Sr32  1  0.82683625  0.33651846  0.13735145  1
  Sr  Sr33  1  0.78192003  0.33439024  0.57820732  1
  Sr  Sr34  1  0.79955250  0.67540656  0.10579668  1
  Sr  Sr35  1  0.82038283  0.66174833  0.62665282  1
  Sr  Sr36  1  0.04818898  0.16208471  0.41194685  1
  Sr  Sr37  1  0.00563646  0.16174190  0.85829670  1
  Sr  Sr38  1  0.01438322  0.48879880  0.35536740  1
  Sr  Sr39  1  0.01721546  0.50291947  0.87895956  1
  Sr  Sr40  1  0.02468060  0.83223268  0.37448826  1
  Sr  Sr41  1  0.04116360  0.82909408  0.90345690  1
  Sr  Sr42  1  0.33940106  0.14604169  0.35471493  1
  Sr  Sr43  1  0.34472869  0.16626556  0.88466895  1
  Sr  Sr44  1  0.33193796  0.50930798  0.37174049  1
  Sr  Sr45  1  0.36487543  0.48608501  0.90071144  1
  Sr  Sr46  1  0.37642627  0.83756832  0.41983459  1
  Sr  Sr47  1  0.32374689  0.82904722  0.85075825  1
  Sr  Sr48  1  0.67403861  0.17279891  0.38476400  1
  Sr  Sr49  1  0.70935503  0.16060012  0.89338409  1
  Sr  Sr50  1  0.71250320  0.50219662  0.42011060  1
  Sr  Sr51  1  0.68018670  0.49445525  0.86219770  1
  Sr  Sr52  1  0.66947058  0.82062818  0.34571531  1
  Sr  Sr53  1  0.71045449  0.83293383  0.89574575  1
  Sr  Sr54  1  0.16731949  0.00290491  0.35673574  1
  Sr  Sr55  1  0.14073908  0.01478731  0.88456255  1
  Sr  Sr56  1  0.15886789  0.34777518  0.40576407  1
  Sr  Sr57  1  0.12930694  0.33104323  0.85482199  1
  Sr  Sr58  1  0.14271125  0.66759315  0.33917397  1
  Sr  Sr59  1  0.15420603  0.66278280  0.87079675  1
  Sr  Sr60  1  0.48737006  0.00986273  0.40538595  1
  Sr  Sr61  1  0.44744598  -0.00400632  0.85665459  1
  Sr  Sr62  1  0.45018643  0.33540869  0.34758041  1
  Sr  Sr63  1  0.49023372  0.33701887  0.86700505  1
  Sr  Sr64  1  0.49687688  0.67362057  0.37036325  1
  Sr  Sr65  1  0.45898683  0.67100082  0.89923511  1
  Sr  Sr66  1  0.78337761  0.00932971  0.34503995  1
  Sr  Sr67  1  0.83554636  0.00833553  0.86158242  1
  Sr  Sr68  1  0.82688546  0.34182762  0.35959287  1
  Sr  Sr69  1  0.80583744  0.34147125  0.88704570  1
  Sr  Sr70  1  0.83167182  0.67677798  0.40520669  1
  Sr  Sr71  1  0.81807533  0.65532249  0.85774751  1
  Ta  Ta72  1  0.19411399  0.18008296  -0.00351277  1
  Ta  Ta73  1  0.22580277  0.15511588  0.52722317  1
  Ta  Ta74  1  0.20444211  0.49517853  -0.00174733  1
  Ta  Ta75  1  0.17089390  0.53767429  0.49767952  1
  Ta  Ta76  1  0.20738920  0.83542868  0.01371261  1
  Ta  Ta77  1  0.20117563  0.82398233  0.48187428  1
  Ta  Ta78  1  0.54684234  0.16761045  -0.02137445  1
  Ta  Ta79  1  0.49951053  0.19808913  0.50774720  1
  Ta  Ta80  1  0.53980440  0.50389461  0.00246681  1
  Ta  Ta81  1  0.53038075  0.49304278  0.48028727  1
  Ta  Ta82  1  0.53933605  0.83456040  -0.02986788  1
  Ta  Ta83  1  0.55490940  0.83332240  0.51142237  1
  Ta  Ta84  1  0.87438718  0.17359258  0.00082963  1
  Ta  Ta85  1  0.86597361  0.16606678  0.48547022  1
  Ta  Ta86  1  0.86449151  0.50246009  -0.00486851  1
  Ta  Ta87  1  0.88770365  0.49375787  0.51539993  1
  Ta  Ta88  1  0.88355257  0.83485133  -0.00320920  1
  Ta  Ta89  1  0.81650910  0.86669678  0.49836838  1
  Ta  Ta90  1  0.17178873  0.20691246  0.24926363  1
  Ta  Ta91  1  0.20053048  0.16134679  0.72642263  1
  Ta  Ta92  1  0.18642382  0.47789229  0.23509728  1
  Ta  Ta93  1  0.21806658  0.49516204  0.75761244  1
  Ta  Ta94  1  0.22804552  0.83330114  0.24790635  1
  Ta  Ta95  1  0.15455515  0.86678875  0.73650977  1
  Ta  Ta96  1  0.52840666  0.15790133  0.24661493  1
  Ta  Ta97  1  0.55305457  0.15918833  0.76576727  1
  Ta  Ta98  1  0.55521433  0.49573044  0.27124177  1
  Ta  Ta99  1  0.49765828  0.53348093  0.75091659  1
  Ta  Ta100  1  0.49482722  0.86142240  0.25412168  1
  Ta  Ta101  1  0.53505946  0.82884845  0.77241729  1
  Ta  Ta102  1  0.88701907  0.16435609  0.25967896  1
  Ta  Ta103  1  0.83379666  0.20509389  0.73793558  1
  Ta  Ta104  1  0.84038967  0.53311531  0.25483711  1
  Ta  Ta105  1  0.85844261  0.48131839  0.72970124  1
  Ta  Ta106  1  0.86361395  0.83417602  0.25326726  1
  Ta  Ta107  1  0.89223575  0.83027857  0.75378256  1
  Ta  Ta108  1  -0.03721895  0.00416803  0.27425832  1
  Ta  Ta109  1  -0.00144844  -0.03979943  0.74553558  1
  Ta  Ta110  1  0.00120887  0.30165643  0.26047705  1
  Ta  Ta111  1  -0.05707677  0.33643907  0.72760487  1
  Ta  Ta112  1  -0.04658468  0.67381889  0.25182429  1
  Ta  Ta113  1  -0.01945269  0.68604652  0.75472732  1
  Ta  Ta114  1  0.34032814  -0.04333840  0.25671104  1
  Ta  Ta115  1  0.26858747  0.00444115  0.72599078  1
  Ta  Ta116  1  0.27781160  0.33687770  0.24115748  1
  Ta  Ta117  1  0.30133633  0.33218074  0.75504768  1
  Ta  Ta118  1  0.32833237  0.71368981  0.25462478  1
  Ta  Ta119  1  0.33158000  0.62393305  0.74808093  1
  Ta  Ta120  1  0.61053619  0.00338444  0.24631026  1
  Ta  Ta121  1  0.63233445  -0.00395560  0.77881000  1
  Ta  Ta122  1  0.63197851  0.34583087  0.27403164  1
  Ta  Ta123  1  0.65912122  0.30304238  0.74269419  1
  Ta  Ta124  1  0.66580533  0.62737941  0.25320784  1
  Ta  Ta125  1  0.61034755  0.67274312  0.76927614  1
  Ta  Ta126  1  -0.02845154  -0.00692025  0.00039654  1
  Ta  Ta127  1  -0.06159114  0.00058660  0.47175072  1
  Ta  Ta128  1  -0.03754372  0.32934603  -0.00582426  1
  Ta  Ta129  1  -0.03290088  0.33369355  0.52264381  1
  Ta  Ta130  1  -0.03822231  0.67132795  -0.00251384  1
  Ta  Ta131  1  0.00845981  0.63151218  0.50227180  1
  Ta  Ta132  1  0.29448110  -0.00424717  -0.00844126  1
  Ta  Ta133  1  0.30149384  0.00395609  0.51527584  1
  Ta  Ta134  1  0.28685593  0.33033330  0.00540616  1
  Ta  Ta135  1  0.33140044  0.28926259  0.50958587  1
  Ta  Ta136  1  0.29732072  0.66389843  0.00563059  1
  Ta  Ta137  1  0.28655215  0.67535572  0.49238613  1
  Ta  Ta138  1  0.61821151  0.00220621  -0.02399873  1
  Ta  Ta139  1  0.66469954  -0.04118328  0.51048050  1
  Ta  Ta140  1  0.63530056  0.32589316  -0.00212833  1
  Ta  Ta141  1  0.60674304  0.34237281  0.48478096  1
  Ta  Ta142  1  0.62849579  0.65968263  -0.00740234  1
  Ta  Ta143  1  0.64718763  0.68677574  0.51738849  1
  N  N144  1  0.85385342  0.16234571  0.13697483  1
  N  N145  1  0.69663866  -0.00685499  0.88584324  1
  N  N146  1  0.14880055  0.50153839  0.10765826  1
  N  N147  1  0.68595480  0.33538643  0.39261520  1
  N  N148  1  0.32929584  -0.00941137  0.38933203  1
  N  N149  1  0.83145990  0.16825316  0.60544844  1
  N  N150  1  0.17390840  0.16754103  0.12633577  1
  N  N151  1  0.33888774  0.32924493  0.63580831  1
  N  N152  1  0.64248804  0.33581584  0.61809417  1
  N  N153  1  0.85472796  0.50066991  0.38421238  1
  N  N154  1  0.65618781  0.33884006  0.87438971  1
  N  N155  1  0.52131731  0.16670512  0.63047420  1
  N  N156  1  0.84156954  0.50087907  0.12480741  1
  N  N157  1  0.02000937  0.32157751  0.63464935  1
  N  N158  1  0.50919207  0.49741272  0.87279361  1
  N  N159  1  0.01118541  0.66296373  0.88648695  1
  N  N160  1  -0.00558919  0.66954244  0.37168556  1
  N  N161  1  0.46515501  0.83541641  0.87272586  1
  N  N162  1  0.18412826  0.50069499  0.62259557  1
  N  N163  1  0.65733685  0.66982219  0.64385999  1
  N  N164  1  0.02344343  -0.00119383  0.39018447  1
  N  N165  1  0.16326603  0.49769197  0.86908844  1
  N  N166  1  0.16781644  0.83479693  0.13070845  1
  N  N167  1  0.51823059  0.83748626  0.37752033  1
  N  N168  1  0.17098067  0.50378938  0.36428018  1
  N  N169  1  0.65270302  0.66091062  0.12452919  1
  N  N170  1  0.81002073  0.50224624  0.60445981  1
  N  N171  1  0.85131053  0.17085366  0.86584750  1
  N  N172  1  0.00790209  0.66472898  0.63017819  1
  N  N173  1  0.16596929  0.84030827  0.36246474  1
  N  N174  1  0.83968583  0.49793255  0.85877481  1
  N  N175  1  -0.00557291  -0.00191296  0.87105473  1
  N  N176  1  0.29925131  0.00002278  0.86224951  1
  O  O177  1  0.66558609  0.66648422  0.37969871  1
  O  O178  1  0.84484769  0.84755551  0.62494887  1
  O  O179  1  0.30878053  0.32716266  0.38176978  1
  O  O180  1  -0.02497675  -0.00558750  0.61260352  1
  O  O181  1  -0.01890532  -0.00307480  0.14141755  1
  O  O182  1  0.50115455  0.16843039  0.37219693  1
  O  O183  1  0.68422584  0.67138880  0.87417258  1
  O  O184  1  0.66572530  -0.01867076  0.64366481  1
  O  O185  1  0.62176294  -0.00239899  0.11621452  1
  O  O186  1  0.64316520  -0.01313182  0.37542565  1
  O  O187  1  0.32224094  0.67080268  0.62535108  1
  O  O188  1  0.51011899  0.51117632  0.61105564  1
  O  O189  1  0.32836255  0.66697669  0.13471827  1
  O  O190  1  0.48035250  0.17186860  0.86606136  1
  O  O191  1  0.00251626  0.66771636  0.12985207  1
  O  O192  1  0.15006592  0.84316648  0.60705887  1
  O  O193  1  0.32883942  0.00246419  0.13149977  1
  O  O194  1  0.81606687  0.83910569  0.37357713  1
  O  O195  1  0.17681591  0.84341117  0.86713689  1
  O  O196  1  -0.01757812  0.33231580  0.86518862  1
  O  O197  1  0.51780810  0.49509398  0.13435765  1
  O  O198  1  0.17935443  0.17143330  0.85719290  1
  O  O199  1  0.33954592  0.32622132  0.13229416  1
  O  O200  1  0.64796792  0.32911454  0.14194983  1
  O  O201  1  0.86960458  0.84321477  0.12766755  1
  O  O202  1  0.50534327  0.83714555  0.63312594  1
  O  O203  1  0.35567866  -0.01309919  0.64390422  1
  O  O204  1  0.81062366  0.17836553  0.35999074  1
  O  O205  1  0.00983823  0.32205382  0.39130492  1
  O  O206  1  0.52925554  0.16794745  0.11481753  1
  O  O207  1  0.13600509  0.15964662  0.60912123  1
  O  O208  1  -0.01876439  0.32717773  0.13178445  1
  O  O209  1  0.51802538  0.83154001  0.10940864  1
  O  O210  1  0.34109534  0.32829038  0.88853766  1
  O  O211  1  0.47264469  0.51233763  0.36166895  1
  O  O212  1  0.34801073  0.66924780  0.37975659  1
  O  O213  1  0.84577519  0.83667727  0.86957085  1
  O  O214  1  0.19081343  0.16471832  0.37856998  1
  O  O215  1  0.30956013  0.66730517  0.87425897  1
