# generated using pymatgen
data_Sr24Ta24N11O13
_symmetry_space_group_name_H-M   'P 1'
_cell_length_a   16.74978660
_cell_length_b   16.88309917
_cell_length_c   15.69724979
_cell_angle_alpha   90.13196337
_cell_angle_beta   90.21582885
_cell_angle_gamma   89.88730474
_symmetry_Int_Tables_number   1
_chemical_formula_structural   Sr24Ta24N11O13
_chemical_formula_sum   'Sr72 Ta72 N33 O39'
_cell_volume   4438.94692985
_cell_formula_units_Z   3
loop_
 _symmetry_equiv_pos_site_id
 _symmetry_equiv_pos_as_xyz
  1  'x, y, z'
loop_
 _atom_site_type_symbol
 _atom_site_label
 _atom_site_symmetry_multiplicity
 _atom_site_fract_x
 _atom_site_fract_y
 _atom_site_fract_z
 _atom_site_occupancy
  Sr  Sr0  1  -0.00631095  0.17865070  0.16995594  1
  Sr  Sr1  1  0.00029534  0.16907003  0.62309012  1
  Sr  Sr2  1  -0.00337655  0.48845844  0.08383240  1
  Sr  Sr3  1  -0.01513495  0.51600126  0.64171070  1
  Sr  Sr4  1  -0.00950181  0.83105337  0.12565397  1
  Sr  Sr5  1  -0.02033413  0.85253725  0.61056240  1
  Sr  Sr6  1  0.32484273  0.17654198  0.12910197  1
  Sr  Sr7  1  0.32699126  0.19888403  0.59763031  1
  Sr  Sr8  1  0.32758825  0.50672087  0.12319660  1
  Sr  Sr9  1  0.34598008  0.50597242  0.66390690  1
  Sr  Sr10  1  0.34397018  0.83853128  0.11034930  1
  Sr  Sr11  1  0.32847065  0.83554851  0.61083876  1
  Sr  Sr12  1  0.67822256  0.17096599  0.07888948  1
  Sr  Sr13  1  0.65938878  0.17409941  0.63627869  1
  Sr  Sr14  1  0.68098735  0.50238574  0.14898032  1
  Sr  Sr15  1  0.65744526  0.51664662  0.58402049  1
  Sr  Sr16  1  0.66575076  0.86888335  0.15892174  1
  Sr  Sr17  1  0.66806411  0.83536613  0.64406612  1
  Sr  Sr18  1  0.17503478  -0.02131740  0.07429570  1
  Sr  Sr19  1  0.16759314  -0.00209113  0.64282658  1
  Sr  Sr20  1  0.18253860  0.34029814  0.13622781  1
  Sr  Sr21  1  0.14919026  0.32635022  0.57378155  1
  Sr  Sr22  1  0.17028106  0.67413287  0.16520091  1
  Sr  Sr23  1  0.17589099  0.65488897  0.62141376  1
  Sr  Sr24  1  0.49230898  -0.00672842  0.14371957  1
  Sr  Sr25  1  0.50181411  -0.03016439  0.64619639  1
  Sr  Sr26  1  0.51257260  0.29837551  0.09964166  1
  Sr  Sr27  1  0.49268947  0.33050785  0.63356634  1
  Sr  Sr28  1  0.50225890  0.63254305  0.11646424  1
  Sr  Sr29  1  0.49947686  0.65685746  0.60564114  1
  Sr  Sr30  1  0.83901878  -0.00427970  0.13651347  1
  Sr  Sr31  1  0.82907421  0.01032238  0.57902838  1
  Sr  Sr32  1  0.83269155  0.32730567  0.12907583  1
  Sr  Sr33  1  0.84781657  0.33033768  0.67506555  1
  Sr  Sr34  1  0.84051557  0.64734333  0.10119419  1
  Sr  Sr35  1  0.82821571  0.66861863  0.63328495  1
  Sr  Sr36  1  -0.00382454  0.17727935  0.37905771  1
  Sr  Sr37  1  0.00042667  0.17151482  0.83900995  1
  Sr  Sr38  1  0.01098171  0.50953375  0.42141679  1
  Sr  Sr39  1  -0.01614226  0.50307118  0.86531829  1
  Sr  Sr40  1  -0.01002512  0.83149080  0.35473343  1
  Sr  Sr41  1  -0.00970852  0.85195958  0.90292299  1
  Sr  Sr42  1  0.33654995  0.17771531  0.36891167  1
  Sr  Sr43  1  0.31819716  0.19005861  0.89063819  1
  Sr  Sr44  1  0.31847822  0.50382544  0.32757495  1
  Sr  Sr45  1  0.34236073  0.50383169  0.87511606  1
  Sr  Sr46  1  0.34249581  0.82235338  0.39045085  1
  Sr  Sr47  1  0.32534747  0.85477131  0.87209986  1
  Sr  Sr48  1  0.66689918  0.16531108  0.41362126  1
  Sr  Sr49  1  0.65640021  0.17170356  0.86396778  1
  Sr  Sr50  1  0.68002566  0.50149163  0.36728217  1
  Sr  Sr51  1  0.66266142  0.54446395  0.91972711  1
  Sr  Sr52  1  0.66884463  0.85952287  0.35906559  1
  Sr  Sr53  1  0.66679826  0.83298078  0.85270089  1
  Sr  Sr54  1  0.18974940  -0.02701509  0.41172282  1
  Sr  Sr55  1  0.15640635  0.01333900  0.86043073  1
  Sr  Sr56  1  0.18024301  0.32581133  0.35872357  1
  Sr  Sr57  1  0.17239406  0.35350866  0.92077023  1
  Sr  Sr58  1  0.17332428  0.66570048  0.37315637  1
  Sr  Sr59  1  0.16994540  0.64223595  0.83384079  1
  Sr  Sr60  1  0.49161029  -0.02018660  0.35164823  1
  Sr  Sr61  1  0.50813264  -0.02011125  0.85679053  1
  Sr  Sr62  1  0.51508016  0.31188801  0.41739923  1
  Sr  Sr63  1  0.49399708  0.31620691  0.85425387  1
  Sr  Sr64  1  0.50893798  0.64389940  0.37704383  1
  Sr  Sr65  1  0.48785998  0.65625429  0.89856454  1
  Sr  Sr66  1  0.84804927  -0.00922540  0.36232338  1
  Sr  Sr67  1  0.82961196  -0.00279135  0.91344867  1
  Sr  Sr68  1  0.82759776  0.33583136  0.34065901  1
  Sr  Sr69  1  0.83935495  0.32094246  0.87505150  1
  Sr  Sr70  1  0.83866224  0.64386613  0.40007834  1
  Sr  Sr71  1  0.84058574  0.67061717  0.87452703  1
  Ta  Ta72  1  0.12955344  0.17012549  0.00488359  1
  Ta  Ta73  1  0.16248114  0.13631809  0.49276717  1
  Ta  Ta74  1  0.16744935  0.54259839  0.00683358  1
  Ta  Ta75  1  0.20556693  0.49930164  0.49338192  1
  Ta  Ta76  1  0.16735383  0.78073900  -0.00454680  1
  Ta  Ta77  1  0.13262919  0.81736971  0.50003423  1
  Ta  Ta78  1  0.48848399  0.12752868  -0.01040214  1
  Ta  Ta79  1  0.49315739  0.11824468  0.51177245  1
  Ta  Ta80  1  0.50859959  0.45728421  -0.00301233  1
  Ta  Ta81  1  0.45948485  0.48968139  0.49643273  1
  Ta  Ta82  1  0.53109017  0.83508047  0.00878993  1
  Ta  Ta83  1  0.52864421  0.82964181  0.49650880  1
  Ta  Ta84  1  0.87407873  0.16723861  0.00643730  1
  Ta  Ta85  1  0.83352297  0.21129952  0.50922995  1
  Ta  Ta86  1  0.81614388  0.47064204  -0.00231347  1
  Ta  Ta87  1  0.83375105  0.45796388  0.50819727  1
  Ta  Ta88  1  0.79230249  0.82822156  0.01519647  1
  Ta  Ta89  1  0.80869331  0.82089155  0.49343255  1
  Ta  Ta90  1  0.16901022  0.11922174  0.25816119  1
  Ta  Ta91  1  0.17683439  0.19779518  0.74101283  1
  Ta  Ta92  1  0.11762099  0.50106307  0.25056821  1
  Ta  Ta93  1  0.16250778  0.45844097  0.74326931  1
  Ta  Ta94  1  0.17483623  0.86706863  0.24623894  1
  Ta  Ta95  1  0.14151342  0.82062893  0.75110277  1
  Ta  Ta96  1  0.52624335  0.17418529  0.25329058  1
  Ta  Ta97  1  0.46798254  0.14401442  0.74092175  1
  Ta  Ta98  1  0.51075185  0.44646113  0.25331994  1
  Ta  Ta99  1  0.54340980  0.50302064  0.75655910  1
  Ta  Ta100  1  0.50307202  0.79204500  0.24735210  1
  Ta  Ta101  1  0.49012909  0.79202507  0.74666886  1
  Ta  Ta102  1  0.79169439  0.16421291  0.24984030  1
  Ta  Ta103  1  0.82992382  0.12394343  0.74888399  1
  Ta  Ta104  1  0.87930247  0.50453105  0.25268654  1
  Ta  Ta105  1  0.78122701  0.50619168  0.75373474  1
  Ta  Ta106  1  0.82386809  0.78317355  0.25064650  1
  Ta  Ta107  1  0.84070887  0.86711016  0.74641677  1
  Ta  Ta108  1  0.05658547  -0.00483566  0.24655518  1
  Ta  Ta109  1  -0.03891271  -0.00429238  0.75418188  1
  Ta  Ta110  1  0.00444998  0.37541244  0.25470715  1
  Ta  Ta111  1  0.05233784  0.33877897  0.75557289  1
  Ta  Ta112  1  -0.01298213  0.64224810  0.25320344  1
  Ta  Ta113  1  0.00438238  0.71170569  0.75280558  1
  Ta  Ta114  1  0.28869374  -0.00177589  0.24743074  1
  Ta  Ta115  1  0.33644212  0.04418260  0.74470929  1
  Ta  Ta116  1  0.38574868  0.33355774  0.25380257  1
  Ta  Ta117  1  0.27984226  0.33688526  0.74153078  1
  Ta  Ta118  1  0.35577535  0.68614638  0.24687071  1
  Ta  Ta119  1  0.34752655  0.69091234  0.74306326  1
  Ta  Ta120  1  0.66351047  0.05418201  0.24717053  1
  Ta  Ta121  1  0.70944386  0.00428406  0.74639495  1
  Ta  Ta122  1  0.64780789  0.30310472  0.25132565  1
  Ta  Ta123  1  0.66463419  0.38550185  0.75509262  1
  Ta  Ta124  1  0.67026694  0.68968689  0.24142386  1
  Ta  Ta125  1  0.64791030  0.65312324  0.74590522  1
  Ta  Ta126  1  0.00277364  0.05053514  0.00031774  1
  Ta  Ta127  1  0.02593433  0.00562914  0.49739049  1
  Ta  Ta128  1  0.00059784  0.29710546  -0.00027326  1
  Ta  Ta129  1  -0.04966400  0.33488850  0.50454461  1
  Ta  Ta130  1  0.04078719  0.66936681  -0.00436662  1
  Ta  Ta131  1  0.01360928  0.69733296  0.49993094  1
  Ta  Ta132  1  0.35558322  0.02321235  -0.00509169  1
  Ta  Ta133  1  0.35464014  0.02225405  0.49956163  1
  Ta  Ta134  1  0.35830466  0.35277325  0.00694059  1
  Ta  Ta135  1  0.33280264  0.38291646  0.49460219  1
  Ta  Ta136  1  0.29516781  0.67063723  0.00033613  1
  Ta  Ta137  1  0.33639804  0.62362689  0.49358621  1
  Ta  Ta138  1  0.64779693  -0.01745542  0.00303165  1
  Ta  Ta139  1  0.63748063  -0.01040400  0.50509681  1
  Ta  Ta140  1  0.66886545  0.36479144  -0.00754684  1
  Ta  Ta141  1  0.71785861  0.33627287  0.51071376  1
  Ta  Ta142  1  0.66447556  0.71791202  0.01970165  1
  Ta  Ta143  1  0.66910598  0.70535666  0.49516657  1
  N  N144  1  0.01355059  0.32956827  0.87707982  1
  N  N145  1  0.83326898  0.83195302  0.36790390  1
  N  N146  1  0.83362209  0.16803289  0.12763614  1
  N  N147  1  0.66454563  0.65160257  0.12284754  1
  N  N148  1  0.34143387  0.33642053  0.37047917  1
  N  N149  1  -0.00597974  0.01176037  0.87494804  1
  N  N150  1  0.00188385  0.67402677  0.87118835  1
  N  N151  1  0.66370714  0.67222034  0.62410703  1
  N  N152  1  0.83970569  0.49144622  0.12244723  1
  N  N153  1  0.16333696  0.50761873  0.12632410  1
  N  N154  1  0.16507745  0.17290219  0.61971012  1
  N  N155  1  0.66407366  0.01839489  0.12001059  1
  N  N156  1  0.49980600  0.17538053  0.61891426  1
  N  N157  1  0.49795664  0.15636415  0.86945987  1
  N  N158  1  0.33362402  0.66379377  0.62326933  1
  N  N159  1  0.34200822  0.33425307  0.12711660  1
  N  N160  1  0.00122126  0.66484970  0.37806174  1
  N  N161  1  0.16885270  0.17196961  0.37118777  1
  N  N162  1  0.49664891  0.81702629  0.62538419  1
  N  N163  1  0.50351133  0.49493940  0.87423034  1
  N  N164  1  0.31949069  0.34881023  0.62439417  1
  N  N165  1  0.50126989  0.82254260  0.37320907  1
  N  N166  1  0.16532921  0.50282565  0.36901670  1
  N  N167  1  0.50011048  0.84056592  0.12804242  1
  N  N168  1  0.66804511  0.00329584  0.62296367  1
  N  N169  1  0.82401221  0.49996612  0.62883894  1
  N  N170  1  0.33684378  0.66215071  0.37379504  1
  N  N171  1  0.33129369  0.66771268  0.12197268  1
  N  N172  1  0.83361396  0.83459000  0.13500138  1
  N  N173  1  0.83443710  0.16840360  0.63039837  1
  N  N174  1  0.84192137  0.49238906  0.37182168  1
  N  N175  1  0.82573680  0.50614868  0.87443544  1
  N  N176  1  0.82803122  0.84311637  0.62525676  1
  O  O177  1  -0.01327570  0.33698410  0.37813263  1
  O  O178  1  0.51060655  0.16029326  0.38245267  1
  O  O179  1  0.32317820  0.34379260  0.87842647  1
  O  O180  1  0.00247099  0.00601583  0.62375450  1
  O  O181  1  0.33957807  0.00669539  0.36922825  1
  O  O182  1  0.15990698  0.82684277  0.87560628  1
  O  O183  1  0.50417213  0.15246757  0.12778089  1
  O  O184  1  0.67481691  0.34877691  0.63072658  1
  O  O185  1  0.00038363  0.66950091  0.11929704  1
  O  O186  1  0.66526115  0.65743118  0.37400351  1
  O  O187  1  0.15389406  0.82798655  0.36720339  1
  O  O188  1  0.51294729  0.46828734  0.38024233  1
  O  O189  1  0.33018448  0.01295713  0.62201456  1
  O  O190  1  0.66729330  0.32716187  0.87195300  1
  O  O191  1  0.02134009  -0.00913048  0.37234343  1
  O  O192  1  -0.00047290  0.32922766  0.62617438  1
  O  O193  1  0.15293542  0.83323536  0.62661492  1
  O  O194  1  0.65908175  0.68609709  0.88084205  1
  O  O195  1  0.49880724  0.49332619  0.62302207  1
  O  O196  1  0.82144714  0.18095457  0.37544931  1
  O  O197  1  0.67231366  -0.00837763  0.87094799  1
  O  O198  1  0.65052638  0.01379121  0.37094098  1
  O  O199  1  0.16937070  0.49679836  0.61917313  1
  O  O200  1  0.50716461  0.82214186  0.87575801  1
  O  O201  1  0.16979656  0.82910972  0.12233423  1
  O  O202  1  0.02752086  0.00581087  0.12167290  1
  O  O203  1  0.66426317  0.32475362  0.12427227  1
  O  O204  1  0.67137036  0.31899195  0.37839250  1
  O  O205  1  0.00049479  0.33288639  0.12951649  1
  O  O206  1  0.33055197  0.00786542  0.12257034  1
  O  O207  1  0.32409589  0.02928464  0.87303999  1
  O  O208  1  0.15680448  0.17273383  0.87873516  1
  O  O209  1  0.82094993  0.84522282  0.88755216  1
  O  O210  1  0.83977854  0.16091079  0.87854349  1
  O  O211  1  0.32888651  0.66088082  0.87004416  1
  O  O212  1  0.16523722  0.50006229  0.88003993  1
  O  O213  1  0.51971563  0.47125729  0.13104870  1
  O  O214  1  0.15190009  0.16378940  0.13140732  1
  O  O215  1  -0.00752300  0.67200929  0.62943059  1
