# generated using pymatgen
data_Sr24Ta24N11O13
_symmetry_space_group_name_H-M   'P 1'
_cell_length_a   16.05291351
_cell_length_b   19.97067490
_cell_length_c   13.79860929
_cell_angle_alpha   92.90905882
_cell_angle_beta   89.88435179
_cell_angle_gamma   88.92219301
_symmetry_Int_Tables_number   1
_chemical_formula_structural   Sr24Ta24N11O13
_chemical_formula_sum   'Sr72 Ta72 N33 O39'
_cell_volume   4417.16008240
_cell_formula_units_Z   3
loop_
 _symmetry_equiv_pos_site_id
 _symmetry_equiv_pos_as_xyz
  1  'x, y, z'
loop_
 _atom_site_type_symbol
 _atom_site_label
 _atom_site_symmetry_multiplicity
 _atom_site_fract_x
 _atom_site_fract_y
 _atom_site_fract_z
 _atom_site_occupancy
  Sr  Sr0  1  -0.00041353  0.20665773  0.19169350  1
  Sr  Sr1  1  -0.00193880  0.21493766  0.68960752  1
  Sr  Sr2  1  -0.00720704  0.53488640  0.13988198  1
  Sr  Sr3  1  0.00482194  0.50183820  0.61328962  1
  Sr  Sr4  1  0.00022364  0.85146021  0.08719567  1
  Sr  Sr5  1  0.00424006  0.85275477  0.59027382  1
  Sr  Sr6  1  0.33391950  0.20706269  0.19657622  1
  Sr  Sr7  1  0.32991560  0.20739390  0.69082802  1
  Sr  Sr8  1  0.33506724  0.55682983  0.13975842  1
  Sr  Sr9  1  0.32477019  0.51092210  0.61241903  1
  Sr  Sr10  1  0.33505975  0.86115955  0.07677454  1
  Sr  Sr11  1  0.33290832  0.84805835  0.58369036  1
  Sr  Sr12  1  0.66715414  0.20669934  0.19320335  1
  Sr  Sr13  1  0.66462790  0.21329442  0.68453508  1
  Sr  Sr14  1  0.67128349  0.55437886  0.14577971  1
  Sr  Sr15  1  0.67387113  0.54411501  0.62897918  1
  Sr  Sr16  1  0.66598753  0.84367717  0.08822336  1
  Sr  Sr17  1  0.66517064  0.85411894  0.59246697  1
  Sr  Sr18  1  0.16686758  -0.04899605  0.17588326  1
  Sr  Sr19  1  0.16835753  -0.05448497  0.68143523  1
  Sr  Sr20  1  0.16558738  0.29512183  0.09235257  1
  Sr  Sr21  1  0.16215792  0.30415091  0.59972825  1
  Sr  Sr22  1  0.15551805  0.64717141  0.06630840  1
  Sr  Sr23  1  0.16494244  0.66022295  0.56652013  1
  Sr  Sr24  1  0.50176286  -0.05148217  0.16040794  1
  Sr  Sr25  1  0.49744702  -0.05073944  0.67409877  1
  Sr  Sr26  1  0.50392007  0.30254643  0.11351594  1
  Sr  Sr27  1  0.49523704  0.30616790  0.60832946  1
  Sr  Sr28  1  0.50661757  0.66185659  0.07065123  1
  Sr  Sr29  1  0.49252482  0.65041483  0.56702482  1
  Sr  Sr30  1  0.83208663  -0.05262756  0.15995813  1
  Sr  Sr31  1  0.83483770  -0.05039134  0.66954438  1
  Sr  Sr32  1  0.83388061  0.29575306  0.10404756  1
  Sr  Sr33  1  0.83706257  0.31186063  0.60169116  1
  Sr  Sr34  1  0.83452580  0.66412743  0.07399975  1
  Sr  Sr35  1  0.84624553  0.65422704  0.57179314  1
  Sr  Sr36  1  0.01349010  0.17465693  0.43841607  1
  Sr  Sr37  1  -0.00752729  0.19814018  0.93758707  1
  Sr  Sr38  1  0.00052694  0.52833738  0.37803678  1
  Sr  Sr39  1  -0.00208422  0.53057044  0.88280995  1
  Sr  Sr40  1  0.00527176  0.88550250  0.34025730  1
  Sr  Sr41  1  -0.00082242  0.88492667  0.83691362  1
  Sr  Sr42  1  0.31632497  0.17189767  0.44022029  1
  Sr  Sr43  1  0.34660735  0.20095634  0.94976329  1
  Sr  Sr44  1  0.33128480  0.53028015  0.37440693  1
  Sr  Sr45  1  0.33660268  0.52252773  0.88650716  1
  Sr  Sr46  1  0.32980003  0.88602080  0.33250543  1
  Sr  Sr47  1  0.33555908  0.88144293  0.83001265  1
  Sr  Sr48  1  0.66745079  0.17250535  0.43318836  1
  Sr  Sr49  1  0.66053440  0.17412493  0.93617174  1
  Sr  Sr50  1  0.66349088  0.53025537  0.38872776  1
  Sr  Sr51  1  0.66679337  0.52713691  0.89072923  1
  Sr  Sr52  1  0.66516147  0.88397615  0.34332213  1
  Sr  Sr53  1  0.66668702  0.88744470  0.84103448  1
  Sr  Sr54  1  0.16949307  0.00160301  0.43152490  1
  Sr  Sr55  1  0.16608646  -0.02852057  0.93166509  1
  Sr  Sr56  1  0.16645617  0.27868039  0.33531255  1
  Sr  Sr57  1  0.16655315  0.29492466  0.85201023  1
  Sr  Sr58  1  0.16611903  0.62855285  0.31553131  1
  Sr  Sr59  1  0.16956305  0.62274213  0.81577413  1
  Sr  Sr60  1  0.49193685  -0.01737529  0.42364308  1
  Sr  Sr61  1  0.49950615  -0.01570089  0.91596211  1
  Sr  Sr62  1  0.49866038  0.27357763  0.35528467  1
  Sr  Sr63  1  0.51047371  0.32744092  0.87355358  1
  Sr  Sr64  1  0.49874785  0.62714390  0.30867311  1
  Sr  Sr65  1  0.50111642  0.62710000  0.82203752  1
  Sr  Sr66  1  0.83302723  -0.01703358  0.42038194  1
  Sr  Sr67  1  0.83437715  -0.00989182  0.91662249  1
  Sr  Sr68  1  0.83400018  0.27727128  0.34670507  1
  Sr  Sr69  1  0.81748776  0.31259767  0.86249256  1
  Sr  Sr70  1  0.83541435  0.62765920  0.31917269  1
  Sr  Sr71  1  0.83309815  0.62723771  0.82217166  1
  Ta  Ta72  1  0.16732179  0.12583344  0.05000626  1
  Ta  Ta73  1  0.16089096  0.10631533  0.64411546  1
  Ta  Ta74  1  0.15822207  0.45364551  0.01074922  1
  Ta  Ta75  1  0.16665606  0.43706138  0.44828534  1
  Ta  Ta76  1  0.16988455  0.79421408  -0.04846576  1
  Ta  Ta77  1  0.16875599  0.79792696  0.42992945  1
  Ta  Ta78  1  0.49799882  0.11365120  0.07750618  1
  Ta  Ta79  1  0.50195288  0.11821875  0.57170041  1
  Ta  Ta80  1  0.50497730  0.46873548  0.03270738  1
  Ta  Ta81  1  0.49934466  0.43638990  0.45183353  1
  Ta  Ta82  1  0.49825701  0.79713616  -0.05914285  1
  Ta  Ta83  1  0.50512769  0.79274260  0.44706699  1
  Ta  Ta84  1  0.83615616  0.11795668  0.07685903  1
  Ta  Ta85  1  0.82694090  0.11446601  0.57672359  1
  Ta  Ta86  1  0.83368420  0.45702594  0.02031409  1
  Ta  Ta87  1  0.83171053  0.44005047  0.44788887  1
  Ta  Ta88  1  0.83510570  0.79906109  -0.05128346  1
  Ta  Ta89  1  0.83010933  0.79668357  0.45513476  1
  Ta  Ta90  1  0.16359652  0.10753560  0.25326959  1
  Ta  Ta91  1  0.17296314  0.12669391  0.83404029  1
  Ta  Ta92  1  0.16975355  0.44628559  0.22788604  1
  Ta  Ta93  1  0.16869949  0.44629155  0.74801174  1
  Ta  Ta94  1  0.17133867  0.78877340  0.21533106  1
  Ta  Ta95  1  0.16988090  0.78521285  0.73795861  1
  Ta  Ta96  1  0.50460298  0.10883007  0.27651230  1
  Ta  Ta97  1  0.49281970  0.12046596  0.78292900  1
  Ta  Ta98  1  0.50071330  0.45568575  0.24132682  1
  Ta  Ta99  1  0.50209598  0.46005126  0.73497677  1
  Ta  Ta100  1  0.49599345  0.79018649  0.23034141  1
  Ta  Ta101  1  0.50375076  0.78474101  0.72799632  1
  Ta  Ta102  1  0.83198031  0.10937760  0.27812928  1
  Ta  Ta103  1  0.83780963  0.12318001  0.78473650  1
  Ta  Ta104  1  0.82322891  0.44330218  0.23355366  1
  Ta  Ta105  1  0.83101047  0.45693162  0.74091836  1
  Ta  Ta106  1  0.83687201  0.78865162  0.24009338  1
  Ta  Ta107  1  0.83016513  0.78629303  0.73478166  1
  Ta  Ta108  1  -0.00497881  0.04491317  0.27094230  1
  Ta  Ta109  1  0.01166697  0.05393921  0.78176832  1
  Ta  Ta110  1  -0.00214761  0.37601466  0.24782615  1
  Ta  Ta111  1  -0.00172184  0.37644536  0.75674411  1
  Ta  Ta112  1  0.00390262  0.71939637  0.22423994  1
  Ta  Ta113  1  0.00023287  0.71689962  0.71783580  1
  Ta  Ta114  1  0.34191822  0.04629912  0.26991553  1
  Ta  Ta115  1  0.32238348  0.05036624  0.80032491  1
  Ta  Ta116  1  0.33718005  0.37554306  0.24762606  1
  Ta  Ta117  1  0.33287587  0.37833676  0.74899861  1
  Ta  Ta118  1  0.32663500  0.72317109  0.21264380  1
  Ta  Ta119  1  0.33527816  0.71370278  0.72275995  1
  Ta  Ta120  1  0.66387322  0.04330042  0.26693304  1
  Ta  Ta121  1  0.66863893  0.05152676  0.77086378  1
  Ta  Ta122  1  0.66548634  0.38206869  0.25186365  1
  Ta  Ta123  1  0.66530600  0.39083758  0.73405294  1
  Ta  Ta124  1  0.66726688  0.72206106  0.23776597  1
  Ta  Ta125  1  0.66771690  0.71275147  0.71040114  1
  Ta  Ta126  1  0.00518609  0.04850400  0.06178678  1
  Ta  Ta127  1  -0.00445030  0.04034325  0.57519958  1
  Ta  Ta128  1  -0.00225029  0.37807913  -0.00987572  1
  Ta  Ta129  1  0.00025690  0.36083968  0.46416566  1
  Ta  Ta130  1  0.00063785  0.72195380  -0.07094935  1
  Ta  Ta131  1  -0.00284469  0.72386371  0.43440322  1
  Ta  Ta132  1  0.33054639  0.04218858  0.05602636  1
  Ta  Ta133  1  0.33474203  0.04078592  0.58726238  1
  Ta  Ta134  1  0.32885954  0.39362999  0.03837598  1
  Ta  Ta135  1  0.33096915  0.36275328  0.45684861  1
  Ta  Ta136  1  0.33238318  0.71769433  -0.06308532  1
  Ta  Ta137  1  0.33580945  0.71713760  0.42116316  1
  Ta  Ta138  1  0.66454918  0.03932468  0.05637347  1
  Ta  Ta139  1  0.66404376  0.03375172  0.56562127  1
  Ta  Ta140  1  0.67271149  0.39502514  0.03516568  1
  Ta  Ta141  1  0.66524279  0.36368186  0.46161625  1
  Ta  Ta142  1  0.66942251  0.71691536  -0.07644892  1
  Ta  Ta143  1  0.66946958  0.71253184  0.45111847  1
  N  N144  1  0.33088423  -0.02466970  0.68874559  1
  N  N145  1  -0.00829758  0.31560209  0.86537271  1
  N  N146  1  0.50025892  0.18786954  0.68375977  1
  N  N147  1  0.50267684  0.86051463  0.83351381  1
  N  N148  1  0.49773307  0.81640651  0.58497771  1
  N  N149  1  -0.00063087  -0.02446814  0.68524093  1
  N  N150  1  0.16507922  0.50544078  0.35197609  1
  N  N151  1  0.16628564  0.18727181  0.17912401  1
  N  N152  1  0.33301947  -0.00221400  0.92714470  1
  N  N153  1  0.83331387  0.81077160  0.09143440  1
  N  N154  1  0.66923022  0.02355901  0.91683238  1
  N  N155  1  0.66700481  0.30293875  0.34403790  1
  N  N156  1  0.50006244  0.81285563  0.09504760  1
  N  N157  1  0.49657031  0.51269443  0.37333501  1
  N  N158  1  0.83173513  0.18664216  0.19332276  1
  N  N159  1  0.16719748  0.86362455  0.32756447  1
  N  N160  1  0.00672792  0.70619283  0.57358752  1
  N  N161  1  0.33137223  0.64938016  0.30788035  1
  N  N162  1  0.67129760  0.66560044  0.57098805  1
  N  N163  1  0.82876779  0.50813639  0.35214731  1
  N  N164  1  0.66873209  0.64568254  0.81718771  1
  N  N165  1  0.00004483  0.34571907  0.60830509  1
  N  N166  1  0.33499349  0.29837474  0.34390467  1
  N  N167  1  0.16475624  0.86049057  0.83339879  1
  N  N168  1  -0.00070108  0.30033678  0.33741555  1
  N  N169  1  0.33609680  -0.02622579  0.17169907  1
  N  N170  1  0.66726863  -0.02853817  0.67957134  1
  N  N171  1  0.16991209  0.19374483  0.95430086  1
  N  N172  1  0.83173325  0.81787006  0.59694321  1
  N  N173  1  0.16455445  0.19343320  0.72156520  1
  N  N174  1  0.16514010  0.83619176  0.08235648  1
  N  N175  1  0.33941603  0.31753905  0.11594320  1
  N  N176  1  0.50255629  0.53329874  0.14539063  1
  O  O177  1  0.82840903  0.19737147  0.68247270  1
  O  O178  1  0.67550253  0.64087968  0.32043095  1
  O  O179  1  0.00036361  0.71272370  0.07459551  1
  O  O180  1  0.83698791  0.45517517  0.59900799  1
  O  O181  1  0.66475487  0.37532378  0.87806413  1
  O  O182  1  0.83120778  0.12859587  0.92896495  1
  O  O183  1  0.50374769  0.86836069  0.33894973  1
  O  O184  1  0.67044382  0.70758104  0.08266345  1
  O  O185  1  -0.00576062  0.31504341  0.09990554  1
  O  O186  1  0.50010851  0.47681943  0.88080339  1
  O  O187  1  0.83197139  0.49669944  0.87851014  1
  O  O188  1  0.82600486  0.87018420  0.33368104  1
  O  O189  1  0.16646488  0.14586754  0.38665060  1
  O  O190  1  0.66792198  0.33396812  0.60871923  1
  O  O191  1  0.15321593  0.52440220  0.13274778  1
  O  O192  1  -0.00543874  -0.03109192  0.16640629  1
  O  O193  1  0.50297352  0.19374651  0.19699552  1
  O  O194  1  0.82471587  0.12067020  0.43257415  1
  O  O195  1  0.16622858  0.44914195  0.60505778  1
  O  O196  1  -0.00234547  0.01160253  0.92197760  1
  O  O197  1  0.83297738  0.52831341  0.12960763  1
  O  O198  1  0.83632753  0.87220357  0.83877140  1
  O  O199  1  0.33971259  0.67544484  0.06648011  1
  O  O200  1  0.33215335  0.02808952  0.42266236  1
  O  O201  1  0.33337379  0.71019798  0.57577041  1
  O  O202  1  0.35049305  0.37509325  0.88940139  1
  O  O203  1  0.00573788  0.03801421  0.42561166  1
  O  O204  1  -0.00084982  0.64407725  0.32259576  1
  O  O205  1  0.48555211  0.46902621  0.59545971  1
  O  O206  1  0.66965259  0.31351623  0.11520864  1
  O  O207  1  0.01074727  0.64252204  0.81706298  1
  O  O208  1  0.33505363  0.35197371  0.60722733  1
  O  O209  1  0.17118060  0.80778997  0.58469103  1
  O  O210  1  0.50061356  0.13669195  0.93612392  1
  O  O211  1  0.66894592  0.01928155  0.41755563  1
  O  O212  1  0.16589746  0.49938173  0.88210823  1
  O  O213  1  0.66926024  -0.03631926  0.16513296  1
  O  O214  1  0.33221419  0.64010112  0.82227765  1
  O  O215  1  0.50520765  0.13343033  0.42846758  1
