# generated using pymatgen
data_Sr24Ta24N11O13
_symmetry_space_group_name_H-M   'P 1'
_cell_length_a   16.77905084
_cell_length_b   16.78237070
_cell_length_c   15.70377641
_cell_angle_alpha   90.22893822
_cell_angle_beta   89.90509287
_cell_angle_gamma   90.08447660
_symmetry_Int_Tables_number   1
_chemical_formula_structural   Sr24Ta24N11O13
_chemical_formula_sum   'Sr72 Ta72 N33 O39'
_cell_volume   4422.01561706
_cell_formula_units_Z   3
loop_
 _symmetry_equiv_pos_site_id
 _symmetry_equiv_pos_as_xyz
  1  'x, y, z'
loop_
 _atom_site_type_symbol
 _atom_site_label
 _atom_site_symmetry_multiplicity
 _atom_site_fract_x
 _atom_site_fract_y
 _atom_site_fract_z
 _atom_site_occupancy
  Sr  Sr0  1  0.01359876  0.15593128  0.10297722  1
  Sr  Sr1  1  -0.02055276  0.16697127  0.67353491  1
  Sr  Sr2  1  0.01695687  0.50490080  0.16769474  1
  Sr  Sr3  1  0.00291229  0.49515102  0.60382745  1
  Sr  Sr4  1  0.00425795  0.81895551  0.08891563  1
  Sr  Sr5  1  0.00394756  0.83731713  0.62485028  1
  Sr  Sr6  1  0.33340860  0.17836341  0.16503839  1
  Sr  Sr7  1  0.31824815  0.16909608  0.62364102  1
  Sr  Sr8  1  0.33628107  0.49194529  0.08124246  1
  Sr  Sr9  1  0.33504910  0.50377910  0.62345184  1
  Sr  Sr10  1  0.32306577  0.84147427  0.14991319  1
  Sr  Sr11  1  0.33846167  0.83992214  0.61774088  1
  Sr  Sr12  1  0.65991335  0.16904253  0.12228897  1
  Sr  Sr13  1  0.66853837  0.15893408  0.58312735  1
  Sr  Sr14  1  0.68086822  0.49848697  0.14092659  1
  Sr  Sr15  1  0.65930238  0.50644563  0.63128808  1
  Sr  Sr16  1  0.66697706  0.83353829  0.11762033  1
  Sr  Sr17  1  0.66350817  0.85208697  0.67384593  1
  Sr  Sr18  1  0.17910854  0.00443685  0.14059160  1
  Sr  Sr19  1  0.16744617  -0.01631282  0.58406183  1
  Sr  Sr20  1  0.17062034  0.33900260  0.11303938  1
  Sr  Sr21  1  0.16300512  0.31510806  0.61461644  1
  Sr  Sr22  1  0.16284864  0.66186870  0.12735695  1
  Sr  Sr23  1  0.16704800  0.67215536  0.66691685  1
  Sr  Sr24  1  0.51206338  -0.00329393  0.08035476  1
  Sr  Sr25  1  0.49403340  -0.00027335  0.63995953  1
  Sr  Sr26  1  0.50198912  0.32684300  0.13213985  1
  Sr  Sr27  1  0.50366307  0.33933371  0.65393136  1
  Sr  Sr28  1  0.50401688  0.66845019  0.14565621  1
  Sr  Sr29  1  0.48357371  0.65357010  0.57826657  1
  Sr  Sr30  1  0.81905594  0.00578901  0.16730652  1
  Sr  Sr31  1  0.83376124  -0.00089985  0.62232325  1
  Sr  Sr32  1  0.83774019  0.33362104  0.09993992  1
  Sr  Sr33  1  0.83435168  0.32871520  0.62342402  1
  Sr  Sr34  1  0.83607189  0.69036288  0.08777476  1
  Sr  Sr35  1  0.80655467  0.66190618  0.63014370  1
  Sr  Sr36  1  -0.00512594  0.13257703  0.33029944  1
  Sr  Sr37  1  -0.00169222  0.18148761  0.88615095  1
  Sr  Sr38  1  0.00433800  0.50002416  0.37747580  1
  Sr  Sr39  1  0.01768988  0.51570821  0.84240715  1
  Sr  Sr40  1  -0.01236700  0.83965959  0.41334932  1
  Sr  Sr41  1  0.01025667  0.82603302  0.87926205  1
  Sr  Sr42  1  0.31001348  0.17252933  0.37907661  1
  Sr  Sr43  1  0.34967116  0.16773562  0.83347374  1
  Sr  Sr44  1  0.33670424  0.49552803  0.41005480  1
  Sr  Sr45  1  0.33450273  0.50052282  0.87655823  1
  Sr  Sr46  1  0.33616418  0.83599061  0.37736323  1
  Sr  Sr47  1  0.33441986  0.84855160  0.86730784  1
  Sr  Sr48  1  0.67351708  0.16342471  0.37460457  1
  Sr  Sr49  1  0.65130534  0.17195784  0.91619803  1
  Sr  Sr50  1  0.65176313  0.51330250  0.36233859  1
  Sr  Sr51  1  0.67939508  0.49604878  0.85468868  1
  Sr  Sr52  1  0.67287422  0.83954682  0.33643326  1
  Sr  Sr53  1  0.65632428  0.83506648  0.88556763  1
  Sr  Sr54  1  0.17877627  -0.00592475  0.36794715  1
  Sr  Sr55  1  0.15544333  -0.00824697  0.91989316  1
  Sr  Sr56  1  0.16555885  0.34723428  0.39113329  1
  Sr  Sr57  1  0.16284473  0.31706604  0.88277494  1
  Sr  Sr58  1  0.16003220  0.66903724  0.33449747  1
  Sr  Sr59  1  0.16630706  0.66761941  0.87201721  1
  Sr  Sr60  1  0.50828410  0.00805802  0.40931300  1
  Sr  Sr61  1  0.49637891  -0.01379856  0.86459913  1
  Sr  Sr62  1  0.51599161  0.32080353  0.34525481  1
  Sr  Sr63  1  0.49193637  0.34192458  0.86807003  1
  Sr  Sr64  1  0.50560907  0.67470697  0.36444747  1
  Sr  Sr65  1  0.48564709  0.65219378  0.90692776  1
  Sr  Sr66  1  0.82519264  -0.00202546  0.37836228  1
  Sr  Sr67  1  0.84714355  -0.00288822  0.83195454  1
  Sr  Sr68  1  0.84369912  0.34375341  0.38203267  1
  Sr  Sr69  1  0.83700111  0.32655213  0.87726411  1
  Sr  Sr70  1  0.85300869  0.67543484  0.41690309  1
  Sr  Sr71  1  0.81468468  0.66564576  0.87828180  1
  Ta  Ta72  1  0.21577818  0.16420765  0.00072908  1
  Ta  Ta73  1  0.11605255  0.15669363  0.50226120  1
  Ta  Ta74  1  0.14040835  0.50162915  0.00136131  1
  Ta  Ta75  1  0.16875419  0.54333868  0.49476275  1
  Ta  Ta76  1  0.19164898  0.81511198  0.00410883  1
  Ta  Ta77  1  0.17087784  0.79516763  0.49770897  1
  Ta  Ta78  1  0.46033267  0.17281975  0.00330737  1
  Ta  Ta79  1  0.48124108  0.18726423  0.50472223  1
  Ta  Ta80  1  0.53360145  0.49340602  -0.00071127  1
  Ta  Ta81  1  0.50788773  0.46009339  0.49852994  1
  Ta  Ta82  1  0.47831310  0.81145100  0.00214529  1
  Ta  Ta83  1  0.54090445  0.83548431  0.49954461  1
  Ta  Ta84  1  0.83164734  0.12193474  -0.00809165  1
  Ta  Ta85  1  0.86971643  0.16487239  0.49834513  1
  Ta  Ta86  1  0.87339776  0.50597061  0.00308816  1
  Ta  Ta87  1  0.80870272  0.49418724  0.49608286  1
  Ta  Ta88  1  0.83291140  0.88122754  0.00253969  1
  Ta  Ta89  1  0.78075544  0.83670218  0.50505835  1
  Ta  Ta90  1  0.15209036  0.19588350  0.24533806  1
  Ta  Ta91  1  0.15896181  0.12491288  0.74885249  1
  Ta  Ta92  1  0.21010356  0.49436264  0.24939469  1
  Ta  Ta93  1  0.17497595  0.46710128  0.74414645  1
  Ta  Ta94  1  0.12176389  0.83722323  0.25181102  1
  Ta  Ta95  1  0.16627943  0.86445013  0.75067979  1
  Ta  Ta96  1  0.50574747  0.12995846  0.24713413  1
  Ta  Ta97  1  0.54323536  0.16923022  0.74726974  1
  Ta  Ta98  1  0.45974010  0.49809406  0.25190759  1
  Ta  Ta99  1  0.49467016  0.53459847  0.74863957  1
  Ta  Ta100  1  0.50112816  0.87582905  0.25366598  1
  Ta  Ta101  1  0.49317443  0.78271945  0.75167817  1
  Ta  Ta102  1  0.83447089  0.19793909  0.24069873  1
  Ta  Ta103  1  0.78418728  0.16939660  0.75614452  1
  Ta  Ta104  1  0.83885976  0.55728898  0.25138372  1
  Ta  Ta105  1  0.85803118  0.49750870  0.74828065  1
  Ta  Ta106  1  0.85828011  0.81818917  0.24650725  1
  Ta  Ta107  1  0.84824171  0.81439643  0.75329111  1
  Ta  Ta108  1  -0.00508939  -0.05202130  0.24738527  1
  Ta  Ta109  1  0.04498967  -0.00290717  0.75335284  1
  Ta  Ta110  1  0.00096711  0.30606762  0.24133185  1
  Ta  Ta111  1  0.00552123  0.35622751  0.75194115  1
  Ta  Ta112  1  -0.02480637  0.69047139  0.24936696  1
  Ta  Ta113  1  -0.03185984  0.67376483  0.75061315  1
  Ta  Ta114  1  0.37816922  0.00567834  0.24890823  1
  Ta  Ta115  1  0.28672155  0.00110408  0.75157442  1
  Ta  Ta116  1  0.33000688  0.36766443  0.24524135  1
  Ta  Ta117  1  0.31156090  0.34938759  0.75226416  1
  Ta  Ta118  1  0.33455161  0.61557876  0.25052284  1
  Ta  Ta119  1  0.36702374  0.66915696  0.74993562  1
  Ta  Ta120  1  0.62745788  0.00553225  0.24184467  1
  Ta  Ta121  1  0.66755906  0.04160480  0.75600627  1
  Ta  Ta122  1  0.70150349  0.32227837  0.24727582  1
  Ta  Ta123  1  0.67156331  0.29498241  0.74907161  1
  Ta  Ta124  1  0.72093188  0.67136239  0.25489173  1
  Ta  Ta125  1  0.61804136  0.66871806  0.74771332  1
  Ta  Ta126  1  -0.04721407  -0.00214554  0.00195699  1
  Ta  Ta127  1  -0.01031647  0.04459528  0.50487638  1
  Ta  Ta128  1  0.00228891  0.38925158  -0.00467746  1
  Ta  Ta129  1  -0.00320429  0.27550774  0.49824637  1
  Ta  Ta130  1  0.00362609  0.62947366  0.00006285  1
  Ta  Ta131  1  0.04442377  0.66554188  0.49824081  1
  Ta  Ta132  1  0.33500544  0.03777797  0.00119388  1
  Ta  Ta133  1  0.34733898  0.01764914  0.50010597  1
  Ta  Ta134  1  0.33863190  0.29677432  -0.00080494  1
  Ta  Ta135  1  0.37335327  0.32663007  0.49923237  1
  Ta  Ta136  1  0.32789503  0.69429516  0.00530858  1
  Ta  Ta137  1  0.28378000  0.66830528  0.49691231  1
  Ta  Ta138  1  0.70761549  0.00025549  -0.00607386  1
  Ta  Ta139  1  0.66735648  -0.03692791  0.50749592  1
  Ta  Ta140  1  0.65263822  0.35937094  0.00264212  1
  Ta  Ta141  1  0.66223760  0.35422653  0.49393581  1
  Ta  Ta142  1  0.64795094  0.64821175  0.00442455  1
  Ta  Ta143  1  0.66417632  0.71323269  0.49569819  1
  N  N144  1  0.16236845  0.83320542  0.12716938  1
  N  N145  1  0.66616728  -0.00348893  0.87275801  1
  N  N146  1  0.50452804  0.16847348  0.62562788  1
  N  N147  1  0.32513038  0.00123023  0.62496039  1
  N  N148  1  0.66723552  0.33451484  0.12383882  1
  N  N149  1  0.50702793  0.49891280  0.87512028  1
  N  N150  1  0.16831120  0.50357168  0.37389853  1
  N  N151  1  0.33558105  0.33894544  0.12345079  1
  N  N152  1  0.67820975  0.68209753  0.37206919  1
  N  N153  1  0.83209512  0.16481391  0.87357296  1
  N  N154  1  0.67030766  0.33498434  0.37243684  1
  N  N155  1  0.49644991  0.82229239  0.87958224  1
  N  N156  1  0.33539893  0.00148670  0.37323090  1
  N  N157  1  0.49451754  0.49557841  0.37692910  1
  N  N158  1  0.66599528  -0.00054097  0.12416456  1
  N  N159  1  -0.00673325  0.66714128  0.87410017  1
  N  N160  1  0.16669685  0.82718796  0.62888711  1
  N  N161  1  0.33971785  0.00420167  0.12654339  1
  N  N162  1  0.00666017  0.66837871  0.37993624  1
  N  N163  1  0.50893003  0.84058247  0.37575774  1
  N  N164  1  0.00056228  0.66362965  0.12665625  1
  N  N165  1  0.66639315  0.00239184  0.62540023  1
  N  N166  1  0.16803508  0.82974185  0.87851764  1
  N  N167  1  0.83308233  0.84438171  0.12657913  1
  N  N168  1  0.15112552  0.15548256  0.62784491  1
  N  N169  1  0.17175730  0.50070300  0.12145013  1
  N  N170  1  0.00020588  0.34164346  0.87637817  1
  N  N171  1  0.17364813  0.17019615  0.12564727  1
  N  N172  1  0.15939459  0.83476357  0.37678581  1
  N  N173  1  0.49802345  0.16385302  0.12312669  1
  N  N174  1  0.32693298  0.00646095  0.87309028  1
  N  N175  1  0.49731722  0.49987988  0.62333915  1
  N  N176  1  0.33203333  0.33299189  0.87181481  1
  O  O177  1  0.83169831  0.16690527  0.62525774  1
  O  O178  1  0.66877649  0.00202113  0.37646475  1
  O  O179  1  0.17059713  0.49343767  0.61971654  1
  O  O180  1  0.82967415  0.49103961  0.62248162  1
  O  O181  1  0.32686840  0.67497884  0.87413400  1
  O  O182  1  0.00036365  0.31366322  0.62846377  1
  O  O183  1  0.32468838  0.66603643  0.62765956  1
  O  O184  1  0.64300992  0.66188452  0.87939171  1
  O  O185  1  0.32787178  0.65554708  0.37311551  1
  O  O186  1  0.01228879  0.67180016  0.63065592  1
  O  O187  1  -0.01502079  -0.00640320  0.12933006  1
  O  O188  1  0.82260867  0.82626825  0.63017512  1
  O  O189  1  0.16747183  0.15999632  0.88307283  1
  O  O190  1  0.00137777  -0.00131672  0.87487383  1
  O  O191  1  0.83327088  0.17257210  0.11568541  1
  O  O192  1  0.51196808  0.16573843  0.37737792  1
  O  O193  1  0.84629113  0.17781910  0.36614229  1
  O  O194  1  0.34998335  0.33392579  0.37447048  1
  O  O195  1  0.17447303  0.48870285  0.87085663  1
  O  O196  1  0.84330867  0.83377607  0.87694850  1
  O  O197  1  0.67229720  0.31906012  0.62352249  1
  O  O198  1  -0.00473573  0.01117513  0.63172115  1
  O  O199  1  -0.00240341  0.29884618  0.36686558  1
  O  O200  1  0.50064869  0.17111358  0.87170899  1
  O  O201  1  0.33466686  0.66269328  0.12801661  1
  O  O202  1  0.85305878  0.51562676  0.12938847  1
  O  O203  1  0.50292503  0.82424319  0.62692883  1
  O  O204  1  0.82769401  0.50739113  0.37300989  1
  O  O205  1  0.67238687  0.66218355  0.12833179  1
  O  O206  1  0.64268157  0.67038353  0.62230482  1
  O  O207  1  0.15124693  0.16740486  0.37255680  1
  O  O208  1  0.82827437  0.84043202  0.38362788  1
  O  O209  1  0.49843253  0.82850056  0.13113165  1
  O  O210  1  0.34725096  0.33383675  0.62473843  1
  O  O211  1  -0.00073937  0.34120439  0.11977496  1
  O  O212  1  0.49651016  0.49791068  0.12804295  1
  O  O213  1  0.66831563  0.32425970  0.87988080  1
  O  O214  1  0.85098892  0.50329069  0.87333860  1
  O  O215  1  -0.01843477  -0.01052519  0.37382287  1
