# generated using pymatgen
data_Sr24Ta24N11O13
_symmetry_space_group_name_H-M   'P 1'
_cell_length_a   17.09363184
_cell_length_b   16.61344494
_cell_length_c   15.53488212
_cell_angle_alpha   89.95705725
_cell_angle_beta   90.42287324
_cell_angle_gamma   89.59208484
_symmetry_Int_Tables_number   1
_chemical_formula_structural   Sr24Ta24N11O13
_chemical_formula_sum   'Sr72 Ta72 N33 O39'
_cell_volume   4411.42631537
_cell_formula_units_Z   3
loop_
 _symmetry_equiv_pos_site_id
 _symmetry_equiv_pos_as_xyz
  1  'x, y, z'
loop_
 _atom_site_type_symbol
 _atom_site_label
 _atom_site_symmetry_multiplicity
 _atom_site_fract_x
 _atom_site_fract_y
 _atom_site_fract_z
 _atom_site_occupancy
  Sr  Sr0  1  -0.01024272  0.15994994  0.11371607  1
  Sr  Sr1  1  0.04065229  0.15155732  0.65440434  1
  Sr  Sr2  1  0.00343424  0.51508778  0.17413899  1
  Sr  Sr3  1  0.00189002  0.48951401  0.61039210  1
  Sr  Sr4  1  0.00834684  0.81692004  0.07769189  1
  Sr  Sr5  1  0.00371254  0.83642017  0.61938017  1
  Sr  Sr6  1  0.37791031  0.18120209  0.13971965  1
  Sr  Sr7  1  0.33262343  0.18285847  0.58413671  1
  Sr  Sr8  1  0.34178068  0.51331396  0.11934492  1
  Sr  Sr9  1  0.35525295  0.48338362  0.68142080  1
  Sr  Sr10  1  0.32050015  0.82164047  0.16791476  1
  Sr  Sr11  1  0.32987124  0.81250239  0.59645570  1
  Sr  Sr12  1  0.69027239  0.17207479  0.11484306  1
  Sr  Sr13  1  0.68283534  0.17949196  0.64100671  1
  Sr  Sr14  1  0.67405844  0.49786184  0.14379594  1
  Sr  Sr15  1  0.65860029  0.50267183  0.58609523  1
  Sr  Sr16  1  0.67178357  0.84214610  0.12670179  1
  Sr  Sr17  1  0.69957683  0.81259766  0.65148748  1
  Sr  Sr18  1  0.14781944  0.00616069  0.10689511  1
  Sr  Sr19  1  0.15601804  -0.01541619  0.66584117  1
  Sr  Sr20  1  0.11726754  0.33089863  0.15580672  1
  Sr  Sr21  1  0.16568984  0.33167709  0.62362076  1
  Sr  Sr22  1  0.18195450  0.66129654  0.12720505  1
  Sr  Sr23  1  0.14771052  0.67714579  0.56556362  1
  Sr  Sr24  1  0.49716936  -0.00949484  0.12911274  1
  Sr  Sr25  1  0.44221012  0.00460789  0.59041092  1
  Sr  Sr26  1  0.49348216  0.35570222  0.14416228  1
  Sr  Sr27  1  0.49263183  0.32569189  0.65019493  1
  Sr  Sr28  1  0.47032376  0.66963878  0.09794337  1
  Sr  Sr29  1  0.50153159  0.66918083  0.64549204  1
  Sr  Sr30  1  0.82107857  0.00671315  0.16163275  1
  Sr  Sr31  1  0.83225307  -0.01589136  0.59440152  1
  Sr  Sr32  1  0.81893157  0.32727622  0.09016152  1
  Sr  Sr33  1  0.81652583  0.33872696  0.62118150  1
  Sr  Sr34  1  0.81810341  0.66727627  0.10824647  1
  Sr  Sr35  1  0.86033171  0.66379348  0.66931592  1
  Sr  Sr36  1  0.01679279  0.15040824  0.32859796  1
  Sr  Sr37  1  0.02154286  0.17058823  0.88914761  1
  Sr  Sr38  1  0.01166445  0.48842625  0.38651592  1
  Sr  Sr39  1  -0.00830270  0.49383881  0.82900467  1
  Sr  Sr40  1  0.00161378  0.83369298  0.40411543  1
  Sr  Sr41  1  0.01794186  0.82139763  0.87306079  1
  Sr  Sr42  1  0.34691462  0.17637917  0.37742004  1
  Sr  Sr43  1  0.34513252  0.15093108  0.92722634  1
  Sr  Sr44  1  0.34523273  0.50548263  0.34942825  1
  Sr  Sr45  1  0.33250929  0.52528812  0.89951087  1
  Sr  Sr46  1  0.32935487  0.83216578  0.38282745  1
  Sr  Sr47  1  0.34411829  0.85512024  0.80584318  1
  Sr  Sr48  1  0.70692291  0.16022966  0.41014490  1
  Sr  Sr49  1  0.65746897  0.17885808  0.85509756  1
  Sr  Sr50  1  0.66546291  0.49677091  0.37349908  1
  Sr  Sr51  1  0.71020231  0.49332356  0.92589206  1
  Sr  Sr52  1  0.68522441  0.84267350  0.36840623  1
  Sr  Sr53  1  0.66040411  0.82739338  0.88003188  1
  Sr  Sr54  1  0.15229866  0.00426698  0.33543259  1
  Sr  Sr55  1  0.16724917  0.00874057  0.88396941  1
  Sr  Sr56  1  0.15519554  0.32553934  0.39044214  1
  Sr  Sr57  1  0.15086856  0.34349141  0.85021109  1
  Sr  Sr58  1  0.18476300  0.66673914  0.35986828  1
  Sr  Sr59  1  0.17230354  0.65972579  0.90927665  1
  Sr  Sr60  1  0.47682470  -0.00737054  0.36859504  1
  Sr  Sr61  1  0.49529831  0.00545919  0.89374684  1
  Sr  Sr62  1  0.48815623  0.33994160  0.35847918  1
  Sr  Sr63  1  0.46467333  0.34198450  0.88588944  1
  Sr  Sr64  1  0.52641794  0.66792829  0.44261124  1
  Sr  Sr65  1  0.48612328  0.67619031  0.85620754  1
  Sr  Sr66  1  0.84360859  -0.00664091  0.37862020  1
  Sr  Sr67  1  0.77124764  0.00583380  0.81185793  1
  Sr  Sr68  1  0.81968296  0.34244710  0.41650988  1
  Sr  Sr69  1  0.82487741  0.31477066  0.87745904  1
  Sr  Sr70  1  0.81793314  0.65246538  0.31845634  1
  Sr  Sr71  1  0.84325381  0.68336383  0.88595418  1
  Ta  Ta72  1  0.18401608  0.20098301  0.01743523  1
  Ta  Ta73  1  0.15448249  0.14388314  0.48714235  1
  Ta  Ta74  1  0.13367355  0.47889698  0.00131684  1
  Ta  Ta75  1  0.21404210  0.49687208  0.50353153  1
  Ta  Ta76  1  0.19809648  0.83940368  -0.00510705  1
  Ta  Ta77  1  0.16538475  0.87467708  0.49066088  1
  Ta  Ta78  1  0.53290915  0.18353231  0.00560955  1
  Ta  Ta79  1  0.53162548  0.16681535  0.50458757  1
  Ta  Ta80  1  0.53198841  0.50648357  0.00011231  1
  Ta  Ta81  1  0.47665041  0.48165527  0.50883778  1
  Ta  Ta82  1  0.47486861  0.83408749  -0.00595634  1
  Ta  Ta83  1  0.54393027  0.85519085  0.52431036  1
  Ta  Ta84  1  0.83286359  0.10384698  -0.01476344  1
  Ta  Ta85  1  0.89402997  0.15913119  0.49892130  1
  Ta  Ta86  1  0.88702624  0.49947327  0.00804155  1
  Ta  Ta87  1  0.83611051  0.54953615  0.49265072  1
  Ta  Ta88  1  0.82890220  0.89906817  -0.01525876  1
  Ta  Ta89  1  0.83895276  0.77398503  0.49254604  1
  Ta  Ta90  1  0.20487490  0.17300913  0.23537540  1
  Ta  Ta91  1  0.21159160  0.17085658  0.76431629  1
  Ta  Ta92  1  0.18467814  0.48009202  0.25902916  1
  Ta  Ta93  1  0.16804049  0.54089574  0.74012911  1
  Ta  Ta94  1  0.13154078  0.83324176  0.24450076  1
  Ta  Ta95  1  0.16605475  0.78971234  0.73839190  1
  Ta  Ta96  1  0.55755738  0.16581184  0.26642433  1
  Ta  Ta97  1  0.46758206  0.14852150  0.74610254  1
  Ta  Ta98  1  0.50808913  0.53904476  0.25916388  1
  Ta  Ta99  1  0.54590502  0.49982616  0.76226804  1
  Ta  Ta100  1  0.50763253  0.80859985  0.26204933  1
  Ta  Ta101  1  0.52236158  0.86798651  0.72734299  1
  Ta  Ta102  1  0.83515421  0.19835593  0.25814670  1
  Ta  Ta103  1  0.86955458  0.16179213  0.73927105  1
  Ta  Ta104  1  0.83489024  0.45706679  0.25116643  1
  Ta  Ta105  1  0.80045320  0.49449337  0.74762231  1
  Ta  Ta106  1  0.87838621  0.82780461  0.23709654  1
  Ta  Ta107  1  0.86543967  0.85299521  0.76328311  1
  Ta  Ta108  1  -0.00732599  -0.04810214  0.23835765  1
  Ta  Ta109  1  -0.03648192  -0.00336845  0.75336317  1
  Ta  Ta110  1  -0.05518273  0.32528751  0.25761088  1
  Ta  Ta111  1  -0.03103932  0.31038563  0.74094776  1
  Ta  Ta112  1  0.00283069  0.70500248  0.24889780  1
  Ta  Ta113  1  0.04824624  0.66327900  0.74666974  1
  Ta  Ta114  1  0.31178470  0.01621369  0.24533862  1
  Ta  Ta115  1  0.33088385  0.05333843  0.74976661  1
  Ta  Ta116  1  0.29615361  0.33838452  0.25261773  1
  Ta  Ta117  1  0.32431739  0.28624303  0.75628762  1
  Ta  Ta118  1  0.41454052  0.67560114  0.29181618  1
  Ta  Ta119  1  0.28418858  0.66342444  0.73582849  1
  Ta  Ta120  1  0.64912700  0.02616638  0.25893970  1
  Ta  Ta121  1  0.59916520  0.00850969  0.71418018  1
  Ta  Ta122  1  0.68672088  0.31411712  0.25830858  1
  Ta  Ta123  1  0.66535308  0.38074451  0.75266914  1
  Ta  Ta124  1  0.61193062  0.67484437  0.25886519  1
  Ta  Ta125  1  0.67749563  0.61107957  0.75613113  1
  Ta  Ta126  1  -0.03851683  -0.00560134  -0.01117417  1
  Ta  Ta127  1  0.02275762  0.01790910  0.49509422  1
  Ta  Ta128  1  -0.00109410  0.37256940  -0.00107042  1
  Ta  Ta129  1  -0.00475147  0.28235442  0.49431630  1
  Ta  Ta130  1  0.00748521  0.61639422  -0.00449015  1
  Ta  Ta131  1  -0.03765936  0.66006952  0.48321245  1
  Ta  Ta132  1  0.33452515  -0.06364732  -0.00238092  1
  Ta  Ta133  1  0.27157918  0.00710342  0.49139772  1
  Ta  Ta134  1  0.27937455  0.33913394  0.01473335  1
  Ta  Ta135  1  0.33327610  0.37154805  0.50377390  1
  Ta  Ta136  1  0.33421133  0.74235287  -0.02973015  1
  Ta  Ta137  1  0.33818462  0.61601828  0.51594617  1
  Ta  Ta138  1  0.67567773  0.01450153  0.00075204  1
  Ta  Ta139  1  0.62938667  0.00546369  0.52178381  1
  Ta  Ta140  1  0.62843119  0.33430507  0.00572018  1
  Ta  Ta141  1  0.62569620  0.32419199  0.50281896  1
  Ta  Ta142  1  0.63686161  0.65815189  0.00184892  1
  Ta  Ta143  1  0.71511013  0.67326921  0.49661745  1
  N  N144  1  -0.00208143  -0.00426519  0.63246789  1
  N  N145  1  -0.00254910  -0.00893850  0.37346078  1
  N  N146  1  0.33252358  0.68773474  0.85563692  1
  N  N147  1  0.35302262  0.66036733  0.63682581  1
  N  N148  1  0.01186791  0.65441175  0.87349436  1
  N  N149  1  0.66179447  0.00770525  0.12578144  1
  N  N150  1  0.13755647  0.16937931  0.13467161  1
  N  N151  1  0.81187589  0.84124527  0.87513857  1
  N  N152  1  0.16131024  0.83018165  0.61748613  1
  N  N153  1  0.66288649  0.33487482  0.38243654  1
  N  N154  1  0.17210726  0.16923466  0.36536155  1
  N  N155  1  0.32634853  0.33632659  0.37736582  1
  N  N156  1  0.17925810  0.17096274  0.88966576  1
  N  N157  1  0.48718768  0.16837884  0.61960788  1
  N  N158  1  0.32067362  0.00325930  0.36980632  1
  N  N159  1  0.83233046  0.50086309  0.37788568  1
  N  N160  1  0.50779783  0.50192005  0.38963926  1
  N  N161  1  0.47368545  0.82782044  0.61999667  1
  N  N162  1  0.85368266  0.15598025  0.37710732  1
  N  N163  1  0.16784425  0.83071202  0.37281163  1
  N  N164  1  0.66773146  0.67127814  0.37109578  1
  N  N165  1  0.35931413  0.67304398  0.40835058  1
  N  N166  1  -0.00827487  -0.00836055  0.11522089  1
  N  N167  1  0.00921006  0.65848100  0.36488190  1
  N  N168  1  0.50812037  0.49999775  0.64355054  1
  N  N169  1  0.84258960  0.49673300  0.12780928  1
  N  N170  1  0.65918258  0.34240468  0.63133725  1
  N  N171  1  0.32868915  0.32996725  0.63876601  1
  N  N172  1  0.66105105  0.33770530  0.12654675  1
  N  N173  1  0.17094472  0.50206568  0.38278261  1
  N  N174  1  0.50505740  0.51118118  0.12200821  1
  N  N175  1  -0.00452371  0.32512841  0.37654087  1
  N  N176  1  0.16581980  0.82913276  0.11847067  1
  O  O177  1  -0.02322991  0.33685942  0.61718912  1
  O  O178  1  0.18078662  0.17594029  0.61761805  1
  O  O179  1  0.84882463  0.15448513  0.86915866  1
  O  O180  1  0.02025666  0.66064998  0.12176657  1
  O  O181  1  0.49629769  0.15690824  0.37455640  1
  O  O182  1  0.83142773  0.85089758  0.11570780  1
  O  O183  1  0.50430988  0.16617143  0.88034507  1
  O  O184  1  0.83914719  0.50946802  0.62511190  1
  O  O185  1  -0.01761366  0.32994974  0.86972380  1
  O  O186  1  0.83740488  0.15195647  0.11339875  1
  O  O187  1  0.66574442  0.65931511  0.87747477  1
  O  O188  1  0.48021428  0.50134831  0.87818978  1
  O  O189  1  0.65453481  0.00506475  0.39212927  1
  O  O190  1  0.69339852  0.01806603  0.63568921  1
  O  O191  1  0.49173594  0.82652011  0.12444458  1
  O  O192  1  0.84992897  0.81542604  0.63472139  1
  O  O193  1  0.30211023  0.02478249  0.62268575  1
  O  O194  1  0.16439186  0.83704323  0.86346488  1
  O  O195  1  0.30893034  0.33650233  0.88559285  1
  O  O196  1  0.52949501  0.83828069  0.39627444  1
  O  O197  1  0.67651749  0.33753624  0.88275882  1
  O  O198  1  0.84651715  0.49621737  0.87135673  1
  O  O199  1  0.63683276  0.02115140  0.86045382  1
  O  O200  1  0.15437528  0.49960248  0.87077968  1
  O  O201  1  0.33566104  -0.02686340  0.12495327  1
  O  O202  1  0.14990400  0.48948481  0.13036013  1
  O  O203  1  0.84034872  0.81538317  0.36216227  1
  O  O204  1  -0.02403032  0.32879999  0.11822488  1
  O  O205  1  0.01972217  0.01071146  0.87076644  1
  O  O206  1  0.49935795  0.84864092  0.86258639  1
  O  O207  1  0.33949928  0.35121005  0.12316177  1
  O  O208  1  0.15637655  0.49113600  0.62305203  1
  O  O209  1  0.00516980  0.65419303  0.61961746  1
  O  O210  1  0.53046310  0.17564591  0.13439975  1
  O  O211  1  0.32229122  0.64895164  0.04810260  1
  O  O212  1  0.68456205  0.65628338  0.63377168  1
  O  O213  1  0.83645718  0.14814886  0.61775311  1
  O  O214  1  0.64489154  0.67638797  0.12617391  1
  O  O215  1  0.33550060  -0.00405932  0.87905699  1
