# generated using pymatgen
data_Sr24Ta24N11O13
_symmetry_space_group_name_H-M   'P 1'
_cell_length_a   16.90596039
_cell_length_b   16.70852922
_cell_length_c   15.71431914
_cell_angle_alpha   90.09013337
_cell_angle_beta   89.80224386
_cell_angle_gamma   89.79566750
_symmetry_Int_Tables_number   1
_chemical_formula_structural   Sr24Ta24N11O13
_chemical_formula_sum   'Sr72 Ta72 N33 O39'
_cell_volume   4438.82214217
_cell_formula_units_Z   3
loop_
 _symmetry_equiv_pos_site_id
 _symmetry_equiv_pos_as_xyz
  1  'x, y, z'
loop_
 _atom_site_type_symbol
 _atom_site_label
 _atom_site_symmetry_multiplicity
 _atom_site_fract_x
 _atom_site_fract_y
 _atom_site_fract_z
 _atom_site_occupancy
  Sr  Sr0  1  -0.00926769  0.17820811  0.16887645  1
  Sr  Sr1  1  -0.01193028  0.15510171  0.64184814  1
  Sr  Sr2  1  -0.00943190  0.48602810  0.07863279  1
  Sr  Sr3  1  -0.00186425  0.52131184  0.63259461  1
  Sr  Sr4  1  0.00582992  0.83144170  0.13544218  1
  Sr  Sr5  1  -0.02295460  0.85015440  0.60266939  1
  Sr  Sr6  1  0.32655942  0.17148661  0.13935573  1
  Sr  Sr7  1  0.31842921  0.18194122  0.58542190  1
  Sr  Sr8  1  0.31373631  0.50568231  0.12463764  1
  Sr  Sr9  1  0.32520098  0.49409741  0.65676078  1
  Sr  Sr10  1  0.34863651  0.83458514  0.08587795  1
  Sr  Sr11  1  0.32066949  0.84109485  0.63396206  1
  Sr  Sr12  1  0.67348585  0.15966808  0.08100318  1
  Sr  Sr13  1  0.64529121  0.17267413  0.63400100  1
  Sr  Sr14  1  0.67052556  0.50171358  0.12897309  1
  Sr  Sr15  1  0.62601230  0.49737611  0.60004394  1
  Sr  Sr16  1  0.65344408  0.85036720  0.17662968  1
  Sr  Sr17  1  0.66465767  0.82998462  0.62281969  1
  Sr  Sr18  1  0.18267100  -0.02278259  0.08596670  1
  Sr  Sr19  1  0.17534437  0.00352280  0.63923146  1
  Sr  Sr20  1  0.18150317  0.33187347  0.13458667  1
  Sr  Sr21  1  0.17595617  0.32914240  0.59297515  1
  Sr  Sr22  1  0.16452840  0.67391463  0.15701922  1
  Sr  Sr23  1  0.17334668  0.66576550  0.62331865  1
  Sr  Sr24  1  0.50729248  0.00434201  0.12607176  1
  Sr  Sr25  1  0.50680317  -0.01167296  0.66985762  1
  Sr  Sr26  1  0.54179462  0.33164525  0.10270950  1
  Sr  Sr27  1  0.49260965  0.33433954  0.62874349  1
  Sr  Sr28  1  0.50004951  0.66196089  0.13159918  1
  Sr  Sr29  1  0.50524880  0.68108844  0.57625623  1
  Sr  Sr30  1  0.83908136  -0.01231167  0.14034565  1
  Sr  Sr31  1  0.83142188  0.00768827  0.59833334  1
  Sr  Sr32  1  0.84048311  0.33638884  0.13900325  1
  Sr  Sr33  1  0.87469739  0.34387475  0.64334535  1
  Sr  Sr34  1  0.85063047  0.65396513  0.09241796  1
  Sr  Sr35  1  0.83207866  0.66647829  0.65027639  1
  Sr  Sr36  1  -0.02907423  0.14426483  0.36654795  1
  Sr  Sr37  1  -0.00005395  0.15531197  0.84097459  1
  Sr  Sr38  1  -0.00201467  0.49456291  0.42236468  1
  Sr  Sr39  1  -0.01199309  0.51773188  0.85652192  1
  Sr  Sr40  1  -0.00768688  0.83673377  0.36008634  1
  Sr  Sr41  1  -0.02461155  0.84723183  0.92345869  1
  Sr  Sr42  1  0.34207307  0.16955989  0.36673519  1
  Sr  Sr43  1  0.30466349  0.18193775  0.90601399  1
  Sr  Sr44  1  0.30515721  0.50404374  0.33189682  1
  Sr  Sr45  1  0.32118584  0.49691895  0.86935335  1
  Sr  Sr46  1  0.32412491  0.82028654  0.41413597  1
  Sr  Sr47  1  0.32044227  0.84289248  0.86255838  1
  Sr  Sr48  1  0.66629737  0.16667748  0.41759503  1
  Sr  Sr49  1  0.64162288  0.17368983  0.86911444  1
  Sr  Sr50  1  0.66831151  0.48539049  0.35834643  1
  Sr  Sr51  1  0.64127720  0.50554620  0.88897336  1
  Sr  Sr52  1  0.65583088  0.83350113  0.38241320  1
  Sr  Sr53  1  0.66910065  0.83220162  0.83380752  1
  Sr  Sr54  1  0.20067834  -0.00673805  0.41539291  1
  Sr  Sr55  1  0.16463856  0.00024087  0.87134961  1
  Sr  Sr56  1  0.17976996  0.31730459  0.36002252  1
  Sr  Sr57  1  0.17756970  0.34365639  0.91439543  1
  Sr  Sr58  1  0.16511689  0.67301844  0.37314385  1
  Sr  Sr59  1  0.17547530  0.65914031  0.82803622  1
  Sr  Sr60  1  0.49950402  0.00376640  0.33934727  1
  Sr  Sr61  1  0.51050097  -0.00462521  0.87730871  1
  Sr  Sr62  1  0.52057798  0.32492693  0.40462141  1
  Sr  Sr63  1  0.50903230  0.34008521  0.85339121  1
  Sr  Sr64  1  0.50741154  0.66405979  0.36380071  1
  Sr  Sr65  1  0.48282773  0.67167226  0.91599117  1
  Sr  Sr66  1  0.82047671  -0.01755871  0.37814744  1
  Sr  Sr67  1  0.83733376  0.00588496  0.89820119  1
  Sr  Sr68  1  0.84477971  0.34190186  0.36072242  1
  Sr  Sr69  1  0.86985923  0.33202847  0.85505099  1
  Sr  Sr70  1  0.85215029  0.65043608  0.39265265  1
  Sr  Sr71  1  0.83023489  0.66987047  0.86971703  1
  Ta  Ta72  1  0.12584674  0.16258691  0.00136042  1
  Ta  Ta73  1  0.12553905  0.15840219  0.50061992  1
  Ta  Ta74  1  0.15863390  0.54408284  -0.00962021  1
  Ta  Ta75  1  0.19287663  0.50258446  0.50091804  1
  Ta  Ta76  1  0.16033815  0.78746828  -0.01133907  1
  Ta  Ta77  1  0.13364705  0.82959923  0.50737872  1
  Ta  Ta78  1  0.47249271  0.16718068  -0.00471633  1
  Ta  Ta79  1  0.49452826  0.12379560  0.50901996  1
  Ta  Ta80  1  0.47129627  0.48888369  0.00037048  1
  Ta  Ta81  1  0.44854970  0.50164256  0.49544211  1
  Ta  Ta82  1  0.55712329  0.83375861  0.00433056  1
  Ta  Ta83  1  0.49594081  0.87316660  0.50226366  1
  Ta  Ta84  1  0.86468205  0.18135998  0.00215968  1
  Ta  Ta85  1  0.83857762  0.20581970  0.50901313  1
  Ta  Ta86  1  0.81333842  0.47768811  -0.01471497  1
  Ta  Ta87  1  0.80609509  0.49305776  0.51033887  1
  Ta  Ta88  1  0.77735559  0.82974270  0.00193205  1
  Ta  Ta89  1  0.82315900  0.80315057  0.50158179  1
  Ta  Ta90  1  0.16854131  0.11582080  0.25101242  1
  Ta  Ta91  1  0.18020213  0.18860455  0.74945021  1
  Ta  Ta92  1  0.11428848  0.50254002  0.24871302  1
  Ta  Ta93  1  0.15439950  0.46059518  0.74761891  1
  Ta  Ta94  1  0.18982741  0.85654731  0.25733577  1
  Ta  Ta95  1  0.12144325  0.83780134  0.75244809  1
  Ta  Ta96  1  0.53429291  0.18433168  0.24920411  1
  Ta  Ta97  1  0.44779704  0.16921782  0.75023725  1
  Ta  Ta98  1  0.48664976  0.47620603  0.25261265  1
  Ta  Ta99  1  0.49310780  0.55290920  0.74257344  1
  Ta  Ta100  1  0.45772340  0.83169006  0.25738900  1
  Ta  Ta101  1  0.49576904  0.78530751  0.74610648  1
  Ta  Ta102  1  0.78829537  0.16756305  0.25434252  1
  Ta  Ta103  1  0.80432436  0.16004231  0.75010418  1
  Ta  Ta104  1  0.86620245  0.51263296  0.25533997  1
  Ta  Ta105  1  0.77839831  0.49434968  0.73285730  1
  Ta  Ta106  1  0.82532178  0.78659758  0.25317034  1
  Ta  Ta107  1  0.84853818  0.85612058  0.75228830  1
  Ta  Ta108  1  0.05956458  -0.00392443  0.24992956  1
  Ta  Ta109  1  -0.00835382  -0.03422741  0.76180321  1
  Ta  Ta110  1  0.00674421  0.38149773  0.24941821  1
  Ta  Ta111  1  0.05634360  0.32992425  0.75194991  1
  Ta  Ta112  1  -0.01120689  0.62932649  0.24806141  1
  Ta  Ta113  1  -0.00256367  0.72687961  0.75859171  1
  Ta  Ta114  1  0.32014094  -0.02821575  0.25463949  1
  Ta  Ta115  1  0.33182718  0.05397415  0.74893788  1
  Ta  Ta116  1  0.38870231  0.33866784  0.24437503  1
  Ta  Ta117  1  0.31524854  0.31348110  0.74916306  1
  Ta  Ta118  1  0.33648814  0.70243097  0.24660426  1
  Ta  Ta119  1  0.36725771  0.67199546  0.74734600  1
  Ta  Ta120  1  0.67071981  0.04690636  0.25279203  1
  Ta  Ta121  1  0.70086202  0.01325301  0.75025222  1
  Ta  Ta122  1  0.67280897  0.29159468  0.25834050  1
  Ta  Ta123  1  0.69798296  0.34293737  0.74496500  1
  Ta  Ta124  1  0.70886023  0.66475417  0.25000839  1
  Ta  Ta125  1  0.63476563  0.65036142  0.74368296  1
  Ta  Ta126  1  0.00201446  0.04505577  0.00718262  1
  Ta  Ta127  1  0.02664298  0.00643892  0.50270539  1
  Ta  Ta128  1  0.00092338  0.28228536  0.00367193  1
  Ta  Ta129  1  0.00462349  0.29681947  0.49446989  1
  Ta  Ta130  1  0.03856276  0.66992359  -0.01102732  1
  Ta  Ta131  1  0.00595597  0.69106973  0.50596034  1
  Ta  Ta132  1  0.35592105  0.02237567  -0.00220630  1
  Ta  Ta133  1  0.38173070  0.00091375  0.50235820  1
  Ta  Ta134  1  0.36998110  0.34115498  0.00420052  1
  Ta  Ta135  1  0.33860586  0.37307300  0.48981746  1
  Ta  Ta136  1  0.29612765  0.66203509  -0.00438109  1
  Ta  Ta137  1  0.32853414  0.62570259  0.49183621  1
  Ta  Ta138  1  0.66847846  -0.03494053  0.00726469  1
  Ta  Ta139  1  0.62609013  -0.00261967  0.49927355  1
  Ta  Ta140  1  0.71542486  0.33944256  -0.01818089  1
  Ta  Ta141  1  0.71193691  0.33823699  0.51001563  1
  Ta  Ta142  1  0.66926515  0.69888306  0.00063361  1
  Ta  Ta143  1  0.69859337  0.65817701  0.50262321  1
  N  N144  1  0.47823131  0.51531505  0.62241617  1
  N  N145  1  0.83305776  0.17386653  0.63003836  1
  N  N146  1  0.15431350  0.16575824  0.87729209  1
  N  N147  1  0.33671528  0.33644912  0.87878028  1
  N  N148  1  0.48991667  0.17204730  0.87391174  1
  N  N149  1  0.66691900  0.33100144  0.86523997  1
  N  N150  1  0.66089430  0.66601295  0.62150288  1
  N  N151  1  0.33110664  0.67098570  0.86938318  1
  N  N152  1  0.66046369  0.00681903  0.37965364  1
  N  N153  1  0.15772044  0.16349848  0.62162530  1
  N  N154  1  0.84110598  0.49715737  0.37760745  1
  N  N155  1  0.84301383  0.50541124  0.63104879  1
  N  N156  1  0.49218905  0.83375574  0.37509725  1
  N  N157  1  0.34350209  0.33330224  0.36977842  1
  N  N158  1  0.16447852  0.49664331  0.62079864  1
  N  N159  1  0.81871755  0.83649284  0.88317184  1
  N  N160  1  0.16290871  0.83877916  0.62729676  1
  N  N161  1  0.48909608  0.16400798  0.62630028  1
  N  N162  1  0.16758106  0.83577349  0.37706940  1
  N  N163  1  0.33313388  0.33699113  0.62387167  1
  N  N164  1  0.32706611  0.66122952  0.36929667  1
  N  N165  1  0.16462762  0.83532713  0.87580728  1
  N  N166  1  0.49637864  0.83158155  0.63152352  1
  N  N167  1  0.68043713  0.32535549  0.38161688  1
  N  N168  1  0.82904515  0.82499091  0.37369263  1
  N  N169  1  -0.00246384  0.00237723  0.88398027  1
  N  N170  1  -0.00900287  0.67726609  0.87087703  1
  N  N171  1  0.34574846  -0.00373450  0.37367872  1
  N  N172  1  0.67028914  0.00393333  0.12821541  1
  N  N173  1  0.33625574  0.33152996  0.13206483  1
  N  N174  1  0.82416413  0.83652407  0.62833994  1
  N  N175  1  0.32823975  0.67253149  0.12092900  1
  N  N176  1  0.15779334  0.50301286  0.87324228  1
  O  O177  1  0.82094845  0.82644789  0.13017651  1
  O  O178  1  0.34020436  -0.00026140  0.12119027  1
  O  O179  1  0.02930423  -0.00499227  0.12359251  1
  O  O180  1  0.69069338  0.31681021  0.11047126  1
  O  O181  1  0.02046694  0.31154374  0.62196418  1
  O  O182  1  -0.00495010  0.68092271  0.63180680  1
  O  O183  1  0.65003948  0.32803151  0.61840478  1
  O  O184  1  0.17052759  0.14632564  0.37498774  1
  O  O185  1  0.33655417  0.00888710  0.62804078  1
  O  O186  1  0.01946777  0.31763231  0.88072808  1
  O  O187  1  0.16258886  0.82606525  0.11901124  1
  O  O188  1  0.83658535  0.49309016  0.11295514  1
  O  O189  1  0.00535547  0.00208366  0.63041331  1
  O  O190  1  0.68794017  0.66466168  0.12334506  1
  O  O191  1  0.52190167  0.81970465  0.87884663  1
  O  O192  1  0.00046929  0.33298655  0.12784571  1
  O  O193  1  0.48559165  0.50139073  0.12553653  1
  O  O194  1  0.50509010  0.49530816  0.37472049  1
  O  O195  1  0.50792419  0.83041348  0.12563399  1
  O  O196  1  0.51119149  0.16822746  0.37573865  1
  O  O197  1  0.14704637  0.50494196  0.37708047  1
  O  O198  1  0.00379209  0.65985025  0.38150297  1
  O  O199  1  0.51652060  0.17458345  0.12319514  1
  O  O200  1  0.00430902  0.33506854  0.37403092  1
  O  O201  1  0.84699812  0.17394184  0.87445005  1
  O  O202  1  0.13830445  0.51416227  0.12203224  1
  O  O203  1  0.83385093  0.17559791  0.12592081  1
  O  O204  1  0.67296679  0.00849100  0.62500046  1
  O  O205  1  0.68443065  0.65064477  0.37115613  1
  O  O206  1  0.65853141  0.67456812  0.87586701  1
  O  O207  1  0.81384399  0.50512965  0.86090952  1
  O  O208  1  0.00136045  0.65184174  0.12009298  1
  O  O209  1  0.82345226  0.16975343  0.38425347  1
  O  O210  1  0.32996280  0.66492051  0.61681974  1
  O  O211  1  0.68229194  -0.00222395  0.87528321  1
  O  O212  1  0.17076433  0.14113637  0.12667464  1
  O  O213  1  0.03273876  -0.00569114  0.37668999  1
  O  O214  1  0.33763828  0.01349474  0.87281289  1
  O  O215  1  0.48374919  0.51432888  0.87564954  1
