# generated using pymatgen
data_Sr24Ta24N11O13
_symmetry_space_group_name_H-M   'P 1'
_cell_length_a   16.83447577
_cell_length_b   16.76659573
_cell_length_c   15.69287601
_cell_angle_alpha   89.98399412
_cell_angle_beta   89.79160260
_cell_angle_gamma   90.26231896
_symmetry_Int_Tables_number   1
_chemical_formula_structural   Sr24Ta24N11O13
_chemical_formula_sum   'Sr72 Ta72 N33 O39'
_cell_volume   4429.34582854
_cell_formula_units_Z   3
loop_
 _symmetry_equiv_pos_site_id
 _symmetry_equiv_pos_as_xyz
  1  'x, y, z'
loop_
 _atom_site_type_symbol
 _atom_site_label
 _atom_site_symmetry_multiplicity
 _atom_site_fract_x
 _atom_site_fract_y
 _atom_site_fract_z
 _atom_site_occupancy
  Sr  Sr0  1  -0.00486742  0.16854516  0.10101208  1
  Sr  Sr1  1  0.02152002  0.16998008  0.62307257  1
  Sr  Sr2  1  -0.01174909  0.49683111  0.17235817  1
  Sr  Sr3  1  0.01700209  0.51511052  0.60626429  1
  Sr  Sr4  1  0.02329761  0.80909427  0.12271467  1
  Sr  Sr5  1  0.00143256  0.84076580  0.65922198  1
  Sr  Sr6  1  0.34401593  0.15939211  0.13624153  1
  Sr  Sr7  1  0.35524252  0.18273144  0.58920210  1
  Sr  Sr8  1  0.33486103  0.50405004  0.11865114  1
  Sr  Sr9  1  0.33968303  0.49738059  0.66048691  1
  Sr  Sr10  1  0.33600974  0.83565515  0.08786341  1
  Sr  Sr11  1  0.34056001  0.83564845  0.63111319  1
  Sr  Sr12  1  0.67088371  0.18209283  0.16790519  1
  Sr  Sr13  1  0.67198717  0.15754009  0.62640879  1
  Sr  Sr14  1  0.68079826  0.49069271  0.08363247  1
  Sr  Sr15  1  0.66080166  0.51502012  0.63216329  1
  Sr  Sr16  1  0.66567245  0.82274849  0.13468581  1
  Sr  Sr17  1  0.70936822  0.84235341  0.58421047  1
  Sr  Sr18  1  0.15354084  0.01284288  0.14477946  1
  Sr  Sr19  1  0.14806921  -0.00961539  0.65057171  1
  Sr  Sr20  1  0.15213788  0.32564458  0.09335375  1
  Sr  Sr21  1  0.17252494  0.34972740  0.64090780  1
  Sr  Sr22  1  0.17027259  0.64941583  0.13801401  1
  Sr  Sr23  1  0.17323093  0.67960326  0.58033126  1
  Sr  Sr24  1  0.47848756  -0.01484062  0.08322648  1
  Sr  Sr25  1  0.48544141  0.00055934  0.63975669  1
  Sr  Sr26  1  0.48748894  0.32606654  0.13511038  1
  Sr  Sr27  1  0.50780662  0.32739731  0.58622589  1
  Sr  Sr28  1  0.50042872  0.66431965  0.15858155  1
  Sr  Sr29  1  0.48658404  0.66216748  0.62795221  1
  Sr  Sr30  1  0.79904839  -0.00279332  0.13959118  1
  Sr  Sr31  1  0.82891612  0.01794023  0.60481298  1
  Sr  Sr32  1  0.83823979  0.33287041  0.12006452  1
  Sr  Sr33  1  0.80006472  0.32624098  0.66274407  1
  Sr  Sr34  1  0.81441320  0.67235030  0.10159010  1
  Sr  Sr35  1  0.84835128  0.66338606  0.63639467  1
  Sr  Sr36  1  0.00552215  0.15563696  0.39650549  1
  Sr  Sr37  1  0.01890663  0.18220445  0.88336892  1
  Sr  Sr38  1  -0.00476970  0.51099753  0.38748125  1
  Sr  Sr39  1  0.00812733  0.50590270  0.83783596  1
  Sr  Sr40  1  0.03269907  0.83707382  0.33785654  1
  Sr  Sr41  1  0.00554714  0.81631120  0.87556454  1
  Sr  Sr42  1  0.33754369  0.17231367  0.36849355  1
  Sr  Sr43  1  0.36778594  0.16749525  0.90459697  1
  Sr  Sr44  1  0.35169290  0.50595659  0.32974138  1
  Sr  Sr45  1  0.32853500  0.49968857  0.88292364  1
  Sr  Sr46  1  0.33972794  0.81690765  0.41651658  1
  Sr  Sr47  1  0.34294228  0.84101222  0.86235908  1
  Sr  Sr48  1  0.68104922  0.16843351  0.36976344  1
  Sr  Sr49  1  0.67401465  0.15438139  0.83400944  1
  Sr  Sr50  1  0.65687776  0.50226192  0.41327462  1
  Sr  Sr51  1  0.67096910  0.49794209  0.86658686  1
  Sr  Sr52  1  0.67479700  0.82543921  0.35282312  1
  Sr  Sr53  1  0.68066080  0.84498845  0.91968519  1
  Sr  Sr54  1  0.15341675  0.00648089  0.34886791  1
  Sr  Sr55  1  0.14465619  0.00488972  0.85425162  1
  Sr  Sr56  1  0.15095128  0.32018383  0.42780368  1
  Sr  Sr57  1  0.16745359  0.34639486  0.86158756  1
  Sr  Sr58  1  0.15684316  0.66349888  0.36209674  1
  Sr  Sr59  1  0.18459093  0.67991806  0.92397437  1
  Sr  Sr60  1  0.46366820  -0.01352900  0.40333677  1
  Sr  Sr61  1  0.49997004  0.00151822  0.86514406  1
  Sr  Sr62  1  0.49794915  0.32381689  0.36440430  1
  Sr  Sr63  1  0.49442013  0.34040078  0.91363667  1
  Sr  Sr64  1  0.49753327  0.66778754  0.36897728  1
  Sr  Sr65  1  0.49353482  0.64854968  0.83075611  1
  Sr  Sr66  1  0.81551268  0.00301057  0.38651794  1
  Sr  Sr67  1  0.82336132  0.00806806  0.88566112  1
  Sr  Sr68  1  0.84057209  0.33564825  0.33118404  1
  Sr  Sr69  1  0.82003425  0.33165877  0.88741993  1
  Sr  Sr70  1  0.81988244  0.65245574  0.40941350  1
  Sr  Sr71  1  0.83681121  0.67409714  0.87397626  1
  Ta  Ta72  1  0.19449871  0.15745496  -0.00173794  1
  Ta  Ta73  1  0.18267046  0.13071085  0.50135842  1
  Ta  Ta74  1  0.12608886  0.49784655  0.00344708  1
  Ta  Ta75  1  0.21304224  0.50214371  0.50116618  1
  Ta  Ta76  1  0.16484630  0.87501998  -0.00501981  1
  Ta  Ta77  1  0.15439670  0.85956203  0.49571873  1
  Ta  Ta78  1  0.54892423  0.16308844  0.00057961  1
  Ta  Ta79  1  0.52998862  0.14470789  0.49734095  1
  Ta  Ta80  1  0.50264137  0.53065940  0.00026113  1
  Ta  Ta81  1  0.47082430  0.50267527  0.49791363  1
  Ta  Ta82  1  0.50452430  0.78191802  -0.00629436  1
  Ta  Ta83  1  0.53282469  0.82744797  0.50080571  1
  Ta  Ta84  1  0.79145743  0.16276818  0.00783054  1
  Ta  Ta85  1  0.83645866  0.21110628  0.49623744  1
  Ta  Ta86  1  0.87491262  0.50379937  0.00402578  1
  Ta  Ta87  1  0.82916535  0.45129598  0.49657191  1
  Ta  Ta88  1  0.86369007  0.85389953  0.00960424  1
  Ta  Ta89  1  0.88650078  0.83546904  0.49247162  1
  Ta  Ta90  1  0.15799427  0.20053115  0.25709145  1
  Ta  Ta91  1  0.21853617  0.17329262  0.74725016  1
  Ta  Ta92  1  0.15986914  0.45363191  0.26048419  1
  Ta  Ta93  1  0.17343265  0.55354686  0.74507481  1
  Ta  Ta94  1  0.21813242  0.83537963  0.24966679  1
  Ta  Ta95  1  0.17465990  0.79275388  0.75354035  1
  Ta  Ta96  1  0.50160139  0.11510105  0.24392554  1
  Ta  Ta97  1  0.49312605  0.19413628  0.75034475  1
  Ta  Ta98  1  0.54316445  0.49329852  0.24672391  1
  Ta  Ta99  1  0.50144911  0.45425863  0.74998039  1
  Ta  Ta100  1  0.47569950  0.85062484  0.25296815  1
  Ta  Ta101  1  0.55280905  0.82967083  0.74556339  1
  Ta  Ta102  1  0.86570694  0.15424555  0.25106546  1
  Ta  Ta103  1  0.86672691  0.16708428  0.75556533  1
  Ta  Ta104  1  0.80167952  0.51755922  0.25172593  1
  Ta  Ta105  1  0.84530674  0.48649997  0.74756292  1
  Ta  Ta106  1  0.85863397  0.82654320  0.24941149  1
  Ta  Ta107  1  0.81727430  0.85090564  0.75911328  1
  Ta  Ta108  1  -0.03576063  0.00286849  0.25245232  1
  Ta  Ta109  1  -0.03788311  0.01725192  0.74726821  1
  Ta  Ta110  1  0.03584114  0.31730950  0.25544486  1
  Ta  Ta111  1  -0.02978096  0.33545089  0.74860654  1
  Ta  Ta112  1  -0.05135511  0.67323278  0.25901637  1
  Ta  Ta113  1  0.05206140  0.66993089  0.74384943  1
  Ta  Ta114  1  0.34129785  -0.02742001  0.24328090  1
  Ta  Ta115  1  0.32057990  0.04557865  0.74885668  1
  Ta  Ta116  1  0.27851845  0.33358517  0.26038751  1
  Ta  Ta117  1  0.35808548  0.31397022  0.74401105  1
  Ta  Ta118  1  0.33141710  0.70847661  0.24244194  1
  Ta  Ta119  1  0.29518594  0.67062194  0.74812060  1
  Ta  Ta120  1  0.60926112  -0.00799832  0.24504469  1
  Ta  Ta121  1  0.66945928  -0.04442694  0.75188270  1
  Ta  Ta122  1  0.66646412  0.37646449  0.24966307  1
  Ta  Ta123  1  0.62197438  0.33010020  0.75474247  1
  Ta  Ta124  1  0.67541075  0.62937266  0.24929692  1
  Ta  Ta125  1  0.67613543  0.71802597  0.74983428  1
  Ta  Ta126  1  -0.00309278  -0.02215634  0.00260565  1
  Ta  Ta127  1  0.00694114  -0.03009793  0.49851513  1
  Ta  Ta128  1  -0.00315787  0.38804054  -0.00182779  1
  Ta  Ta129  1  -0.04898354  0.33507233  0.50275665  1
  Ta  Ta130  1  0.00050549  0.62514228  0.00535556  1
  Ta  Ta131  1  -0.00120398  0.71388462  0.49672429  1
  Ta  Ta132  1  0.28731901  0.00890084  -0.00174955  1
  Ta  Ta133  1  0.28764084  -0.00017859  0.50110667  1
  Ta  Ta134  1  0.31537472  0.32403785  0.00428451  1
  Ta  Ta135  1  0.33307755  0.37622404  0.49581957  1
  Ta  Ta136  1  0.37689064  0.66758751  -0.00502828  1
  Ta  Ta137  1  0.33769092  0.62469632  0.49959036  1
  Ta  Ta138  1  0.65960387  0.03626653  -0.00120386  1
  Ta  Ta139  1  0.63045852  -0.00417427  0.49733801  1
  Ta  Ta140  1  0.66409427  0.29115232  -0.00241482  1
  Ta  Ta141  1  0.69500651  0.32461058  0.49157980  1
  Ta  Ta142  1  0.62630815  0.66500362  -0.00073039  1
  Ta  Ta143  1  0.64176417  0.68468757  0.49880551  1
  N  N144  1  0.51529392  0.16429751  0.86999098  1
  N  N145  1  0.50260961  0.49649571  0.36933139  1
  N  N146  1  0.83628490  0.84023075  0.88172911  1
  N  N147  1  0.32668672  0.33300261  0.37699322  1
  N  N148  1  0.18240014  0.83570008  0.37655127  1
  N  N149  1  0.50207364  0.49418465  0.62236559  1
  N  N150  1  0.17221333  0.83598287  0.87828829  1
  N  N151  1  0.66141082  -0.00129125  0.87133667  1
  N  N152  1  0.33270679  0.66616937  0.61668249  1
  N  N153  1  0.66238878  0.32620822  0.87228168  1
  N  N154  1  0.82953319  0.16909236  0.12579913  1
  N  N155  1  0.32408190  -0.00079346  0.12175672  1
  N  N156  1  0.65956786  0.66039527  0.12224158  1
  N  N157  1  -0.00469624  0.66922377  0.37102401  1
  N  N158  1  0.50339496  0.49499858  0.12010942  1
  N  N159  1  0.33767619  0.66804189  0.87651748  1
  N  N160  1  0.82850422  0.49302610  0.37913652  1
  N  N161  1  0.67160070  0.33382530  0.36945205  1
  N  N162  1  0.01512356  0.67873779  0.62120237  1
  N  N163  1  0.16647715  0.16383369  0.37818520  1
  N  N164  1  -0.00930560  -0.00003675  0.37465304  1
  N  N165  1  0.82506245  0.83262125  0.13104494  1
  N  N166  1  0.49854052  0.49442412  0.86941678  1
  N  N167  1  0.33860463  0.33623913  0.62356853  1
  N  N168  1  0.83913348  0.17428955  0.37526195  1
  N  N169  1  0.83571558  0.50142937  0.12355139  1
  N  N170  1  0.50343991  0.15406557  0.12485962  1
  N  N171  1  0.49770800  0.83203712  0.37488731  1
  N  N172  1  0.66181523  0.66618717  0.37764885  1
  N  N173  1  0.17449650  0.51059049  0.61994459  1
  N  N174  1  -0.01239318  0.00400556  0.62745240  1
  N  N175  1  0.33423474  0.66971574  0.12452191  1
  N  N176  1  0.51203130  0.16169906  0.61935296  1
  O  O177  1  0.31105738  0.33059638  0.12988211  1
  O  O178  1  0.14737211  0.48269636  0.13435668  1
  O  O179  1  0.84111798  0.17074574  0.88329149  1
  O  O180  1  0.31256525  -0.00550637  0.37569739  1
  O  O181  1  0.67140805  0.33386887  0.12207175  1
  O  O182  1  -0.01278082  0.34427211  0.87527048  1
  O  O183  1  0.67398199  0.69034951  0.87399579  1
  O  O184  1  0.49800517  0.82435925  0.11716682  1
  O  O185  1  0.63721660  -0.01092159  0.11792710  1
  O  O186  1  -0.01001332  -0.00315340  0.87729459  1
  O  O187  1  0.17113568  0.16836995  0.12595432  1
  O  O188  1  -0.00205803  0.33018643  0.37748524  1
  O  O189  1  0.65811171  0.32022151  0.62288015  1
  O  O190  1  0.19553663  0.17765322  0.62110613  1
  O  O191  1  0.33792153  0.66628778  0.36855596  1
  O  O192  1  0.15448186  0.47774592  0.38420886  1
  O  O193  1  0.63427104  -0.01414437  0.36832984  1
  O  O194  1  -0.01273798  0.33282068  0.62562636  1
  O  O195  1  0.18987089  0.17711912  0.87319224  1
  O  O196  1  0.01482120  0.65567169  0.88098157  1
  O  O197  1  0.17211590  0.83478264  0.62917814  1
  O  O198  1  0.15660876  0.51196910  0.87866299  1
  O  O199  1  0.00230839  0.34411998  0.13157267  1
  O  O200  1  0.31055431  -0.00086080  0.63223418  1
  O  O201  1  0.17485076  0.84976590  0.12719003  1
  O  O202  1  0.82168581  0.48985277  0.62523733  1
  O  O203  1  0.50209827  0.15471110  0.37030261  1
  O  O204  1  -0.00962813  0.64886230  0.13385744  1
  O  O205  1  0.85238345  0.84130937  0.62256928  1
  O  O206  1  0.51447401  0.82210696  0.86916734  1
  O  O207  1  0.33050720  0.32669281  0.87898836  1
  O  O208  1  0.83747531  0.49828943  0.87332301  1
  O  O209  1  0.84720262  0.17579493  0.62756694  1
  O  O210  1  0.65980909  -0.00607051  0.62417568  1
  O  O211  1  0.82890715  0.84238520  0.38116555  1
  O  O212  1  -0.00033740  0.00049721  0.12497916  1
  O  O213  1  0.68483083  0.69186537  0.62517304  1
  O  O214  1  0.32868079  0.01153305  0.87179869  1
  O  O215  1  0.49800674  0.83408133  0.62576342  1
