# generated using pymatgen
data_Sr24Ta24N11O13
_symmetry_space_group_name_H-M   'P 1'
_cell_length_a   16.91879536
_cell_length_b   17.60437275
_cell_length_c   14.90439450
_cell_angle_alpha   91.83270963
_cell_angle_beta   90.90311122
_cell_angle_gamma   91.10558062
_symmetry_Int_Tables_number   1
_chemical_formula_structural   Sr24Ta24N11O13
_chemical_formula_sum   'Sr72 Ta72 N33 O39'
_cell_volume   4435.50342042
_cell_formula_units_Z   3
loop_
 _symmetry_equiv_pos_site_id
 _symmetry_equiv_pos_as_xyz
  1  'x, y, z'
loop_
 _atom_site_type_symbol
 _atom_site_label
 _atom_site_symmetry_multiplicity
 _atom_site_fract_x
 _atom_site_fract_y
 _atom_site_fract_z
 _atom_site_occupancy
  Sr  Sr0  1  0.00311251  0.12811992  0.10579581  1
  Sr  Sr1  1  0.00358784  0.17609220  0.62718860  1
  Sr  Sr2  1  0.00244180  0.48658177  0.10831400  1
  Sr  Sr3  1  0.03887494  0.49202938  0.66719249  1
  Sr  Sr4  1  0.02244825  0.82523091  0.15600898  1
  Sr  Sr5  1  0.01165134  0.79234741  0.60011355  1
  Sr  Sr6  1  0.32772363  0.16494303  0.09948748  1
  Sr  Sr7  1  0.36614728  0.15087994  0.64426295  1
  Sr  Sr8  1  0.34664914  0.48868143  0.13534926  1
  Sr  Sr9  1  0.35428234  0.46916488  0.62056258  1
  Sr  Sr10  1  0.33962728  0.78673146  0.08537704  1
  Sr  Sr11  1  0.33730017  0.84313123  0.62362687  1
  Sr  Sr12  1  0.68638394  0.15665523  0.14454489  1
  Sr  Sr13  1  0.66595335  0.11565934  0.57133429  1
  Sr  Sr14  1  0.66739042  0.45067089  0.09092241  1
  Sr  Sr15  1  0.64317472  0.52741024  0.64508852  1
  Sr  Sr16  1  0.66790952  0.83143961  0.10567127  1
  Sr  Sr17  1  0.69605500  0.82147237  0.63826020  1
  Sr  Sr18  1  0.16425503  0.01923732  0.13859527  1
  Sr  Sr19  1  0.12886548  0.03162296  0.60959944  1
  Sr  Sr20  1  0.15784534  0.37031011  0.14305694  1
  Sr  Sr21  1  0.16226104  0.33821159  0.61157180  1
  Sr  Sr22  1  0.14815753  0.66747160  0.08395705  1
  Sr  Sr23  1  0.17543569  0.67888398  0.64386241  1
  Sr  Sr24  1  0.49317590  0.05871693  0.17568659  1
  Sr  Sr25  1  0.48812907  -0.00563351  0.60808026  1
  Sr  Sr26  1  0.47773259  0.33889726  0.08736593  1
  Sr  Sr27  1  0.49779061  0.32722717  0.63960395  1
  Sr  Sr28  1  0.49949264  0.67467120  0.14360058  1
  Sr  Sr29  1  0.46891607  0.70279839  0.64026769  1
  Sr  Sr30  1  0.81699480  0.01188045  0.11224373  1
  Sr  Sr31  1  0.83266163  0.00334716  0.63992049  1
  Sr  Sr32  1  0.82726992  0.33773255  0.14143275  1
  Sr  Sr33  1  0.77337407  0.39202762  0.60584446  1
  Sr  Sr34  1  0.83394687  0.71942975  0.17941225  1
  Sr  Sr35  1  0.82106568  0.66577346  0.61799829  1
  Sr  Sr36  1  0.02466574  0.17115750  0.40909397  1
  Sr  Sr37  1  -0.00997474  0.15451529  0.85352651  1
  Sr  Sr38  1  0.01489508  0.46207646  0.34377475  1
  Sr  Sr39  1  -0.00024658  0.50428018  0.89703977  1
  Sr  Sr40  1  -0.00011443  0.79939491  0.36354055  1
  Sr  Sr41  1  0.02815711  0.80888613  0.88377725  1
  Sr  Sr42  1  0.33372126  0.12635494  0.32758673  1
  Sr  Sr43  1  0.35240991  0.15826837  0.88297894  1
  Sr  Sr44  1  0.32478164  0.48368265  0.36366912  1
  Sr  Sr45  1  0.38168050  0.45316698  0.87878053  1
  Sr  Sr46  1  0.34951895  0.82598080  0.39328782  1
  Sr  Sr47  1  0.33436711  0.83517896  0.85737169  1
  Sr  Sr48  1  0.66238681  0.15110500  0.35053289  1
  Sr  Sr49  1  0.69769570  0.12984443  0.87246738  1
  Sr  Sr50  1  0.68805134  0.50425965  0.41055018  1
  Sr  Sr51  1  0.67810861  0.48893049  0.86263296  1
  Sr  Sr52  1  0.66945680  0.77771492  0.32280897  1
  Sr  Sr53  1  0.69490173  0.85008235  0.88785014  1
  Sr  Sr54  1  0.15385490  0.01389623  0.35111388  1
  Sr  Sr55  1  0.15390125  0.03896271  0.90371304  1
  Sr  Sr56  1  0.16388966  0.33887327  0.38694953  1
  Sr  Sr57  1  0.10714883  0.33626993  0.83298047  1
  Sr  Sr58  1  0.16808111  0.69567716  0.39973434  1
  Sr  Sr59  1  0.16162154  0.67395079  0.86765050  1
  Sr  Sr60  1  0.49273235  0.00380329  0.38955632  1
  Sr  Sr61  1  0.46852947  0.01102846  0.85490208  1
  Sr  Sr62  1  0.48421284  0.38402524  0.41016559  1
  Sr  Sr63  1  0.51591179  0.32040435  0.86429701  1
  Sr  Sr64  1  0.47745602  0.67580378  0.35172726  1
  Sr  Sr65  1  0.50461254  0.73542045  0.93372371  1
  Sr  Sr66  1  0.82779479  0.05626624  0.42106879  1
  Sr  Sr67  1  0.84498722  -0.00267220  0.87665757  1
  Sr  Sr68  1  0.82881821  0.35171198  0.35877998  1
  Sr  Sr69  1  0.82487251  0.36382102  0.89909563  1
  Sr  Sr70  1  0.83406575  0.66269001  0.39642803  1
  Sr  Sr71  1  0.80035619  0.68116379  0.86688177  1
  Ta  Ta72  1  0.15123444  0.21874604  -0.00240680  1
  Ta  Ta73  1  0.21519270  0.16898524  0.49739831  1
  Ta  Ta74  1  0.20372634  0.49254913  -0.02143686  1
  Ta  Ta75  1  0.17398284  0.52303942  0.50822891  1
  Ta  Ta76  1  0.17953986  0.87070302  0.00598860  1
  Ta  Ta77  1  0.16806114  0.87787690  0.50199993  1
  Ta  Ta78  1  0.53677432  0.16317874  -0.00604867  1
  Ta  Ta79  1  0.49174181  0.19257745  0.47517624  1
  Ta  Ta80  1  0.51855796  0.54549979  -0.01443648  1
  Ta  Ta81  1  0.49730324  0.55959309  0.50567512  1
  Ta  Ta82  1  0.48593792  0.90627840  0.03126066  1
  Ta  Ta83  1  0.54264174  0.82537637  0.49095888  1
  Ta  Ta84  1  0.84344018  0.19744965  0.00236092  1
  Ta  Ta85  1  0.82848667  0.22991628  0.52428925  1
  Ta  Ta86  1  0.82248393  0.56045107  0.03217528  1
  Ta  Ta87  1  0.89365167  0.50051722  0.49972696  1
  Ta  Ta88  1  0.86892852  0.83849363  0.01393801  1
  Ta  Ta89  1  0.83357252  0.85440062  0.47361800  1
  Ta  Ta90  1  0.16234632  0.20019486  0.23574977  1
  Ta  Ta91  1  0.19256064  0.17535863  0.74487154  1
  Ta  Ta92  1  0.16715072  0.54733369  0.23976235  1
  Ta  Ta93  1  0.22080654  0.49550835  0.77212137  1
  Ta  Ta94  1  0.20848124  0.82845044  0.23524521  1
  Ta  Ta95  1  0.16226069  0.87848459  0.73777265  1
  Ta  Ta96  1  0.49209888  0.23229697  0.26951378  1
  Ta  Ta97  1  0.54916340  0.15359385  0.73569606  1
  Ta  Ta98  1  0.53619116  0.49531311  0.24171235  1
  Ta  Ta99  1  0.49795322  0.57134514  0.78840327  1
  Ta  Ta100  1  0.49705765  0.86634841  0.22560808  1
  Ta  Ta101  1  0.53310571  0.85242498  0.75213933  1
  Ta  Ta102  1  0.87244568  0.17282951  0.25541396  1
  Ta  Ta103  1  0.82196419  0.20236660  0.71966944  1
  Ta  Ta104  1  0.83541935  0.53399986  0.23167902  1
  Ta  Ta105  1  0.85781544  0.51666309  0.75850505  1
  Ta  Ta106  1  0.82810695  0.89503105  0.28461858  1
  Ta  Ta107  1  0.87696559  0.82786064  0.74548418  1
  Ta  Ta108  1  -0.03826852  -0.00138116  0.27096334  1
  Ta  Ta109  1  0.00475699  -0.05074488  0.74758499  1
  Ta  Ta110  1  0.00063489  0.28596512  0.24555156  1
  Ta  Ta111  1  -0.07042028  0.33566949  0.72207051  1
  Ta  Ta112  1  0.00467685  0.62821724  0.24811257  1
  Ta  Ta113  1  -0.03016783  0.65905384  0.76214441  1
  Ta  Ta114  1  0.33606112  -0.05353192  0.22784990  1
  Ta  Ta115  1  0.28154531  0.00171454  0.75316476  1
  Ta  Ta116  1  0.32911836  0.30767814  0.24372227  1
  Ta  Ta117  1  0.30077093  0.31449182  0.77016694  1
  Ta  Ta118  1  0.29491590  0.65912570  0.23682579  1
  Ta  Ta119  1  0.33581866  0.62068849  0.78048249  1
  Ta  Ta120  1  0.66303986  -0.03525763  0.26812832  1
  Ta  Ta121  1  0.64152900  -0.01410607  0.74418655  1
  Ta  Ta122  1  0.62528076  0.33582329  0.26450799  1
  Ta  Ta123  1  0.67856507  0.27515729  0.73298847  1
  Ta  Ta124  1  0.67814204  0.60217320  0.22741162  1
  Ta  Ta125  1  0.62199162  0.68812945  0.77634210  1
  Ta  Ta126  1  0.00048687  -0.04784544  0.01639834  1
  Ta  Ta127  1  -0.01544873  -0.04579593  0.47673397  1
  Ta  Ta128  1  -0.00949415  0.30033345  0.01537771  1
  Ta  Ta129  1  -0.03135333  0.34518564  0.51347969  1
  Ta  Ta130  1  -0.04874953  0.67335394  0.00792509  1
  Ta  Ta131  1  0.01478691  0.61031140  0.50727224  1
  Ta  Ta132  1  0.32808829  -0.02305872  0.01962989  1
  Ta  Ta133  1  0.29926748  -0.00006169  0.49302077  1
  Ta  Ta134  1  0.27748584  0.32997977  -0.02652917  1
  Ta  Ta135  1  0.33641233  0.28571816  0.50067025  1
  Ta  Ta136  1  0.34367981  0.61395613  -0.02094293  1
  Ta  Ta137  1  0.33146467  0.62923065  0.50536166  1
  Ta  Ta138  1  0.61803528  0.00524671  0.01857096  1
  Ta  Ta139  1  0.67772366  -0.06635757  0.46962605  1
  Ta  Ta140  1  0.67002626  0.27752364  -0.00085156  1
  Ta  Ta141  1  0.64318306  0.29661212  0.47479382  1
  Ta  Ta142  1  0.67242896  0.63996046  0.03287478  1
  Ta  Ta143  1  0.62415512  0.67228722  0.50018130  1
  N  N144  1  0.65954354  0.00881565  0.14732452  1
  N  N145  1  -0.01123031  0.34696623  0.13724590  1
  N  N146  1  0.36079176  0.30580108  0.88330339  1
  N  N147  1  0.51261429  0.16054689  0.60194160  1
  N  N148  1  0.50981706  0.16167546  0.86413285  1
  N  N149  1  0.01715574  0.33019709  0.64255617  1
  N  N150  1  0.17611437  0.17109164  0.36294946  1
  N  N151  1  0.14181083  0.18092512  0.86161305  1
  N  N152  1  0.83362340  0.14249346  0.60080416  1
  N  N153  1  0.50625909  0.81355921  0.10686803  1
  N  N154  1  0.65890864  0.01918203  0.39364658  1
  N  N155  1  0.16714203  0.15960976  0.10346160  1
  N  N156  1  0.00272363  -0.01471511  0.14454578  1
  N  N157  1  0.32575017  0.02959472  0.14499005  1
  N  N158  1  -0.00251871  0.32274107  0.38558052  1
  N  N159  1  0.17188248  0.82796208  0.61693992  1
  N  N160  1  0.17487592  0.51076777  0.10361714  1
  N  N161  1  0.32755913  -0.01724506  0.36758373  1
  N  N162  1  0.53009673  0.48783642  0.87174444  1
  N  N163  1  0.19024724  0.50058439  0.63420756  1
  N  N164  1  -0.00098863  0.67972381  0.13668273  1
  N  N165  1  0.83822717  0.16232892  0.12839297  1
  N  N166  1  0.31456329  -0.00031708  0.88050101  1
  N  N167  1  0.33401866  0.64213529  0.10992472  1
  N  N168  1  0.00669958  0.03149348  0.39321336  1
  N  N169  1  0.16991316  0.81134219  0.10858267  1
  N  N170  1  0.66534529  0.69366646  0.15230443  1
  N  N171  1  0.49968742  0.14395458  0.34631076  1
  N  N172  1  0.15609254  0.18057128  0.60993313  1
  N  N173  1  0.01175101  0.64848047  0.63655860  1
  N  N174  1  0.51018189  0.84306733  0.61929061  1
  N  N175  1  0.00776579  0.65853880  0.89595693  1
  N  N176  1  0.83821755  0.80002539  0.35466948  1
  O  O177  1  0.32380306  0.32510679  0.11124947  1
  O  O178  1  0.65793410  0.30802898  0.13571873  1
  O  O179  1  0.51606312  0.48308072  0.10860287  1
  O  O180  1  0.51304104  0.52434090  0.36789278  1
  O  O181  1  0.49676528  0.19504368  0.12294257  1
  O  O182  1  0.84431599  0.47213925  0.11219386  1
  O  O183  1  0.17410397  0.83864177  0.36772791  1
  O  O184  1  0.34451454  0.30388076  0.63656246  1
  O  O185  1  0.85186931  0.82119652  0.61235834  1
  O  O186  1  0.31502523  0.69485341  0.88592823  1
  O  O187  1  0.83233459  0.19814589  0.38365072  1
  O  O188  1  0.65664787  0.70505992  0.90771878  1
  O  O189  1  0.64423486  0.30194041  0.60573917  1
  O  O190  1  0.48458600  0.86739182  0.87926090  1
  O  O191  1  -0.03683598  0.32749372  0.86059305  1
  O  O192  1  0.65051441  -0.00882145  0.88235274  1
  O  O193  1  0.33036878  0.63256484  0.63901619  1
  O  O194  1  0.13944611  0.52407328  0.86110478  1
  O  O195  1  0.49444410  0.54909373  0.64205683  1
  O  O196  1  0.67404681  -0.02949064  0.61287621  1
  O  O197  1  0.17234590  0.50132303  0.36357567  1
  O  O198  1  0.17965693  0.83522076  0.87123889  1
  O  O199  1  0.83199047  0.51896661  0.89171864  1
  O  O200  1  0.84047243  0.17978323  0.86471544  1
  O  O201  1  0.00225186  -0.02642987  0.87820747  1
  O  O202  1  0.85374146  0.83447126  0.87617155  1
  O  O203  1  -0.01318243  -0.03372318  0.61485701  1
  O  O204  1  0.83690270  0.85738970  0.14233331  1
  O  O205  1  0.33830931  -0.00395116  0.63198486  1
  O  O206  1  0.32394616  0.32368642  0.37479078  1
  O  O207  1  0.50021590  0.82314392  0.35929611  1
  O  O208  1  0.84926763  0.51867761  0.62453160  1
  O  O209  1  0.32371493  0.65203948  0.37395082  1
  O  O210  1  0.66107304  0.64283957  0.37043118  1
  O  O211  1  0.68295611  0.28958448  0.86774508  1
  O  O212  1  0.84842481  0.50734346  0.36650277  1
  O  O213  1  -0.00231517  0.66164506  0.38532522  1
  O  O214  1  0.68273995  0.36859173  0.38090860  1
  O  O215  1  0.63290958  0.67992750  0.64266429  1
