# generated using pymatgen
data_Sr24Ta24N11O13
_symmetry_space_group_name_H-M   'P 1'
_cell_length_a   16.46726071
_cell_length_b   18.18728587
_cell_length_c   14.95814711
_cell_angle_alpha   92.11132531
_cell_angle_beta   90.14206533
_cell_angle_gamma   91.56622490
_symmetry_Int_Tables_number   1
_chemical_formula_structural   Sr24Ta24N11O13
_chemical_formula_sum   'Sr72 Ta72 N33 O39'
_cell_volume   4475.14588883
_cell_formula_units_Z   3
loop_
 _symmetry_equiv_pos_site_id
 _symmetry_equiv_pos_as_xyz
  1  'x, y, z'
loop_
 _atom_site_type_symbol
 _atom_site_label
 _atom_site_symmetry_multiplicity
 _atom_site_fract_x
 _atom_site_fract_y
 _atom_site_fract_z
 _atom_site_occupancy
  Sr  Sr0  1  0.02433305  0.15726142  0.15743321  1
  Sr  Sr1  1  0.00030149  0.10150433  0.60514903  1
  Sr  Sr2  1  0.00407378  0.44987728  0.08646817  1
  Sr  Sr3  1  0.00398262  0.50939086  0.64668392  1
  Sr  Sr4  1  0.00027931  0.83227226  0.11867412  1
  Sr  Sr5  1  0.00576340  0.80217850  0.55806335  1
  Sr  Sr6  1  0.33940707  0.10386077  0.06598430  1
  Sr  Sr7  1  0.33072921  0.13669835  0.63780851  1
  Sr  Sr8  1  0.32938020  0.46818724  0.11066966  1
  Sr  Sr9  1  0.33682789  0.46121651  0.62745229  1
  Sr  Sr10  1  0.34039988  0.83378185  0.14526765  1
  Sr  Sr11  1  0.31429283  0.82421756  0.60927710  1
  Sr  Sr12  1  0.66534923  0.16042429  0.12562101  1
  Sr  Sr13  1  0.66906237  0.11711540  0.60270370  1
  Sr  Sr14  1  0.67692375  0.45840815  0.12203412  1
  Sr  Sr15  1  0.66466947  0.48539902  0.62052394  1
  Sr  Sr16  1  0.66523031  0.83247265  0.11112771  1
  Sr  Sr17  1  0.67604277  0.82196116  0.62458475  1
  Sr  Sr18  1  0.14704729  0.00543767  0.09397554  1
  Sr  Sr19  1  0.17482142  0.00435020  0.63538737  1
  Sr  Sr20  1  0.15616886  0.33721135  0.15769189  1
  Sr  Sr21  1  0.15096175  0.38457390  0.64695473  1
  Sr  Sr22  1  0.15827155  0.71813708  0.16395236  1
  Sr  Sr23  1  0.15777778  0.67868012  0.63007451  1
  Sr  Sr24  1  0.51004269  0.01160105  0.13390194  1
  Sr  Sr25  1  0.48574604  0.01168235  0.60745909  1
  Sr  Sr26  1  0.50725548  0.34865004  0.14853392  1
  Sr  Sr27  1  0.50693396  0.35509895  0.63972227  1
  Sr  Sr28  1  0.49277868  0.71283214  0.12295627  1
  Sr  Sr29  1  0.50108487  0.71706483  0.62444542  1
  Sr  Sr30  1  0.82611158  0.03596674  0.16579333  1
  Sr  Sr31  1  0.82368674  -0.00873183  0.61543495  1
  Sr  Sr32  1  0.82746646  0.32031036  0.07477945  1
  Sr  Sr33  1  0.83780752  0.38984016  0.65271603  1
  Sr  Sr34  1  0.82931582  0.71823024  0.14079719  1
  Sr  Sr35  1  0.82592787  0.69898871  0.57788970  1
  Sr  Sr36  1  0.00407569  0.18933521  0.38921657  1
  Sr  Sr37  1  0.01411419  0.11714628  0.83549667  1
  Sr  Sr38  1  0.03509192  0.44977198  0.38203867  1
  Sr  Sr39  1  -0.00290393  0.50052727  0.86745792  1
  Sr  Sr40  1  -0.00478978  0.77948947  0.32984875  1
  Sr  Sr41  1  0.00014833  0.83771624  0.90413203  1
  Sr  Sr42  1  0.33257866  0.14895290  0.40344360  1
  Sr  Sr43  1  0.33841157  0.14903265  0.85471720  1
  Sr  Sr44  1  0.33092195  0.45871369  0.36390614  1
  Sr  Sr45  1  0.35226660  0.49433738  0.89073033  1
  Sr  Sr46  1  0.33212102  0.80923430  0.36458405  1
  Sr  Sr47  1  0.31606857  0.78476265  0.83392875  1
  Sr  Sr48  1  0.65533190  0.16787874  0.36030720  1
  Sr  Sr49  1  0.68581463  0.14973626  0.87495812  1
  Sr  Sr50  1  0.65924208  0.46957377  0.37069639  1
  Sr  Sr51  1  0.66861776  0.47429062  0.86463990  1
  Sr  Sr52  1  0.66917796  0.77691707  0.35672060  1
  Sr  Sr53  1  0.67594683  0.83189135  0.86473170  1
  Sr  Sr54  1  0.15211694  0.06268112  0.39560744  1
  Sr  Sr55  1  0.17173627  -0.00465688  0.86916986  1
  Sr  Sr56  1  0.17242636  0.30441625  0.38698424  1
  Sr  Sr57  1  0.17032285  0.39038453  0.92472794  1
  Sr  Sr58  1  0.17313499  0.67862779  0.38899208  1
  Sr  Sr59  1  0.11747322  0.68488874  0.88162322  1
  Sr  Sr60  1  0.50017710  0.03951073  0.37387242  1
  Sr  Sr61  1  0.50962257  0.04207433  0.89785873  1
  Sr  Sr62  1  0.50414084  0.34130893  0.38196878  1
  Sr  Sr63  1  0.49322444  0.35019735  0.86758430  1
  Sr  Sr64  1  0.48676840  0.67524744  0.37793404  1
  Sr  Sr65  1  0.50525878  0.68519982  0.88614814  1
  Sr  Sr66  1  0.83103313  0.05663881  0.39657923  1
  Sr  Sr67  1  0.82425460  0.00741743  0.83232771  1
  Sr  Sr68  1  0.84598743  0.35481345  0.42463246  1
  Sr  Sr69  1  0.83469880  0.35070802  0.86854330  1
  Sr  Sr70  1  0.82554785  0.64782325  0.34110100  1
  Sr  Sr71  1  0.83887436  0.71365461  0.90844940  1
  Ta  Ta72  1  0.17178127  0.20262740  -0.01488056  1
  Ta  Ta73  1  0.16170031  0.21696093  0.58879569  1
  Ta  Ta74  1  0.16281037  0.56042131  0.02888188  1
  Ta  Ta75  1  0.18245851  0.53038871  0.50666747  1
  Ta  Ta76  1  0.19599170  0.83828548  -0.00443698  1
  Ta  Ta77  1  0.16307611  0.88364473  0.45950747  1
  Ta  Ta78  1  0.49642613  0.20955360  -0.00018294  1
  Ta  Ta79  1  0.50408095  0.20330847  0.51225701  1
  Ta  Ta80  1  0.52124779  0.54055600  0.02365430  1
  Ta  Ta81  1  0.49379122  0.53709587  0.50886109  1
  Ta  Ta82  1  0.49300406  0.87057248  -0.01288039  1
  Ta  Ta83  1  0.50629178  0.87225131  0.47447086  1
  Ta  Ta84  1  0.86769587  0.14784037  -0.00831718  1
  Ta  Ta85  1  0.83296480  0.20977846  0.53768397  1
  Ta  Ta86  1  0.83497355  0.54746478  0.01277707  1
  Ta  Ta87  1  0.83179410  0.53184120  0.49632673  1
  Ta  Ta88  1  0.83119631  0.89672440  0.00881797  1
  Ta  Ta89  1  0.82946812  0.86293766  0.46527087  1
  Ta  Ta90  1  0.22575072  0.16098923  0.21673693  1
  Ta  Ta91  1  0.16123214  0.22115302  0.77991754  1
  Ta  Ta92  1  0.17023310  0.53475321  0.22864593  1
  Ta  Ta93  1  0.19469294  0.54165460  0.76870105  1
  Ta  Ta94  1  0.16006451  0.89654025  0.26114767  1
  Ta  Ta95  1  0.12205421  0.84092057  0.73727421  1
  Ta  Ta96  1  0.46243816  0.18426611  0.24261955  1
  Ta  Ta97  1  0.52322355  0.18811157  0.73831456  1
  Ta  Ta98  1  0.49205879  0.53762311  0.23028612  1
  Ta  Ta99  1  0.49916699  0.54802786  0.73616714  1
  Ta  Ta100  1  0.51905311  0.87366735  0.26277094  1
  Ta  Ta101  1  0.49182465  0.88027965  0.75973306  1
  Ta  Ta102  1  0.83849697  0.21100034  0.25847355  1
  Ta  Ta103  1  0.85487412  0.20072284  0.72936316  1
  Ta  Ta104  1  0.86008353  0.46598004  0.24876107  1
  Ta  Ta105  1  0.83232878  0.58540612  0.75112316  1
  Ta  Ta106  1  0.83425736  0.88313747  0.27023510  1
  Ta  Ta107  1  0.87119093  0.83384559  0.72975538  1
  Ta  Ta108  1  -0.00040787  -0.02147298  0.26798405  1
  Ta  Ta109  1  -0.00368342  -0.05698238  0.73134676  1
  Ta  Ta110  1  -0.05316359  0.32624829  0.23380537  1
  Ta  Ta111  1  0.01554248  0.29872370  0.78903502  1
  Ta  Ta112  1  0.00036455  0.59750349  0.24733921  1
  Ta  Ta113  1  -0.02880856  0.69820875  0.72585583  1
  Ta  Ta114  1  0.30081138  -0.00212381  0.25116636  1
  Ta  Ta115  1  0.35452015  -0.03734194  0.76986199  1
  Ta  Ta116  1  0.33744414  0.28131392  0.24548885  1
  Ta  Ta117  1  0.30139004  0.30969830  0.77627147  1
  Ta  Ta118  1  0.32821200  0.62515648  0.24180770  1
  Ta  Ta119  1  0.34537155  0.62300938  0.72817579  1
  Ta  Ta120  1  0.66788098  -0.04344117  0.27904120  1
  Ta  Ta121  1  0.63210056  -0.02140586  0.74367973  1
  Ta  Ta122  1  0.71719695  0.31837429  0.25679275  1
  Ta  Ta123  1  0.68033250  0.28250364  0.73116949  1
  Ta  Ta124  1  0.64136491  0.61733628  0.21475565  1
  Ta  Ta125  1  0.67335619  0.64095051  0.75273324  1
  Ta  Ta126  1  -0.04298599  0.00535897  0.00063758  1
  Ta  Ta127  1  -0.00678600  -0.04780501  0.45645835  1
  Ta  Ta128  1  0.00946036  0.27058859  -0.01634751  1
  Ta  Ta129  1  -0.01232813  0.27942117  0.60836338  1
  Ta  Ta130  1  -0.00573990  0.63553869  0.05845683  1
  Ta  Ta131  1  -0.00899093  0.61135049  0.48104482  1
  Ta  Ta132  1  0.34446981  -0.06356040  -0.02869409  1
  Ta  Ta133  1  0.31913214  -0.03546456  0.47738101  1
  Ta  Ta134  1  0.33384283  0.29080531  0.01266402  1
  Ta  Ta135  1  0.33340862  0.29572425  0.51796476  1
  Ta  Ta136  1  0.30120339  0.66198238  0.00143453  1
  Ta  Ta137  1  0.33490141  0.61660122  0.51884604  1
  Ta  Ta138  1  0.69321361  -0.01209597  0.00123211  1
  Ta  Ta139  1  0.65894255  -0.05178703  0.47655868  1
  Ta  Ta140  1  0.64426263  0.30256501  -0.00817292  1
  Ta  Ta141  1  0.67109242  0.29482691  0.51931215  1
  Ta  Ta142  1  0.67354604  0.62478875  0.02100814  1
  Ta  Ta143  1  0.65716261  0.62497735  0.49090495  1
  N  N144  1  0.67919613  0.32452317  0.39091954  1
  N  N145  1  0.67556835  0.31465530  0.12836422  1
  N  N146  1  -0.00253343  0.66444012  0.60125454  1
  N  N147  1  -0.01305367  0.68963477  0.17813903  1
  N  N148  1  -0.00340530  0.36970380  0.69327478  1
  N  N149  1  0.49342790  0.18228309  0.37041097  1
  N  N150  1  0.35025072  0.01051510  0.36749026  1
  N  N151  1  0.50203845  0.48836370  0.62433257  1
  N  N152  1  0.66248755  -0.02909600  0.60759654  1
  N  N153  1  0.48822273  0.14610332  0.61783323  1
  N  N154  1  0.33865920  0.01793734  0.88545174  1
  N  N155  1  0.83784150  0.84250350  0.59415106  1
  N  N156  1  0.33099881  0.33639203  0.13238887  1
  N  N157  1  0.67140601  -0.00526978  0.87159543  1
  N  N158  1  0.17656152  0.14575151  0.09382244  1
  N  N159  1  0.15543048  0.83307400  0.86296199  1
  N  N160  1  0.01891450  0.64857576  0.36492536  1
  N  N161  1  0.16570063  0.85863183  0.12561244  1
  N  N162  1  0.67854739  0.35416150  0.63745892  1
  N  N163  1  0.50480908  0.86204622  0.12349356  1
  N  N164  1  0.48912076  0.47634776  0.11831480  1
  N  N165  1  0.33374689  0.34783796  0.89610756  1
  N  N166  1  -0.00360701  0.30599049  0.10706036  1
  N  N167  1  -0.00810797  0.04058134  0.37818172  1
  N  N168  1  0.16055962  0.52418550  0.63546178  1
  N  N169  1  0.83584226  0.86535795  0.14074031  1
  N  N170  1  0.33175388  0.30713450  0.39060761  1
  N  N171  1  0.83314285  0.13089227  0.62841692  1
  N  N172  1  0.67956592  0.31490146  0.86667994  1
  N  N173  1  0.15373557  0.52988167  0.89121563  1
  N  N174  1  0.16421449  0.47530691  0.10960205  1
  N  N175  1  0.49713493  0.18235388  0.86918386  1
  N  N176  1  0.15660025  0.14241468  0.67851101  1
  O  O177  1  0.34144416  0.69236168  0.62357460  1
  O  O178  1  0.33776183  0.68070847  0.12395702  1
  O  O179  1  0.48687654  0.80554392  0.36168579  1
  O  O180  1  0.66341802  0.65737190  0.61669379  1
  O  O181  1  0.50093798  0.14880723  0.11651982  1
  O  O182  1  0.82811652  0.78829956  0.35334679  1
  O  O183  1  0.15503808  0.85715047  0.59673638  1
  O  O184  1  0.51908311  0.81746423  0.86716207  1
  O  O185  1  -0.01600019  0.01132167  0.13460967  1
  O  O186  1  0.33202346  0.62360025  0.37470207  1
  O  O187  1  0.04078875  0.31948183  0.31141038  1
  O  O188  1  0.67287221  -0.00900551  0.14237255  1
  O  O189  1  0.66271033  0.62146930  0.35520445  1
  O  O190  1  0.48917133  0.85941575  0.60570704  1
  O  O191  1  -0.00774841  0.36416203  0.91489729  1
  O  O192  1  0.17792075  0.51602881  0.36275377  1
  O  O193  1  0.84630792  0.56673788  0.88030093  1
  O  O194  1  0.85477093  0.14941464  0.85773644  1
  O  O195  1  -0.01598327  0.72071605  0.98439666  1
  O  O196  1  0.13354263  0.17602688  0.29739769  1
  O  O197  1  -0.00301685  -0.04108649  0.59294469  1
  O  O198  1  0.17329523  0.13182724  0.88054337  1
  O  O199  1  0.16935761  0.81235925  0.34847634  1
  O  O200  1  -0.01801824  -0.01904233  0.86964028  1
  O  O201  1  0.34697541  0.65257812  0.87779450  1
  O  O202  1  0.81871317  0.50040386  0.36404619  1
  O  O203  1  0.66668562  0.03280955  0.38144378  1
  O  O204  1  0.65404513  0.69861221  0.12802479  1
  O  O205  1  0.66805078  0.63552098  0.88352468  1
  O  O206  1  0.50471715  0.53745786  0.88178655  1
  O  O207  1  0.83405748  0.84921406  0.86115210  1
  O  O208  1  0.84613086  0.20301983  0.39972933  1
  O  O209  1  0.32918987  -0.03088812  0.62058086  1
  O  O210  1  0.33807170  -0.02575013  0.11879859  1
  O  O211  1  0.83271688  0.53532879  0.63104124  1
  O  O212  1  0.84453132  0.17258999  0.11950362  1
  O  O213  1  0.48613523  0.51838530  0.37049508  1
  O  O214  1  0.35093983  0.32677219  0.65757972  1
  O  O215  1  0.83289849  0.48789150  0.11785342  1
