# generated using pymatgen
data_Sr24Ta24N11O13
_symmetry_space_group_name_H-M   'P 1'
_cell_length_a   16.85757995
_cell_length_b   16.67824708
_cell_length_c   15.66451645
_cell_angle_alpha   89.79701704
_cell_angle_beta   90.26981442
_cell_angle_gamma   89.97968195
_symmetry_Int_Tables_number   1
_chemical_formula_structural   Sr24Ta24N11O13
_chemical_formula_sum   'Sr72 Ta72 N33 O39'
_cell_volume   4404.07852393
_cell_formula_units_Z   3
loop_
 _symmetry_equiv_pos_site_id
 _symmetry_equiv_pos_as_xyz
  1  'x, y, z'
loop_
 _atom_site_type_symbol
 _atom_site_label
 _atom_site_symmetry_multiplicity
 _atom_site_fract_x
 _atom_site_fract_y
 _atom_site_fract_z
 _atom_site_occupancy
  Sr  Sr0  1  0.00334165  0.16043421  0.13221215  1
  Sr  Sr1  1  -0.01161650  0.17587392  0.57825628  1
  Sr  Sr2  1  -0.01070861  0.50860556  0.13082980  1
  Sr  Sr3  1  0.02397081  0.50628276  0.63373843  1
  Sr  Sr4  1  0.03226523  0.83249200  0.15256576  1
  Sr  Sr5  1  0.00856916  0.83899383  0.63203189  1
  Sr  Sr6  1  0.33339651  0.15286723  0.16858689  1
  Sr  Sr7  1  0.35193593  0.17326184  0.60870996  1
  Sr  Sr8  1  0.33905594  0.48228383  0.11204300  1
  Sr  Sr9  1  0.34654709  0.50313583  0.65755420  1
  Sr  Sr10  1  0.33889135  0.84627059  0.08380882  1
  Sr  Sr11  1  0.36350446  0.82290209  0.62790858  1
  Sr  Sr12  1  0.65450934  0.17525983  0.11410716  1
  Sr  Sr13  1  0.68277926  0.15237865  0.67490658  1
  Sr  Sr14  1  0.67332131  0.50070659  0.08619845  1
  Sr  Sr15  1  0.66522984  0.49694026  0.63095282  1
  Sr  Sr16  1  0.66247830  0.82056938  0.15049144  1
  Sr  Sr17  1  0.68727458  0.84866369  0.58317714  1
  Sr  Sr18  1  0.16964230  -0.00673099  0.11346690  1
  Sr  Sr19  1  0.15742691  0.00690277  0.65588922  1
  Sr  Sr20  1  0.15521015  0.34705851  0.07469779  1
  Sr  Sr21  1  0.18303560  0.33474510  0.63391204  1
  Sr  Sr22  1  0.14761845  0.65610711  0.16925533  1
  Sr  Sr23  1  0.14627742  0.67813147  0.60572375  1
  Sr  Sr24  1  0.49103153  -0.01109627  0.12742101  1
  Sr  Sr25  1  0.49927601  0.00121033  0.62684006  1
  Sr  Sr26  1  0.49307041  0.32289607  0.13870674  1
  Sr  Sr27  1  0.50233072  0.33682595  0.58286453  1
  Sr  Sr28  1  0.47563631  0.66784788  0.13029501  1
  Sr  Sr29  1  0.49677043  0.65328000  0.65641035  1
  Sr  Sr30  1  0.80861305  -0.01105273  0.09825319  1
  Sr  Sr31  1  0.84162768  -0.00353230  0.62503626  1
  Sr  Sr32  1  0.84748276  0.32116919  0.17180673  1
  Sr  Sr33  1  0.82725819  0.33590393  0.62261818  1
  Sr  Sr34  1  0.81610083  0.66558966  0.11586852  1
  Sr  Sr35  1  0.80409594  0.66214680  0.60485703  1
  Sr  Sr36  1  -0.00964220  0.16675561  0.36689718  1
  Sr  Sr37  1  0.01307395  0.16066159  0.91816794  1
  Sr  Sr38  1  0.02047192  0.51452979  0.36317344  1
  Sr  Sr39  1  0.00669834  0.49700338  0.87402966  1
  Sr  Sr40  1  0.02834385  0.83741574  0.37048721  1
  Sr  Sr41  1  0.01340409  0.84173922  0.84345966  1
  Sr  Sr42  1  0.33991676  0.17382020  0.38479412  1
  Sr  Sr43  1  0.31496323  0.16096388  0.82848672  1
  Sr  Sr44  1  0.34758158  0.51107116  0.32568736  1
  Sr  Sr45  1  0.33656030  0.48406234  0.89022417  1
  Sr  Sr46  1  0.33946898  0.82627923  0.41651143  1
  Sr  Sr47  1  0.35077420  0.83997019  0.87904534  1
  Sr  Sr48  1  0.66884745  0.19553495  0.33390080  1
  Sr  Sr49  1  0.65997834  0.15710764  0.88610256  1
  Sr  Sr50  1  0.66586460  0.48766839  0.41750580  1
  Sr  Sr51  1  0.67017272  0.51100050  0.86168965  1
  Sr  Sr52  1  0.66025307  0.83215215  0.36188313  1
  Sr  Sr53  1  0.71193156  0.83230013  0.91892040  1
  Sr  Sr54  1  0.15385143  0.01597434  0.32735253  1
  Sr  Sr55  1  0.16613912  -0.00648248  0.88494237  1
  Sr  Sr56  1  0.16708348  0.32061870  0.41877114  1
  Sr  Sr57  1  0.17189201  0.34135116  0.86469998  1
  Sr  Sr58  1  0.16611483  0.67875483  0.38634934  1
  Sr  Sr59  1  0.12988371  0.67303657  0.83894195  1
  Sr  Sr60  1  0.48658409  -0.01294862  0.40177292  1
  Sr  Sr61  1  0.49177805  0.01171405  0.85232120  1
  Sr  Sr62  1  0.48731282  0.32647831  0.36220051  1
  Sr  Sr63  1  0.51785324  0.33354066  0.92589333  1
  Sr  Sr64  1  0.48822602  0.66221436  0.35351504  1
  Sr  Sr65  1  0.46905719  0.66847474  0.86779902  1
  Sr  Sr66  1  0.83046254  -0.00845015  0.40638917  1
  Sr  Sr67  1  0.82747364  0.01045303  0.87423692  1
  Sr  Sr68  1  0.83292977  0.32874921  0.37820068  1
  Sr  Sr69  1  0.81828370  0.33697219  0.83501486  1
  Sr  Sr70  1  0.79605635  0.66456206  0.38005538  1
  Sr  Sr71  1  0.82770098  0.65577099  0.90330734  1
  Ta  Ta72  1  0.20179523  0.16655111  -0.00319616  1
  Ta  Ta73  1  0.16591121  0.12817571  0.49432481  1
  Ta  Ta74  1  0.16261470  0.54894949  -0.00334757  1
  Ta  Ta75  1  0.20839675  0.50509188  0.49988744  1
  Ta  Ta76  1  0.15950603  0.79180773  0.00231062  1
  Ta  Ta77  1  0.17319443  0.88453553  0.49589791  1
  Ta  Ta78  1  0.46984767  0.15269609  0.00729885  1
  Ta  Ta79  1  0.54754708  0.16476151  0.50255239  1
  Ta  Ta80  1  0.50980932  0.52302231  0.00264124  1
  Ta  Ta81  1  0.47812931  0.51884299  0.50176167  1
  Ta  Ta82  1  0.52857333  0.83195379  0.00086015  1
  Ta  Ta83  1  0.51745647  0.79855316  0.50178737  1
  Ta  Ta84  1  0.83341206  0.20020270  0.00154802  1
  Ta  Ta85  1  0.79195954  0.16699310  0.50062363  1
  Ta  Ta86  1  0.83892328  0.45596711  0.00364114  1
  Ta  Ta87  1  0.86975863  0.49986160  0.49423442  1
  Ta  Ta88  1  0.89848066  0.83141237  0.00196763  1
  Ta  Ta89  1  0.87013548  0.81567815  0.49398717  1
  Ta  Ta90  1  0.16344776  0.21433290  0.24908368  1
  Ta  Ta91  1  0.11668699  0.17307110  0.75028561  1
  Ta  Ta92  1  0.17028576  0.45223354  0.24693583  1
  Ta  Ta93  1  0.18897100  0.51990442  0.75039067  1
  Ta  Ta94  1  0.21757014  0.83637579  0.25032954  1
  Ta  Ta95  1  0.20393453  0.83231538  0.74602501  1
  Ta  Ta96  1  0.51045356  0.13021665  0.25929580  1
  Ta  Ta97  1  0.50366279  0.21545306  0.74906933  1
  Ta  Ta98  1  0.54146110  0.49401789  0.24368725  1
  Ta  Ta99  1  0.50549906  0.44858300  0.75029589  1
  Ta  Ta100  1  0.46306058  0.83441422  0.25279883  1
  Ta  Ta101  1  0.55464500  0.83191544  0.75077998  1
  Ta  Ta102  1  0.82421527  0.12215459  0.25303828  1
  Ta  Ta103  1  0.88360553  0.17008081  0.74502067  1
  Ta  Ta104  1  0.80027067  0.50554479  0.24641461  1
  Ta  Ta105  1  0.84731842  0.52187062  0.74743043  1
  Ta  Ta106  1  0.85531286  0.83654049  0.25304064  1
  Ta  Ta107  1  0.82190275  0.81666030  0.74282318  1
  Ta  Ta108  1  -0.04889309  -0.00801275  0.25412601  1
  Ta  Ta109  1  -0.00554171  0.04050841  0.74610152  1
  Ta  Ta110  1  0.04389091  0.33829753  0.24563871  1
  Ta  Ta111  1  -0.00034314  0.30253009  0.75130940  1
  Ta  Ta112  1  -0.04569636  0.68297122  0.26787719  1
  Ta  Ta113  1  -0.05065590  0.66550411  0.74305582  1
  Ta  Ta114  1  0.33745506  -0.03303348  0.25326793  1
  Ta  Ta115  1  0.31955407  -0.01959652  0.74602910  1
  Ta  Ta116  1  0.28837394  0.33193785  0.24688624  1
  Ta  Ta117  1  0.37536793  0.33366293  0.75114484  1
  Ta  Ta118  1  0.32420703  0.71411820  0.24855542  1
  Ta  Ta119  1  0.29505641  0.67211692  0.74893223  1
  Ta  Ta120  1  0.66618152  0.01674082  0.25398645  1
  Ta  Ta121  1  0.67233021  -0.04664478  0.75447950  1
  Ta  Ta122  1  0.66768328  0.38055093  0.24465570  1
  Ta  Ta123  1  0.62790088  0.33166662  0.75270099  1
  Ta  Ta124  1  0.65441429  0.62012164  0.24657343  1
  Ta  Ta125  1  0.67644607  0.70696973  0.75403798  1
  Ta  Ta126  1  -0.00951811  -0.02816806  0.00260949  1
  Ta  Ta127  1  0.02900492  -0.00389830  0.49693307  1
  Ta  Ta128  1  -0.04420967  0.33323557  0.00434713  1
  Ta  Ta129  1  -0.01194853  0.36406307  0.49800888  1
  Ta  Ta130  1  0.00825936  0.68601265  -0.00276583  1
  Ta  Ta131  1  -0.03380690  0.66965606  0.49552637  1
  Ta  Ta132  1  0.33640652  0.04159659  -0.00081712  1
  Ta  Ta133  1  0.29098586  0.00648408  0.49491938  1
  Ta  Ta134  1  0.33514990  0.27684063  0.00467741  1
  Ta  Ta135  1  0.33672395  0.39113156  0.49060778  1
  Ta  Ta136  1  0.28700351  0.66320886  0.00252772  1
  Ta  Ta137  1  0.33814790  0.62281299  0.49965797  1
  Ta  Ta138  1  0.62859807  -0.01384368  -0.00435389  1
  Ta  Ta139  1  0.66566245  0.04937549  0.50112480  1
  Ta  Ta140  1  0.71786540  0.33141758  0.00759510  1
  Ta  Ta141  1  0.67105919  0.28586000  0.50434742  1
  Ta  Ta142  1  0.62235092  0.67095100  0.00311789  1
  Ta  Ta143  1  0.62296461  0.66743737  0.49695366  1
  N  N144  1  0.49452803  0.15933185  0.13051772  1
  N  N145  1  0.32913305  0.32219743  0.11879329  1
  N  N146  1  0.50440528  0.49296059  0.62542426  1
  N  N147  1  0.50144546  0.82864066  0.12211013  1
  N  N148  1  0.67662338  0.33358185  0.12885507  1
  N  N149  1  0.51011467  0.17136920  0.63140721  1
  N  N150  1  -0.00682621  0.00327282  0.36977162  1
  N  N151  1  0.17992371  0.82726318  0.11831357  1
  N  N152  1  0.50170336  0.16658291  0.37752614  1
  N  N153  1  0.16229726  0.16710598  0.87163186  1
  N  N154  1  0.32760394  0.00486701  0.37405729  1
  N  N155  1  0.82762029  0.16222989  0.36956695  1
  N  N156  1  -0.00902497  0.66833399  0.62565960  1
  N  N157  1  0.83359191  0.49585121  0.12660555  1
  N  N158  1  -0.01619570  0.67085273  0.87553691  1
  N  N159  1  0.49592938  0.49232376  0.12119079  1
  N  N160  1  0.49900825  0.82654492  0.37457436  1
  N  N161  1  0.51862709  0.82908507  0.62916641  1
  N  N162  1  0.66455342  -0.00699543  0.87696723  1
  N  N163  1  0.64435872  0.65514665  0.37383374  1
  N  N164  1  0.65557803  0.66623998  0.12262075  1
  N  N165  1  0.00133461  0.33281760  0.12283058  1
  N  N166  1  0.33017209  0.34780741  0.37536108  1
  N  N167  1  0.32968269  0.00110359  0.11836207  1
  N  N168  1  0.01242663  0.67101712  0.37207811  1
  N  N169  1  0.83698911  0.16981403  0.62879524  1
  N  N170  1  0.18035039  0.84324620  0.37921426  1
  N  N171  1  0.16524939  0.50463134  0.88058502  1
  N  N172  1  -0.00089274  0.01001256  0.62289947  1
  N  N173  1  0.16222004  0.16927699  0.37466060  1
  N  N174  1  0.17863322  0.50191490  0.62196795  1
  N  N175  1  0.32928328  0.00169785  0.86760867  1
  N  N176  1  0.84171567  0.83056793  0.61950769  1
  O  O177  1  0.83535541  0.49621994  0.87285744  1
  O  O178  1  0.17783232  0.82999622  0.87449844  1
  O  O179  1  0.16124249  0.17583898  0.12110712  1
  O  O180  1  -0.00430360  -0.01016133  0.12885559  1
  O  O181  1  0.67609864  0.68283888  0.88073867  1
  O  O182  1  0.32808236  0.66659304  0.37543928  1
  O  O183  1  -0.00593985  0.00089704  0.87749772  1
  O  O184  1  0.00350797  0.35169300  0.37326618  1
  O  O185  1  -0.00668253  0.67038685  0.14449399  1
  O  O186  1  0.84339445  0.18331507  0.87436415  1
  O  O187  1  0.18428243  0.83507033  0.61927753  1
  O  O188  1  -0.00366240  0.31966275  0.87756335  1
  O  O189  1  0.84638364  0.50238048  0.62284137  1
  O  O190  1  0.65500247  -0.00091933  0.12825102  1
  O  O191  1  0.31103567  0.66915581  0.87472913  1
  O  O192  1  0.17599152  0.49712603  0.36665441  1
  O  O193  1  0.65618442  0.67731228  0.63188678  1
  O  O194  1  0.50496739  0.49936277  0.37398921  1
  O  O195  1  0.67068904  0.33260356  0.88342791  1
  O  O196  1  0.85354851  0.83241107  0.12502997  1
  O  O197  1  0.67012637  0.00165563  0.38009164  1
  O  O198  1  0.30934175  0.66797771  0.12829659  1
  O  O199  1  0.67494212  0.33797337  0.38029996  1
  O  O200  1  0.66667965  0.33003386  0.62509003  1
  O  O201  1  0.16477110  0.50147837  0.12165690  1
  O  O202  1  0.32160598  0.66701399  0.61987504  1
  O  O203  1  0.85758591  0.83031049  0.87676100  1
  O  O204  1  0.66827185  0.00167580  0.62610405  1
  O  O205  1  0.14905329  0.16352886  0.62363599  1
  O  O206  1  0.84243874  0.49563479  0.37217100  1
  O  O207  1  0.50530127  0.48722913  0.87791382  1
  O  O208  1  0.34991246  0.34617781  0.62145301  1
  O  O209  1  0.83030732  0.16729872  0.12570557  1
  O  O210  1  0.35156610  0.32224088  0.87829000  1
  O  O211  1  0.49916000  0.82347556  0.86609410  1
  O  O212  1  0.50384955  0.17160096  0.87433523  1
  O  O213  1  0.33915729  0.01009528  0.62129877  1
  O  O214  1  0.81733566  0.83555401  0.38021292  1
  O  O215  1  -0.00736105  0.33509862  0.62131003  1
