# generated using pymatgen
data_Sr24Ta24N11O13
_symmetry_space_group_name_H-M   'P 1'
_cell_length_a   16.73331761
_cell_length_b   16.76636160
_cell_length_c   15.67431208
_cell_angle_alpha   89.56957909
_cell_angle_beta   90.29606499
_cell_angle_gamma   90.10285087
_symmetry_Int_Tables_number   1
_chemical_formula_structural   Sr24Ta24N11O13
_chemical_formula_sum   'Sr72 Ta72 N33 O39'
_cell_volume   4397.34610927
_cell_formula_units_Z   3
loop_
 _symmetry_equiv_pos_site_id
 _symmetry_equiv_pos_as_xyz
  1  'x, y, z'
loop_
 _atom_site_type_symbol
 _atom_site_label
 _atom_site_symmetry_multiplicity
 _atom_site_fract_x
 _atom_site_fract_y
 _atom_site_fract_z
 _atom_site_occupancy
  Sr  Sr0  1  0.00637056  0.15386723  0.17187251  1
  Sr  Sr1  1  -0.00516620  0.15966482  0.62474947  1
  Sr  Sr2  1  -0.01195879  0.48249869  0.12651803  1
  Sr  Sr3  1  -0.00487557  0.49056478  0.59044642  1
  Sr  Sr4  1  0.00371910  0.83874722  0.08763911  1
  Sr  Sr5  1  0.00514801  0.81139481  0.62011611  1
  Sr  Sr6  1  0.31639241  0.15902619  0.07591270  1
  Sr  Sr7  1  0.34825202  0.16920304  0.63445367  1
  Sr  Sr8  1  0.32366989  0.49209309  0.13331181  1
  Sr  Sr9  1  0.33758174  0.50600327  0.62482257  1
  Sr  Sr10  1  0.33973717  0.85539799  0.16444994  1
  Sr  Sr11  1  0.33216227  0.83601186  0.62348021  1
  Sr  Sr12  1  0.65508868  0.15672775  0.13565897  1
  Sr  Sr13  1  0.66208517  0.19320546  0.57716769  1
  Sr  Sr14  1  0.66697772  0.49698736  0.11765333  1
  Sr  Sr15  1  0.69095802  0.48090914  0.67618803  1
  Sr  Sr16  1  0.67378629  0.81252623  0.10053080  1
  Sr  Sr17  1  0.67112308  0.84274841  0.63856428  1
  Sr  Sr18  1  0.16184013  0.00483875  0.12781592  1
  Sr  Sr19  1  0.15726817  0.01296328  0.59271627  1
  Sr  Sr20  1  0.15700771  0.33510542  0.13090381  1
  Sr  Sr21  1  0.16067521  0.36814752  0.61065423  1
  Sr  Sr22  1  0.19952152  0.69233481  0.12373581  1
  Sr  Sr23  1  0.18883346  0.67730431  0.66531476  1
  Sr  Sr24  1  0.49081086  0.01062125  0.12243574  1
  Sr  Sr25  1  0.48178124  -0.01455169  0.67863553  1
  Sr  Sr26  1  0.50737038  0.34307162  0.16857217  1
  Sr  Sr27  1  0.49011263  0.32614478  0.61597239  1
  Sr  Sr28  1  0.51134747  0.66911283  0.10012903  1
  Sr  Sr29  1  0.49952571  0.67476746  0.59417082  1
  Sr  Sr30  1  0.82389841  0.00285233  0.11566549  1
  Sr  Sr31  1  0.82737389  0.00804287  0.66205888  1
  Sr  Sr32  1  0.81636818  0.34369634  0.07636193  1
  Sr  Sr33  1  0.84620672  0.32217411  0.63233989  1
  Sr  Sr34  1  0.83266121  0.64792919  0.17322362  1
  Sr  Sr35  1  0.82662248  0.67778390  0.60891757  1
  Sr  Sr36  1  0.00583425  0.14965199  0.37758623  1
  Sr  Sr37  1  -0.02002669  0.16540901  0.83117802  1
  Sr  Sr38  1  -0.01107550  0.50012075  0.37374710  1
  Sr  Sr39  1  -0.00175176  0.46861261  0.91226023  1
  Sr  Sr40  1  -0.01319004  0.81783397  0.39569292  1
  Sr  Sr41  1  0.01471388  0.80775049  0.87620672  1
  Sr  Sr42  1  0.34061629  0.16639311  0.41463505  1
  Sr  Sr43  1  0.34239454  0.17392662  0.86575015  1
  Sr  Sr44  1  0.34113454  0.50178380  0.37229462  1
  Sr  Sr45  1  0.32707905  0.51675454  0.88963533  1
  Sr  Sr46  1  0.33214294  0.84461930  0.37345177  1
  Sr  Sr47  1  0.34309310  0.84684370  0.83534230  1
  Sr  Sr48  1  0.64508208  0.15792498  0.35986432  1
  Sr  Sr49  1  0.67702861  0.16185830  0.92175488  1
  Sr  Sr50  1  0.66360093  0.49534066  0.33367462  1
  Sr  Sr51  1  0.67270425  0.48774593  0.88090545  1
  Sr  Sr52  1  0.67303062  0.80367857  0.41026393  1
  Sr  Sr53  1  0.67385501  0.82567055  0.86773772  1
  Sr  Sr54  1  0.16186113  -0.00434023  0.37986763  1
  Sr  Sr55  1  0.15472583  0.01926486  0.88911793  1
  Sr  Sr56  1  0.15557377  0.35980612  0.35057923  1
  Sr  Sr57  1  0.17335194  0.34971378  0.91836453  1
  Sr  Sr58  1  0.20110700  0.68061195  0.33898226  1
  Sr  Sr59  1  0.18526905  0.68054157  0.87395848  1
  Sr  Sr60  1  0.49797135  -0.00797686  0.33929717  1
  Sr  Sr61  1  0.48604896  0.02182539  0.88412936  1
  Sr  Sr62  1  0.49700353  0.33015361  0.38334686  1
  Sr  Sr63  1  0.48703249  0.34314827  0.83262010  1
  Sr  Sr64  1  0.50336711  0.67807924  0.40184543  1
  Sr  Sr65  1  0.51238449  0.65290236  0.90681088  1
  Sr  Sr66  1  0.82171118  0.02397648  0.33317881  1
  Sr  Sr67  1  0.82918108  -0.01097677  0.88998571  1
  Sr  Sr68  1  0.83054287  0.31409561  0.41541365  1
  Sr  Sr69  1  0.83151515  0.33526644  0.86788118  1
  Sr  Sr70  1  0.83425396  0.65515164  0.38250333  1
  Sr  Sr71  1  0.82296876  0.66036795  0.82356875  1
  Ta  Ta72  1  0.12066193  0.17028957  0.00532637  1
  Ta  Ta73  1  0.16752683  0.21008066  0.49774894  1
  Ta  Ta74  1  0.14623005  0.54154339  0.01432402  1
  Ta  Ta75  1  0.17778884  0.54034897  0.49517353  1
  Ta  Ta76  1  0.20519485  0.84775819  -0.00037056  1
  Ta  Ta77  1  0.17073140  0.80509846  0.49754322  1
  Ta  Ta78  1  0.49821650  0.20988779  -0.00042813  1
  Ta  Ta79  1  0.50636823  0.09626997  0.51086066  1
  Ta  Ta80  1  0.49723675  0.46144507  -0.00166940  1
  Ta  Ta81  1  0.53055049  0.49476750  0.49826940  1
  Ta  Ta82  1  0.48715942  0.85074070  -0.00044954  1
  Ta  Ta83  1  0.50308695  0.88253467  0.50808523  1
  Ta  Ta84  1  0.86849523  0.16490409  0.00648042  1
  Ta  Ta85  1  0.83019711  0.12049855  0.50324863  1
  Ta  Ta86  1  0.83572875  0.54519404  -0.00097875  1
  Ta  Ta87  1  0.80253353  0.48965409  0.49528603  1
  Ta  Ta88  1  0.84098273  0.75875919  -0.00122699  1
  Ta  Ta89  1  0.82623593  0.89905712  0.49935732  1
  Ta  Ta90  1  0.20655310  0.17248200  0.24880651  1
  Ta  Ta91  1  0.17299985  0.20392315  0.75313892  1
  Ta  Ta92  1  0.14357454  0.53249266  0.23518778  1
  Ta  Ta93  1  0.14759516  0.49525221  0.76485777  1
  Ta  Ta94  1  0.13063895  0.84067495  0.24851165  1
  Ta  Ta95  1  0.15912463  0.87502075  0.74331455  1
  Ta  Ta96  1  0.44682816  0.16803988  0.24230395  1
  Ta  Ta97  1  0.54492513  0.16750067  0.75237942  1
  Ta  Ta98  1  0.49788185  0.54067494  0.25151994  1
  Ta  Ta99  1  0.50010433  0.53022049  0.75021521  1
  Ta  Ta100  1  0.52865530  0.81302382  0.24766583  1
  Ta  Ta101  1  0.50832387  0.79011560  0.74831108  1
  Ta  Ta102  1  0.82660903  0.20979437  0.24210777  1
  Ta  Ta103  1  0.78065146  0.16791404  0.74825443  1
  Ta  Ta104  1  0.83164406  0.45281628  0.24805845  1
  Ta  Ta105  1  0.88418080  0.49479290  0.75462214  1
  Ta  Ta106  1  0.83036491  0.84168814  0.24872195  1
  Ta  Ta107  1  0.86130775  0.84378047  0.75181384  1
  Ta  Ta108  1  -0.01196293  -0.04521677  0.25119009  1
  Ta  Ta109  1  0.00257346  -0.02912057  0.75185435  1
  Ta  Ta110  1  -0.04668444  0.32719597  0.24431461  1
  Ta  Ta111  1  0.02735946  0.34935995  0.75485390  1
  Ta  Ta112  1  0.02910776  0.67287917  0.24459203  1
  Ta  Ta113  1  0.01101650  0.61622587  0.75107423  1
  Ta  Ta114  1  0.32371670  0.04441191  0.25567585  1
  Ta  Ta115  1  0.28606762  0.01229053  0.74835629  1
  Ta  Ta116  1  0.32942804  0.29162686  0.24270921  1
  Ta  Ta117  1  0.29239817  0.34424619  0.75822363  1
  Ta  Ta118  1  0.38403530  0.67363560  0.25245948  1
  Ta  Ta119  1  0.37994980  0.66804893  0.75203504  1
  Ta  Ta120  1  0.66845117  -0.06132790  0.24913700  1
  Ta  Ta121  1  0.66047326  0.04715658  0.75038713  1
  Ta  Ta122  1  0.70266787  0.32548111  0.24586625  1
  Ta  Ta123  1  0.66466188  0.29175432  0.75734765  1
  Ta  Ta124  1  0.63390896  0.67404138  0.25211006  1
  Ta  Ta125  1  0.62878519  0.65761433  0.74788255  1
  Ta  Ta126  1  -0.00602532  0.05032674  0.00261344  1
  Ta  Ta127  1  -0.04000020  -0.00761092  0.49595813  1
  Ta  Ta128  1  -0.00626203  0.27958601  0.00297871  1
  Ta  Ta129  1  0.01708706  0.31056823  0.49951765  1
  Ta  Ta130  1  -0.01894070  0.65051398  0.00106267  1
  Ta  Ta131  1  0.06727513  0.65815468  0.49864173  1
  Ta  Ta132  1  0.32871906  -0.03581809  -0.00832147  1
  Ta  Ta133  1  0.35838348  -0.00546173  0.50441837  1
  Ta  Ta134  1  0.37254660  0.34043153  0.00353424  1
  Ta  Ta135  1  0.30704512  0.33667482  0.49668318  1
  Ta  Ta136  1  0.34620068  0.73368503  -0.00605271  1
  Ta  Ta137  1  0.30849930  0.67089377  0.50128461  1
  Ta  Ta138  1  0.64377606  -0.02132877  -0.00336779  1
  Ta  Ta139  1  0.66412276  -0.00507324  0.50101524  1
  Ta  Ta140  1  0.62138426  0.33068653  0.00005628  1
  Ta  Ta141  1  0.66461702  0.38860598  0.50083617  1
  Ta  Ta142  1  0.70775128  0.65638359  -0.00831989  1
  Ta  Ta143  1  0.66889950  0.59131363  0.50535235  1
  N  N144  1  0.16179245  0.84341357  0.62478846  1
  N  N145  1  0.82977279  0.49260386  0.36939170  1
  N  N146  1  0.50714229  0.83554847  0.62229899  1
  N  N147  1  0.50390158  0.83629585  0.12396350  1
  N  N148  1  0.17237466  0.84531072  0.12437476  1
  N  N149  1  0.50355249  0.17410917  0.87196394  1
  N  N150  1  0.48592239  0.16965411  0.12442163  1
  N  N151  1  0.82554158  0.16294992  0.12563390  1
  N  N152  1  0.32908635  0.33194570  0.12115654  1
  N  N153  1  0.66305875  0.32902794  0.12740759  1
  N  N154  1  0.82912996  0.49922378  0.11715061  1
  N  N155  1  0.35213812  0.67722464  0.37274987  1
  N  N156  1  0.34570156  0.68782460  0.87743096  1
  N  N157  1  0.50079755  0.49710471  0.87423597  1
  N  N158  1  0.32659267  0.01130442  0.87546393  1
  N  N159  1  0.32894821  0.00924493  0.37588557  1
  N  N160  1  0.00057450  0.31734229  0.87172043  1
  N  N161  1  -0.01141889  -0.00840445  0.36904614  1
  N  N162  1  0.16049466  0.51008252  0.88820710  1
  N  N163  1  0.32171198  0.01025980  0.62970522  1
  N  N164  1  0.66440087  0.32748956  0.87823210  1
  N  N165  1  0.32634503  0.34533374  0.87576702  1
  N  N166  1  0.34183813  0.67280109  0.62245447  1
  N  N167  1  0.16413048  0.48639955  0.12201011  1
  N  N168  1  -0.00782520  0.32359844  0.12651948  1
  N  N169  1  0.50174493  0.50146437  0.37259368  1
  N  N170  1  0.00322140  0.32610303  0.62239542  1
  N  N171  1  0.50559853  0.14987305  0.61958713  1
  N  N172  1  0.16263553  0.16741513  0.12809852  1
  N  N173  1  0.66967187  0.65701263  0.86545093  1
  N  N174  1  0.82017254  0.16277916  0.61800089  1
  N  N175  1  0.84103117  0.49985480  0.87014015  1
  N  N176  1  0.16236501  0.83640138  0.37380729  1
  O  O177  1  0.35636355  0.70186428  0.12252318  1
  O  O178  1  -0.00687664  0.67845979  0.12749924  1
  O  O179  1  0.17616412  0.51834595  0.62546525  1
  O  O180  1  0.66261768  -0.03203206  0.12118189  1
  O  O181  1  0.85539659  0.80929443  0.87434025  1
  O  O182  1  0.82698929  0.16592582  0.37807770  1
  O  O183  1  0.83737114  0.80257642  0.12931910  1
  O  O184  1  0.50349813  0.49988621  0.12729846  1
  O  O185  1  0.66938506  0.65974360  0.12795781  1
  O  O186  1  -0.00061336  -0.01524808  0.62470448  1
  O  O187  1  -0.00391160  0.00621843  0.87533445  1
  O  O188  1  0.16447181  0.83836366  0.87350414  1
  O  O189  1  0.84230829  0.48848223  0.63084882  1
  O  O190  1  0.03384236  0.64478635  0.62930232  1
  O  O191  1  0.49268522  0.14257372  0.38429293  1
  O  O192  1  0.66718846  0.00257806  0.62961833  1
  O  O193  1  0.49385327  0.48839845  0.62924796  1
  O  O194  1  0.31861762  0.34685120  0.62405950  1
  O  O195  1  0.65520279  -0.00319699  0.87232158  1
  O  O196  1  -0.00186170  0.32489909  0.37100125  1
  O  O197  1  0.66419634  0.34079320  0.62433803  1
  O  O198  1  0.67000343  0.34269548  0.37952226  1
  O  O199  1  0.66370581  -0.03204546  0.36981475  1
  O  O200  1  0.51345204  0.84065055  0.38485462  1
  O  O201  1  -0.01207240  0.00177410  0.12503837  1
  O  O202  1  0.16935208  0.19583088  0.62903656  1
  O  O203  1  0.03010774  0.66692400  0.37279773  1
  O  O204  1  0.82526525  0.85092957  0.37833704  1
  O  O205  1  0.16142602  0.18174202  0.87787355  1
  O  O206  1  0.32890300  0.00432480  0.11882231  1
  O  O207  1  0.67529310  0.64874506  0.37311678  1
  O  O208  1  0.16986377  0.51843927  0.36436509  1
  O  O209  1  0.67279486  0.63164041  0.62846475  1
  O  O210  1  0.16584476  0.19044022  0.37348089  1
  O  O211  1  0.83122161  0.85485130  0.62613938  1
  O  O212  1  -0.00070562  0.64915121  0.87031388  1
  O  O213  1  0.32744903  0.33642841  0.37189563  1
  O  O214  1  0.51322961  0.82947928  0.86877147  1
  O  O215  1  0.82549738  0.16452155  0.87214009  1
