# generated using pymatgen
data_Sr24Ta24N11O13
_symmetry_space_group_name_H-M   'P 1'
_cell_length_a   16.59634015
_cell_length_b   17.03865688
_cell_length_c   15.55976277
_cell_angle_alpha   90.70853865
_cell_angle_beta   90.06118223
_cell_angle_gamma   89.76002508
_symmetry_Int_Tables_number   1
_chemical_formula_structural   Sr24Ta24N11O13
_chemical_formula_sum   'Sr72 Ta72 N33 O39'
_cell_volume   4399.60223619
_cell_formula_units_Z   3
loop_
 _symmetry_equiv_pos_site_id
 _symmetry_equiv_pos_as_xyz
  1  'x, y, z'
loop_
 _atom_site_type_symbol
 _atom_site_label
 _atom_site_symmetry_multiplicity
 _atom_site_fract_x
 _atom_site_fract_y
 _atom_site_fract_z
 _atom_site_occupancy
  Sr  Sr0  1  -0.00239247  0.11098733  0.06071046  1
  Sr  Sr1  1  0.01645085  0.17998182  0.62892690  1
  Sr  Sr2  1  -0.00243637  0.49631542  0.10620993  1
  Sr  Sr3  1  -0.00363376  0.48192294  0.64308116  1
  Sr  Sr4  1  -0.01083820  0.82657705  0.15758070  1
  Sr  Sr5  1  -0.00208721  0.78967415  0.61216491  1
  Sr  Sr6  1  0.31823415  0.15920040  0.12960039  1
  Sr  Sr7  1  0.35605685  0.17327404  0.69518633  1
  Sr  Sr8  1  0.34326225  0.47114147  0.09718286  1
  Sr  Sr9  1  0.32491133  0.49743663  0.62547190  1
  Sr  Sr10  1  0.33711294  0.83051669  0.13139892  1
  Sr  Sr11  1  0.32084266  0.82266112  0.59111821  1
  Sr  Sr12  1  0.67769095  0.16311386  0.13707192  1
  Sr  Sr13  1  0.64707815  0.16650791  0.56981848  1
  Sr  Sr14  1  0.66130420  0.50491418  0.16353240  1
  Sr  Sr15  1  0.67017745  0.48899046  0.60885389  1
  Sr  Sr16  1  0.67882658  0.81563332  0.07623733  1
  Sr  Sr17  1  0.66232576  0.82629275  0.63740925  1
  Sr  Sr18  1  0.17876666  0.00710200  0.08849283  1
  Sr  Sr19  1  0.16734442  0.03477278  0.65184718  1
  Sr  Sr20  1  0.18394393  0.33624720  0.14827008  1
  Sr  Sr21  1  0.16263537  0.34380082  0.59861096  1
  Sr  Sr22  1  0.15942613  0.71227290  0.16397538  1
  Sr  Sr23  1  0.17473985  0.66311447  0.61836758  1
  Sr  Sr24  1  0.49309579  0.01431951  0.17575427  1
  Sr  Sr25  1  0.50745357  -0.00930676  0.61660956  1
  Sr  Sr26  1  0.50143375  0.31564737  0.08136021  1
  Sr  Sr27  1  0.49541812  0.34127345  0.64491519  1
  Sr  Sr28  1  0.49683998  0.66426627  0.11574855  1
  Sr  Sr29  1  0.50571349  0.67610860  0.64805058  1
  Sr  Sr30  1  0.82301484  -0.00070095  0.12480329  1
  Sr  Sr31  1  0.84405080  0.04809902  0.61205699  1
  Sr  Sr32  1  0.83312338  0.36155175  0.13330836  1
  Sr  Sr33  1  0.84551957  0.34369998  0.66133622  1
  Sr  Sr34  1  0.84002763  0.67757386  0.10005199  1
  Sr  Sr35  1  0.81860446  0.68007679  0.61026118  1
  Sr  Sr36  1  0.01544972  0.16410688  0.41120034  1
  Sr  Sr37  1  -0.01537583  0.14966831  0.84594513  1
  Sr  Sr38  1  0.00495225  0.45712178  0.33213921  1
  Sr  Sr39  1  -0.01265471  0.49984617  0.89506688  1
  Sr  Sr40  1  -0.00551275  0.82438442  0.37136873  1
  Sr  Sr41  1  -0.00143021  0.80628260  0.83554893  1
  Sr  Sr42  1  0.31431512  0.17022548  0.34716549  1
  Sr  Sr43  1  0.32693228  0.13155342  0.88440788  1
  Sr  Sr44  1  0.32241986  0.48076741  0.38846823  1
  Sr  Sr45  1  0.33875012  0.51255283  0.87869728  1
  Sr  Sr46  1  0.34324334  0.81696769  0.35919629  1
  Sr  Sr47  1  0.31557990  0.82231555  0.90638103  1
  Sr  Sr48  1  0.68950363  0.14947015  0.35512782  1
  Sr  Sr49  1  0.66487963  0.17352328  0.92112411  1
  Sr  Sr50  1  0.67123762  0.50267395  0.37648520  1
  Sr  Sr51  1  0.66462920  0.45921298  0.82963773  1
  Sr  Sr52  1  0.67387389  0.82335829  0.40508759  1
  Sr  Sr53  1  0.66455116  0.83776443  0.85912946  1
  Sr  Sr54  1  0.16165792  0.03842619  0.39625361  1
  Sr  Sr55  1  0.16581584  -0.00262789  0.87758689  1
  Sr  Sr56  1  0.16821553  0.32059667  0.37426511  1
  Sr  Sr57  1  0.15924883  0.39063495  0.93990756  1
  Sr  Sr58  1  0.17297063  0.68882224  0.39019469  1
  Sr  Sr59  1  0.16413569  0.67837378  0.84438338  1
  Sr  Sr60  1  0.50572091  0.00297970  0.38919168  1
  Sr  Sr61  1  0.50659616  -0.00498119  0.83678015  1
  Sr  Sr62  1  0.51781729  0.34192093  0.42709175  1
  Sr  Sr63  1  0.48852068  0.33669296  0.86426198  1
  Sr  Sr64  1  0.50149494  0.65157362  0.32939064  1
  Sr  Sr65  1  0.49575264  0.68028872  0.89462767  1
  Sr  Sr66  1  0.84662315  0.01192050  0.36275239  1
  Sr  Sr67  1  0.82107383  0.02094338  0.90015532  1
  Sr  Sr68  1  0.82839816  0.33486881  0.33257874  1
  Sr  Sr69  1  0.84606173  0.34439468  0.87021994  1
  Sr  Sr70  1  0.82808434  0.68552601  0.39574868  1
  Sr  Sr71  1  0.82665767  0.69449088  0.87222092  1
  Ta  Ta72  1  0.15970600  0.20377968  -0.02023423  1
  Ta  Ta73  1  0.24179937  0.17559349  0.54026951  1
  Ta  Ta74  1  0.16767595  0.56655323  0.01660909  1
  Ta  Ta75  1  0.13233682  0.50760609  0.48656071  1
  Ta  Ta76  1  0.13319258  0.82737648  -0.00341270  1
  Ta  Ta77  1  0.15008914  0.87791467  0.51095719  1
  Ta  Ta78  1  0.48989771  0.12853871  0.00291666  1
  Ta  Ta79  1  0.44070912  0.16530162  0.51241896  1
  Ta  Ta80  1  0.54857787  0.49583818  -0.00649204  1
  Ta  Ta81  1  0.49674112  0.53469174  0.49689160  1
  Ta  Ta82  1  0.50098727  0.86942011  -0.00191263  1
  Ta  Ta83  1  0.50015432  0.79348798  0.49347748  1
  Ta  Ta84  1  0.84507540  0.20824161  0.00674028  1
  Ta  Ta85  1  0.84081364  0.21325546  0.49096302  1
  Ta  Ta86  1  0.78619234  0.50449957  -0.00525040  1
  Ta  Ta87  1  0.85441457  0.47769059  0.49250528  1
  Ta  Ta88  1  0.86541765  0.84684816  -0.01048294  1
  Ta  Ta89  1  0.83996768  0.87588073  0.51602625  1
  Ta  Ta90  1  0.10479822  0.15632964  0.21405935  1
  Ta  Ta91  1  0.16994157  0.22538460  0.77960635  1
  Ta  Ta92  1  0.17012702  0.53036284  0.22389478  1
  Ta  Ta93  1  0.15720370  0.49233672  0.76254190  1
  Ta  Ta94  1  0.16801060  0.89080697  0.25149154  1
  Ta  Ta95  1  0.17239914  0.85452293  0.73881142  1
  Ta  Ta96  1  0.49744772  0.20266053  0.26085103  1
  Ta  Ta97  1  0.54847312  0.16421170  0.74706322  1
  Ta  Ta98  1  0.48648232  0.46078430  0.25281949  1
  Ta  Ta99  1  0.50062180  0.52899642  0.75158639  1
  Ta  Ta100  1  0.55348569  0.82851195  0.24088187  1
  Ta  Ta101  1  0.45343598  0.82660777  0.75299298  1
  Ta  Ta102  1  0.89754401  0.16479634  0.24175682  1
  Ta  Ta103  1  0.79203069  0.17413593  0.75528671  1
  Ta  Ta104  1  0.84286184  0.54850242  0.25010471  1
  Ta  Ta105  1  0.82804887  0.54050429  0.74785554  1
  Ta  Ta106  1  0.80005331  0.83082590  0.24343314  1
  Ta  Ta107  1  0.83947268  0.88897589  0.73944933  1
  Ta  Ta108  1  0.01915362  0.01165051  0.25158111  1
  Ta  Ta109  1  -0.00422673  -0.03444124  0.73255170  1
  Ta  Ta110  1  0.00697123  0.28142737  0.22893702  1
  Ta  Ta111  1  0.04597280  0.33673395  0.76740017  1
  Ta  Ta112  1  -0.01135177  0.63643339  0.24916582  1
  Ta  Ta113  1  -0.01984609  0.63066052  0.75234919  1
  Ta  Ta114  1  0.30496619  -0.01073703  0.25575752  1
  Ta  Ta115  1  0.32929860  -0.05055037  0.75647005  1
  Ta  Ta116  1  0.38748690  0.33045442  0.25549948  1
  Ta  Ta117  1  0.28386501  0.34802631  0.76825335  1
  Ta  Ta118  1  0.31914892  0.62125894  0.24197121  1
  Ta  Ta119  1  0.34485519  0.67855420  0.74658769  1
  Ta  Ta120  1  0.66709676  -0.04814811  0.24743428  1
  Ta  Ta121  1  0.68278315  0.04095471  0.74996120  1
  Ta  Ta122  1  0.61627875  0.32757143  0.25030839  1
  Ta  Ta123  1  0.66689918  0.28115775  0.74571112  1
  Ta  Ta124  1  0.68551314  0.68971662  0.24546314  1
  Ta  Ta125  1  0.66853289  0.63653586  0.75002313  1
  Ta  Ta126  1  -0.00137078  -0.06161450  -0.01323098  1
  Ta  Ta127  1  0.00047382  -0.02938933  0.50755178  1
  Ta  Ta128  1  -0.00064632  0.29570344  0.00614473  1
  Ta  Ta129  1  -0.02702193  0.34341115  0.50407321  1
  Ta  Ta130  1  0.02243984  0.68501494  0.00107585  1
  Ta  Ta131  1  -0.00470417  0.60674650  0.48616255  1
  Ta  Ta132  1  0.38335948  -0.00907368  0.00165055  1
  Ta  Ta133  1  0.32780228  0.02374472  0.51368926  1
  Ta  Ta134  1  0.31850932  0.29629401  -0.01923810  1
  Ta  Ta135  1  0.34290158  0.30712478  0.52187406  1
  Ta  Ta136  1  0.29950407  0.65810547  0.01975493  1
  Ta  Ta137  1  0.37249497  0.65564850  0.49203407  1
  Ta  Ta138  1  0.61611388  -0.00167424  0.01080737  1
  Ta  Ta139  1  0.69319036  -0.01658657  0.49573486  1
  Ta  Ta140  1  0.68063673  0.36087304  0.00791629  1
  Ta  Ta141  1  0.72269311  0.33259318  0.49523718  1
  Ta  Ta142  1  0.66663471  0.62238136  -0.00735112  1
  Ta  Ta143  1  0.62728355  0.66059685  0.49632882  1
  N  N144  1  0.00489178  0.33280849  0.62732144  1
  N  N145  1  0.16383016  0.48216522  0.10661343  1
  N  N146  1  0.33890625  0.68253495  0.13918155  1
  N  N147  1  0.15751384  0.81603825  0.61427114  1
  N  N148  1  0.00205958  0.33911296  0.88830606  1
  N  N149  1  0.18750069  0.18486813  0.65651838  1
  N  N150  1  0.33572152  0.36342190  0.88430053  1
  N  N151  1  0.50666653  0.49463941  0.87013094  1
  N  N152  1  0.33385417  0.65448029  0.36955905  1
  N  N153  1  0.49402023  0.83316153  0.87252893  1
  N  N154  1  0.82472031  0.82942731  0.62989614  1
  N  N155  1  0.33468678  0.33622426  0.64768266  1
  N  N156  1  0.82855835  0.85124076  0.86256601  1
  N  N157  1  0.85756084  0.17924965  0.36761678  1
  N  N158  1  0.16168906  0.52718727  0.88241492  1
  N  N159  1  0.16147748  0.85824551  0.12904865  1
  N  N160  1  0.15857789  0.16153212  0.09432532  1
  N  N161  1  0.67107745  -0.00554089  0.37472589  1
  N  N162  1  0.65974099  0.33499211  0.13110635  1
  N  N163  1  0.82783979  0.18224224  0.88394843  1
  N  N164  1  0.49859553  0.49103036  0.37710402  1
  N  N165  1  0.66507809  0.66416043  0.36992219  1
  N  N166  1  0.49990828  0.16111692  0.62619478  1
  N  N167  1  -0.00334133  0.66830375  0.13004143  1
  N  N168  1  0.83193591  0.83581644  0.11970988  1
  N  N169  1  0.33655392  -0.01858430  0.88153762  1
  N  N170  1  -0.00765456  0.65621198  0.87398516  1
  N  N171  1  0.00363518  -0.00212426  0.37747499  1
  N  N172  1  0.15919439  0.83523866  0.86920818  1
  N  N173  1  0.66330655  0.66030139  0.62590333  1
  N  N174  1  0.66708406  0.65978249  0.11250567  1
  N  N175  1  0.33380504  0.66638836  0.62308344  1
  N  N176  1  0.66030085  0.00176412  0.12688425  1
  O  O177  1  0.68357468  0.32224773  0.61895620  1
  O  O178  1  0.84051633  0.15183552  0.12291958  1
  O  O179  1  0.47301882  0.16331467  0.38059497  1
  O  O180  1  0.84092096  0.19308126  0.63358185  1
  O  O181  1  0.00675033  -0.01137628  0.86512353  1
  O  O182  1  0.83719173  0.83698254  0.37333890  1
  O  O183  1  0.14261586  0.13829124  0.86393365  1
  O  O184  1  0.32954259  0.66961236  0.88947120  1
  O  O185  1  0.67873284  0.02098316  0.62283232  1
  O  O186  1  0.35829025  0.32690326  0.38312532  1
  O  O187  1  0.66734201  0.32020671  0.88173618  1
  O  O188  1  0.33652888  -0.00828339  0.13045130  1
  O  O189  1  0.16224898  0.18705616  0.44957231  1
  O  O190  1  0.50815954  0.14617334  0.87476476  1
  O  O191  1  0.34844266  0.31600794  0.11083166  1
  O  O192  1  0.00233638  0.03133377  0.62555740  1
  O  O193  1  0.84231054  0.48958407  0.36582765  1
  O  O194  1  0.15461205  0.85081678  0.38147934  1
  O  O195  1  0.32109594  0.01123451  0.38564372  1
  O  O196  1  0.66156774  0.68158903  0.87268322  1
  O  O197  1  0.48920561  0.15994249  0.13204256  1
  O  O198  1  0.48864868  0.82509051  0.61851807  1
  O  O199  1  0.01214491  0.31524690  0.37766426  1
  O  O200  1  0.34097250  0.00077264  0.63706669  1
  O  O201  1  0.50918757  0.81123802  0.36512981  1
  O  O202  1  0.81558955  0.51792689  0.12514878  1
  O  O203  1  0.81454817  0.49739695  0.86909594  1
  O  O204  1  0.50747053  0.49314274  0.62538190  1
  O  O205  1  0.83371694  0.49793205  0.61967951  1
  O  O206  1  0.00791057  0.67075095  0.37955036  1
  O  O207  1  0.15180927  0.50105352  0.61690702  1
  O  O208  1  0.50745861  0.81922923  0.12084955  1
  O  O209  1  0.50605594  0.48202399  0.11495018  1
  O  O210  1  0.66949714  0.33478689  0.37375871  1
  O  O211  1  -0.01017022  0.63549875  0.61303850  1
  O  O212  1  0.00989205  0.35279644  0.12364850  1
  O  O213  1  0.00025790  -0.02550586  0.11551367  1
  O  O214  1  0.66407171  0.02083714  0.88085165  1
  O  O215  1  0.15253077  0.50417235  0.35931862  1
