# generated using pymatgen
data_Sr24Ta24N11O13
_symmetry_space_group_name_H-M   'P 1'
_cell_length_a   16.86499263
_cell_length_b   16.65989781
_cell_length_c   15.72693618
_cell_angle_alpha   90.00692152
_cell_angle_beta   89.95525188
_cell_angle_gamma   90.48556556
_symmetry_Int_Tables_number   1
_chemical_formula_structural   Sr24Ta24N11O13
_chemical_formula_sum   'Sr72 Ta72 N33 O39'
_cell_volume   4418.62232302
_cell_formula_units_Z   3
loop_
 _symmetry_equiv_pos_site_id
 _symmetry_equiv_pos_as_xyz
  1  'x, y, z'
loop_
 _atom_site_type_symbol
 _atom_site_label
 _atom_site_symmetry_multiplicity
 _atom_site_fract_x
 _atom_site_fract_y
 _atom_site_fract_z
 _atom_site_occupancy
  Sr  Sr0  1  -0.00656961  0.17182885  0.12656423  1
  Sr  Sr1  1  -0.00813348  0.16377715  0.58554747  1
  Sr  Sr2  1  0.03372137  0.51063469  0.09187740  1
  Sr  Sr3  1  0.01098594  0.49075545  0.63985512  1
  Sr  Sr4  1  0.00925308  0.82678093  0.14627905  1
  Sr  Sr5  1  0.02189111  0.83984806  0.63976118  1
  Sr  Sr6  1  0.36210192  0.17132401  0.08705540  1
  Sr  Sr7  1  0.32097985  0.16497660  0.63785398  1
  Sr  Sr8  1  0.34158295  0.48248367  0.14058179  1
  Sr  Sr9  1  0.36892290  0.49500257  0.64745836  1
  Sr  Sr10  1  0.34362627  0.84807219  0.13896300  1
  Sr  Sr11  1  0.33994377  0.82271606  0.59634784  1
  Sr  Sr12  1  0.66285235  0.15930232  0.15047854  1
  Sr  Sr13  1  0.67537317  0.17541722  0.65185599  1
  Sr  Sr14  1  0.68956357  0.51480496  0.13740505  1
  Sr  Sr15  1  0.67261137  0.49028225  0.58407356  1
  Sr  Sr16  1  0.69213508  0.84338369  0.09513165  1
  Sr  Sr17  1  0.66525785  0.83273763  0.63520454  1
  Sr  Sr18  1  0.14441840  0.01962949  0.13264520  1
  Sr  Sr19  1  0.17009482  0.00213214  0.65771483  1
  Sr  Sr20  1  0.15783783  0.34003250  0.13444625  1
  Sr  Sr21  1  0.13805391  0.32292176  0.59714290  1
  Sr  Sr22  1  0.16548068  0.67195404  0.08734985  1
  Sr  Sr23  1  0.14690586  0.66398939  0.63215497  1
  Sr  Sr24  1  0.51136579  -0.00150475  0.13709872  1
  Sr  Sr25  1  0.47938611  -0.01298371  0.57730213  1
  Sr  Sr26  1  0.48824697  0.34312422  0.09256430  1
  Sr  Sr27  1  0.49064710  0.31665902  0.63836235  1
  Sr  Sr28  1  0.48327754  0.66785978  0.15202282  1
  Sr  Sr29  1  0.49149749  0.67658805  0.64956120  1
  Sr  Sr30  1  0.83139217  0.00095168  0.08742456  1
  Sr  Sr31  1  0.83349732  -0.00502786  0.63159866  1
  Sr  Sr32  1  0.81184139  0.32453370  0.14093784  1
  Sr  Sr33  1  0.82172425  0.34024464  0.64038888  1
  Sr  Sr34  1  0.83657991  0.67723415  0.13756988  1
  Sr  Sr35  1  0.79720955  0.66411831  0.59525589  1
  Sr  Sr36  1  0.00860245  0.17872087  0.36095793  1
  Sr  Sr37  1  -0.00378025  0.15951943  0.91288505  1
  Sr  Sr38  1  0.03605558  0.50281172  0.40688773  1
  Sr  Sr39  1  0.00443701  0.50060699  0.85908313  1
  Sr  Sr40  1  0.01083913  0.82714902  0.36177007  1
  Sr  Sr41  1  0.02511894  0.83528194  0.84507015  1
  Sr  Sr42  1  0.35387502  0.17429387  0.42334600  1
  Sr  Sr43  1  0.33691018  0.16202697  0.86091652  1
  Sr  Sr44  1  0.34555599  0.48992041  0.35098986  1
  Sr  Sr45  1  0.36619383  0.49273078  0.86105787  1
  Sr  Sr46  1  0.34541949  0.84123172  0.36636904  1
  Sr  Sr47  1  0.34101626  0.82440070  0.90573938  1
  Sr  Sr48  1  0.66531992  0.16425402  0.34994210  1
  Sr  Sr49  1  0.67434235  0.17087861  0.84347756  1
  Sr  Sr50  1  0.68225466  0.50227813  0.36982142  1
  Sr  Sr51  1  0.67554564  0.48729076  0.92034495  1
  Sr  Sr52  1  0.69366212  0.84764913  0.41633102  1
  Sr  Sr53  1  0.66626333  0.83243117  0.86876711  1
  Sr  Sr54  1  0.15789440  -0.01074100  0.33345911  1
  Sr  Sr55  1  0.16107660  0.01103552  0.86413898  1
  Sr  Sr56  1  0.16098764  0.33759809  0.36934126  1
  Sr  Sr57  1  0.12990806  0.33764245  0.88958800  1
  Sr  Sr58  1  0.16231000  0.67440707  0.41661157  1
  Sr  Sr59  1  0.14695747  0.66539377  0.87063951  1
  Sr  Sr60  1  0.50218049  0.00330485  0.36523528  1
  Sr  Sr61  1  0.48255783  -0.01409086  0.91666470  1
  Sr  Sr62  1  0.49058416  0.34446394  0.41105224  1
  Sr  Sr63  1  0.49039009  0.32250420  0.86508210  1
  Sr  Sr64  1  0.47620867  0.66664910  0.34773414  1
  Sr  Sr65  1  0.49242757  0.67692705  0.85104502  1
  Sr  Sr66  1  0.84423148  0.00378978  0.41456591  1
  Sr  Sr67  1  0.82860337  -0.00487884  0.86505262  1
  Sr  Sr68  1  0.81224805  0.33009869  0.35344318  1
  Sr  Sr69  1  0.82223977  0.33731887  0.86072890  1
  Sr  Sr70  1  0.83594238  0.67469797  0.35890488  1
  Sr  Sr71  1  0.80246882  0.66091587  0.90838170  1
  Ta  Ta72  1  0.18857222  0.17257447  -0.00570605  1
  Ta  Ta73  1  0.16801182  0.12587240  0.49798621  1
  Ta  Ta74  1  0.21224594  0.49611389  -0.00768480  1
  Ta  Ta75  1  0.21668995  0.49813816  0.50287101  1
  Ta  Ta76  1  0.16350985  0.86197267  -0.00037661  1
  Ta  Ta77  1  0.16954110  0.86846901  0.49508482  1
  Ta  Ta78  1  0.54247558  0.16260855  -0.00980709  1
  Ta  Ta79  1  0.54191248  0.16491513  0.50261528  1
  Ta  Ta80  1  0.50264856  0.54157518  -0.00013949  1
  Ta  Ta81  1  0.49957522  0.53955358  0.49545272  1
  Ta  Ta82  1  0.51257630  0.80219322  0.00962243  1
  Ta  Ta83  1  0.51354709  0.80093860  0.49212480  1
  Ta  Ta84  1  0.80283436  0.17877724  -0.00382199  1
  Ta  Ta85  1  0.80795322  0.18292417  0.50325518  1
  Ta  Ta86  1  0.86234056  0.48914006  0.00175619  1
  Ta  Ta87  1  0.86056441  0.49741286  0.49661110  1
  Ta  Ta88  1  0.88244716  0.82668160  -0.00704763  1
  Ta  Ta89  1  0.87855650  0.82311830  0.50241392  1
  Ta  Ta90  1  0.21983822  0.17711053  0.25336340  1
  Ta  Ta91  1  0.13416087  0.18500028  0.74700796  1
  Ta  Ta92  1  0.16706117  0.53037482  0.24994845  1
  Ta  Ta93  1  0.19654055  0.49249971  0.75572283  1
  Ta  Ta94  1  0.17667768  0.79055162  0.25258429  1
  Ta  Ta95  1  0.21802385  0.82716784  0.75525785  1
  Ta  Ta96  1  0.47980764  0.19239755  0.25794108  1
  Ta  Ta97  1  0.49559634  0.10808500  0.75011902  1
  Ta  Ta98  1  0.52203309  0.47670520  0.25187688  1
  Ta  Ta99  1  0.55349366  0.50143606  0.75538701  1
  Ta  Ta100  1  0.56138639  0.83409848  0.26238703  1
  Ta  Ta101  1  0.48440739  0.86861065  0.74340442  1
  Ta  Ta102  1  0.83581731  0.12364281  0.24605390  1
  Ta  Ta103  1  0.86825730  0.16585624  0.75049526  1
  Ta  Ta104  1  0.89612506  0.50581266  0.24820578  1
  Ta  Ta105  1  0.80612409  0.52152721  0.75553697  1
  Ta  Ta106  1  0.82808900  0.86762359  0.25671521  1
  Ta  Ta107  1  0.84156717  0.79955206  0.75115345  1
  Ta  Ta108  1  -0.04148498  -0.00075183  0.24376237  1
  Ta  Ta109  1  -0.00411994  0.03868300  0.74861126  1
  Ta  Ta110  1  -0.01239074  0.37124994  0.25226134  1
  Ta  Ta111  1  -0.00776638  0.29659826  0.74655622  1
  Ta  Ta112  1  0.02695604  0.64475992  0.25439101  1
  Ta  Ta113  1  -0.05955193  0.66596185  0.75071359  1
  Ta  Ta114  1  0.33413864  0.05472910  0.25532271  1
  Ta  Ta115  1  0.35329160  -0.02557001  0.74929250  1
  Ta  Ta116  1  0.34239628  0.29715442  0.25726754  1
  Ta  Ta117  1  0.27775825  0.33633833  0.75625387  1
  Ta  Ta118  1  0.28795716  0.66537775  0.25470541  1
  Ta  Ta119  1  0.30904984  0.67290170  0.75138884  1
  Ta  Ta120  1  0.69911849  -0.02044944  0.25833755  1
  Ta  Ta121  1  0.61509868  -0.00512970  0.74710427  1
  Ta  Ta122  1  0.61625704  0.33662781  0.25503022  1
  Ta  Ta123  1  0.65911643  0.37410085  0.74603203  1
  Ta  Ta124  1  0.65833568  0.69998986  0.25867667  1
  Ta  Ta125  1  0.67216746  0.62704105  0.75197901  1
  Ta  Ta126  1  0.00379179  -0.03537892  -0.00578064  1
  Ta  Ta127  1  0.03180964  -0.01343777  0.50159263  1
  Ta  Ta128  1  -0.04109703  0.34231058  -0.00176722  1
  Ta  Ta129  1  -0.04710476  0.34182976  0.49637834  1
  Ta  Ta130  1  -0.02075495  0.68742467  -0.01022002  1
  Ta  Ta131  1  -0.02714265  0.67030591  0.50215826  1
  Ta  Ta132  1  0.29617259  0.00140431  0.00577405  1
  Ta  Ta133  1  0.28678900  -0.00126340  0.49147378  1
  Ta  Ta134  1  0.30023547  0.33611813  -0.01649913  1
  Ta  Ta135  1  0.31390365  0.35777911  0.50589390  1
  Ta  Ta136  1  0.34887243  0.64171376  0.00366903  1
  Ta  Ta137  1  0.34479797  0.63761601  0.49622460  1
  Ta  Ta138  1  0.66051620  0.04139752  -0.00761211  1
  Ta  Ta139  1  0.66338153  0.03962495  0.50165412  1
  Ta  Ta140  1  0.66239954  0.29677810  -0.00067060  1
  Ta  Ta141  1  0.66721015  0.30177920  0.49966515  1
  Ta  Ta142  1  0.62034615  0.67242001  0.00485310  1
  Ta  Ta143  1  0.61870002  0.66976912  0.49338194  1
  N  N144  1  0.51775499  0.50598424  0.87807603  1
  N  N145  1  0.83164206  0.16324492  0.87477973  1
  N  N146  1  0.00316203  0.66481115  0.38145828  1
  N  N147  1  0.50369993  0.17209474  0.37817171  1
  N  N148  1  0.32491930  0.66428660  0.37791906  1
  N  N149  1  0.18505920  0.50335147  0.12095383  1
  N  N150  1  0.18652266  0.50307256  0.37585344  1
  N  N151  1  0.16274719  0.16847074  0.87525958  1
  N  N152  1  0.00641604  0.00001861  0.62184965  1
  N  N153  1  -0.00080630  0.00032345  0.87005605  1
  N  N154  1  -0.00946341  -0.00251598  0.12120091  1
  N  N155  1  0.50795186  0.84490135  0.37352977  1
  N  N156  1  0.32936442  0.00964366  0.37094879  1
  N  N157  1  0.16380340  0.50791706  0.87356123  1
  N  N158  1  0.50004389  0.15153940  0.86851814  1
  N  N159  1  -0.00740413  0.33563675  0.37341820  1
  N  N160  1  0.50907706  0.50252439  0.37460224  1
  N  N161  1  -0.02243852  0.32928685  0.87676810  1
  N  N162  1  0.65742747  0.33876504  0.62571963  1
  N  N163  1  0.17076737  0.83432078  0.37396131  1
  N  N164  1  0.49692156  0.83378439  0.62317030  1
  N  N165  1  -0.01225543  0.66292724  0.86707246  1
  N  N166  1  0.33227077  0.32958743  0.38123359  1
  N  N167  1  0.82771756  0.16027575  0.12706014  1
  N  N168  1  0.82947968  0.50255104  0.87814260  1
  N  N169  1  0.84681481  0.83825418  0.37902991  1
  N  N170  1  0.16140488  0.16061512  0.61882129  1
  N  N171  1  0.33480902  0.32264091  0.86120803  1
  N  N172  1  -0.01689692  0.33018529  0.62231051  1
  N  N173  1  0.82978304  0.16733172  0.62335088  1
  N  N174  1  0.67570899  0.00333808  0.37990344  1
  N  N175  1  0.65371395  0.33318631  0.37441118  1
  N  N176  1  0.18115614  0.83678621  0.87760956  1
  O  O177  1  0.83750223  0.82110644  0.62529854  1
  O  O178  1  0.50192369  0.15623394  0.62688730  1
  O  O179  1  0.30960329  0.00945612  0.13130766  1
  O  O180  1  0.84792995  0.52340419  0.12590830  1
  O  O181  1  0.50827438  0.16346907  0.11892955  1
  O  O182  1  0.65057512  0.65939827  0.62580745  1
  O  O183  1  0.33424779  0.66265752  0.88032954  1
  O  O184  1  0.32692439  0.66392611  0.62739191  1
  O  O185  1  0.33185151  0.65125695  0.12864547  1
  O  O186  1  0.67072632  0.00272849  0.11696329  1
  O  O187  1  0.63997862  -0.00799788  0.87509051  1
  O  O188  1  0.16809087  0.82607574  0.12738299  1
  O  O189  1  0.68132676  0.67579013  0.38292565  1
  O  O190  1  0.32939585  -0.01195700  0.61859016  1
  O  O191  1  0.84748467  0.83322299  0.12005835  1
  O  O192  1  0.63928121  -0.00750236  0.62030256  1
  O  O193  1  0.50829078  0.50529013  0.12347218  1
  O  O194  1  0.64939738  0.31388203  0.12534215  1
  O  O195  1  0.16998735  0.50953345  0.62378413  1
  O  O196  1  -0.00778977  0.65058055  0.63490557  1
  O  O197  1  0.16972266  0.16868014  0.37352456  1
  O  O198  1  0.50013099  0.82872956  0.88236811  1
  O  O199  1  0.32382349  0.32362117  0.63123261  1
  O  O200  1  0.85478041  0.51149359  0.36719216  1
  O  O201  1  0.00439031  0.66911553  0.12541815  1
  O  O202  1  0.32833925  -0.01041875  0.88288152  1
  O  O203  1  0.51721282  0.51260494  0.62251949  1
  O  O204  1  0.83161563  0.50593005  0.61896881  1
  O  O205  1  0.52076759  0.83341706  0.13352009  1
  O  O206  1  -0.01192658  0.33010936  0.13084498  1
  O  O207  1  0.18334598  0.84323594  0.63200792  1
  O  O208  1  0.65068389  0.66974227  0.87220517  1
  O  O209  1  0.33553926  0.32490465  0.10968470  1
  O  O210  1  0.64720863  0.67652729  0.13569510  1
  O  O211  1  0.66198421  0.33041504  0.87499255  1
  O  O212  1  0.00135252  -0.00721611  0.36752811  1
  O  O213  1  0.82539614  0.16526076  0.36762136  1
  O  O214  1  0.82364491  0.82028890  0.87583547  1
  O  O215  1  0.18354256  0.17792931  0.13121866  1
