# generated using pymatgen
data_Sr24Ta24N11O13
_symmetry_space_group_name_H-M   'P 1'
_cell_length_a   16.76861231
_cell_length_b   16.78863100
_cell_length_c   15.71912441
_cell_angle_alpha   89.96758810
_cell_angle_beta   90.21501154
_cell_angle_gamma   90.28445716
_symmetry_Int_Tables_number   1
_chemical_formula_structural   Sr24Ta24N11O13
_chemical_formula_sum   'Sr72 Ta72 N33 O39'
_cell_volume   4425.19368113
_cell_formula_units_Z   3
loop_
 _symmetry_equiv_pos_site_id
 _symmetry_equiv_pos_as_xyz
  1  'x, y, z'
loop_
 _atom_site_type_symbol
 _atom_site_label
 _atom_site_symmetry_multiplicity
 _atom_site_fract_x
 _atom_site_fract_y
 _atom_site_fract_z
 _atom_site_occupancy
  Sr  Sr0  1  -0.00467089  0.16998667  0.15891872  1
  Sr  Sr1  1  0.01131156  0.15086791  0.64137398  1
  Sr  Sr2  1  -0.00395597  0.47936580  0.07689477  1
  Sr  Sr3  1  -0.00640399  0.52902285  0.63728434  1
  Sr  Sr4  1  -0.01827760  0.83108847  0.13813539  1
  Sr  Sr5  1  0.01315795  0.83792764  0.58572003  1
  Sr  Sr6  1  0.32656150  0.14626308  0.08660307  1
  Sr  Sr7  1  0.35683322  0.17241095  0.63289646  1
  Sr  Sr8  1  0.31937801  0.48543756  0.13579878  1
  Sr  Sr9  1  0.35187144  0.48917124  0.59798153  1
  Sr  Sr10  1  0.34318801  0.82995025  0.16506745  1
  Sr  Sr11  1  0.32980909  0.82732529  0.62155649  1
  Sr  Sr12  1  0.66006612  0.14893512  0.13300522  1
  Sr  Sr13  1  0.67780310  0.18233962  0.58177781  1
  Sr  Sr14  1  0.67108292  0.50602433  0.12168426  1
  Sr  Sr15  1  0.66526545  0.49615969  0.66536482  1
  Sr  Sr16  1  0.64474797  0.82828612  0.08170694  1
  Sr  Sr17  1  0.68243729  0.83455422  0.63438479  1
  Sr  Sr18  1  0.17162408  0.00232451  0.09404175  1
  Sr  Sr19  1  0.16838719  0.00466450  0.62202213  1
  Sr  Sr20  1  0.16208439  0.33125325  0.12281430  1
  Sr  Sr21  1  0.13355641  0.36057148  0.63809869  1
  Sr  Sr22  1  0.14318395  0.68255871  0.11116705  1
  Sr  Sr23  1  0.17715603  0.67020285  0.66512015  1
  Sr  Sr24  1  0.50196745  -0.00007685  0.11670783  1
  Sr  Sr25  1  0.50362853  -0.01555759  0.67144852  1
  Sr  Sr26  1  0.50405124  0.34591505  0.17294292  1
  Sr  Sr27  1  0.50267523  0.32873928  0.61788445  1
  Sr  Sr28  1  0.51310574  0.66239033  0.10819605  1
  Sr  Sr29  1  0.48770184  0.67301113  0.59244652  1
  Sr  Sr30  1  0.84915399  0.00162054  0.14608029  1
  Sr  Sr31  1  0.82212160  0.00793612  0.63454807  1
  Sr  Sr32  1  0.82446698  0.34545477  0.10957499  1
  Sr  Sr33  1  0.83031390  0.32996825  0.60123228  1
  Sr  Sr34  1  0.82656238  0.66800134  0.15776020  1
  Sr  Sr35  1  0.83501127  0.67705732  0.61361258  1
  Sr  Sr36  1  0.01299535  0.16254905  0.35926215  1
  Sr  Sr37  1  -0.00651234  0.15646385  0.84142901  1
  Sr  Sr38  1  -0.01174616  0.48486340  0.42321154  1
  Sr  Sr39  1  0.01089412  0.50564010  0.86134121  1
  Sr  Sr40  1  -0.00450437  0.82132460  0.35973610  1
  Sr  Sr41  1  0.01933515  0.84502680  0.92877113  1
  Sr  Sr42  1  0.33019421  0.14963972  0.40577956  1
  Sr  Sr43  1  0.35765557  0.16416467  0.87272224  1
  Sr  Sr44  1  0.32274495  0.48030663  0.37063226  1
  Sr  Sr45  1  0.34179387  0.50730322  0.90238956  1
  Sr  Sr46  1  0.34082398  0.83122555  0.37690671  1
  Sr  Sr47  1  0.32657698  0.83112423  0.83278957  1
  Sr  Sr48  1  0.64810563  0.15552281  0.36441774  1
  Sr  Sr49  1  0.67810534  0.17152387  0.91340080  1
  Sr  Sr50  1  0.67700399  0.50569959  0.33404253  1
  Sr  Sr51  1  0.66286738  0.49839069  0.87715836  1
  Sr  Sr52  1  0.66731677  0.81449434  0.41330304  1
  Sr  Sr53  1  0.66651837  0.84229796  0.86008992  1
  Sr  Sr54  1  0.17713907  -0.00334681  0.41268580  1
  Sr  Sr55  1  0.16781574  0.00713094  0.87723562  1
  Sr  Sr56  1  0.15109873  0.34077997  0.35528200  1
  Sr  Sr57  1  0.14896729  0.34340260  0.88394473  1
  Sr  Sr58  1  0.17724000  0.67168323  0.32276854  1
  Sr  Sr59  1  0.16234762  0.67327414  0.87871111  1
  Sr  Sr60  1  0.49175474  -0.00561000  0.33606401  1
  Sr  Sr61  1  0.51137839  -0.00257582  0.88727435  1
  Sr  Sr62  1  0.49474091  0.31756525  0.39253646  1
  Sr  Sr63  1  0.49735635  0.34520976  0.82906789  1
  Sr  Sr64  1  0.50305685  0.67832252  0.38958823  1
  Sr  Sr65  1  0.50999895  0.65522843  0.90884803  1
  Sr  Sr66  1  0.81421162  0.01585273  0.36274911  1
  Sr  Sr67  1  0.84268224  -0.00000011  0.86393391  1
  Sr  Sr68  1  0.83344972  0.34032108  0.38818045  1
  Sr  Sr69  1  0.81588321  0.33459820  0.90374816  1
  Sr  Sr70  1  0.83738312  0.67010241  0.38226472  1
  Sr  Sr71  1  0.82020551  0.66268449  0.82531691  1
  Ta  Ta72  1  0.12102070  0.17039276  -0.00167947  1
  Ta  Ta73  1  0.16235109  0.19829702  0.50509481  1
  Ta  Ta74  1  0.17339496  0.51421043  0.00005179  1
  Ta  Ta75  1  0.16736412  0.53819237  0.49877652  1
  Ta  Ta76  1  0.22081524  0.83468897  -0.00269981  1
  Ta  Ta77  1  0.17626921  0.78780581  0.49425054  1
  Ta  Ta78  1  0.50409336  0.21722924  0.00253153  1
  Ta  Ta79  1  0.50379693  0.11478323  0.50487192  1
  Ta  Ta80  1  0.49882215  0.45889092  -0.00113517  1
  Ta  Ta81  1  0.54232385  0.50048502  0.50390159  1
  Ta  Ta82  1  0.45401750  0.83026676  -0.00444844  1
  Ta  Ta83  1  0.50175748  0.87763884  0.50491420  1
  Ta  Ta84  1  0.86030178  0.15376219  0.00314982  1
  Ta  Ta85  1  0.86998975  0.15746380  0.49800339  1
  Ta  Ta86  1  0.83382640  0.53822571  -0.00586184  1
  Ta  Ta87  1  0.79294331  0.50543173  0.50668169  1
  Ta  Ta88  1  0.82419798  0.81483840  -0.00068188  1
  Ta  Ta89  1  0.84383731  0.86772379  0.49652576  1
  Ta  Ta90  1  0.18916751  0.14852742  0.24898129  1
  Ta  Ta91  1  0.19348867  0.18195189  0.75565707  1
  Ta  Ta92  1  0.10014950  0.49888583  0.24758469  1
  Ta  Ta93  1  0.21632488  0.49927232  0.75501531  1
  Ta  Ta94  1  0.16786790  0.87580333  0.24782481  1
  Ta  Ta95  1  0.13498886  0.84445350  0.75633455  1
  Ta  Ta96  1  0.45890188  0.16860140  0.25452696  1
  Ta  Ta97  1  0.55064033  0.16650155  0.74650704  1
  Ta  Ta98  1  0.48836213  0.52984147  0.25366888  1
  Ta  Ta99  1  0.48783299  0.53408320  0.74984630  1
  Ta  Ta100  1  0.53054753  0.82068985  0.24373916  1
  Ta  Ta101  1  0.49877520  0.78766187  0.75617551  1
  Ta  Ta102  1  0.82004847  0.20065547  0.24657944  1
  Ta  Ta103  1  0.81125346  0.18548555  0.75450625  1
  Ta  Ta104  1  0.88125413  0.49655521  0.24981357  1
  Ta  Ta105  1  0.83798820  0.46235395  0.74630319  1
  Ta  Ta106  1  0.78366403  0.83510727  0.24460168  1
  Ta  Ta107  1  0.87954103  0.83930756  0.74584333  1
  Ta  Ta108  1  0.04947110  -0.00512872  0.24642229  1
  Ta  Ta109  1  0.00635012  -0.04337826  0.75501036  1
  Ta  Ta110  1  -0.02062576  0.35804682  0.24663651  1
  Ta  Ta111  1  -0.04410541  0.33309018  0.75709917  1
  Ta  Ta112  1  -0.00428122  0.62381095  0.24218904  1
  Ta  Ta113  1  0.00437653  0.72755343  0.75361829  1
  Ta  Ta114  1  0.30716420  0.01418728  0.24916995  1
  Ta  Ta115  1  0.32070141  0.01367025  0.75365246  1
  Ta  Ta116  1  0.32324814  0.28005296  0.24879366  1
  Ta  Ta117  1  0.30220191  0.34127688  0.75599415  1
  Ta  Ta118  1  0.36597473  0.64602986  0.24774092  1
  Ta  Ta119  1  0.36157780  0.64690418  0.75492452  1
  Ta  Ta120  1  0.66313714  -0.04777766  0.24681261  1
  Ta  Ta121  1  0.67152520  0.04874173  0.75608379  1
  Ta  Ta122  1  0.68531711  0.31816859  0.25561649  1
  Ta  Ta123  1  0.68285436  0.30915485  0.74737876  1
  Ta  Ta124  1  0.65574153  0.69458070  0.24801905  1
  Ta  Ta125  1  0.62693161  0.67013187  0.74509829  1
  Ta  Ta126  1  -0.00250738  0.03603104  0.00193039  1
  Ta  Ta127  1  -0.02672940  0.00915469  0.49395223  1
  Ta  Ta128  1  -0.00711553  0.28780808  -0.00026672  1
  Ta  Ta129  1  0.00481074  0.29290354  0.49755897  1
  Ta  Ta130  1  -0.05347990  0.66534694  -0.00150456  1
  Ta  Ta131  1  0.05783059  0.66618166  0.49360327  1
  Ta  Ta132  1  0.33950103  -0.04307209  -0.00061309  1
  Ta  Ta133  1  0.37387223  -0.01093520  0.50195940  1
  Ta  Ta134  1  0.37887444  0.33068021  0.00349679  1
  Ta  Ta135  1  0.28393808  0.31531613  0.50197284  1
  Ta  Ta136  1  0.32827664  0.69503619  -0.00183091  1
  Ta  Ta137  1  0.28667773  0.65906483  0.49467417  1
  Ta  Ta138  1  0.70607208  -0.00678265  0.00327790  1
  Ta  Ta139  1  0.63458665  -0.00853093  0.49702512  1
  Ta  Ta140  1  0.62281949  0.33860136  -0.00198028  1
  Ta  Ta141  1  0.66315934  0.37726276  0.49910577  1
  Ta  Ta142  1  0.70917117  0.66750048  -0.00686872  1
  Ta  Ta143  1  0.67004063  0.62645366  0.50201591  1
  N  N144  1  -0.00718272  0.32661117  0.12457301  1
  N  N145  1  0.33460861  0.66550169  0.87750357  1
  N  N146  1  0.49535926  0.82651552  0.87297972  1
  N  N147  1  0.66155097  0.33573382  0.37622091  1
  N  N148  1  0.51644961  0.15920013  0.62279941  1
  N  N149  1  0.82475106  0.83083470  0.12420274  1
  N  N150  1  0.65656070  -0.01238222  0.37437970  1
  N  N151  1  0.66412310  0.33719591  0.62591274  1
  N  N152  1  0.66957712  0.66164796  0.37473597  1
  N  N153  1  0.17176288  0.83782043  0.87767848  1
  N  N154  1  -0.01329741  0.66394934  0.11709551  1
  N  N155  1  0.82797319  0.17361147  0.12772563  1
  N  N156  1  0.65588365  0.33599860  0.87752921  1
  N  N157  1  0.01027249  0.00183658  0.12825769  1
  N  N158  1  0.00505971  -0.00421923  0.87585630  1
  N  N159  1  0.66568094  0.66904156  0.62711408  1
  N  N160  1  0.50035514  0.49596945  0.87791479  1
  N  N161  1  -0.01174163  0.32994567  0.87582366  1
  N  N162  1  0.83151297  0.16933272  0.87506480  1
  N  N163  1  0.66955953  0.66750618  0.87484132  1
  N  N164  1  0.50499926  0.50240959  0.62483807  1
  N  N165  1  0.48927317  0.15339122  0.37353717  1
  N  N166  1  0.33610538  -0.00787913  0.13054790  1
  N  N167  1  0.17264775  0.51048556  0.87625778  1
  N  N168  1  -0.00370904  0.32522434  0.37886567  1
  N  N169  1  0.66770942  -0.00647143  0.12089691  1
  N  N170  1  0.33968010  0.00152619  0.87263933  1
  N  N171  1  0.49442504  0.82940833  0.12613423  1
  N  N172  1  0.66989572  0.66436749  0.12283553  1
  N  N173  1  0.67600588  0.00927957  0.87692715  1
  N  N174  1  0.84341305  0.84474505  0.61783478  1
  N  N175  1  0.83336599  0.50210478  0.62756608  1
  N  N176  1  0.33530356  -0.00878814  0.38061116  1
  O  O177  1  0.33107092  0.30557017  0.12154191  1
  O  O178  1  0.14925622  0.49595358  0.12805812  1
  O  O179  1  0.02453429  0.66575045  0.36771348  1
  O  O180  1  0.83244768  0.51015932  0.86759227  1
  O  O181  1  -0.00446767  -0.00329854  0.62089925  1
  O  O182  1  0.84032319  0.50277582  0.37407864  1
  O  O183  1  0.14481224  0.50999296  0.37224961  1
  O  O184  1  0.16847274  0.16291579  0.12192159  1
  O  O185  1  0.85172717  0.17094194  0.37274095  1
  O  O186  1  0.17133127  0.82421079  0.61965084  1
  O  O187  1  0.50320672  0.51939617  0.37737593  1
  O  O188  1  0.30857023  0.30733115  0.37187356  1
  O  O189  1  0.17131229  0.17913318  0.88057576  1
  O  O190  1  0.33188370  0.65081323  0.37190612  1
  O  O191  1  0.17044448  0.16349113  0.37515004  1
  O  O192  1  0.33630913  0.33377917  0.87724451  1
  O  O193  1  0.83990195  0.50935545  0.12407199  1
  O  O194  1  0.66596916  -0.00362805  0.63855389  1
  O  O195  1  0.17045101  0.17651558  0.63419316  1
  O  O196  1  0.83661517  0.83458935  0.86582428  1
  O  O197  1  0.82527356  0.83509780  0.37251181  1
  O  O198  1  -0.00802618  0.68768827  0.87557234  1
  O  O199  1  0.18541650  0.51614203  0.63267148  1
  O  O200  1  0.17895331  0.83196116  0.37112595  1
  O  O201  1  0.50026465  0.83450000  0.38058013  1
  O  O202  1  0.84511962  0.16514519  0.62292026  1
  O  O203  1  0.00413173  0.00499514  0.37162946  1
  O  O204  1  0.02493599  0.68337470  0.63137382  1
  O  O205  1  -0.01068186  0.30900238  0.63028110  1
  O  O206  1  0.49671496  0.19148160  0.12896270  1
  O  O207  1  0.35250755  0.65853309  0.12460923  1
  O  O208  1  0.18393505  0.83829014  0.12640366  1
  O  O209  1  0.51156201  0.19157516  0.87213425  1
  O  O210  1  0.65563327  0.34544430  0.13376591  1
  O  O211  1  0.32862256  0.66497524  0.61767474  1
  O  O212  1  0.29513612  0.33628793  0.62380748  1
  O  O213  1  0.32730539  -0.01134036  0.62392469  1
  O  O214  1  0.49498294  0.49967686  0.12872473  1
  O  O215  1  0.49299123  0.83342789  0.62744749  1
