# generated using pymatgen
data_Sr24Ta24N11O13
_symmetry_space_group_name_H-M   'P 1'
_cell_length_a   16.84049290
_cell_length_b   16.79269075
_cell_length_c   15.71514153
_cell_angle_alpha   89.73454633
_cell_angle_beta   90.21646313
_cell_angle_gamma   90.01103525
_symmetry_Int_Tables_number   1
_chemical_formula_structural   Sr24Ta24N11O13
_chemical_formula_sum   'Sr72 Ta72 N33 O39'
_cell_volume   4444.11837294
_cell_formula_units_Z   3
loop_
 _symmetry_equiv_pos_site_id
 _symmetry_equiv_pos_as_xyz
  1  'x, y, z'
loop_
 _atom_site_type_symbol
 _atom_site_label
 _atom_site_symmetry_multiplicity
 _atom_site_fract_x
 _atom_site_fract_y
 _atom_site_fract_z
 _atom_site_occupancy
  Sr  Sr0  1  0.01094886  0.15568667  0.12216068  1
  Sr  Sr1  1  0.01780941  0.15059837  0.60735168  1
  Sr  Sr2  1  0.00345344  0.50360123  0.11046461  1
  Sr  Sr3  1  -0.01126240  0.49254824  0.64241125  1
  Sr  Sr4  1  0.01873347  0.82722040  0.16988671  1
  Sr  Sr5  1  -0.00647552  0.83457205  0.61299026  1
  Sr  Sr6  1  0.34777471  0.16032973  0.16052334  1
  Sr  Sr7  1  0.33229318  0.17427268  0.61973929  1
  Sr  Sr8  1  0.34402287  0.49531149  0.12338309  1
  Sr  Sr9  1  0.35527578  0.49953199  0.66170634  1
  Sr  Sr10  1  0.32004271  0.84235171  0.08363238  1
  Sr  Sr11  1  0.34159299  0.82401800  0.62691982  1
  Sr  Sr12  1  0.66770764  0.16629290  0.11237790  1
  Sr  Sr13  1  0.66783445  0.17990641  0.63536806  1
  Sr  Sr14  1  0.67533531  0.48883675  0.11960861  1
  Sr  Sr15  1  0.65913017  0.51241286  0.58468478  1
  Sr  Sr16  1  0.66515327  0.83392365  0.11987004  1
  Sr  Sr17  1  0.66106112  0.81049565  0.66770709  1
  Sr  Sr18  1  0.16588794  0.00466941  0.12119180  1
  Sr  Sr19  1  0.17636430  -0.00408001  0.66802582  1
  Sr  Sr20  1  0.14469598  0.32391047  0.08687444  1
  Sr  Sr21  1  0.15084209  0.34075952  0.62061780  1
  Sr  Sr22  1  0.17382478  0.65282996  0.13395465  1
  Sr  Sr23  1  0.15827472  0.67833913  0.57903537  1
  Sr  Sr24  1  0.50957137  -0.00484229  0.13676307  1
  Sr  Sr25  1  0.48388133  0.00857329  0.57674564  1
  Sr  Sr26  1  0.49343819  0.33576469  0.10823166  1
  Sr  Sr27  1  0.47991437  0.32262577  0.66376837  1
  Sr  Sr28  1  0.49934805  0.66238004  0.16460050  1
  Sr  Sr29  1  0.49184722  0.66548823  0.61655078  1
  Sr  Sr30  1  0.83712429  0.01967255  0.08974835  1
  Sr  Sr31  1  0.81033057  0.02078314  0.62539182  1
  Sr  Sr32  1  0.83668409  0.33324653  0.17137263  1
  Sr  Sr33  1  0.80961644  0.35515566  0.61251425  1
  Sr  Sr34  1  0.81849655  0.67433216  0.09861581  1
  Sr  Sr35  1  0.84033798  0.68420343  0.64947955  1
  Sr  Sr36  1  0.01174096  0.15938971  0.36994743  1
  Sr  Sr37  1  0.01977855  0.15041768  0.90848955  1
  Sr  Sr38  1  0.01205285  0.48818278  0.38575060  1
  Sr  Sr39  1  -0.00670118  0.50272581  0.87337110  1
  Sr  Sr40  1  0.00696955  0.82688254  0.38281470  1
  Sr  Sr41  1  0.00295172  0.83641886  0.83464252  1
  Sr  Sr42  1  0.34022126  0.15734148  0.37633243  1
  Sr  Sr43  1  0.34058197  0.16808778  0.84565395  1
  Sr  Sr44  1  0.34406962  0.50878399  0.33569847  1
  Sr  Sr45  1  0.34829922  0.49424337  0.87747298  1
  Sr  Sr46  1  0.34715564  0.81868935  0.41929862  1
  Sr  Sr47  1  0.32924234  0.83382900  0.87105999  1
  Sr  Sr48  1  0.67791210  0.15479469  0.39710649  1
  Sr  Sr49  1  0.65989378  0.17861775  0.86867743  1
  Sr  Sr50  1  0.66996777  0.49890051  0.38425096  1
  Sr  Sr51  1  0.66790411  0.50293529  0.91093555  1
  Sr  Sr52  1  0.64677701  0.82920641  0.32818808  1
  Sr  Sr53  1  0.67926200  0.82523405  0.88466318  1
  Sr  Sr54  1  0.16203622  0.00933263  0.32794759  1
  Sr  Sr55  1  0.16986913  -0.00078382  0.87871556  1
  Sr  Sr56  1  0.16514508  0.31448427  0.41558391  1
  Sr  Sr57  1  0.14255958  0.33940484  0.87886626  1
  Sr  Sr58  1  0.16200493  0.66140955  0.36354719  1
  Sr  Sr59  1  0.17812270  0.66502247  0.91355651  1
  Sr  Sr60  1  0.50424910  0.00719939  0.36453106  1
  Sr  Sr61  1  0.50059980  -0.01896017  0.91222312  1
  Sr  Sr62  1  0.46208241  0.33202410  0.34797412  1
  Sr  Sr63  1  0.50153428  0.33474492  0.88387653  1
  Sr  Sr64  1  0.50412534  0.65522426  0.38389848  1
  Sr  Sr65  1  0.47998989  0.68048109  0.82917161  1
  Sr  Sr66  1  0.85196202  0.00376733  0.41853163  1
  Sr  Sr67  1  0.82604800  0.01805396  0.88044178  1
  Sr  Sr68  1  0.81543201  0.35061367  0.37934221  1
  Sr  Sr69  1  0.82726057  0.33579085  0.83286467  1
  Sr  Sr70  1  0.82703820  0.70033525  0.36505486  1
  Sr  Sr71  1  0.84572419  0.66621866  0.87293348  1
  Ta  Ta72  1  0.21289524  0.16407209  -0.00045244  1
  Ta  Ta73  1  0.17563496  0.12565039  0.49813132  1
  Ta  Ta74  1  0.18565598  0.48967731  -0.00033580  1
  Ta  Ta75  1  0.21609524  0.49777431  0.49948226  1
  Ta  Ta76  1  0.12373003  0.83313253  0.00215429  1
  Ta  Ta77  1  0.17025541  0.87189712  0.49320118  1
  Ta  Ta78  1  0.47555573  0.15886620  -0.00062917  1
  Ta  Ta79  1  0.50611978  0.19928726  0.50073848  1
  Ta  Ta80  1  0.49951263  0.54385986  -0.00467323  1
  Ta  Ta81  1  0.47931766  0.47159717  0.50153061  1
  Ta  Ta82  1  0.49740480  0.79396277  0.00467907  1
  Ta  Ta83  1  0.54438947  0.83030136  0.50180800  1
  Ta  Ta84  1  0.83617153  0.21650397  0.00128834  1
  Ta  Ta85  1  0.85849254  0.19396649  0.50169353  1
  Ta  Ta86  1  0.83701092  0.45165587  -0.00138845  1
  Ta  Ta87  1  0.84501834  0.54099529  0.50284502  1
  Ta  Ta88  1  0.87912438  0.84383377  0.00119411  1
  Ta  Ta89  1  0.77746246  0.83687349  0.50055822  1
  Ta  Ta90  1  0.16973379  0.20251337  0.24622423  1
  Ta  Ta91  1  0.15797230  0.18552333  0.75081824  1
  Ta  Ta92  1  0.16170888  0.44932888  0.25161720  1
  Ta  Ta93  1  0.17321031  0.52675384  0.74553066  1
  Ta  Ta94  1  0.21367684  0.83016233  0.25687906  1
  Ta  Ta95  1  0.16989626  0.79773460  0.74707890  1
  Ta  Ta96  1  0.53208999  0.17932697  0.25114153  1
  Ta  Ta97  1  0.50309123  0.11753538  0.74875840  1
  Ta  Ta98  1  0.53243155  0.48806226  0.25227204  1
  Ta  Ta99  1  0.54150421  0.50327102  0.75000471  1
  Ta  Ta100  1  0.45141549  0.83084646  0.24585454  1
  Ta  Ta101  1  0.49717711  0.87966415  0.74219252  1
  Ta  Ta102  1  0.83848317  0.13511246  0.25262527  1
  Ta  Ta103  1  0.87800823  0.16713612  0.75352949  1
  Ta  Ta104  1  0.83576503  0.52985849  0.24972959  1
  Ta  Ta105  1  0.78553007  0.51073687  0.74703747  1
  Ta  Ta106  1  0.83739718  0.87618561  0.24998559  1
  Ta  Ta107  1  0.83455041  0.87224170  0.74898521  1
  Ta  Ta108  1  -0.03975888  -0.00022691  0.24600607  1
  Ta  Ta109  1  -0.01856393  0.01442420  0.75291672  1
  Ta  Ta110  1  0.03861888  0.33185570  0.25065782  1
  Ta  Ta111  1  -0.00445569  0.28807748  0.75307208  1
  Ta  Ta112  1  -0.02982657  0.64531675  0.24687928  1
  Ta  Ta113  1  0.04812388  0.66319429  0.75108343  1
  Ta  Ta114  1  0.33757600  -0.04202304  0.25296994  1
  Ta  Ta115  1  0.36828505  -0.00408129  0.74880974  1
  Ta  Ta116  1  0.28293017  0.33322468  0.24069009  1
  Ta  Ta117  1  0.29335518  0.33390483  0.75853011  1
  Ta  Ta118  1  0.33289879  0.70635495  0.25096503  1
  Ta  Ta119  1  0.28348269  0.66602309  0.74142061  1
  Ta  Ta120  1  0.71190400  0.00924459  0.25363065  1
  Ta  Ta121  1  0.63483014  -0.00717146  0.74592708  1
  Ta  Ta122  1  0.64072533  0.32761212  0.24833090  1
  Ta  Ta123  1  0.65594084  0.37941892  0.75298169  1
  Ta  Ta124  1  0.67890181  0.63716539  0.24984389  1
  Ta  Ta125  1  0.66251500  0.62464978  0.75267658  1
  Ta  Ta126  1  0.00506171  -0.04579325  0.00151398  1
  Ta  Ta127  1  0.05725765  -0.00630462  0.49720213  1
  Ta  Ta128  1  -0.04448299  0.33208224  -0.00412416  1
  Ta  Ta129  1  -0.02629843  0.31684605  0.50247280  1
  Ta  Ta130  1  0.00096303  0.71251733  -0.00493662  1
  Ta  Ta131  1  -0.02402914  0.65137612  0.50563473  1
  Ta  Ta132  1  0.33799832  0.03355696  0.00694593  1
  Ta  Ta133  1  0.28982569  -0.00383746  0.49325891  1
  Ta  Ta134  1  0.31979944  0.31007766  -0.00274875  1
  Ta  Ta135  1  0.33686017  0.36321896  0.50839277  1
  Ta  Ta136  1  0.36839361  0.66413174  0.00554289  1
  Ta  Ta137  1  0.32980892  0.62204995  0.49747739  1
  Ta  Ta138  1  0.66463016  -0.00029224  0.00390384  1
  Ta  Ta139  1  0.66140309  -0.04281635  0.49351988  1
  Ta  Ta140  1  0.70633211  0.32914230  -0.00006757  1
  Ta  Ta141  1  0.61016884  0.33206933  0.49787292  1
  Ta  Ta142  1  0.61120921  0.66993730  -0.00131187  1
  Ta  Ta143  1  0.67599847  0.70092580  0.49542223  1
  N  N144  1  0.00260463  0.66411806  0.62717235  1
  N  N145  1  0.66844940  0.66879123  0.36857296  1
  N  N146  1  0.17083331  0.16319245  0.37408856  1
  N  N147  1  0.00086949  -0.00482425  0.12953689  1
  N  N148  1  0.50280490  0.16217505  0.62801138  1
  N  N149  1  0.33367409  0.66216620  0.37929954  1
  N  N150  1  0.50280124  0.16448005  0.37696707  1
  N  N151  1  0.67407074  -0.00555093  0.37250577  1
  N  N152  1  0.50303964  0.15551278  0.87367499  1
  N  N153  1  0.32280645  0.33805894  0.63030971  1
  N  N154  1  0.17170098  0.16378865  0.12650439  1
  N  N155  1  0.50287630  0.49668717  0.37074442  1
  N  N156  1  0.49204655  0.82930740  0.12497247  1
  N  N157  1  0.00926990  0.67343756  0.87524484  1
  N  N158  1  0.34326988  0.33809282  0.87044900  1
  N  N159  1  0.00166867  -0.00404905  0.87300519  1
  N  N160  1  0.50314954  0.83634008  0.62248795  1
  N  N161  1  0.67468166  -0.00281845  0.12474462  1
  N  N162  1  0.33356599  -0.00395427  0.37771342  1
  N  N163  1  0.16823216  0.83021110  0.37217057  1
  N  N164  1  0.32805511  0.66351100  0.62635887  1
  N  N165  1  0.32865184  0.33390897  0.12463566  1
  N  N166  1  0.33272084  0.66849852  0.12257489  1
  N  N167  1  0.50262637  0.50838407  0.87547718  1
  N  N168  1  0.17431086  0.16086205  0.87855543  1
  N  N169  1  0.50618394  0.16528219  0.12647826  1
  N  N170  1  0.50429462  0.49921830  0.62146389  1
  N  N171  1  0.33587666  0.00076644  0.12580848  1
  N  N172  1  -0.00999312  0.32820724  0.87311100  1
  N  N173  1  0.66872778  0.34390612  0.87361296  1
  N  N174  1  0.66905742  0.33234389  0.12873678  1
  N  N175  1  0.17287309  0.16085571  0.62613584  1
  N  N176  1  0.82172198  0.51448166  0.62362645  1
  O  O177  1  0.65643777  -0.00164338  0.62125138  1
  O  O178  1  0.16930523  0.82902350  0.62317157  1
  O  O179  1  0.33403488  -0.00532261  0.62419998  1
  O  O180  1  0.02257463  -0.00368494  0.62908089  1
  O  O181  1  0.82495555  0.85472911  0.37750007  1
  O  O182  1  0.84822467  0.17144244  0.37225102  1
  O  O183  1  0.00278933  0.32390606  0.37323915  1
  O  O184  1  0.85169324  0.17059471  0.88183632  1
  O  O185  1  -0.00865388  0.65650579  0.37035619  1
  O  O186  1  0.16667849  0.83115220  0.12553137  1
  O  O187  1  0.85145395  0.17220273  0.62635931  1
  O  O188  1  0.34804590  -0.00653687  0.87761569  1
  O  O189  1  0.17762365  0.50923618  0.87727399  1
  O  O190  1  0.17099098  0.47652900  0.38137160  1
  O  O191  1  0.16427751  0.48334303  0.12346128  1
  O  O192  1  0.83169155  0.51137510  0.37557445  1
  O  O193  1  0.84858551  0.84810711  0.12853849  1
  O  O194  1  0.83939388  0.17768372  0.13190813  1
  O  O195  1  0.50957711  0.50162760  0.12369366  1
  O  O196  1  0.83654632  0.49350202  0.12767064  1
  O  O197  1  0.48989585  0.83302146  0.86567556  1
  O  O198  1  -0.02004490  0.66889503  0.12251374  1
  O  O199  1  0.82793029  0.49103125  0.87116129  1
  O  O200  1  0.16709538  0.81961685  0.87829165  1
  O  O201  1  -0.00506938  0.33187392  0.12993609  1
  O  O202  1  0.65546854  -0.01018907  0.87009959  1
  O  O203  1  -0.01405396  0.33108485  0.62775852  1
  O  O204  1  0.81431976  0.85857607  0.62536777  1
  O  O205  1  0.32871760  0.67442404  0.86898817  1
  O  O206  1  0.66560389  0.66489640  0.62100990  1
  O  O207  1  0.17159964  0.50330971  0.62210124  1
  O  O208  1  0.84505127  0.85505626  0.87286129  1
  O  O209  1  0.66152148  0.33743897  0.38371457  1
  O  O210  1  0.64969024  0.66757748  0.87462527  1
  O  O211  1  0.31472746  0.33618407  0.37876252  1
  O  O212  1  0.49965715  0.82783217  0.37878694  1
  O  O213  1  0.64927317  0.34160963  0.62262513  1
  O  O214  1  0.65965394  0.66429410  0.12176974  1
  O  O215  1  0.00856724  -0.00221421  0.37417786  1
