# generated using pymatgen
data_Sr24Ta24N11O13
_symmetry_space_group_name_H-M   'P 1'
_cell_length_a   16.77360746
_cell_length_b   16.85989192
_cell_length_c   15.70462747
_cell_angle_alpha   90.16069120
_cell_angle_beta   89.77645996
_cell_angle_gamma   89.76761667
_symmetry_Int_Tables_number   1
_chemical_formula_structural   Sr24Ta24N11O13
_chemical_formula_sum   'Sr72 Ta72 N33 O39'
_cell_volume   4441.19963657
_cell_formula_units_Z   3
loop_
 _symmetry_equiv_pos_site_id
 _symmetry_equiv_pos_as_xyz
  1  'x, y, z'
loop_
 _atom_site_type_symbol
 _atom_site_label
 _atom_site_symmetry_multiplicity
 _atom_site_fract_x
 _atom_site_fract_y
 _atom_site_fract_z
 _atom_site_occupancy
  Sr  Sr0  1  0.01190986  0.16370382  0.11470435  1
  Sr  Sr1  1  -0.01080268  0.18080571  0.67916804  1
  Sr  Sr2  1  -0.00949373  0.50873617  0.13362021  1
  Sr  Sr3  1  0.00257192  0.49472518  0.60230712  1
  Sr  Sr4  1  0.02475045  0.84839008  0.16461575  1
  Sr  Sr5  1  -0.01131605  0.84523011  0.61278127  1
  Sr  Sr6  1  0.33112846  0.15903252  0.16261330  1
  Sr  Sr7  1  0.32366620  0.17218289  0.61409030  1
  Sr  Sr8  1  0.34623517  0.49462179  0.13569211  1
  Sr  Sr9  1  0.32581433  0.49543698  0.59093295  1
  Sr  Sr10  1  0.32177503  0.85177311  0.07257118  1
  Sr  Sr11  1  0.34344947  0.81448420  0.63409677  1
  Sr  Sr12  1  0.66225689  0.17996472  0.13762740  1
  Sr  Sr13  1  0.67961490  0.17003104  0.58026567  1
  Sr  Sr14  1  0.67300720  0.50290071  0.08770079  1
  Sr  Sr15  1  0.66478909  0.49353344  0.65333703  1
  Sr  Sr16  1  0.67723576  0.83084099  0.11995529  1
  Sr  Sr17  1  0.67458712  0.87066766  0.66006146  1
  Sr  Sr18  1  0.16554327  0.01083815  0.13388275  1
  Sr  Sr19  1  0.17962882  -0.02183368  0.57314830  1
  Sr  Sr20  1  0.15402467  0.33456467  0.08160504  1
  Sr  Sr21  1  0.16877945  0.32841707  0.63054340  1
  Sr  Sr22  1  0.17326175  0.66936596  0.11582760  1
  Sr  Sr23  1  0.15233879  0.67514195  0.67271030  1
  Sr  Sr24  1  0.50364507  -0.01070142  0.11542025  1
  Sr  Sr25  1  0.49420671  -0.00607318  0.65597639  1
  Sr  Sr26  1  0.49957608  0.33852268  0.12204418  1
  Sr  Sr27  1  0.50418389  0.31098617  0.63503002  1
  Sr  Sr28  1  0.49620941  0.66333694  0.16413566  1
  Sr  Sr29  1  0.49189756  0.64787254  0.60998726  1
  Sr  Sr30  1  0.83517118  0.01655695  0.07832265  1
  Sr  Sr31  1  0.84143441  -0.00391401  0.63755816  1
  Sr  Sr32  1  0.85005877  0.33109392  0.16521737  1
  Sr  Sr33  1  0.83092175  0.32973067  0.63190715  1
  Sr  Sr34  1  0.82301488  0.66776428  0.12108032  1
  Sr  Sr35  1  0.82231906  0.65038283  0.59718714  1
  Sr  Sr36  1  0.00036728  0.16919124  0.33980504  1
  Sr  Sr37  1  0.01496500  0.16047934  0.89110308  1
  Sr  Sr38  1  -0.01756948  0.50258780  0.37101629  1
  Sr  Sr39  1  0.00931023  0.51776542  0.89457083  1
  Sr  Sr40  1  -0.00207709  0.85076451  0.39040597  1
  Sr  Sr41  1  0.00307041  0.83067911  0.83343813  1
  Sr  Sr42  1  0.31644645  0.16288391  0.38313734  1
  Sr  Sr43  1  0.34725182  0.17680671  0.82947299  1
  Sr  Sr44  1  0.34562862  0.50790751  0.36207856  1
  Sr  Sr45  1  0.32996117  0.48329107  0.91123842  1
  Sr  Sr46  1  0.32493293  0.84157961  0.41463347  1
  Sr  Sr47  1  0.33529969  0.81747762  0.86082030  1
  Sr  Sr48  1  0.66761954  0.16781388  0.36940363  1
  Sr  Sr49  1  0.65073586  0.16805436  0.92120119  1
  Sr  Sr50  1  0.65834545  0.54650833  0.42916584  1
  Sr  Sr51  1  0.67158552  0.48886305  0.86485917  1
  Sr  Sr52  1  0.65724008  0.83777616  0.33526943  1
  Sr  Sr53  1  0.68396178  0.84383839  0.88736480  1
  Sr  Sr54  1  0.16461065  0.01759114  0.35887190  1
  Sr  Sr55  1  0.17292191  -0.00078311  0.90935795  1
  Sr  Sr56  1  0.17160063  0.34806146  0.41982152  1
  Sr  Sr57  1  0.16585090  0.31992407  0.86611270  1
  Sr  Sr58  1  0.15483687  0.65084476  0.32972833  1
  Sr  Sr59  1  0.18006868  0.66957117  0.88235758  1
  Sr  Sr60  1  0.52097814  -0.00601693  0.33859119  1
  Sr  Sr61  1  0.49754334  -0.00935645  0.87550879  1
  Sr  Sr62  1  0.49970576  0.31693924  0.35227662  1
  Sr  Sr63  1  0.51322832  0.33580970  0.88905424  1
  Sr  Sr64  1  0.48538289  0.67582775  0.38646946  1
  Sr  Sr65  1  0.50242705  0.64842089  0.83980712  1
  Sr  Sr66  1  0.82792621  -0.00008601  0.42096505  1
  Sr  Sr67  1  0.84518083  -0.00881570  0.85803037  1
  Sr  Sr68  1  0.83468554  0.31792183  0.37430260  1
  Sr  Sr69  1  0.83975501  0.33372727  0.83984841  1
  Sr  Sr70  1  0.83210231  0.67355152  0.37827191  1
  Sr  Sr71  1  0.81661413  0.65083928  0.90327713  1
  Ta  Ta72  1  0.21091289  0.16751809  -0.00059812  1
  Ta  Ta73  1  0.11972705  0.16919684  0.50152805  1
  Ta  Ta74  1  0.16663401  0.50525256  0.00312436  1
  Ta  Ta75  1  0.16239673  0.55015400  0.50335246  1
  Ta  Ta76  1  0.13256962  0.83163430  -0.00411257  1
  Ta  Ta77  1  0.15997546  0.77687269  0.49854068  1
  Ta  Ta78  1  0.46131291  0.16299627  -0.00138993  1
  Ta  Ta79  1  0.49485099  0.13315765  0.49883743  1
  Ta  Ta80  1  0.50175259  0.53650988  0.00629118  1
  Ta  Ta81  1  0.50254510  0.45543542  0.49815686  1
  Ta  Ta82  1  0.50226489  0.78982965  0.00226762  1
  Ta  Ta83  1  0.51941566  0.85267129  0.49636456  1
  Ta  Ta84  1  0.83507567  0.20415872  -0.00096107  1
  Ta  Ta85  1  0.88359966  0.17027098  0.50836571  1
  Ta  Ta86  1  0.84102254  0.45670688  -0.00325591  1
  Ta  Ta87  1  0.81785080  0.46932070  0.50550042  1
  Ta  Ta88  1  0.87655970  0.83039864  -0.00410630  1
  Ta  Ta89  1  0.79272324  0.83024997  0.50328988  1
  Ta  Ta90  1  0.16666272  0.21701376  0.24766182  1
  Ta  Ta91  1  0.17182777  0.12280674  0.74939962  1
  Ta  Ta92  1  0.16405991  0.45430074  0.25208576  1
  Ta  Ta93  1  0.18603786  0.49056151  0.74832688  1
  Ta  Ta94  1  0.21251600  0.83293208  0.24395317  1
  Ta  Ta95  1  0.17492614  0.87229049  0.75073065  1
  Ta  Ta96  1  0.49497250  0.15572656  0.24199893  1
  Ta  Ta97  1  0.54441361  0.16235652  0.75547527  1
  Ta  Ta98  1  0.55621046  0.49670898  0.25157284  1
  Ta  Ta99  1  0.46068936  0.48270907  0.75030197  1
  Ta  Ta100  1  0.43827859  0.83441181  0.24684061  1
  Ta  Ta101  1  0.52137070  0.81098133  0.74891742  1
  Ta  Ta102  1  0.83302824  0.13615098  0.25186545  1
  Ta  Ta103  1  0.78497165  0.16523185  0.75499393  1
  Ta  Ta104  1  0.77788835  0.50414109  0.25669005  1
  Ta  Ta105  1  0.86220022  0.51296424  0.75219583  1
  Ta  Ta106  1  0.84296900  0.85390264  0.25454968  1
  Ta  Ta107  1  0.83077561  0.78680111  0.74787909  1
  Ta  Ta108  1  -0.06512269  0.00178042  0.25068917  1
  Ta  Ta109  1  0.04876565  0.00190372  0.74620800  1
  Ta  Ta110  1  0.03935896  0.33972626  0.24794430  1
  Ta  Ta111  1  0.00760824  0.37352096  0.75596469  1
  Ta  Ta112  1  -0.02172793  0.68890064  0.25264156  1
  Ta  Ta113  1  -0.03868975  0.65565459  0.74772806  1
  Ta  Ta114  1  0.33868607  -0.02928992  0.24777110  1
  Ta  Ta115  1  0.29415313  -0.00257432  0.74388677  1
  Ta  Ta116  1  0.29066158  0.33507119  0.24508856  1
  Ta  Ta117  1  0.33652931  0.36946068  0.74579904  1
  Ta  Ta118  1  0.32702053  0.70860400  0.24874229  1
  Ta  Ta119  1  0.33232898  0.61496951  0.74896113  1
  Ta  Ta120  1  0.72681011  0.00518335  0.25289345  1
  Ta  Ta121  1  0.66939657  0.04910375  0.74985233  1
  Ta  Ta122  1  0.67111911  0.37265616  0.25484338  1
  Ta  Ta123  1  0.66624784  0.29130493  0.75278628  1
  Ta  Ta124  1  0.66806363  0.63920462  0.24844676  1
  Ta  Ta125  1  0.67247807  0.69248145  0.74696386  1
  Ta  Ta126  1  0.00242159  -0.04263589  -0.00804433  1
  Ta  Ta127  1  0.00186111  0.04841291  0.50930859  1
  Ta  Ta128  1  -0.03238434  0.33868549  -0.00198329  1
  Ta  Ta129  1  -0.00802259  0.30294724  0.50899798  1
  Ta  Ta130  1  0.00140518  0.70860529  -0.00068883  1
  Ta  Ta131  1  0.02918530  0.67036833  0.49826307  1
  Ta  Ta132  1  0.33831897  0.04291466  0.00037435  1
  Ta  Ta133  1  0.38152314  0.00514232  0.49171917  1
  Ta  Ta134  1  0.33435838  0.29467230  0.00442559  1
  Ta  Ta135  1  0.36311592  0.33468759  0.49765047  1
  Ta  Ta136  1  0.37086003  0.66229496  -0.00415976  1
  Ta  Ta137  1  0.28650965  0.66437325  0.50528454  1
  Ta  Ta138  1  0.66533794  0.00112060  -0.00215726  1
  Ta  Ta139  1  0.64166021  -0.01511936  0.49841158  1
  Ta  Ta140  1  0.71605742  0.33203780  -0.00200602  1
  Ta  Ta141  1  0.66185312  0.35801298  0.50369807  1
  Ta  Ta142  1  0.62240128  0.67123120  0.00218385  1
  Ta  Ta143  1  0.65340232  0.73503227  0.50240959  1
  N  N144  1  0.49843635  0.16387897  0.87205017  1
  N  N145  1  -0.00681283  0.67224685  0.37252373  1
  N  N146  1  0.00095956  0.33517772  0.12518008  1
  N  N147  1  0.67026154  0.00229128  0.87646382  1
  N  N148  1  0.00084538  0.33168724  0.63006763  1
  N  N149  1  0.33043254  0.33395093  0.12103896  1
  N  N150  1  0.83188233  0.82895803  0.62797724  1
  N  N151  1  0.67857710  0.00092035  0.36884788  1
  N  N152  1  0.15424244  0.18023776  0.38205143  1
  N  N153  1  0.16982515  0.17445813  0.12724777  1
  N  N154  1  0.33637806  0.33079251  0.62057260  1
  N  N155  1  0.16254276  0.51049095  0.62176870  1
  N  N156  1  0.00648858  -0.00570354  0.87455284  1
  N  N157  1  0.16834418  0.50188239  0.88198231  1
  N  N158  1  0.82768981  0.83615379  0.37677933  1
  N  N159  1  0.66245945  0.66876754  0.12693023  1
  N  N160  1  0.17678529  0.15924118  0.87147293  1
  N  N161  1  0.66611510  0.01614442  0.61578449  1
  N  N162  1  0.34031973  0.65416369  0.87505549  1
  N  N163  1  0.33245657  0.00430854  0.11879314  1
  N  N164  1  0.82820700  0.49135402  0.62595152  1
  N  N165  1  0.32352355  0.65798401  0.63013993  1
  N  N166  1  0.83369060  0.49468990  0.87758693  1
  N  N167  1  0.66490808  0.33215920  0.62369972  1
  N  N168  1  0.33579973  0.00236676  0.37696677  1
  N  N169  1  0.00333087  0.00514579  0.62951772  1
  N  N170  1  0.67455502  0.33055585  0.88045994  1
  N  N171  1  0.17453723  0.83728148  0.12202372  1
  N  N172  1  0.51436465  0.50395431  0.12974627  1
  N  N173  1  0.84123066  0.82311930  0.87449343  1
  N  N174  1  0.50563757  0.16614724  0.12198245  1
  N  N175  1  0.00626582  0.33205013  0.87152133  1
  N  N176  1  0.17206816  0.83372842  0.87022566  1
  O  O177  1  -0.02115525  -0.00738046  0.12755377  1
  O  O178  1  0.50643732  0.47936480  0.37109081  1
  O  O179  1  0.50667183  0.15589677  0.37578504  1
  O  O180  1  0.67310444  0.32470738  0.37250077  1
  O  O181  1  0.82039027  0.49922064  0.37748101  1
  O  O182  1  0.68702372  -0.00674091  0.12869368  1
  O  O183  1  0.17462120  0.81256814  0.37491186  1
  O  O184  1  0.16697512  0.82545217  0.62062187  1
  O  O185  1  0.83353144  0.16718095  0.63055081  1
  O  O186  1  0.48882316  0.83822478  0.37075740  1
  O  O187  1  0.48841750  0.49601569  0.88268942  1
  O  O188  1  0.84190941  0.16080073  0.38550707  1
  O  O189  1  0.16731552  0.17231150  0.62943367  1
  O  O190  1  0.33499195  -0.00226003  0.61908506  1
  O  O191  1  0.66190668  0.67422466  0.87403701  1
  O  O192  1  0.66009409  0.68637319  0.61881855  1
  O  O193  1  0.33352640  0.32918658  0.86927703  1
  O  O194  1  0.50508831  0.14988238  0.62634459  1
  O  O195  1  0.33250830  0.68191553  0.12051898  1
  O  O196  1  0.68060381  0.33888234  0.12974788  1
  O  O197  1  0.16384323  0.50092572  0.37560011  1
  O  O198  1  0.50954137  0.83936736  0.62786379  1
  O  O199  1  0.33507479  0.00978421  0.86485918  1
  O  O200  1  0.83069359  0.17888725  0.87521393  1
  O  O201  1  -0.01900665  0.00989286  0.37148546  1
  O  O202  1  0.65126832  0.68772335  0.37610909  1
  O  O203  1  0.48256856  0.81840042  0.12516470  1
  O  O204  1  0.49516862  0.47763534  0.62238869  1
  O  O205  1  -0.00558324  0.32660423  0.36935285  1
  O  O206  1  -0.01654892  0.65922853  0.61920971  1
  O  O207  1  0.83295872  0.82708574  0.11759877  1
  O  O208  1  -0.01397941  0.67451763  0.87177598  1
  O  O209  1  0.33080972  0.33665750  0.37291331  1
  O  O210  1  0.82471594  0.48833492  0.13480243  1
  O  O211  1  0.15657519  0.50012914  0.13491672  1
  O  O212  1  0.50708647  0.80686974  0.87224238  1
  O  O213  1  0.00468053  0.69245863  0.12443985  1
  O  O214  1  0.83571174  0.17515332  0.12290865  1
  O  O215  1  0.32685852  0.68180654  0.37739725  1
