# generated using pymatgen
data_Sr24Ta24N11O13
_symmetry_space_group_name_H-M   'P 1'
_cell_length_a   17.02979765
_cell_length_b   16.75490259
_cell_length_c   15.68382730
_cell_angle_alpha   90.05708987
_cell_angle_beta   90.36961642
_cell_angle_gamma   89.99609086
_symmetry_Int_Tables_number   1
_chemical_formula_structural   Sr24Ta24N11O13
_chemical_formula_sum   'Sr72 Ta72 N33 O39'
_cell_volume   4475.01188548
_cell_formula_units_Z   3
loop_
 _symmetry_equiv_pos_site_id
 _symmetry_equiv_pos_as_xyz
  1  'x, y, z'
loop_
 _atom_site_type_symbol
 _atom_site_label
 _atom_site_symmetry_multiplicity
 _atom_site_fract_x
 _atom_site_fract_y
 _atom_site_fract_z
 _atom_site_occupancy
  Sr  Sr0  1  -0.02913768  0.19679192  0.12204899  1
  Sr  Sr1  1  -0.00551469  0.16022668  0.63285764  1
  Sr  Sr2  1  -0.02296819  0.49535426  0.14963644  1
  Sr  Sr3  1  0.01857004  0.51499892  0.61530220  1
  Sr  Sr4  1  0.00916598  0.82977467  0.13244112  1
  Sr  Sr5  1  -0.03816652  0.84797336  0.58395436  1
  Sr  Sr6  1  0.30609564  0.15994377  0.11611897  1
  Sr  Sr7  1  0.31759974  0.17482274  0.61104225  1
  Sr  Sr8  1  0.33809437  0.50194052  0.11779914  1
  Sr  Sr9  1  0.34055676  0.50029225  0.67615726  1
  Sr  Sr10  1  0.31368278  0.85288105  0.11808771  1
  Sr  Sr11  1  0.32925515  0.82268776  0.61888197  1
  Sr  Sr12  1  0.66108495  0.16167812  0.13220411  1
  Sr  Sr13  1  0.65544295  0.16856230  0.62317895  1
  Sr  Sr14  1  0.65002310  0.50738297  0.11565691  1
  Sr  Sr15  1  0.65102999  0.50948748  0.59242876  1
  Sr  Sr16  1  0.62969022  0.83002269  0.11479986  1
  Sr  Sr17  1  0.66116985  0.82464062  0.65801398  1
  Sr  Sr18  1  0.16799158  -0.01074735  0.11825099  1
  Sr  Sr19  1  0.19241083  0.00431100  0.65079478  1
  Sr  Sr20  1  0.18985167  0.33928057  0.13414412  1
  Sr  Sr21  1  0.14378861  0.32908747  0.57466021  1
  Sr  Sr22  1  0.18680831  0.64130312  0.10243779  1
  Sr  Sr23  1  0.18580065  0.65959892  0.64113933  1
  Sr  Sr24  1  0.51971791  0.00120041  0.11609372  1
  Sr  Sr25  1  0.53862097  -0.00966414  0.64884697  1
  Sr  Sr26  1  0.51592422  0.30591765  0.15540550  1
  Sr  Sr27  1  0.50861371  0.32525582  0.61490185  1
  Sr  Sr28  1  0.49990350  0.66288107  0.13036731  1
  Sr  Sr29  1  0.51274565  0.67889051  0.61307027  1
  Sr  Sr30  1  0.86616625  -0.01824073  0.12684348  1
  Sr  Sr31  1  0.84396780  0.01178535  0.60117557  1
  Sr  Sr32  1  0.80947115  0.33077391  0.11061266  1
  Sr  Sr33  1  0.84005497  0.32502828  0.67095706  1
  Sr  Sr34  1  0.87084516  0.67210114  0.14646079  1
  Sr  Sr35  1  0.83742789  0.66058544  0.62066414  1
  Sr  Sr36  1  -0.01604320  0.17712154  0.39304122  1
  Sr  Sr37  1  -0.02124367  0.17733914  0.85479704  1
  Sr  Sr38  1  -0.00750880  0.50097875  0.38450877  1
  Sr  Sr39  1  -0.01857034  0.50716730  0.83858823  1
  Sr  Sr40  1  -0.01598812  0.84239420  0.35272805  1
  Sr  Sr41  1  -0.01094196  0.84217953  0.92060512  1
  Sr  Sr42  1  0.31540829  0.16922228  0.38359595  1
  Sr  Sr43  1  0.31471431  0.16099965  0.87908490  1
  Sr  Sr44  1  0.33027460  0.51227136  0.33674864  1
  Sr  Sr45  1  0.32323666  0.50448034  0.89213215  1
  Sr  Sr46  1  0.32838961  0.82570289  0.40168453  1
  Sr  Sr47  1  0.29320438  0.83982556  0.84560852  1
  Sr  Sr48  1  0.66258208  0.16323727  0.37403138  1
  Sr  Sr49  1  0.65233478  0.17798825  0.86445083  1
  Sr  Sr50  1  0.64975880  0.51471108  0.38859639  1
  Sr  Sr51  1  0.66785314  0.49987960  0.90752611  1
  Sr  Sr52  1  0.63460089  0.82738216  0.34491048  1
  Sr  Sr53  1  0.66480339  0.82364386  0.87045411  1
  Sr  Sr54  1  0.19288209  -0.01284281  0.35351137  1
  Sr  Sr55  1  0.16708476  0.00582017  0.87633070  1
  Sr  Sr56  1  0.18181989  0.33674960  0.37129727  1
  Sr  Sr57  1  0.19767979  0.33428089  0.92001262  1
  Sr  Sr58  1  0.18588470  0.65998814  0.39784822  1
  Sr  Sr59  1  0.16579603  0.64286254  0.85464454  1
  Sr  Sr60  1  0.53057194  -0.00239820  0.35242287  1
  Sr  Sr61  1  0.53952991  0.00135571  0.88418271  1
  Sr  Sr62  1  0.51584744  0.31590979  0.40011615  1
  Sr  Sr63  1  0.49015995  0.32528457  0.82716909  1
  Sr  Sr64  1  0.49739381  0.66657137  0.36948950  1
  Sr  Sr65  1  0.52808516  0.66423091  0.90754078  1
  Sr  Sr66  1  0.84928764  -0.00171895  0.39194881  1
  Sr  Sr67  1  0.85676392  -0.00863150  0.88653076  1
  Sr  Sr68  1  0.83786386  0.32648824  0.33117318  1
  Sr  Sr69  1  0.81663291  0.32783470  0.89034023  1
  Sr  Sr70  1  0.85300781  0.66056699  0.38411589  1
  Sr  Sr71  1  0.84188150  0.67633894  0.85715203  1
  Ta  Ta72  1  0.12243401  0.17386022  -0.00259759  1
  Ta  Ta73  1  0.14821642  0.13706359  0.50279039  1
  Ta  Ta74  1  0.11289593  0.49371556  -0.00867134  1
  Ta  Ta75  1  0.21645829  0.49946417  0.51174156  1
  Ta  Ta76  1  0.16923690  0.79826237  -0.00114305  1
  Ta  Ta77  1  0.13679775  0.83953352  0.49818235  1
  Ta  Ta78  1  0.48459850  0.18329878  -0.00850675  1
  Ta  Ta79  1  0.48419489  0.12623258  0.50510523  1
  Ta  Ta80  1  0.49426176  0.45035932  -0.00075072  1
  Ta  Ta81  1  0.45585011  0.50070853  0.50135434  1
  Ta  Ta82  1  0.45727661  0.83682169  -0.01340207  1
  Ta  Ta83  1  0.50810680  0.85607521  0.50337019  1
  Ta  Ta84  1  0.81940632  0.13895000  0.00283243  1
  Ta  Ta85  1  0.82397264  0.20621381  0.49808940  1
  Ta  Ta86  1  0.84424445  0.52695895  0.00039206  1
  Ta  Ta87  1  0.82605949  0.45782727  0.49735159  1
  Ta  Ta88  1  0.80705933  0.82520595  0.00668885  1
  Ta  Ta89  1  0.78361177  0.82677449  0.48981120  1
  Ta  Ta90  1  0.12693191  0.17279625  0.25175211  1
  Ta  Ta91  1  0.15997574  0.22138586  0.74506391  1
  Ta  Ta92  1  0.14610763  0.50578691  0.25222193  1
  Ta  Ta93  1  0.16567775  0.44265762  0.75096847  1
  Ta  Ta94  1  0.17644023  0.79165830  0.24652584  1
  Ta  Ta95  1  0.11332453  0.83638752  0.74806290  1
  Ta  Ta96  1  0.46080212  0.15457736  0.25739439  1
  Ta  Ta97  1  0.46638880  0.14391760  0.74334671  1
  Ta  Ta98  1  0.50189341  0.46671094  0.25786215  1
  Ta  Ta99  1  0.52566376  0.51754977  0.75458072  1
  Ta  Ta100  1  0.45299077  0.83728553  0.24610658  1
  Ta  Ta101  1  0.47382970  0.83055165  0.76365966  1
  Ta  Ta102  1  0.83198034  0.13623237  0.24991881  1
  Ta  Ta103  1  0.81242700  0.13904432  0.75641726  1
  Ta  Ta104  1  0.79438033  0.50685843  0.25544465  1
  Ta  Ta105  1  0.79066514  0.50249021  0.74623104  1
  Ta  Ta106  1  0.79798707  0.82857050  0.25141369  1
  Ta  Ta107  1  0.85138082  0.84900866  0.75354737  1
  Ta  Ta108  1  0.01447884  0.04123543  0.25069962  1
  Ta  Ta109  1  -0.00037655  -0.03540946  0.75237028  1
  Ta  Ta110  1  0.02753972  0.33386568  0.26110663  1
  Ta  Ta111  1  0.03678978  0.33688240  0.74896132  1
  Ta  Ta112  1  0.05512195  0.65865841  0.24622376  1
  Ta  Ta113  1  0.00057877  0.72407812  0.74848053  1
  Ta  Ta114  1  0.36542491  0.00317125  0.24656539  1
  Ta  Ta115  1  0.37617206  -0.00391419  0.75790349  1
  Ta  Ta116  1  0.36408992  0.32819728  0.25513033  1
  Ta  Ta117  1  0.29955943  0.32197477  0.74736036  1
  Ta  Ta118  1  0.32537994  0.69422575  0.24436342  1
  Ta  Ta119  1  0.38066209  0.67451465  0.76526275  1
  Ta  Ta120  1  0.71117597  -0.00950355  0.24699261  1
  Ta  Ta121  1  0.71571225  0.00123938  0.74949464  1
  Ta  Ta122  1  0.66371209  0.36654969  0.25835926  1
  Ta  Ta123  1  0.66495792  0.37601521  0.74690188  1
  Ta  Ta124  1  0.69740799  0.66587341  0.23847197  1
  Ta  Ta125  1  0.66774560  0.63464144  0.75541080  1
  Ta  Ta126  1  0.01041286  0.04629187  -0.00549777  1
  Ta  Ta127  1  0.04678067  0.00325206  0.49947932  1
  Ta  Ta128  1  0.01342173  0.35249288  -0.00280591  1
  Ta  Ta129  1  -0.05030375  0.33813916  0.50178790  1
  Ta  Ta130  1  0.00957585  0.64374708  -0.00087874  1
  Ta  Ta131  1  0.02830938  0.69296683  0.49838588  1
  Ta  Ta132  1  0.36435888  -0.00696757  -0.01913885  1
  Ta  Ta133  1  0.37449523  -0.00133288  0.50440475  1
  Ta  Ta134  1  0.38982447  0.32332855  0.00032373  1
  Ta  Ta135  1  0.33722876  0.38215556  0.50346634  1
  Ta  Ta136  1  0.33854408  0.70222796  -0.01775468  1
  Ta  Ta137  1  0.34453834  0.62614414  0.51525838  1
  Ta  Ta138  1  0.70935183  -0.00946498  0.01035905  1
  Ta  Ta139  1  0.67161098  -0.03400517  0.49723692  1
  Ta  Ta140  1  0.61307546  0.32804734  -0.00810725  1
  Ta  Ta141  1  0.70890604  0.33350288  0.50312257  1
  Ta  Ta142  1  0.71474235  0.67260921  0.01032810  1
  Ta  Ta143  1  0.67649388  0.69762158  0.49970106  1
  N  N144  1  0.66783865  0.33739527  0.62804937  1
  N  N145  1  0.49694419  0.83478456  0.62839162  1
  N  N146  1  0.31812780  0.65893843  0.86742533  1
  N  N147  1  0.66883416  -0.00289994  0.12451837  1
  N  N148  1  0.69072372  -0.00541296  0.62524012  1
  N  N149  1  0.00908471  0.00436978  0.87248519  1
  N  N150  1  0.49086822  0.16741491  0.86813605  1
  N  N151  1  0.51859303  0.83580333  0.88068617  1
  N  N152  1  0.82377552  0.17201797  0.87697895  1
  N  N153  1  0.82688332  0.16885257  0.37753518  1
  N  N154  1  0.47923065  0.83314830  0.12158226  1
  N  N155  1  0.34740487  0.65740171  0.63760978  1
  N  N156  1  0.15921631  0.48716723  0.87565588  1
  N  N157  1  0.01968244  0.66158833  0.12213882  1
  N  N158  1  0.16150721  0.82222583  0.12117610  1
  N  N159  1  0.65095023  0.33718800  0.87416086  1
  N  N160  1  -0.00031783  0.33886266  0.38098190  1
  N  N161  1  0.67224332  0.66933762  0.62159188  1
  N  N162  1  0.49753293  0.17129409  0.62257549  1
  N  N163  1  0.83419462  0.83271591  0.87938921  1
  N  N164  1  0.17631417  0.49145009  0.62984503  1
  N  N165  1  0.48397228  0.83266474  0.37488250  1
  N  N166  1  0.49061944  0.16041530  0.37785731  1
  N  N167  1  0.15820498  0.17317131  0.62511043  1
  N  N168  1  0.82070697  0.17214423  0.12831067  1
  N  N169  1  0.68045822  0.66110508  0.87852070  1
  N  N170  1  0.82987756  0.82779586  0.37078302  1
  N  N171  1  0.31895342  -0.00066166  0.86736015  1
  N  N172  1  0.65620505  0.66437617  0.11714815  1
  N  N173  1  0.66904941  0.33827316  0.37698105  1
  N  N174  1  0.49135750  0.49488371  0.37722617  1
  N  N175  1  0.82374040  0.49839822  0.37541515  1
  N  N176  1  0.68353197  -0.00467834  0.37358481  1
  O  O177  1  0.02578703  0.67271158  0.37401497  1
  O  O178  1  0.49261110  0.48649392  0.12467556  1
  O  O179  1  0.17801857  0.49949912  0.37644981  1
  O  O180  1  0.85361277  0.82652337  0.12869219  1
  O  O181  1  0.33529503  0.66750490  0.37322873  1
  O  O182  1  0.14600752  0.49033186  0.12378461  1
  O  O183  1  0.82068715  0.83256959  0.62599805  1
  O  O184  1  -0.00127054  0.68820497  0.87087863  1
  O  O185  1  0.14152697  0.83323188  0.88008078  1
  O  O186  1  0.35805798  0.00755537  0.11665153  1
  O  O187  1  0.15558096  0.17457065  0.37940685  1
  O  O188  1  0.82924665  0.17034993  0.62977454  1
  O  O189  1  0.50954619  0.50082583  0.87951609  1
  O  O190  1  0.32697163  0.33323675  0.62328847  1
  O  O191  1  0.02098099  -0.00024639  0.62755025  1
  O  O192  1  0.14151577  0.18205355  0.12670661  1
  O  O193  1  0.82645434  0.50934884  0.87559518  1
  O  O194  1  0.66757010  0.67088644  0.36507243  1
  O  O195  1  0.82870473  0.51014797  0.12437869  1
  O  O196  1  0.01223551  0.02128176  0.12330831  1
  O  O197  1  0.02470308  0.00670089  0.37060960  1
  O  O198  1  0.14351023  0.84281536  0.62184905  1
  O  O199  1  0.00043254  0.69574820  0.62052856  1
  O  O200  1  0.14679339  0.18509447  0.87333611  1
  O  O201  1  0.33720300  0.67729738  0.11757026  1
  O  O202  1  0.80663616  0.50091678  0.62066520  1
  O  O203  1  0.50135975  0.50656272  0.63001277  1
  O  O204  1  0.68777840  -0.01639748  0.87649904  1
  O  O205  1  0.16148013  0.83174391  0.37080210  1
  O  O206  1  0.34085939  0.33764106  0.37896110  1
  O  O207  1  0.34633392  -0.01588488  0.62672981  1
  O  O208  1  -0.00424133  0.33865247  0.87283639  1
  O  O209  1  0.65838027  0.34280292  0.11752625  1
  O  O210  1  -0.00808380  0.33534698  0.62440352  1
  O  O211  1  0.33980833  0.32158590  0.87026283  1
  O  O212  1  0.01868826  0.34385553  0.12451393  1
  O  O213  1  0.35047033  -0.00372681  0.37830928  1
  O  O214  1  0.48566607  0.15824378  0.12893290  1
  O  O215  1  0.35491998  0.32451314  0.12802302  1
