# generated using pymatgen
data_Sr24Ta24N11O13
_symmetry_space_group_name_H-M   'P 1'
_cell_length_a   16.74653806
_cell_length_b   16.85708523
_cell_length_c   15.77883397
_cell_angle_alpha   89.88579893
_cell_angle_beta   90.05304476
_cell_angle_gamma   89.84149222
_symmetry_Int_Tables_number   1
_chemical_formula_structural   Sr24Ta24N11O13
_chemical_formula_sum   'Sr72 Ta72 N33 O39'
_cell_volume   4454.30259616
_cell_formula_units_Z   3
loop_
 _symmetry_equiv_pos_site_id
 _symmetry_equiv_pos_as_xyz
  1  'x, y, z'
loop_
 _atom_site_type_symbol
 _atom_site_label
 _atom_site_symmetry_multiplicity
 _atom_site_fract_x
 _atom_site_fract_y
 _atom_site_fract_z
 _atom_site_occupancy
  Sr  Sr0  1  -0.00345919  0.15692863  0.12070118  1
  Sr  Sr1  1  0.00337295  0.17465805  0.63748833  1
  Sr  Sr2  1  0.01589965  0.50723276  0.09026650  1
  Sr  Sr3  1  -0.00017872  0.50675470  0.60749476  1
  Sr  Sr4  1  0.00169523  0.81809204  0.16885183  1
  Sr  Sr5  1  0.00079671  0.83466801  0.62143909  1
  Sr  Sr6  1  0.33402131  0.17839971  0.11353053  1
  Sr  Sr7  1  0.33977321  0.16660237  0.66441716  1
  Sr  Sr8  1  0.32130566  0.51305344  0.17241055  1
  Sr  Sr9  1  0.33230447  0.48878263  0.60943550  1
  Sr  Sr10  1  0.33734691  0.83840919  0.10110400  1
  Sr  Sr11  1  0.33703834  0.85292181  0.60866314  1
  Sr  Sr12  1  0.66669014  0.17009682  0.12552799  1
  Sr  Sr13  1  0.65632871  0.18035902  0.58855098  1
  Sr  Sr14  1  0.66937613  0.51281640  0.11697060  1
  Sr  Sr15  1  0.68497938  0.50017947  0.65904388  1
  Sr  Sr16  1  0.66585560  0.85333944  0.13079263  1
  Sr  Sr17  1  0.66124165  0.84564959  0.62823139  1
  Sr  Sr18  1  0.14643662  -0.00847065  0.12884072  1
  Sr  Sr19  1  0.15963490  -0.01651982  0.58387497  1
  Sr  Sr20  1  0.17592128  0.33422889  0.13515385  1
  Sr  Sr21  1  0.16964396  0.33775561  0.61831755  1
  Sr  Sr22  1  0.16375283  0.66459096  0.12032047  1
  Sr  Sr23  1  0.16112373  0.67312893  0.66288983  1
  Sr  Sr24  1  0.50387285  0.00089134  0.16772417  1
  Sr  Sr25  1  0.50259592  -0.01092218  0.61612477  1
  Sr  Sr26  1  0.50530017  0.32792175  0.09199868  1
  Sr  Sr27  1  0.50284209  0.32703873  0.60847259  1
  Sr  Sr28  1  0.49380619  0.66179583  0.11065247  1
  Sr  Sr29  1  0.49503369  0.63735615  0.64440796  1
  Sr  Sr30  1  0.82197534  0.01018118  0.08242008  1
  Sr  Sr31  1  0.84141626  -0.01609391  0.66533401  1
  Sr  Sr32  1  0.82803352  0.32244490  0.16822560  1
  Sr  Sr33  1  0.82880561  0.32392265  0.63011263  1
  Sr  Sr34  1  0.82947109  0.67392983  0.13686328  1
  Sr  Sr35  1  0.83296367  0.65743221  0.58973481  1
  Sr  Sr36  1  0.00699907  0.17404796  0.37052818  1
  Sr  Sr37  1  -0.00651590  0.16278444  0.86790767  1
  Sr  Sr38  1  0.00023672  0.50236857  0.40536697  1
  Sr  Sr39  1  0.01175242  0.51503498  0.89523211  1
  Sr  Sr40  1  0.00288881  0.83447772  0.38034214  1
  Sr  Sr41  1  -0.00492444  0.82788761  0.83674646  1
  Sr  Sr42  1  0.33519540  0.16449309  0.33788485  1
  Sr  Sr43  1  0.33437350  0.17591346  0.88153463  1
  Sr  Sr44  1  0.32679608  0.48377344  0.38715055  1
  Sr  Sr45  1  0.32419591  0.51686358  0.82605779  1
  Sr  Sr46  1  0.34205699  0.85703340  0.39910291  1
  Sr  Sr47  1  0.32921528  0.83566437  0.89358642  1
  Sr  Sr48  1  0.66128145  0.17046231  0.37469762  1
  Sr  Sr49  1  0.66204089  0.17550312  0.90875097  1
  Sr  Sr50  1  0.68931104  0.51161062  0.34396859  1
  Sr  Sr51  1  0.66735313  0.49948563  0.88108618  1
  Sr  Sr52  1  0.66200043  0.84005564  0.38259103  1
  Sr  Sr53  1  0.66463817  0.86026957  0.85436287  1
  Sr  Sr54  1  0.14875286  -0.01074229  0.37616642  1
  Sr  Sr55  1  0.18258342  -0.00308389  0.91724208  1
  Sr  Sr56  1  0.17242262  0.33866679  0.37723229  1
  Sr  Sr57  1  0.17605269  0.32287541  0.85866007  1
  Sr  Sr58  1  0.16856422  0.66758948  0.34144925  1
  Sr  Sr59  1  0.16239771  0.67144471  0.87636407  1
  Sr  Sr60  1  0.50780677  -0.00466202  0.38264271  1
  Sr  Sr61  1  0.48945499  -0.00655292  0.83356805  1
  Sr  Sr62  1  0.50030384  0.33312683  0.40243314  1
  Sr  Sr63  1  0.50241704  0.31984799  0.89428079  1
  Sr  Sr64  1  0.48021034  0.63534400  0.36666794  1
  Sr  Sr65  1  0.50163959  0.66001813  0.88239027  1
  Sr  Sr66  1  0.83381948  -0.00240891  0.38107669  1
  Sr  Sr67  1  0.83027770  -0.00178962  0.87539006  1
  Sr  Sr68  1  0.82290206  0.31266516  0.37426284  1
  Sr  Sr69  1  0.83422055  0.33229603  0.83756820  1
  Sr  Sr70  1  0.82485284  0.68167409  0.36989433  1
  Sr  Sr71  1  0.82872097  0.63829903  0.90887379  1
  Ta  Ta72  1  0.15482405  0.17852370  -0.00556897  1
  Ta  Ta73  1  0.19822304  0.16537716  0.50218492  1
  Ta  Ta74  1  0.21918793  0.50192674  -0.00252505  1
  Ta  Ta75  1  0.16966181  0.54853314  0.50066661  1
  Ta  Ta76  1  0.12190859  0.82777524  0.00275474  1
  Ta  Ta77  1  0.16934191  0.79133363  0.49942714  1
  Ta  Ta78  1  0.49537714  0.12540999  0.00033727  1
  Ta  Ta79  1  0.46426292  0.15905538  0.49785998  1
  Ta  Ta80  1  0.43131157  0.49803153  -0.00208555  1
  Ta  Ta81  1  0.55295775  0.50069024  0.50046411  1
  Ta  Ta82  1  0.51336764  0.85713532  -0.00328342  1
  Ta  Ta83  1  0.50423781  0.78195097  0.50616040  1
  Ta  Ta84  1  0.83665014  0.21551067  0.00452689  1
  Ta  Ta85  1  0.84225768  0.14095278  0.50476010  1
  Ta  Ta86  1  0.83955585  0.44466754  -0.00270827  1
  Ta  Ta87  1  0.82260352  0.47455850  0.50292495  1
  Ta  Ta88  1  0.85184236  0.82442228  0.00085022  1
  Ta  Ta89  1  0.83048481  0.85687156  0.50728690  1
  Ta  Ta90  1  0.17068336  0.14698959  0.24812880  1
  Ta  Ta91  1  0.16715008  0.11632153  0.75101762  1
  Ta  Ta92  1  0.12800876  0.49663101  0.25667064  1
  Ta  Ta93  1  0.13936318  0.49323423  0.74496167  1
  Ta  Ta94  1  0.20357125  0.83706075  0.25402266  1
  Ta  Ta95  1  0.18050800  0.85994657  0.74568876  1
  Ta  Ta96  1  0.50407724  0.20107712  0.24422065  1
  Ta  Ta97  1  0.52809964  0.17753940  0.75431706  1
  Ta  Ta98  1  0.50637368  0.46513032  0.24499182  1
  Ta  Ta99  1  0.50324901  0.46196119  0.75522102  1
  Ta  Ta100  1  0.48875484  0.80904579  0.24818378  1
  Ta  Ta101  1  0.48294370  0.80774848  0.74889261  1
  Ta  Ta102  1  0.83454364  0.12868896  0.24438362  1
  Ta  Ta103  1  0.78839543  0.16352220  0.75246596  1
  Ta  Ta104  1  0.87890824  0.49731572  0.24669073  1
  Ta  Ta105  1  0.86584360  0.51051446  0.75220715  1
  Ta  Ta106  1  0.82656423  0.87263679  0.24398221  1
  Ta  Ta107  1  0.82550827  0.77965958  0.74797918  1
  Ta  Ta108  1  -0.03576991  0.00016575  0.24183407  1
  Ta  Ta109  1  0.04716457  -0.00193934  0.75169336  1
  Ta  Ta110  1  0.00454412  0.37208003  0.25015407  1
  Ta  Ta111  1  0.00781593  0.37359203  0.74981499  1
  Ta  Ta112  1  -0.00319872  0.62597385  0.24576495  1
  Ta  Ta113  1  -0.02930107  0.65266592  0.75401564  1
  Ta  Ta114  1  0.31066827  -0.01019283  0.25144030  1
  Ta  Ta115  1  0.29495867  -0.00796828  0.74489251  1
  Ta  Ta116  1  0.37226412  0.33545741  0.24840628  1
  Ta  Ta117  1  0.36471063  0.34235608  0.74926336  1
  Ta  Ta118  1  0.33569984  0.71048751  0.24807807  1
  Ta  Ta119  1  0.33702996  0.70497216  0.75278831  1
  Ta  Ta120  1  0.69776972  0.00934701  0.24527117  1
  Ta  Ta121  1  0.66498342  0.04995083  0.75175943  1
  Ta  Ta122  1  0.62953330  0.33751452  0.25411164  1
  Ta  Ta123  1  0.65027041  0.31245159  0.74624714  1
  Ta  Ta124  1  0.63735724  0.69147284  0.25406664  1
  Ta  Ta125  1  0.68632095  0.68287049  0.74883215  1
  Ta  Ta126  1  -0.00390975  -0.05814230  0.00095081  1
  Ta  Ta127  1  -0.03297884  0.01038634  0.51040064  1
  Ta  Ta128  1  -0.02213559  0.32496108  -0.00115926  1
  Ta  Ta129  1  -0.02017287  0.33102207  0.50529686  1
  Ta  Ta130  1  -0.00422679  0.70854830  0.00150471  1
  Ta  Ta131  1  0.03345953  0.67349554  0.49794565  1
  Ta  Ta132  1  0.38384239  0.00612249  0.00094011  1
  Ta  Ta133  1  0.33219311  0.04635053  0.49946424  1
  Ta  Ta134  1  0.32494982  0.36942708  -0.00152035  1
  Ta  Ta135  1  0.33125114  0.28707391  0.49877742  1
  Ta  Ta136  1  0.32784450  0.63452136  -0.00399156  1
  Ta  Ta137  1  0.30941112  0.67611925  0.50245413  1
  Ta  Ta138  1  0.62359807  0.00204988  -0.00273026  1
  Ta  Ta139  1  0.70277911  0.00495905  0.51006390  1
  Ta  Ta140  1  0.70605502  0.34102584  0.00372765  1
  Ta  Ta141  1  0.67428633  0.37314278  0.49892682  1
  Ta  Ta142  1  0.66585770  0.71237902  0.00040369  1
  Ta  Ta143  1  0.63938970  0.65167325  0.49756467  1
  N  N144  1  0.83355011  0.16997339  0.12189578  1
  N  N145  1  0.66445651  0.01052669  0.12649002  1
  N  N146  1  0.50352055  0.82488563  0.61953134  1
  N  N147  1  0.66738079  0.33492537  0.62602330  1
  N  N148  1  0.33664359  0.33934929  0.12717685  1
  N  N149  1  0.49750432  0.83391386  0.87322558  1
  N  N150  1  0.66056132  0.66912265  0.37129614  1
  N  N151  1  0.16565991  0.50931655  0.62517569  1
  N  N152  1  0.66703000  0.33765293  0.37219993  1
  N  N153  1  0.17410548  0.83079144  0.37638297  1
  N  N154  1  0.84028543  0.48517296  0.87759880  1
  N  N155  1  -0.01121124  -0.01463893  0.12190084  1
  N  N156  1  0.33882345  0.32589941  0.62261128  1
  N  N157  1  -0.00025925  0.66434350  0.12573943  1
  N  N158  1  0.33789003  0.32745752  0.37586413  1
  N  N159  1  0.00349754  -0.00155840  0.62764898  1
  N  N160  1  0.66165813  0.01299259  0.87884308  1
  N  N161  1  0.32650460  0.67362743  0.87110747  1
  N  N162  1  0.49387810  0.83246269  0.12863302  1
  N  N163  1  0.16898759  0.83156079  0.62567465  1
  N  N164  1  0.83664812  0.49417886  0.62397827  1
  N  N165  1  0.32756043  0.00678503  0.62606606  1
  N  N166  1  -0.00281635  0.33853436  0.62581482  1
  N  N167  1  0.49910239  0.16862322  0.12737256  1
  N  N168  1  0.16320385  0.50804841  0.37699960  1
  N  N169  1  0.50093846  0.16309615  0.87227807  1
  N  N170  1  0.83516652  0.82415702  0.62431391  1
  N  N171  1  0.32779755  0.00788242  0.37114849  1
  N  N172  1  0.66927727  0.00890179  0.62715478  1
  N  N173  1  0.16690728  0.15798600  0.87582565  1
  N  N174  1  0.33523571  0.33367309  0.87201556  1
  N  N175  1  0.83309621  0.83600933  0.12480264  1
  N  N176  1  -0.00860009  0.67097139  0.87518303  1
  O  O177  1  0.00612075  0.66922795  0.62348039  1
  O  O178  1  0.32202813  0.67273696  0.62628153  1
  O  O179  1  0.01185519  0.66894879  0.36966655  1
  O  O180  1  0.16354588  0.15402535  0.12389531  1
  O  O181  1  0.34552822  -0.00552332  0.12205546  1
  O  O182  1  0.81503516  0.17876192  0.87754032  1
  O  O183  1  0.47657541  0.48787134  0.12322252  1
  O  O184  1  0.52656947  0.48449008  0.63236176  1
  O  O185  1  0.17479147  0.50425968  0.12187314  1
  O  O186  1  0.84824850  0.49271525  0.37021338  1
  O  O187  1  0.49304282  0.16533149  0.62293308  1
  O  O188  1  0.48075185  0.48641055  0.87860908  1
  O  O189  1  0.17654841  0.50478403  0.87313938  1
  O  O190  1  0.17688619  0.15853597  0.62633184  1
  O  O191  1  0.84190238  0.15622004  0.37502426  1
  O  O192  1  0.83660098  0.82483486  0.86404865  1
  O  O193  1  0.00849014  -0.02046564  0.87345199  1
  O  O194  1  0.67069587  0.66333814  0.62653801  1
  O  O195  1  0.66430219  0.69234409  0.12449921  1
  O  O196  1  0.67785041  0.34323964  0.13088904  1
  O  O197  1  0.68010533  0.33674561  0.87674851  1
  O  O198  1  0.32812800  0.68762612  0.37168248  1
  O  O199  1  0.67297548  0.01146168  0.38089969  1
  O  O200  1  0.17385616  0.16164600  0.37283289  1
  O  O201  1  0.33559167  -0.00459202  0.87943415  1
  O  O202  1  0.81780986  0.16057143  0.62533753  1
  O  O203  1  0.83011634  0.84027366  0.37113861  1
  O  O204  1  -0.00907354  -0.00530520  0.38122707  1
  O  O205  1  0.49843695  0.82591666  0.38717680  1
  O  O206  1  0.85996924  0.48650368  0.12128196  1
  O  O207  1  -0.00303827  0.34591402  0.37276229  1
  O  O208  1  0.49060933  0.16075843  0.37141867  1
  O  O209  1  -0.00213876  0.34529368  0.12084248  1
  O  O210  1  0.52715344  0.48952789  0.36874953  1
  O  O211  1  0.16469093  0.83525309  0.88144379  1
  O  O212  1  0.33260701  0.68006784  0.12193260  1
  O  O213  1  -0.00751850  0.33041505  0.86899947  1
  O  O214  1  0.66822101  0.69525590  0.87792996  1
  O  O215  1  0.16191422  0.83193780  0.12917165  1
