# generated using pymatgen
data_Sr24Ta24N11O13
_symmetry_space_group_name_H-M   'P 1'
_cell_length_a   16.69375903
_cell_length_b   16.90181045
_cell_length_c   15.54290139
_cell_angle_alpha   89.72528976
_cell_angle_beta   89.57813241
_cell_angle_gamma   89.79373903
_symmetry_Int_Tables_number   1
_chemical_formula_structural   Sr24Ta24N11O13
_chemical_formula_sum   'Sr72 Ta72 N33 O39'
_cell_volume   4385.30632525
_cell_formula_units_Z   3
loop_
 _symmetry_equiv_pos_site_id
 _symmetry_equiv_pos_as_xyz
  1  'x, y, z'
loop_
 _atom_site_type_symbol
 _atom_site_label
 _atom_site_symmetry_multiplicity
 _atom_site_fract_x
 _atom_site_fract_y
 _atom_site_fract_z
 _atom_site_occupancy
  Sr  Sr0  1  0.01639417  0.15103655  0.12181382  1
  Sr  Sr1  1  -0.00525068  0.15476762  0.61527866  1
  Sr  Sr2  1  -0.02005767  0.49900198  0.08063663  1
  Sr  Sr3  1  0.00760001  0.47092907  0.65208992  1
  Sr  Sr4  1  -0.00344233  0.81160306  0.16601663  1
  Sr  Sr5  1  0.02212327  0.83260902  0.61367241  1
  Sr  Sr6  1  0.33555559  0.15939530  0.15874269  1
  Sr  Sr7  1  0.34111608  0.17544853  0.62325992  1
  Sr  Sr8  1  0.29085381  0.48118966  0.13385194  1
  Sr  Sr9  1  0.34263290  0.49156093  0.57847840  1
  Sr  Sr10  1  0.33532105  0.83186703  0.11944120  1
  Sr  Sr11  1  0.31847350  0.77200712  0.68345927  1
  Sr  Sr12  1  0.65823895  0.17484061  0.13185976  1
  Sr  Sr13  1  0.68222794  0.17652467  0.58002239  1
  Sr  Sr14  1  0.66682624  0.51808030  0.16263039  1
  Sr  Sr15  1  0.67038651  0.46627835  0.63312706  1
  Sr  Sr16  1  0.68024846  0.82809298  0.07531385  1
  Sr  Sr17  1  0.66736732  0.86607463  0.64128061  1
  Sr  Sr18  1  0.18499325  -0.01035744  0.09348416  1
  Sr  Sr19  1  0.18043782  0.02398312  0.61553750  1
  Sr  Sr20  1  0.13982966  0.33122836  0.11203486  1
  Sr  Sr21  1  0.16607357  0.32316140  0.67245590  1
  Sr  Sr22  1  0.16589593  0.67866454  0.16229214  1
  Sr  Sr23  1  0.16779995  0.63862236  0.60785028  1
  Sr  Sr24  1  0.49126440  0.02574792  0.18322877  1
  Sr  Sr25  1  0.51668775  0.02063479  0.60502311  1
  Sr  Sr26  1  0.49378523  0.33874178  0.08863911  1
  Sr  Sr27  1  0.48759269  0.33736255  0.62901377  1
  Sr  Sr28  1  0.50121640  0.68225183  0.10936971  1
  Sr  Sr29  1  0.51098034  0.66900460  0.64337218  1
  Sr  Sr30  1  0.81526453  0.00922227  0.10763846  1
  Sr  Sr31  1  0.84780145  -0.00132474  0.67502033  1
  Sr  Sr32  1  0.79992231  0.35278508  0.15195455  1
  Sr  Sr33  1  0.84711447  0.32539003  0.60620166  1
  Sr  Sr34  1  0.83397140  0.66450717  0.12892283  1
  Sr  Sr35  1  0.82411883  0.72556947  0.57275259  1
  Sr  Sr36  1  0.00952783  0.16049869  0.37306750  1
  Sr  Sr37  1  -0.00943743  0.13060949  0.90865325  1
  Sr  Sr38  1  -0.01316119  0.47667507  0.41951907  1
  Sr  Sr39  1  -0.00347089  0.50702907  0.86397204  1
  Sr  Sr40  1  0.01224281  0.82129383  0.38955996  1
  Sr  Sr41  1  0.00732361  0.82767617  0.84181921  1
  Sr  Sr42  1  0.33715315  0.14837548  0.39099182  1
  Sr  Sr43  1  0.34025257  0.16681545  0.83896805  1
  Sr  Sr44  1  0.29640200  0.49602992  0.36334475  1
  Sr  Sr45  1  0.34928944  0.48644181  0.92943826  1
  Sr  Sr46  1  0.35201042  0.81641148  0.33874514  1
  Sr  Sr47  1  0.33103527  0.82811037  0.89324642  1
  Sr  Sr48  1  0.67993591  0.14774945  0.34606557  1
  Sr  Sr49  1  0.65684755  0.18184979  0.91772711  1
  Sr  Sr50  1  0.69066467  0.50706054  0.36400327  1
  Sr  Sr51  1  0.65672439  0.50277664  0.83079679  1
  Sr  Sr52  1  0.64989877  0.82699339  0.42745357  1
  Sr  Sr53  1  0.65439042  0.84654608  0.86313928  1
  Sr  Sr54  1  0.16057032  -0.00745501  0.42097949  1
  Sr  Sr55  1  0.19337755  0.00232823  0.89036260  1
  Sr  Sr56  1  0.16622609  0.31163152  0.32325057  1
  Sr  Sr57  1  0.15543169  0.34836800  0.89075080  1
  Sr  Sr58  1  0.15798199  0.65725645  0.38533835  1
  Sr  Sr59  1  0.15461628  0.68003046  0.82560159  1
  Sr  Sr60  1  0.50592743  -0.00902511  0.39082770  1
  Sr  Sr61  1  0.49926268  0.01981929  0.83928388  1
  Sr  Sr62  1  0.45600925  0.36984027  0.41606538  1
  Sr  Sr63  1  0.50062361  0.33282469  0.87244849  1
  Sr  Sr64  1  0.51019624  0.66977473  0.37118571  1
  Sr  Sr65  1  0.48862983  0.67359069  0.87657735  1
  Sr  Sr66  1  0.85627223  0.00295503  0.31960325  1
  Sr  Sr67  1  0.82012544  0.00105692  0.88703083  1
  Sr  Sr68  1  0.82677078  0.33294905  0.39073264  1
  Sr  Sr69  1  0.82446495  0.37754672  0.82853703  1
  Sr  Sr70  1  0.83339050  0.67524570  0.36647664  1
  Sr  Sr71  1  0.83999200  0.66479603  0.90729418  1
  Ta  Ta72  1  0.20484114  0.17303481  0.00842196  1
  Ta  Ta73  1  0.16613204  0.19979245  0.50444904  1
  Ta  Ta74  1  0.15590172  0.54921294  -0.00887972  1
  Ta  Ta75  1  0.15732147  0.44581363  0.50319411  1
  Ta  Ta76  1  0.14709799  0.80923512  0.00140602  1
  Ta  Ta77  1  0.22600840  0.81917552  0.50212248  1
  Ta  Ta78  1  0.47475337  0.15044865  0.01024904  1
  Ta  Ta79  1  0.52121682  0.20003626  0.46421480  1
  Ta  Ta80  1  0.55009515  0.50763646  -0.00416610  1
  Ta  Ta81  1  0.53524214  0.51726922  0.50378419  1
  Ta  Ta82  1  0.49723777  0.88940647  0.00115180  1
  Ta  Ta83  1  0.44791256  0.82643495  0.52133294  1
  Ta  Ta84  1  0.83206429  0.22561545  -0.01241516  1
  Ta  Ta85  1  0.84319518  0.11355491  0.49757664  1
  Ta  Ta86  1  0.78488844  0.49553815  -0.00478304  1
  Ta  Ta87  1  0.82773944  0.53392246  0.52923108  1
  Ta  Ta88  1  0.87964693  0.83452151  0.00687242  1
  Ta  Ta89  1  0.83508334  0.89927770  0.49427472  1
  Ta  Ta90  1  0.17280803  0.11731953  0.25850028  1
  Ta  Ta91  1  0.13388174  0.15553434  0.76004464  1
  Ta  Ta92  1  0.10003693  0.49322461  0.25336585  1
  Ta  Ta93  1  0.20286737  0.49676387  0.75307720  1
  Ta  Ta94  1  0.17451283  0.86511677  0.25769800  1
  Ta  Ta95  1  0.17838813  0.87509940  0.74879874  1
  Ta  Ta96  1  0.49829073  0.21763457  0.26444921  1
  Ta  Ta97  1  0.53652107  0.17838247  0.73849539  1
  Ta  Ta98  1  0.47972366  0.49230675  0.24657134  1
  Ta  Ta99  1  0.46682533  0.49804908  0.75182471  1
  Ta  Ta100  1  0.54339677  0.83355569  0.24798615  1
  Ta  Ta101  1  0.47491392  0.85862414  0.73239943  1
  Ta  Ta102  1  0.85636214  0.19094885  0.24262091  1
  Ta  Ta103  1  0.81811289  0.17994163  0.74919663  1
  Ta  Ta104  1  0.88163798  0.49981232  0.25662830  1
  Ta  Ta105  1  0.82822290  0.56601937  0.71980007  1
  Ta  Ta106  1  0.79058230  0.83298194  0.24961388  1
  Ta  Ta107  1  0.83144112  0.79644354  0.75333772  1
  Ta  Ta108  1  0.05175160  -0.01305051  0.25255818  1
  Ta  Ta109  1  0.03758513  0.00242213  0.75672014  1
  Ta  Ta110  1  -0.02184415  0.34723650  0.24796423  1
  Ta  Ta111  1  -0.01042576  0.28047486  0.77131939  1
  Ta  Ta112  1  -0.00545832  0.62405689  0.25720860  1
  Ta  Ta113  1  -0.04152695  0.66610910  0.73568347  1
  Ta  Ta114  1  0.29578327  -0.01295961  0.26633732  1
  Ta  Ta115  1  0.33634847  -0.03394981  0.73168505  1
  Ta  Ta116  1  0.36632299  0.33324805  0.25387038  1
  Ta  Ta117  1  0.33179976  0.38072054  0.75789658  1
  Ta  Ta118  1  0.35374112  0.63748305  0.24071114  1
  Ta  Ta119  1  0.33445417  0.59779480  0.75431408  1
  Ta  Ta120  1  0.66606308  -0.04913666  0.24836405  1
  Ta  Ta121  1  0.66790877  0.07321043  0.75140482  1
  Ta  Ta122  1  0.60814447  0.34236426  0.25152393  1
  Ta  Ta123  1  0.66455120  0.28629653  0.74909301  1
  Ta  Ta124  1  0.66681347  0.71393400  0.24918926  1
  Ta  Ta125  1  0.70210240  0.68325885  0.74209133  1
  Ta  Ta126  1  0.00590104  -0.05413067  0.00271644  1
  Ta  Ta127  1  -0.03242216  -0.00392761  0.49666141  1
  Ta  Ta128  1  -0.04179966  0.32316740  -0.01547227  1
  Ta  Ta129  1  0.04829842  0.31626485  0.50302484  1
  Ta  Ta130  1  0.02224485  0.68453304  -0.00782202  1
  Ta  Ta131  1  -0.02304323  0.63570333  0.52585458  1
  Ta  Ta132  1  0.37954176  0.01190454  0.00549183  1
  Ta  Ta133  1  0.34054755  -0.05134413  0.51248141  1
  Ta  Ta134  1  0.32503451  0.29161305  -0.00170705  1
  Ta  Ta135  1  0.27592422  0.32432096  0.49469976  1
  Ta  Ta136  1  0.28383504  0.65961727  -0.01070304  1
  Ta  Ta137  1  0.34783373  0.68043337  0.50402739  1
  Ta  Ta138  1  0.60953563  0.00900059  0.01135814  1
  Ta  Ta139  1  0.71323591  0.00581685  0.48962858  1
  Ta  Ta140  1  0.67779093  0.36840094  -0.00542778  1
  Ta  Ta141  1  0.63417321  0.33680413  0.47756665  1
  Ta  Ta142  1  0.66783490  0.63519992  -0.00060139  1
  Ta  Ta143  1  0.66891866  0.63778266  0.50406932  1
  N  N144  1  0.67032301  0.67318361  0.11986101  1
  N  N145  1  0.16841676  0.48367422  0.62394577  1
  N  N146  1  -0.00310195  0.66890230  0.86930428  1
  N  N147  1  0.16904442  0.16990726  0.64041193  1
  N  N148  1  0.52291358  0.83888817  0.61791554  1
  N  N149  1  0.17068999  0.83138107  0.12391160  1
  N  N150  1  0.65524756  0.00621308  0.12715565  1
  N  N151  1  0.83716291  0.15491550  0.62767927  1
  N  N152  1  0.17434023  0.16063988  0.13014254  1
  N  N153  1  0.67351383  -0.00457860  0.36784872  1
  N  N154  1  0.17004969  0.15483749  0.37795908  1
  N  N155  1  0.00708054  -0.01102082  0.37352575  1
  N  N156  1  0.33234342  0.33073738  0.87383467  1
  N  N157  1  0.49499990  0.17542950  0.13181007  1
  N  N158  1  0.66339742  0.33444219  0.86681043  1
  N  N159  1  0.00799764  -0.01701998  0.87898930  1
  N  N160  1  0.83315207  0.83098240  0.12243318  1
  N  N161  1  0.83509295  0.47435195  0.63878477  1
  N  N162  1  0.51110721  0.13757952  0.35879577  1
  N  N163  1  0.02241960  0.68040796  0.63109504  1
  N  N164  1  0.64436108  0.34574451  0.13242484  1
  N  N165  1  0.15431186  0.50512763  0.87612293  1
  N  N166  1  0.17504179  0.84040466  0.86821454  1
  N  N167  1  0.17925071  0.82230232  0.38868344  1
  N  N168  1  0.31382921  0.32940847  0.36628757  1
  N  N169  1  0.33996397  0.63694185  0.62002532  1
  N  N170  1  -0.00546988  0.35377617  0.86423335  1
  N  N171  1  0.33416123  -0.01630375  0.38930817  1
  N  N172  1  0.50660683  0.49813062  0.62262578  1
  N  N173  1  0.50502480  0.50205742  0.88127379  1
  N  N174  1  0.14122788  0.48422343  0.37001285  1
  N  N175  1  0.67432669  0.67225401  0.38419442  1
  N  N176  1  0.32718662  0.65639709  0.87307553  1
  O  O177  1  0.83118318  0.20127532  0.11990187  1
  O  O178  1  0.33964097  -0.00341036  0.13155660  1
  O  O179  1  0.00512912  0.32535130  0.37391409  1
  O  O180  1  0.49847596  0.51083171  0.37283599  1
  O  O181  1  0.49839005  0.17308474  0.86711334  1
  O  O182  1  0.67354412  0.02464156  0.63058874  1
  O  O183  1  0.84073006  0.50361137  0.38305397  1
  O  O184  1  0.52054945  0.17765548  0.59604356  1
  O  O185  1  0.68181652  0.66768045  0.86739638  1
  O  O186  1  0.85179298  0.15803895  0.36598261  1
  O  O187  1  0.67984382  0.35572672  0.35926182  1
  O  O188  1  0.49909297  0.86757274  0.86221011  1
  O  O189  1  0.50448408  0.49906250  0.12261670  1
  O  O190  1  0.17616248  0.81980596  0.62875838  1
  O  O191  1  0.82782232  0.85743766  0.63576616  1
  O  O192  1  0.00469342  0.30851290  0.64043628  1
  O  O193  1  0.64725667  0.32178075  0.60803088  1
  O  O194  1  0.67173231  0.70569341  0.61627294  1
  O  O195  1  0.34654758  -0.00070544  0.86223371  1
  O  O196  1  0.82969412  0.15593562  0.88671455  1
  O  O197  1  0.18367825  0.15727240  0.87887779  1
  O  O198  1  0.32492177  0.33174463  0.63572935  1
  O  O199  1  0.35013864  0.65353173  0.36768875  1
  O  O200  1  -0.00693676  0.63955169  0.39582892  1
  O  O201  1  0.65448141  0.03358166  0.87737506  1
  O  O202  1  0.13692176  0.50202831  0.11665378  1
  O  O203  1  0.33620592  0.33049261  0.12368121  1
  O  O204  1  0.81279912  0.52115737  0.86492436  1
  O  O205  1  -0.00042073  0.65639254  0.12865993  1
  O  O206  1  0.83107670  0.85014611  0.37374855  1
  O  O207  1  0.02567279  -0.00947120  0.12203593  1
  O  O208  1  0.83158217  0.50183302  0.13392306  1
  O  O209  1  0.00250158  -0.00392553  0.63036625  1
  O  O210  1  0.49789487  0.84800576  0.12901795  1
  O  O211  1  0.83956217  0.82295124  0.87918869  1
  O  O212  1  0.50153879  0.82913609  0.37744593  1
  O  O213  1  0.34035441  0.02694696  0.62050773  1
  O  O214  1  0.33008405  0.64395564  0.11675507  1
  O  O215  1  -0.01791983  0.34342909  0.11335358  1
