# generated using pymatgen
data_Sr24Ta24N11O13
_symmetry_space_group_name_H-M   'P 1'
_cell_length_a   16.69143870
_cell_length_b   16.71751998
_cell_length_c   15.76361566
_cell_angle_alpha   90.04095043
_cell_angle_beta   90.09273279
_cell_angle_gamma   90.04409150
_symmetry_Int_Tables_number   1
_chemical_formula_structural   Sr24Ta24N11O13
_chemical_formula_sum   'Sr72 Ta72 N33 O39'
_cell_volume   4398.66260763
_cell_formula_units_Z   3
loop_
 _symmetry_equiv_pos_site_id
 _symmetry_equiv_pos_as_xyz
  1  'x, y, z'
loop_
 _atom_site_type_symbol
 _atom_site_label
 _atom_site_symmetry_multiplicity
 _atom_site_fract_x
 _atom_site_fract_y
 _atom_site_fract_z
 _atom_site_occupancy
  Sr  Sr0  1  0.01973369  0.16583739  0.14389235  1
  Sr  Sr1  1  0.01851897  0.18676878  0.58320223  1
  Sr  Sr2  1  0.00798121  0.51254637  0.13829966  1
  Sr  Sr3  1  -0.01453787  0.50829276  0.66155887  1
  Sr  Sr4  1  -0.01188674  0.83990060  0.08804231  1
  Sr  Sr5  1  0.00889489  0.84396266  0.61155065  1
  Sr  Sr6  1  0.35263063  0.17114611  0.15992990  1
  Sr  Sr7  1  0.34572512  0.14760544  0.62294756  1
  Sr  Sr8  1  0.32949914  0.48648500  0.08925087  1
  Sr  Sr9  1  0.33494732  0.50187889  0.63063006  1
  Sr  Sr10  1  0.32784456  0.83388806  0.11619422  1
  Sr  Sr11  1  0.32154936  0.82681273  0.66530601  1
  Sr  Sr12  1  0.67293261  0.15876934  0.10936911  1
  Sr  Sr13  1  0.69453944  0.18774353  0.63854886  1
  Sr  Sr14  1  0.65863555  0.50100683  0.13124340  1
  Sr  Sr15  1  0.67027737  0.50897209  0.59185773  1
  Sr  Sr16  1  0.68245050  0.84007006  0.16692691  1
  Sr  Sr17  1  0.64686758  0.83902829  0.61656368  1
  Sr  Sr18  1  0.16785430  -0.00195307  0.13319491  1
  Sr  Sr19  1  0.14459031  0.00842077  0.58731050  1
  Sr  Sr20  1  0.15821482  0.33724003  0.12432029  1
  Sr  Sr21  1  0.17081090  0.33345826  0.58310217  1
  Sr  Sr22  1  0.16507025  0.66451893  0.15520097  1
  Sr  Sr23  1  0.16825718  0.66655575  0.62385668  1
  Sr  Sr24  1  0.50617114  0.00239822  0.08949002  1
  Sr  Sr25  1  0.47044533  -0.02524842  0.64588442  1
  Sr  Sr26  1  0.50358350  0.31785031  0.15181480  1
  Sr  Sr27  1  0.48740270  0.33188288  0.65603377  1
  Sr  Sr28  1  0.48935140  0.67520318  0.13113307  1
  Sr  Sr29  1  0.50812328  0.64621408  0.58854584  1
  Sr  Sr30  1  0.82002781  0.00850400  0.12516464  1
  Sr  Sr31  1  0.83112151  0.00171334  0.66456648  1
  Sr  Sr32  1  0.81017771  0.32826635  0.08025826  1
  Sr  Sr33  1  0.84539985  0.33579493  0.63483686  1
  Sr  Sr34  1  0.83539535  0.65550076  0.12314837  1
  Sr  Sr35  1  0.83215082  0.66840218  0.63072513  1
  Sr  Sr36  1  -0.00498118  0.16380617  0.36617457  1
  Sr  Sr37  1  0.03970123  0.18070602  0.89959851  1
  Sr  Sr38  1  -0.00106339  0.51561789  0.33758245  1
  Sr  Sr39  1  0.00306724  0.51241566  0.86121296  1
  Sr  Sr40  1  0.00919353  0.82850043  0.41143814  1
  Sr  Sr41  1  -0.00289687  0.85005270  0.88607060  1
  Sr  Sr42  1  0.35937842  0.14959452  0.37972622  1
  Sr  Sr43  1  0.34256905  0.16547480  0.84377032  1
  Sr  Sr44  1  0.31715990  0.50328811  0.41770637  1
  Sr  Sr45  1  0.33447891  0.49107528  0.86925714  1
  Sr  Sr46  1  0.31586968  0.82137936  0.33028690  1
  Sr  Sr47  1  0.33095705  0.82909146  0.88380988  1
  Sr  Sr48  1  0.67613278  0.16886249  0.37930414  1
  Sr  Sr49  1  0.69168168  0.18223334  0.87466288  1
  Sr  Sr50  1  0.65236784  0.49959217  0.36688626  1
  Sr  Sr51  1  0.67369664  0.51945543  0.91579552  1
  Sr  Sr52  1  0.65170938  0.84111961  0.38636561  1
  Sr  Sr53  1  0.67607642  0.83181221  0.82450109  1
  Sr  Sr54  1  0.16562027  0.00038235  0.36434949  1
  Sr  Sr55  1  0.16007368  -0.01248502  0.91289993  1
  Sr  Sr56  1  0.13824844  0.33929885  0.36322114  1
  Sr  Sr57  1  0.17243597  0.33587670  0.91047842  1
  Sr  Sr58  1  0.16330859  0.66752559  0.37586452  1
  Sr  Sr59  1  0.17744359  0.66087281  0.83458637  1
  Sr  Sr60  1  0.51222919  0.00649507  0.43506834  1
  Sr  Sr61  1  0.48450874  -0.01988934  0.86932705  1
  Sr  Sr62  1  0.50570971  0.32292972  0.34670640  1
  Sr  Sr63  1  0.48786939  0.32568560  0.85149046  1
  Sr  Sr64  1  0.49616407  0.65987873  0.37187575  1
  Sr  Sr65  1  0.49719725  0.64403747  0.91647136  1
  Sr  Sr66  1  0.81931219  0.01366433  0.33249483  1
  Sr  Sr67  1  0.82391259  0.00355979  0.87343336  1
  Sr  Sr68  1  0.82127307  0.32426556  0.41591772  1
  Sr  Sr69  1  0.83630959  0.33346924  0.86102517  1
  Sr  Sr70  1  0.83592338  0.65983489  0.36273535  1
  Sr  Sr71  1  0.83861537  0.66669119  0.88308544  1
  Ta  Ta72  1  0.22023366  0.16382061  0.01436958  1
  Ta  Ta73  1  0.20229103  0.17346397  0.48050379  1
  Ta  Ta74  1  0.15560098  0.52982960  0.00202919  1
  Ta  Ta75  1  0.11642068  0.50598444  0.49839438  1
  Ta  Ta76  1  0.16263071  0.78971261  -0.00341280  1
  Ta  Ta77  1  0.20590249  0.83103068  0.50348782  1
  Ta  Ta78  1  0.48716416  0.18264701  -0.00199579  1
  Ta  Ta79  1  0.51396925  0.20560892  0.50257736  1
  Ta  Ta80  1  0.49823063  0.45230142  0.00234650  1
  Ta  Ta81  1  0.49473760  0.45226645  0.49981334  1
  Ta  Ta82  1  0.53894962  0.82798414  -0.00226068  1
  Ta  Ta83  1  0.44182286  0.82394905  0.50042325  1
  Ta  Ta84  1  0.87257921  0.16226065  -0.00466417  1
  Ta  Ta85  1  0.83977859  0.13521891  0.50888041  1
  Ta  Ta86  1  0.86421104  0.49147535  0.00268360  1
  Ta  Ta87  1  0.85930625  0.50907577  0.50108942  1
  Ta  Ta88  1  0.80058268  0.83854886  -0.00498771  1
  Ta  Ta89  1  0.82471632  0.86105795  0.50034047  1
  Ta  Ta90  1  0.19313601  0.18154107  0.26120133  1
  Ta  Ta91  1  0.16559651  0.17274968  0.73336967  1
  Ta  Ta92  1  0.20684668  0.49405371  0.24711951  1
  Ta  Ta93  1  0.16827628  0.45918789  0.74606819  1
  Ta  Ta94  1  0.12262032  0.83302189  0.24055635  1
  Ta  Ta95  1  0.14668784  0.85777478  0.75142525  1
  Ta  Ta96  1  0.51970648  0.12567166  0.25936953  1
  Ta  Ta97  1  0.53011046  0.14345329  0.74754217  1
  Ta  Ta98  1  0.44972788  0.49579137  0.25600322  1
  Ta  Ta99  1  0.52153936  0.51617997  0.74632855  1
  Ta  Ta100  1  0.50046267  0.86645719  0.25417474  1
  Ta  Ta101  1  0.49832052  0.77191762  0.75051186  1
  Ta  Ta102  1  0.83235253  0.20846677  0.24031935  1
  Ta  Ta103  1  0.90172262  0.16816171  0.75216359  1
  Ta  Ta104  1  0.82417104  0.45681014  0.24638937  1
  Ta  Ta105  1  0.79177289  0.50582897  0.74907371  1
  Ta  Ta106  1  0.86942017  0.82991198  0.25154347  1
  Ta  Ta107  1  0.86281978  0.82250916  0.75159906  1
  Ta  Ta108  1  -0.00554080  -0.03871040  0.25223856  1
  Ta  Ta109  1  0.02124597  0.02262103  0.74893593  1
  Ta  Ta110  1  -0.04997026  0.33702974  0.25182578  1
  Ta  Ta111  1  0.03915272  0.32153339  0.74208093  1
  Ta  Ta112  1  -0.00561993  0.71401496  0.24983093  1
  Ta  Ta113  1  -0.00354855  0.70496506  0.75084116  1
  Ta  Ta114  1  0.38883223  -0.00555898  0.25803907  1
  Ta  Ta115  1  0.26694632  0.00260652  0.74527688  1
  Ta  Ta116  1  0.31801367  0.35744137  0.25118797  1
  Ta  Ta117  1  0.27939777  0.32945064  0.74546736  1
  Ta  Ta118  1  0.33243961  0.62343955  0.24830747  1
  Ta  Ta119  1  0.37725702  0.65791097  0.75625855  1
  Ta  Ta120  1  0.62076717  0.00338701  0.26101663  1
  Ta  Ta121  1  0.64432365  0.02052189  0.74769790  1
  Ta  Ta122  1  0.69801983  0.32911100  0.24399587  1
  Ta  Ta123  1  0.66323303  0.38571895  0.75825409  1
  Ta  Ta124  1  0.66395202  0.67038003  0.24768853  1
  Ta  Ta125  1  0.64673211  0.64563367  0.75356252  1
  Ta  Ta126  1  -0.01931779  0.02355348  0.00770942  1
  Ta  Ta127  1  -0.05562157  0.00401347  0.49355211  1
  Ta  Ta128  1  -0.01208031  0.35977100  0.00065160  1
  Ta  Ta129  1  -0.00633796  0.38455585  0.49788107  1
  Ta  Ta130  1  0.03279477  0.66142338  -0.00583294  1
  Ta  Ta131  1  -0.00328907  0.63402655  0.49767172  1
  Ta  Ta132  1  0.33306976  0.03809219  0.00202755  1
  Ta  Ta133  1  0.32217753  -0.03885301  0.49805419  1
  Ta  Ta134  1  0.35607145  0.30362387  0.00616599  1
  Ta  Ta135  1  0.35796427  0.31413384  0.49837770  1
  Ta  Ta136  1  0.29563749  0.66002440  0.00156649  1
  Ta  Ta137  1  0.33076352  0.69768916  0.49626305  1
  Ta  Ta138  1  0.66459549  -0.05760493  -0.00603978  1
  Ta  Ta139  1  0.71478140  0.00642401  0.50025165  1
  Ta  Ta140  1  0.62437432  0.33598631  -0.00244716  1
  Ta  Ta141  1  0.63205949  0.33425788  0.50455273  1
  Ta  Ta142  1  0.67076095  0.72270126  -0.00593609  1
  Ta  Ta143  1  0.69003973  0.68286561  0.50392990  1
  N  N144  1  0.33851776  0.65570664  0.87438020  1
  N  N145  1  0.83526557  0.84057855  0.87057131  1
  N  N146  1  0.83175852  0.49509989  0.12150816  1
  N  N147  1  0.66767352  0.67666857  0.87492510  1
  N  N148  1  0.33345713  0.32906770  0.12595031  1
  N  N149  1  -0.00197541  0.67215088  0.37624267  1
  N  N150  1  0.33107151  0.66106169  0.12107977  1
  N  N151  1  0.16628092  0.83133572  0.62108053  1
  N  N152  1  0.32756111  0.66478289  0.37601293  1
  N  N153  1  0.85255549  0.17424613  0.86422943  1
  N  N154  1  0.66024114  0.32837047  0.12512076  1
  N  N155  1  0.34670528  -0.01008937  0.37593567  1
  N  N156  1  0.00787736  0.34409034  0.62543274  1
  N  N157  1  0.17529779  0.16993222  0.61114951  1
  N  N158  1  0.48157652  0.48741460  0.37617311  1
  N  N159  1  0.66338751  0.34193592  0.87228067  1
  N  N160  1  0.49849227  0.49208690  0.62596887  1
  N  N161  1  -0.00711477  0.00378918  0.12843104  1
  N  N162  1  0.00597793  0.67318617  0.87180095  1
  N  N163  1  -0.01382246  -0.00224957  0.37722294  1
  N  N164  1  0.14402286  0.16110008  0.37535487  1
  N  N165  1  -0.01790242  0.34539896  0.37337790  1
  N  N166  1  0.31130990  -0.00675166  0.63339398  1
  N  N167  1  0.15682883  0.83044055  0.12136300  1
  N  N168  1  0.67122852  0.67557682  0.62343009  1
  N  N169  1  0.16557510  0.82794159  0.87280078  1
  N  N170  1  0.85345605  0.16446874  0.63177159  1
  N  N171  1  0.51558295  0.16175003  0.38731828  1
  N  N172  1  0.66488824  0.00098056  0.38660257  1
  N  N173  1  0.83884979  0.17397272  0.11912670  1
  N  N174  1  0.18182452  0.16912434  0.13472711  1
  N  N175  1  0.16913138  0.50168810  0.12360173  1
  N  N176  1  0.82986460  0.50431836  0.62476526  1
  O  O177  1  0.83607422  0.83385441  0.12191411  1
  O  O178  1  0.01122255  0.01598239  0.87418768  1
  O  O179  1  0.49348028  0.48333408  0.87733436  1
  O  O180  1  0.32277100  0.31974596  0.86768338  1
  O  O181  1  0.66246832  0.33231215  0.37793793  1
  O  O182  1  0.67255627  0.68511151  0.12404746  1
  O  O183  1  0.67251833  0.01386205  0.62511227  1
  O  O184  1  0.50505530  0.16485270  0.87527426  1
  O  O185  1  0.16394852  0.82625461  0.37589044  1
  O  O186  1  0.16092171  0.50221200  0.37469037  1
  O  O187  1  0.51088816  0.81545370  0.87008600  1
  O  O188  1  0.48607984  0.81723965  0.62567911  1
  O  O189  1  0.18703693  0.17748883  0.88973373  1
  O  O190  1  -0.00498459  0.67159367  0.12523408  1
  O  O191  1  0.65007217  -0.01272072  0.87205968  1
  O  O192  1  0.65933483  -0.01548238  0.11803583  1
  O  O193  1  0.48898559  0.83990145  0.38226141  1
  O  O194  1  -0.00343399  0.35070188  0.12667638  1
  O  O195  1  0.34861479  0.32601311  0.37470106  1
  O  O196  1  0.84182424  0.83894125  0.37963856  1
  O  O197  1  0.15896783  0.48909722  0.62110148  1
  O  O198  1  0.35581891  0.01447041  0.12539511  1
  O  O199  1  0.33027088  0.65875705  0.63321524  1
  O  O200  1  0.67190116  0.67511191  0.37161259  1
  O  O201  1  0.52033851  0.15943505  0.62410773  1
  O  O202  1  0.32990704  0.32129206  0.62497895  1
  O  O203  1  0.00503442  0.67393686  0.62109601  1
  O  O204  1  0.50566482  0.16142512  0.12383208  1
  O  O205  1  0.83276029  0.49583560  0.36974039  1
  O  O206  1  -0.00692493  0.00240586  0.62469530  1
  O  O207  1  0.83031186  0.84613458  0.62853925  1
  O  O208  1  0.51629681  0.84361189  0.12998923  1
  O  O209  1  0.16427901  0.48793292  0.87158728  1
  O  O210  1  0.48795173  0.47231044  0.12883009  1
  O  O211  1  0.83010917  0.50547735  0.87370996  1
  O  O212  1  0.31045553  0.01652489  0.87213791  1
  O  O213  1  0.64782667  0.34236774  0.63430978  1
  O  O214  1  0.83365562  0.16996331  0.36800240  1
  O  O215  1  0.01399530  0.34256815  0.87744598  1
