# generated using pymatgen
data_Sr24Ta24N11O13
_symmetry_space_group_name_H-M   'P 1'
_cell_length_a   17.04652686
_cell_length_b   16.68585681
_cell_length_c   15.48950309
_cell_angle_alpha   90.33406760
_cell_angle_beta   89.51586927
_cell_angle_gamma   90.20367050
_symmetry_Int_Tables_number   1
_chemical_formula_structural   Sr24Ta24N11O13
_chemical_formula_sum   'Sr72 Ta72 N33 O39'
_cell_volume   4405.51161444
_cell_formula_units_Z   3
loop_
 _symmetry_equiv_pos_site_id
 _symmetry_equiv_pos_as_xyz
  1  'x, y, z'
loop_
 _atom_site_type_symbol
 _atom_site_label
 _atom_site_symmetry_multiplicity
 _atom_site_fract_x
 _atom_site_fract_y
 _atom_site_fract_z
 _atom_site_occupancy
  Sr  Sr0  1  0.00307545  0.15509874  0.12732044  1
  Sr  Sr1  1  0.00921969  0.17595548  0.61497535  1
  Sr  Sr2  1  0.00615353  0.50371550  0.11571437  1
  Sr  Sr3  1  -0.00602653  0.50374577  0.66694601  1
  Sr  Sr4  1  0.03054820  0.83924392  0.09022793  1
  Sr  Sr5  1  0.00090970  0.83211548  0.62565495  1
  Sr  Sr6  1  0.32842054  0.18605751  0.17964559  1
  Sr  Sr7  1  0.34231216  0.16578926  0.62330151  1
  Sr  Sr8  1  0.33579924  0.47701848  0.07582508  1
  Sr  Sr9  1  0.34819977  0.51360454  0.64139276  1
  Sr  Sr10  1  0.31661711  0.81455468  0.13767515  1
  Sr  Sr11  1  0.39039754  0.84253335  0.57358395  1
  Sr  Sr12  1  0.68332958  0.16308896  0.09746482  1
  Sr  Sr13  1  0.68011258  0.18173704  0.64068840  1
  Sr  Sr14  1  0.67002569  0.50660750  0.14600934  1
  Sr  Sr15  1  0.68929317  0.51964749  0.58090824  1
  Sr  Sr16  1  0.72715223  0.83471317  0.10090361  1
  Sr  Sr17  1  0.67549579  0.82824187  0.65820260  1
  Sr  Sr18  1  0.15587350  -0.01402129  0.07617450  1
  Sr  Sr19  1  0.13376243  0.00737190  0.65293887  1
  Sr  Sr20  1  0.14828962  0.32022420  0.13883304  1
  Sr  Sr21  1  0.18827607  0.33407830  0.57658305  1
  Sr  Sr22  1  0.16126533  0.66664285  0.16323933  1
  Sr  Sr23  1  0.14081433  0.66477271  0.62059426  1
  Sr  Sr24  1  0.44458984  -0.00341425  0.15237900  1
  Sr  Sr25  1  0.50159153  0.01050249  0.59106883  1
  Sr  Sr26  1  0.50332814  0.33572102  0.12159126  1
  Sr  Sr27  1  0.49211234  0.32931998  0.67436748  1
  Sr  Sr28  1  0.46235896  0.66472513  0.12351304  1
  Sr  Sr29  1  0.51671785  0.66516291  0.61664992  1
  Sr  Sr30  1  0.84195156  0.00448998  0.12465778  1
  Sr  Sr31  1  0.78992021  -0.00244200  0.66628999  1
  Sr  Sr32  1  0.81751380  0.31238313  0.09776962  1
  Sr  Sr33  1  0.84670144  0.32429017  0.63675020  1
  Sr  Sr34  1  0.84499205  0.65550635  0.12332834  1
  Sr  Sr35  1  0.82364293  0.68336264  0.60700125  1
  Sr  Sr36  1  -0.00908782  0.16333108  0.38134240  1
  Sr  Sr37  1  0.03345998  0.16770248  0.87554505  1
  Sr  Sr38  1  0.00622627  0.51146404  0.32662608  1
  Sr  Sr39  1  -0.00404253  0.49954921  0.87883184  1
  Sr  Sr40  1  0.00172536  0.82289051  0.41408039  1
  Sr  Sr41  1  0.05629899  0.83556437  0.84614231  1
  Sr  Sr42  1  0.35385672  0.15868917  0.38272335  1
  Sr  Sr43  1  0.33965879  0.16342239  0.83302474  1
  Sr  Sr44  1  0.30921762  0.49910806  0.42854262  1
  Sr  Sr45  1  0.35190176  0.50593329  0.86216116  1
  Sr  Sr46  1  0.34144630  0.83168057  0.35266602  1
  Sr  Sr47  1  0.34396596  0.83907892  0.91389802  1
  Sr  Sr48  1  0.67667500  0.15230916  0.39424837  1
  Sr  Sr49  1  0.65938117  0.18034723  0.87933068  1
  Sr  Sr50  1  0.64961573  0.51473469  0.36207641  1
  Sr  Sr51  1  0.68255219  0.51947175  0.90898013  1
  Sr  Sr52  1  0.71389479  0.83852107  0.32938458  1
  Sr  Sr53  1  0.65967217  0.82889535  0.87350788  1
  Sr  Sr54  1  0.12206729  -0.01402279  0.42151281  1
  Sr  Sr55  1  0.18356072  0.01400703  0.85784539  1
  Sr  Sr56  1  0.15723637  0.31162686  0.36334860  1
  Sr  Sr57  1  0.16445566  0.35524888  0.92253113  1
  Sr  Sr58  1  0.15785701  0.67187417  0.38051736  1
  Sr  Sr59  1  0.17263373  0.65113687  0.81785911  1
  Sr  Sr60  1  0.49960802  -0.00287450  0.37565171  1
  Sr  Sr61  1  0.47302754  -0.00940572  0.90805558  1
  Sr  Sr62  1  0.50129303  0.33346199  0.33542527  1
  Sr  Sr63  1  0.49114503  0.33805960  0.88536879  1
  Sr  Sr64  1  0.48771136  0.66439894  0.38313888  1
  Sr  Sr65  1  0.49027163  0.67553734  0.87201712  1
  Sr  Sr66  1  0.82854589  0.00530006  0.33981994  1
  Sr  Sr67  1  0.77670389  -0.00010081  0.89734659  1
  Sr  Sr68  1  0.81172164  0.31660765  0.41935702  1
  Sr  Sr69  1  0.83325471  0.32991918  0.85387868  1
  Sr  Sr70  1  0.82692900  0.65425200  0.35703286  1
  Sr  Sr71  1  0.81944992  0.66835416  0.90828419  1
  Ta  Ta72  1  0.19867381  0.17135897  -0.00327234  1
  Ta  Ta73  1  0.18779204  0.14420929  0.50729941  1
  Ta  Ta74  1  0.16584128  0.55728155  -0.00695286  1
  Ta  Ta75  1  0.10957776  0.49927666  0.49780957  1
  Ta  Ta76  1  0.17877610  0.76205595  -0.01195738  1
  Ta  Ta77  1  0.20602631  0.83357612  0.51404271  1
  Ta  Ta78  1  0.46523036  0.16065263  0.01138767  1
  Ta  Ta79  1  0.51228343  0.20669820  0.49978685  1
  Ta  Ta80  1  0.52616224  0.50979984  0.00434109  1
  Ta  Ta81  1  0.50097693  0.46657734  0.50101934  1
  Ta  Ta82  1  0.53253572  0.82917425  0.03230281  1
  Ta  Ta83  1  0.56757115  0.83444840  0.48182629  1
  Ta  Ta84  1  0.86603135  0.15840718  -0.01495564  1
  Ta  Ta85  1  0.83709966  0.12524732  0.51186223  1
  Ta  Ta86  1  0.83773569  0.46942813  0.00623760  1
  Ta  Ta87  1  0.87815837  0.49701171  0.49697022  1
  Ta  Ta88  1  0.88758935  0.84495146  -0.03027517  1
  Ta  Ta89  1  0.82257435  0.86381728  0.50905671  1
  Ta  Ta90  1  0.15046756  0.11875864  0.25381524  1
  Ta  Ta91  1  0.17436858  0.22663117  0.74993829  1
  Ta  Ta92  1  0.19847137  0.49038644  0.24601039  1
  Ta  Ta93  1  0.17147185  0.45019863  0.74554957  1
  Ta  Ta94  1  0.14437333  0.85417356  0.26258035  1
  Ta  Ta95  1  0.23560104  0.83591451  0.72620443  1
  Ta  Ta96  1  0.54446041  0.15707887  0.25035590  1
  Ta  Ta97  1  0.51092718  0.13163702  0.75328841  1
  Ta  Ta98  1  0.45883935  0.50477979  0.25133418  1
  Ta  Ta99  1  0.54885220  0.51013255  0.75574176  1
  Ta  Ta100  1  0.54953440  0.83844114  0.22273699  1
  Ta  Ta101  1  0.48878031  0.85196892  0.75183008  1
  Ta  Ta102  1  0.82822925  0.19061705  0.24993253  1
  Ta  Ta103  1  0.86534152  0.14815789  0.76734262  1
  Ta  Ta104  1  0.83304769  0.44427067  0.24567900  1
  Ta  Ta105  1  0.81102438  0.52046804  0.75626019  1
  Ta  Ta106  1  0.89610254  0.83542757  0.23363482  1
  Ta  Ta107  1  0.85653382  0.83241580  0.76975091  1
  Ta  Ta108  1  0.01849494  -0.01882259  0.24680624  1
  Ta  Ta109  1  -0.04662609  -0.00556090  0.77540737  1
  Ta  Ta110  1  -0.04950826  0.32350531  0.25183511  1
  Ta  Ta111  1  0.03980426  0.33117190  0.74747867  1
  Ta  Ta112  1  -0.00266117  0.70775804  0.25099545  1
  Ta  Ta113  1  -0.04574886  0.67826090  0.75502330  1
  Ta  Ta114  1  0.25421320  -0.00312148  0.25407508  1
  Ta  Ta115  1  0.35356407  -0.03652810  0.74452178  1
  Ta  Ta116  1  0.32450152  0.38657760  0.25526981  1
  Ta  Ta117  1  0.29898972  0.34240862  0.75445501  1
  Ta  Ta118  1  0.32222003  0.60354430  0.25156964  1
  Ta  Ta119  1  0.34623229  0.71836388  0.73177321  1
  Ta  Ta120  1  0.64171085  0.00246675  0.23179772  1
  Ta  Ta121  1  0.60983532  0.00282494  0.76717607  1
  Ta  Ta122  1  0.68736596  0.31521417  0.24889974  1
  Ta  Ta123  1  0.67205284  0.39558795  0.74774392  1
  Ta  Ta124  1  0.63228967  0.69071301  0.22506499  1
  Ta  Ta125  1  0.67340357  0.64189872  0.75902766  1
  Ta  Ta126  1  -0.02833971  0.00281277  -0.03380244  1
  Ta  Ta127  1  -0.05992649  -0.00032628  0.51575765  1
  Ta  Ta128  1  -0.02570675  0.32496487  -0.00477679  1
  Ta  Ta129  1  -0.00184978  0.37225191  0.50110709  1
  Ta  Ta130  1  0.03332981  0.67081721  -0.01623446  1
  Ta  Ta131  1  -0.01256789  0.63078887  0.50005751  1
  Ta  Ta132  1  0.32339494  0.07045331  0.00708182  1
  Ta  Ta133  1  0.29518580  -0.00251924  0.50279512  1
  Ta  Ta134  1  0.33229761  0.28006305  -0.00076230  1
  Ta  Ta135  1  0.38407869  0.33129608  0.50606121  1
  Ta  Ta136  1  0.30002326  0.65615484  -0.00259194  1
  Ta  Ta137  1  0.30809220  0.68744412  0.51302232  1
  Ta  Ta138  1  0.61553121  -0.01515134  0.02987878  1
  Ta  Ta139  1  0.67979351  -0.02883028  0.49004333  1
  Ta  Ta140  1  0.66454135  0.36079436  0.00122984  1
  Ta  Ta141  1  0.61497354  0.34138035  0.50301892  1
  Ta  Ta142  1  0.63101438  0.67868656  0.01735646  1
  Ta  Ta143  1  0.66646179  0.71055357  0.47708456  1
  N  N144  1  0.66162298  0.33389690  0.12563031  1
  N  N145  1  0.80691011  0.17003840  0.87767221  1
  N  N146  1  0.69534558  0.00136367  0.11644592  1
  N  N147  1  0.80446699  0.83420848  0.88660538  1
  N  N148  1  0.49354430  0.50066380  0.38027218  1
  N  N149  1  0.49330190  0.49632800  0.12581777  1
  N  N150  1  0.01999892  0.66233190  0.85464116  1
  N  N151  1  0.18289125  0.17614564  0.86687287  1
  N  N152  1  -0.00406851  0.66763844  0.37159599  1
  N  N153  1  0.17794008  0.16989500  0.62814074  1
  N  N154  1  -0.01491621  0.66768077  0.62760986  1
  N  N155  1  0.87653821  0.83462413  0.10546591  1
  N  N156  1  0.00164620  0.33555121  0.62203294  1
  N  N157  1  0.83710033  0.49791798  0.13553495  1
  N  N158  1  0.31538075  0.64470178  0.13037887  1
  N  N159  1  0.84147263  0.16001351  0.12333876  1
  N  N160  1  0.65965980  0.67164063  0.88109300  1
  N  N161  1  0.00135978  0.33741765  0.87569718  1
  N  N162  1  0.51341842  0.16706086  0.37133889  1
  N  N163  1  0.03828736  -0.00274096  0.85879082  1
  N  N164  1  0.83703850  0.16323820  0.64135419  1
  N  N165  1  0.36776254  0.66887896  0.61715312  1
  N  N166  1  0.83650033  0.50224354  0.87800118  1
  N  N167  1  0.50356178  0.50280759  0.87176040  1
  N  N168  1  0.66112666  0.67525974  0.35511158  1
  N  N169  1  0.83261247  0.15956889  0.38137529  1
  N  N170  1  0.69659593  0.66824186  0.12070678  1
  N  N171  1  0.62656830  -0.00096464  0.89391063  1
  N  N172  1  0.34374249  0.33940906  0.62389806  1
  N  N173  1  0.16941605  0.83353098  0.38603861  1
  N  N174  1  0.33324947  0.33221743  0.88727178  1
  N  N175  1  0.66883562  -0.00765383  0.36664800  1
  N  N176  1  0.83133818  0.84246851  0.63325669  1
  O  O177  1  0.66969178  0.34886796  0.86495914  1
  O  O178  1  -0.00483451  0.31743712  0.13183922  1
  O  O179  1  0.34077515  0.35099678  0.37899915  1
  O  O180  1  0.20038375  0.80515621  0.86285490  1
  O  O181  1  0.34247033  0.00335113  0.62400997  1
  O  O182  1  -0.01847076  -0.01037560  0.63837805  1
  O  O183  1  0.65620509  0.33756780  0.37680729  1
  O  O184  1  0.17133834  0.81222296  0.11873736  1
  O  O185  1  0.48142292  0.16597192  0.14184543  1
  O  O186  1  0.33230355  0.01152410  0.87110388  1
  O  O187  1  0.64672277  -0.01288298  0.63127450  1
  O  O188  1  0.29703827  -0.01007198  0.37415649  1
  O  O189  1  0.32952778  0.33148020  0.12911626  1
  O  O190  1  0.15145672  0.48940392  0.62222462  1
  O  O191  1  0.14682961  0.14407273  0.38125134  1
  O  O192  1  0.66414652  0.36223242  0.62267635  1
  O  O193  1  0.45809245  0.83657413  0.14022936  1
  O  O194  1  0.00897116  -0.00308546  0.11371683  1
  O  O195  1  0.85737921  0.84826986  0.36369692  1
  O  O196  1  0.33691838  0.67003922  0.85303557  1
  O  O197  1  0.31588905  0.64817555  0.38730129  1
  O  O198  1  0.52622259  0.84037304  0.62501291  1
  O  O199  1  -0.01260983  0.32290737  0.37572087  1
  O  O200  1  0.16419711  0.51294581  0.11582190  1
  O  O201  1  0.00894856  0.66601482  0.12623748  1
  O  O202  1  0.52538512  0.84368002  0.36010586  1
  O  O203  1  0.16662614  0.50454256  0.86861121  1
  O  O204  1  0.15677443  0.15212770  0.12908741  1
  O  O205  1  0.49133467  0.15136357  0.87988916  1
  O  O206  1  0.30076372  0.02611435  0.12961257  1
  O  O207  1  0.84450584  0.50106897  0.62259050  1
  O  O208  1  0.67164523  0.67313721  0.61914183  1
  O  O209  1  0.15125590  0.84129477  0.63408359  1
  O  O210  1  0.51239876  0.16295986  0.62436681  1
  O  O211  1  -0.01681339  -0.00526260  0.37395614  1
  O  O212  1  0.50152068  0.50776905  0.63266576  1
  O  O213  1  0.49653427  0.83487765  0.88420231  1
  O  O214  1  0.85682845  0.49406444  0.36804088  1
  O  O215  1  0.15382297  0.49592166  0.37514175  1
