# generated using pymatgen
data_Sr24Ta24N11O13
_symmetry_space_group_name_H-M   'P 1'
_cell_length_a   16.72311168
_cell_length_b   16.83287116
_cell_length_c   15.70328966
_cell_angle_alpha   90.05602474
_cell_angle_beta   90.32453445
_cell_angle_gamma   89.80834325
_symmetry_Int_Tables_number   1
_chemical_formula_structural   Sr24Ta24N11O13
_chemical_formula_sum   'Sr72 Ta72 N33 O39'
_cell_volume   4420.34671140
_cell_formula_units_Z   3
loop_
 _symmetry_equiv_pos_site_id
 _symmetry_equiv_pos_as_xyz
  1  'x, y, z'
loop_
 _atom_site_type_symbol
 _atom_site_label
 _atom_site_symmetry_multiplicity
 _atom_site_fract_x
 _atom_site_fract_y
 _atom_site_fract_z
 _atom_site_occupancy
  Sr  Sr0  1  -0.00897338  0.16103752  0.08485871  1
  Sr  Sr1  1  0.01256626  0.18940116  0.62394443  1
  Sr  Sr2  1  0.00502408  0.48535502  0.13968095  1
  Sr  Sr3  1  -0.01045518  0.51205470  0.58645052  1
  Sr  Sr4  1  0.00299348  0.85118001  0.14973421  1
  Sr  Sr5  1  0.00335395  0.84986809  0.63656333  1
  Sr  Sr6  1  0.33001106  0.16876441  0.11962098  1
  Sr  Sr7  1  0.32892522  0.18538728  0.64526344  1
  Sr  Sr8  1  0.34325751  0.52555071  0.12820469  1
  Sr  Sr9  1  0.33036453  0.50139559  0.62690434  1
  Sr  Sr10  1  0.33181212  0.83646517  0.12910813  1
  Sr  Sr11  1  0.33660253  0.86017806  0.63076459  1
  Sr  Sr12  1  0.69317966  0.16890322  0.16603442  1
  Sr  Sr13  1  0.65863654  0.16609979  0.61343164  1
  Sr  Sr14  1  0.66320159  0.49517480  0.11507782  1
  Sr  Sr15  1  0.68242356  0.51520863  0.67479113  1
  Sr  Sr16  1  0.67098618  0.84153940  0.12828398  1
  Sr  Sr17  1  0.66239934  0.82687589  0.58267231  1
  Sr  Sr18  1  0.18494982  -0.01900251  0.17460319  1
  Sr  Sr19  1  0.16178350  -0.00666149  0.60283828  1
  Sr  Sr20  1  0.15750366  0.31277506  0.11308823  1
  Sr  Sr21  1  0.18362066  0.32765378  0.67038255  1
  Sr  Sr22  1  0.15070944  0.65944034  0.11461080  1
  Sr  Sr23  1  0.16192114  0.63705170  0.60017717  1
  Sr  Sr24  1  0.49520347  -0.01243498  0.08144302  1
  Sr  Sr25  1  0.50329020  0.00320660  0.63245280  1
  Sr  Sr26  1  0.49245601  0.30472769  0.12726997  1
  Sr  Sr27  1  0.49289620  0.33239144  0.58575147  1
  Sr  Sr28  1  0.49826252  0.67083199  0.16609335  1
  Sr  Sr29  1  0.48915310  0.65303365  0.62909912  1
  Sr  Sr30  1  0.83482389  -0.00292603  0.11757061  1
  Sr  Sr31  1  0.83559816  -0.01337672  0.65566896  1
  Sr  Sr32  1  0.82376627  0.34671926  0.16236728  1
  Sr  Sr33  1  0.83886712  0.32778068  0.61696672  1
  Sr  Sr34  1  0.81326659  0.65071256  0.07147471  1
  Sr  Sr35  1  0.83661575  0.67154451  0.63200179  1
  Sr  Sr36  1  0.00521037  0.16995255  0.41502789  1
  Sr  Sr37  1  0.00598896  0.18589548  0.87732345  1
  Sr  Sr38  1  -0.02252487  0.47587346  0.36800094  1
  Sr  Sr39  1  0.00471767  0.51931853  0.91648376  1
  Sr  Sr40  1  0.00119846  0.85470154  0.35856089  1
  Sr  Sr41  1  -0.00729074  0.84230380  0.84655469  1
  Sr  Sr42  1  0.32001708  0.18304849  0.33799749  1
  Sr  Sr43  1  0.33514275  0.18606727  0.89241354  1
  Sr  Sr44  1  0.35368702  0.50844396  0.40409405  1
  Sr  Sr45  1  0.32199103  0.51179001  0.85279591  1
  Sr  Sr46  1  0.33025831  0.86334454  0.37773289  1
  Sr  Sr47  1  0.34490234  0.84443988  0.86954587  1
  Sr  Sr48  1  0.66743786  0.17212675  0.38471600  1
  Sr  Sr49  1  0.68140214  0.15670390  0.83022261  1
  Sr  Sr50  1  0.67375368  0.50367780  0.34208728  1
  Sr  Sr51  1  0.66970754  0.50010318  0.88245854  1
  Sr  Sr52  1  0.66481192  0.82816530  0.36909518  1
  Sr  Sr53  1  0.66690943  0.84857085  0.91690957  1
  Sr  Sr54  1  0.16355226  0.00445932  0.38663185  1
  Sr  Sr55  1  0.16975918  -0.03825496  0.84069852  1
  Sr  Sr56  1  0.16964633  0.32975210  0.34017674  1
  Sr  Sr57  1  0.15878821  0.32445139  0.88415336  1
  Sr  Sr58  1  0.13079745  0.62876497  0.37846071  1
  Sr  Sr59  1  0.16612248  0.65836508  0.90089181  1
  Sr  Sr60  1  0.51491641  -0.01380796  0.41919346  1
  Sr  Sr61  1  0.49272900  0.01457968  0.86595403  1
  Sr  Sr62  1  0.48905595  0.31805648  0.37848392  1
  Sr  Sr63  1  0.50462251  0.33860151  0.91827938  1
  Sr  Sr64  1  0.50474115  0.65853682  0.36733399  1
  Sr  Sr65  1  0.48589338  0.65602706  0.83781145  1
  Sr  Sr66  1  0.82124881  -0.01701601  0.32903408  1
  Sr  Sr67  1  0.84514219  0.00380478  0.88601565  1
  Sr  Sr68  1  0.82936126  0.31834122  0.38673437  1
  Sr  Sr69  1  0.81583183  0.32843177  0.83773952  1
  Sr  Sr70  1  0.82882615  0.66705939  0.41237960  1
  Sr  Sr71  1  0.82817900  0.65986608  0.86500231  1
  Ta  Ta72  1  0.16715581  0.10938175  -0.00155603  1
  Ta  Ta73  1  0.18748432  0.19052131  0.49995293  1
  Ta  Ta74  1  0.18949580  0.48198753  0.00039391  1
  Ta  Ta75  1  0.17135477  0.45166339  0.50749073  1
  Ta  Ta76  1  0.15299049  0.84368570  0.01141454  1
  Ta  Ta77  1  0.16342595  0.80092750  0.48517126  1
  Ta  Ta78  1  0.56749105  0.16242957  -0.00057856  1
  Ta  Ta79  1  0.46356048  0.15846639  0.50021989  1
  Ta  Ta80  1  0.48841894  0.53245678  0.00058338  1
  Ta  Ta81  1  0.55172146  0.50148110  0.49907388  1
  Ta  Ta82  1  0.49455213  0.78998324  0.00021710  1
  Ta  Ta83  1  0.48138643  0.80240463  0.50034905  1
  Ta  Ta84  1  0.80828503  0.18704357  -0.00557304  1
  Ta  Ta85  1  0.83311953  0.12125781  0.49585866  1
  Ta  Ta86  1  0.83265749  0.46177464  -0.00354020  1
  Ta  Ta87  1  0.78893870  0.49955233  0.50892295  1
  Ta  Ta88  1  0.85968632  0.82778625  -0.00044518  1
  Ta  Ta89  1  0.84681020  0.85317186  0.49174566  1
  Ta  Ta90  1  0.12540604  0.15991476  0.25158716  1
  Ta  Ta91  1  0.16421261  0.13426341  0.74857622  1
  Ta  Ta92  1  0.20361852  0.50083179  0.25187880  1
  Ta  Ta93  1  0.12762152  0.50671814  0.75177600  1
  Ta  Ta94  1  0.17357661  0.79212057  0.26375655  1
  Ta  Ta95  1  0.16998526  0.78535003  0.74447378  1
  Ta  Ta96  1  0.50922230  0.12790220  0.24961262  1
  Ta  Ta97  1  0.49761265  0.20069965  0.74775241  1
  Ta  Ta98  1  0.49776663  0.46908230  0.25337068  1
  Ta  Ta99  1  0.50169218  0.45844093  0.74884329  1
  Ta  Ta100  1  0.49918242  0.86660535  0.25479130  1
  Ta  Ta101  1  0.53880515  0.83234611  0.74573181  1
  Ta  Ta102  1  0.87766184  0.16225496  0.25634775  1
  Ta  Ta103  1  0.86486912  0.15250686  0.74710639  1
  Ta  Ta104  1  0.83453817  0.55136074  0.23966871  1
  Ta  Ta105  1  0.87853180  0.50043622  0.75384423  1
  Ta  Ta106  1  0.83144181  0.78124608  0.24705706  1
  Ta  Ta107  1  0.78225557  0.82937065  0.75097426  1
  Ta  Ta108  1  0.00193596  0.04457036  0.25447708  1
  Ta  Ta109  1  0.00797131  0.03616460  0.74670637  1
  Ta  Ta110  1  -0.00234133  0.28722892  0.24475222  1
  Ta  Ta111  1  -0.00166250  0.37443001  0.75771173  1
  Ta  Ta112  1  -0.03937258  0.67090455  0.24346147  1
  Ta  Ta113  1  0.01691036  0.65370062  0.75328616  1
  Ta  Ta114  1  0.38393833  0.00940526  0.25144788  1
  Ta  Ta115  1  0.32267396  0.03018402  0.74481588  1
  Ta  Ta116  1  0.33759729  0.37284987  0.24585587  1
  Ta  Ta117  1  0.38003960  0.34155301  0.75065734  1
  Ta  Ta118  1  0.29883354  0.67094088  0.25381960  1
  Ta  Ta119  1  0.29873249  0.68845571  0.74725375  1
  Ta  Ta120  1  0.62659909  0.00029743  0.24928111  1
  Ta  Ta121  1  0.66739405  -0.03926528  0.74492133  1
  Ta  Ta122  1  0.63912904  0.34120679  0.25695127  1
  Ta  Ta123  1  0.61901275  0.33498350  0.75111849  1
  Ta  Ta124  1  0.70509259  0.66892260  0.24265090  1
  Ta  Ta125  1  0.66176762  0.71108891  0.75679993  1
  Ta  Ta126  1  0.04378191  -0.01325146  0.00073966  1
  Ta  Ta127  1  -0.04586755  -0.00197502  0.49413359  1
  Ta  Ta128  1  -0.04714612  0.33873514  -0.00123996  1
  Ta  Ta129  1  0.05623959  0.33895844  0.50352525  1
  Ta  Ta130  1  -0.01051006  0.71754620  -0.00324243  1
  Ta  Ta131  1  -0.00253476  0.71233093  0.49872336  1
  Ta  Ta132  1  0.29434909  -0.00280517  0.00509003  1
  Ta  Ta133  1  0.33498031  0.05031899  0.49445858  1
  Ta  Ta134  1  0.32813614  0.37374325  0.01201340  1
  Ta  Ta135  1  0.30663014  0.32482522  0.49795711  1
  Ta  Ta136  1  0.36195822  0.67465395  0.00505254  1
  Ta  Ta137  1  0.32722258  0.70057766  0.49294979  1
  Ta  Ta138  1  0.67482738  0.04052611  0.00386405  1
  Ta  Ta139  1  0.71008418  -0.00090362  0.49570761  1
  Ta  Ta140  1  0.68814624  0.30680155  -0.00411616  1
  Ta  Ta141  1  0.66803652  0.37403579  0.50315407  1
  Ta  Ta142  1  0.61427086  0.66728989  -0.00557765  1
  Ta  Ta143  1  0.65673456  0.63588658  0.50391626  1
  N  N144  1  0.50918713  0.49560635  0.37437677  1
  N  N145  1  -0.00271777  0.00734230  0.37844744  1
  N  N146  1  0.16052085  0.84941442  0.37041655  1
  N  N147  1  0.33639976  0.00190492  0.12269924  1
  N  N148  1  0.67236026  -0.00846451  0.62302213  1
  N  N149  1  -0.00308346  0.34017366  0.87673599  1
  N  N150  1  0.50472086  0.82727961  0.62278919  1
  N  N151  1  0.65793744  0.66871242  0.87748203  1
  N  N152  1  0.16116742  0.16706768  0.37295328  1
  N  N153  1  0.16579966  0.49588075  0.88004719  1
  N  N154  1  0.66092258  0.32792996  0.87359057  1
  N  N155  1  0.33258961  0.32560551  0.12519064  1
  N  N156  1  -0.01168931  0.32002063  0.12434630  1
  N  N157  1  0.16601680  0.16338948  0.62812822  1
  N  N158  1  0.16364730  0.48618670  0.63142309  1
  N  N159  1  0.33233524  0.34208377  0.37481621  1
  N  N160  1  0.66808154  -0.00559271  0.37633056  1
  N  N161  1  0.32897686  0.01518700  0.62325746  1
  N  N162  1  -0.00093562  0.67925625  0.87449909  1
  N  N163  1  0.66853332  0.00291709  0.12461954  1
  N  N164  1  0.83079163  0.50319002  0.12311862  1
  N  N165  1  0.16270328  0.82748832  0.13408006  1
  N  N166  1  0.34137070  0.34279389  0.63038798  1
  N  N167  1  0.33728098  0.01700594  0.36663668  1
  N  N168  1  0.33100340  0.67798882  0.12550389  1
  N  N169  1  0.66526670  0.33341453  0.37821566  1
  N  N170  1  0.83154748  0.82521563  0.37114416  1
  N  N171  1  0.49596686  0.17382842  0.62559114  1
  N  N172  1  0.83895008  0.16488311  0.86968397  1
  N  N173  1  0.83290371  0.50394803  0.62543038  1
  N  N174  1  0.50110403  0.83041988  0.37301080  1
  N  N175  1  0.83313022  0.50031581  0.87016761  1
  N  N176  1  0.83106025  0.16047543  0.37134087  1
  O  O177  1  -0.01722093  0.68813733  0.37581707  1
  O  O178  1  -0.00029697  0.00453238  0.61887819  1
  O  O179  1  -0.00411550  0.69236273  0.62510325  1
  O  O180  1  0.84182316  0.16325069  0.62020086  1
  O  O181  1  0.52507224  0.16997552  0.87785328  1
  O  O182  1  0.16882093  0.16102719  0.88214998  1
  O  O183  1  0.19152417  0.48930558  0.37829644  1
  O  O184  1  0.16129029  0.80499845  0.61872054  1
  O  O185  1  0.16338169  0.15034506  0.12130472  1
  O  O186  1  0.31683000  0.68412397  0.61674533  1
  O  O187  1  0.82151946  0.83158372  0.62720299  1
  O  O188  1  0.50039551  0.51783229  0.12768993  1
  O  O189  1  0.66587573  0.32878900  0.13080514  1
  O  O190  1  0.83107153  0.83405682  0.87533542  1
  O  O191  1  0.35024671  0.34279898  0.88624984  1
  O  O192  1  0.16249651  0.81246388  0.87312315  1
  O  O193  1  0.84024468  0.83356034  0.12695359  1
  O  O194  1  0.83951619  0.16343342  0.12192050  1
  O  O195  1  0.17065391  0.50357262  0.13079215  1
  O  O196  1  0.49706075  0.82153552  0.12729799  1
  O  O197  1  0.49825849  0.81089559  0.86967462  1
  O  O198  1  0.01380113  0.34206543  0.62483075  1
  O  O199  1  0.66073538  0.66702718  0.11970549  1
  O  O200  1  0.65805030  0.33206461  0.62581328  1
  O  O201  1  0.01515486  0.32728235  0.37922633  1
  O  O202  1  0.01927576  -0.00379414  0.87477565  1
  O  O203  1  -0.01264253  0.67281871  0.11901573  1
  O  O204  1  0.67657562  0.00005530  0.87308391  1
  O  O205  1  0.82774863  0.51637051  0.38059848  1
  O  O206  1  0.65608642  0.66394743  0.63001656  1
  O  O207  1  0.32829201  -0.00033286  0.87563214  1
  O  O208  1  0.34607246  0.67050257  0.36889921  1
  O  O209  1  0.49299900  0.50172849  0.87767282  1
  O  O210  1  0.50823884  0.49393901  0.62209039  1
  O  O211  1  0.50579513  0.15211336  0.37777949  1
  O  O212  1  0.52018151  0.15128478  0.12179103  1
  O  O213  1  0.67060095  0.65754321  0.37597215  1
  O  O214  1  0.32650120  0.68225405  0.87270042  1
  O  O215  1  0.02057796  0.00088443  0.12662575  1
