# generated using pymatgen
data_Sr24Ta24N11O13
_symmetry_space_group_name_H-M   'P 1'
_cell_length_a   17.69283421
_cell_length_b   16.66753892
_cell_length_c   14.96988072
_cell_angle_alpha   90.07282180
_cell_angle_beta   91.61124296
_cell_angle_gamma   90.59097046
_symmetry_Int_Tables_number   1
_chemical_formula_structural   Sr24Ta24N11O13
_chemical_formula_sum   'Sr72 Ta72 N33 O39'
_cell_volume   4412.57243639
_cell_formula_units_Z   3
loop_
 _symmetry_equiv_pos_site_id
 _symmetry_equiv_pos_as_xyz
  1  'x, y, z'
loop_
 _atom_site_type_symbol
 _atom_site_label
 _atom_site_symmetry_multiplicity
 _atom_site_fract_x
 _atom_site_fract_y
 _atom_site_fract_z
 _atom_site_occupancy
  Sr  Sr0  1  -0.01055499  0.16375783  0.11967123  1
  Sr  Sr1  1  0.04457676  0.16869489  0.66797854  1
  Sr  Sr2  1  0.01664910  0.50754529  0.13563845  1
  Sr  Sr3  1  0.00475345  0.48431909  0.60082188  1
  Sr  Sr4  1  0.02932387  0.80510925  0.13766573  1
  Sr  Sr5  1  -0.00125184  0.83203124  0.63018444  1
  Sr  Sr6  1  0.37495523  0.16149812  0.14511927  1
  Sr  Sr7  1  0.34443670  0.15189354  0.60195175  1
  Sr  Sr8  1  0.38038400  0.47525897  0.11233766  1
  Sr  Sr9  1  0.33390448  0.49822353  0.63507143  1
  Sr  Sr10  1  0.33409472  0.83974053  0.11949109  1
  Sr  Sr11  1  0.37878870  0.84060847  0.67318395  1
  Sr  Sr12  1  0.69649435  0.13660770  0.13983883  1
  Sr  Sr13  1  0.66734124  0.16298412  0.63224993  1
  Sr  Sr14  1  0.66674160  0.50321007  0.12502652  1
  Sr  Sr15  1  0.71490459  0.50104971  0.67749341  1
  Sr  Sr16  1  0.70392110  0.84225612  0.14711833  1
  Sr  Sr17  1  0.67359168  0.81636014  0.60745816  1
  Sr  Sr18  1  0.13450866  0.02632001  0.11509375  1
  Sr  Sr19  1  0.16723336  0.00846088  0.61417605  1
  Sr  Sr20  1  0.12210949  0.32995109  0.10079004  1
  Sr  Sr21  1  0.15777646  0.34625718  0.65565588  1
  Sr  Sr22  1  0.17267712  0.66875249  0.12683781  1
  Sr  Sr23  1  0.12072998  0.66406072  0.57587165  1
  Sr  Sr24  1  0.47266916  -0.00413482  0.11403975  1
  Sr  Sr25  1  0.49261886  0.01586593  0.64736401  1
  Sr  Sr26  1  0.51045221  0.32359746  0.13445871  1
  Sr  Sr27  1  0.45516065  0.33362944  0.59211098  1
  Sr  Sr28  1  0.46847324  0.69061349  0.11562454  1
  Sr  Sr29  1  0.49660550  0.67669972  0.61998969  1
  Sr  Sr30  1  0.84647339  0.00399496  0.12833511  1
  Sr  Sr31  1  0.78765714  -0.00372081  0.57059639  1
  Sr  Sr32  1  0.80490224  0.35905810  0.11979369  1
  Sr  Sr33  1  0.83353572  0.34109536  0.61771107  1
  Sr  Sr34  1  0.80055517  0.66371383  0.11036795  1
  Sr  Sr35  1  0.82783390  0.68256788  0.64301179  1
  Sr  Sr36  1  0.01173092  0.15600764  0.35046938  1
  Sr  Sr37  1  -0.00353038  0.15756752  0.89260341  1
  Sr  Sr38  1  0.01836927  0.49432130  0.37689322  1
  Sr  Sr39  1  0.04557166  0.50055856  0.91195699  1
  Sr  Sr40  1  0.05221881  0.82488366  0.41359710  1
  Sr  Sr41  1  0.00794260  0.81714163  0.84507979  1
  Sr  Sr42  1  0.33773688  0.16605556  0.38240971  1
  Sr  Sr43  1  0.38080384  0.16505235  0.91110124  1
  Sr  Sr44  1  0.36912814  0.49660817  0.40778354  1
  Sr  Sr45  1  0.34216008  0.48469384  0.85293580  1
  Sr  Sr46  1  0.34544067  0.81790079  0.35059374  1
  Sr  Sr47  1  0.33700331  0.83254932  0.89199425  1
  Sr  Sr48  1  0.71468906  0.16541157  0.41665197  1
  Sr  Sr49  1  0.67793003  0.15384184  0.84787599  1
  Sr  Sr50  1  0.67045036  0.48312457  0.35925554  1
  Sr  Sr51  1  0.67486517  0.48850937  0.89766244  1
  Sr  Sr52  1  0.66944191  0.82620534  0.39055537  1
  Sr  Sr53  1  0.71186345  0.83149808  0.90032683  1
  Sr  Sr54  1  0.15916105  0.02170492  0.40007483  1
  Sr  Sr55  1  0.11477165  0.00093298  0.82777862  1
  Sr  Sr56  1  0.13249819  0.33572803  0.33592382  1
  Sr  Sr57  1  0.16264845  0.34173964  0.86961841  1
  Sr  Sr58  1  0.17004255  0.65658366  0.35454074  1
  Sr  Sr59  1  0.15662564  0.68351124  0.89536991  1
  Sr  Sr60  1  0.45342790  0.00312194  0.34661343  1
  Sr  Sr61  1  0.49109444  0.00045459  0.86783521  1
  Sr  Sr62  1  0.48200414  0.33403177  0.36019510  1
  Sr  Sr63  1  0.48882831  0.35057457  0.90309772  1
  Sr  Sr64  1  0.48524404  0.68052540  0.40296769  1
  Sr  Sr65  1  0.44809581  0.67293481  0.83827625  1
  Sr  Sr66  1  0.83392841  0.00685237  0.35423035  1
  Sr  Sr67  1  0.82454204  0.01638888  0.89744334  1
  Sr  Sr68  1  0.83173450  0.34662851  0.40188848  1
  Sr  Sr69  1  0.78829500  0.33460309  0.83279520  1
  Sr  Sr70  1  0.78179797  0.66978599  0.34948913  1
  Sr  Sr71  1  0.82743259  0.67021730  0.86008127  1
  Ta  Ta72  1  0.20387849  0.16405902  -0.03007884  1
  Ta  Ta73  1  0.16885237  0.20863226  0.50576686  1
  Ta  Ta74  1  0.21928506  0.49724627  0.00910376  1
  Ta  Ta75  1  0.19029281  0.47710578  0.48561655  1
  Ta  Ta76  1  0.16131692  0.87276954  -0.01396184  1
  Ta  Ta77  1  0.22871670  0.82660065  0.52457500  1
  Ta  Ta78  1  0.55399284  0.15626254  0.00940313  1
  Ta  Ta79  1  0.52660792  0.16098464  0.48107112  1
  Ta  Ta80  1  0.51078246  0.54635239  -0.01992271  1
  Ta  Ta81  1  0.55277237  0.49536817  0.52770387  1
  Ta  Ta82  1  0.53646234  0.83409269  -0.01120608  1
  Ta  Ta83  1  0.49914758  0.86722283  0.50353960  1
  Ta  Ta84  1  0.82564937  0.20339483  -0.00461397  1
  Ta  Ta85  1  0.89140466  0.16354557  0.51410655  1
  Ta  Ta86  1  0.86509301  0.50266418  -0.01895151  1
  Ta  Ta87  1  0.83171645  0.53389329  0.50624064  1
  Ta  Ta88  1  0.88197280  0.82753496  0.00177041  1
  Ta  Ta89  1  0.86502778  0.82319168  0.47628434  1
  Ta  Ta90  1  0.19806997  0.17616742  0.23523669  1
  Ta  Ta91  1  0.22326555  0.16524928  0.76669045  1
  Ta  Ta92  1  0.22320134  0.48677083  0.22424420  1
  Ta  Ta93  1  0.16269063  0.54062169  0.74819664  1
  Ta  Ta94  1  0.17605148  0.87236112  0.25485587  1
  Ta  Ta95  1  0.19383493  0.82341565  0.72030110  1
  Ta  Ta96  1  0.55579104  0.15738406  0.27143450  1
  Ta  Ta97  1  0.49836412  0.20205352  0.74168469  1
  Ta  Ta98  1  0.50710123  0.53708744  0.25515060  1
  Ta  Ta99  1  0.53313573  0.49978867  0.73731783  1
  Ta  Ta100  1  0.52853142  0.83786367  0.24616033  1
  Ta  Ta101  1  0.55311259  0.83071390  0.76915397  1
  Ta  Ta102  1  0.83993734  0.20411573  0.25205477  1
  Ta  Ta103  1  0.85809914  0.16006314  0.73389701  1
  Ta  Ta104  1  0.85960296  0.50778818  0.24569039  1
  Ta  Ta105  1  0.89245992  0.49700194  0.76946314  1
  Ta  Ta106  1  0.88692407  0.82401599  0.27419743  1
  Ta  Ta107  1  0.83127017  0.87455756  0.73323664  1
  Ta  Ta108  1  0.00804603  -0.03932235  0.25917770  1
  Ta  Ta109  1  -0.06197489  0.00852066  0.72312398  1
  Ta  Ta110  1  -0.04677984  0.33885322  0.24363864  1
  Ta  Ta111  1  -0.02700076  0.34271006  0.77426830  1
  Ta  Ta112  1  -0.04650283  0.66416477  0.27683072  1
  Ta  Ta113  1  0.00597748  0.63152211  0.74608893  1
  Ta  Ta114  1  0.28153832  0.00518692  0.24617117  1
  Ta  Ta115  1  0.30404808  0.01361235  0.76607035  1
  Ta  Ta116  1  0.29817150  0.33039737  0.23249911  1
  Ta  Ta117  1  0.33440992  0.29529244  0.76084307  1
  Ta  Ta118  1  0.33866911  0.62171721  0.25650445  1
  Ta  Ta119  1  0.27198916  0.67718189  0.72313339  1
  Ta  Ta120  1  0.62706164  -0.00384310  0.27886070  1
  Ta  Ta121  1  0.67070236  -0.02993544  0.74063780  1
  Ta  Ta122  1  0.67285626  0.29671132  0.26723633  1
  Ta  Ta123  1  0.60853311  0.33874699  0.73486891  1
  Ta  Ta124  1  0.61268006  0.66878405  0.25164565  1
  Ta  Ta125  1  0.62941028  0.66602087  0.78030959  1
  Ta  Ta126  1  -0.00673204  -0.04560370  -0.00132245  1
  Ta  Ta127  1  -0.02506731  0.01196417  0.52564220  1
  Ta  Ta128  1  -0.05556708  0.34202061  -0.01601168  1
  Ta  Ta129  1  0.01054854  0.30081953  0.50132357  1
  Ta  Ta130  1  -0.03384892  0.66685127  0.00366598  1
  Ta  Ta131  1  -0.05758996  0.66391500  0.47343726  1
  Ta  Ta132  1  0.27991934  0.01027368  -0.00751508  1
  Ta  Ta133  1  0.33406869  -0.03614898  0.50665171  1
  Ta  Ta134  1  0.30070810  0.32111195  0.01570642  1
  Ta  Ta135  1  0.27968784  0.33601463  0.49194855  1
  Ta  Ta136  1  0.32037373  0.63725528  -0.00382678  1
  Ta  Ta137  1  0.30576572  0.67869938  0.51580587  1
  Ta  Ta138  1  0.63922778  -0.00566903  0.00518415  1
  Ta  Ta139  1  0.60991165  0.00358641  0.48060060  1
  Ta  Ta140  1  0.66119421  0.29288006  -0.00519999  1
  Ta  Ta141  1  0.63914064  0.34659506  0.53295925  1
  Ta  Ta142  1  0.61551146  0.67539080  -0.01605173  1
  Ta  Ta143  1  0.65990013  0.62580035  0.51179015  1
  N  N144  1  0.15766502  0.50093010  0.11633183  1
  N  N145  1  0.64660590  0.32509984  0.87014640  1
  N  N146  1  0.49466618  0.83388007  0.37083616  1
  N  N147  1  0.47657022  0.17560816  0.35686200  1
  N  N148  1  0.49011481  0.50439995  0.85416675  1
  N  N149  1  0.02670002  -0.00279406  0.64269365  1
  N  N150  1  0.32757515  0.65535046  0.38821636  1
  N  N151  1  -0.00755049  0.33098888  0.37755587  1
  N  N152  1  0.84187308  0.16561978  0.12382919  1
  N  N153  1  0.51980297  0.83511322  0.63444104  1
  N  N154  1  0.49953593  0.17374750  0.61222502  1
  N  N155  1  0.85910196  0.16950373  0.38868416  1
  N  N156  1  0.49397103  0.84232164  0.10870325  1
  N  N157  1  0.81230848  0.50649200  0.85751503  1
  N  N158  1  0.80794640  0.84363142  0.36106434  1
  N  N159  1  0.32940987  -0.00026434  0.64255312  1
  N  N160  1  0.83730911  0.51235867  0.11617567  1
  N  N161  1  0.64242966  0.65943749  0.38705594  1
  N  N162  1  -0.00656980  -0.01246946  0.13144376  1
  N  N163  1  0.33781605  0.32976541  0.88650846  1
  N  N164  1  0.64827798  -0.00318835  0.61585343  1
  N  N165  1  0.18667585  0.17473202  0.63025628  1
  N  N166  1  0.52405199  0.16036252  0.13439340  1
  N  N167  1  0.85332669  0.50752779  0.63118981  1
  N  N168  1  0.83423928  0.83826811  0.60764237  1
  N  N169  1  -0.02257148  0.33856324  0.10868086  1
  N  N170  1  0.47958979  0.83772255  0.86386041  1
  N  N171  1  0.31842263  0.00251903  0.11469278  1
  N  N172  1  0.31294442  0.00084208  0.38236037  1
  N  N173  1  0.18534925  0.50455663  0.86938124  1
  N  N174  1  0.83400262  0.17055826  0.85989826  1
  N  N175  1  0.69318221  0.33424295  0.64849181  1
  N  N176  1  0.36342860  0.31644860  0.12805867  1
  O  O177  1  0.51714638  0.50537121  0.38649184  1
  O  O178  1  0.30513563  0.66543251  0.86500458  1
  O  O179  1  0.16317532  0.84494508  0.85375662  1
  O  O180  1  0.02648345  0.30958377  0.89037524  1
  O  O181  1  0.16918960  0.85622733  0.11676719  1
  O  O182  1  0.65411457  0.66382868  0.64633582  1
  O  O183  1  0.47066341  0.51690180  0.61595043  1
  O  O184  1  0.69729939  0.00211704  0.39386047  1
  O  O185  1  0.19168429  0.84335691  0.38453905  1
  O  O186  1  0.65061621  0.66537399  0.12405446  1
  O  O187  1  0.00894178  -0.00363807  0.39227396  1
  O  O188  1  0.17901977  0.49664210  0.61729448  1
  O  O189  1  0.69615299  0.65434496  0.89516084  1
  O  O190  1  -0.00085128  0.33244641  0.64123838  1
  O  O191  1  0.32517239  0.66472757  0.12941231  1
  O  O192  1  0.85990390  0.82850567  0.13323654  1
  O  O193  1  0.17408908  0.17816683  0.36585441  1
  O  O194  1  0.13621263  0.16610562  0.85370353  1
  O  O195  1  0.51812051  0.16031120  0.86918641  1
  O  O196  1  0.35864151  0.65473856  0.64014097  1
  O  O197  1  0.00736100  0.66067984  0.87732028  1
  O  O198  1  0.31305755  0.33745222  0.62925864  1
  O  O199  1  0.81431907  0.50010231  0.36934365  1
  O  O200  1  0.67379440  -0.00483273  0.87990213  1
  O  O201  1  0.35450040  -0.01230255  0.89396394  1
  O  O202  1  0.64302769  -0.01174375  0.14072809  1
  O  O203  1  -0.01644221  0.65143317  0.61392210  1
  O  O204  1  0.67632254  0.32439603  0.39997579  1
  O  O205  1  0.85703440  0.83076128  0.86340011  1
  O  O206  1  -0.03647369  0.66306680  0.13599952  1
  O  O207  1  -0.02470269  0.00036817  0.87184324  1
  O  O208  1  0.17046641  0.49143613  0.35384470  1
  O  O209  1  0.51413208  0.52557316  0.11866835  1
  O  O210  1  0.02932315  0.66378703  0.38578959  1
  O  O211  1  0.33111837  0.32869214  0.37217239  1
  O  O212  1  0.13352821  0.82412730  0.59957674  1
  O  O213  1  0.17749538  0.17518065  0.10286415  1
  O  O214  1  0.80645434  0.18371298  0.60788414  1
  O  O215  1  0.66215233  0.31454349  0.13693212  1
