# generated using pymatgen
data_Sr24Ta24N11O13
_symmetry_space_group_name_H-M   'P 1'
_cell_length_a   16.76692914
_cell_length_b   16.82096777
_cell_length_c   15.75736659
_cell_angle_alpha   90.04889680
_cell_angle_beta   89.97222619
_cell_angle_gamma   90.01059279
_symmetry_Int_Tables_number   1
_chemical_formula_structural   Sr24Ta24N11O13
_chemical_formula_sum   'Sr72 Ta72 N33 O39'
_cell_volume   4444.14202616
_cell_formula_units_Z   3
loop_
 _symmetry_equiv_pos_site_id
 _symmetry_equiv_pos_as_xyz
  1  'x, y, z'
loop_
 _atom_site_type_symbol
 _atom_site_label
 _atom_site_symmetry_multiplicity
 _atom_site_fract_x
 _atom_site_fract_y
 _atom_site_fract_z
 _atom_site_occupancy
  Sr  Sr0  1  -0.00239613  0.16315621  0.08826381  1
  Sr  Sr1  1  0.03557919  0.18064717  0.63184217  1
  Sr  Sr2  1  -0.00525834  0.51188085  0.11667747  1
  Sr  Sr3  1  0.00412099  0.49837771  0.66590619  1
  Sr  Sr4  1  -0.00364141  0.87176780  0.16361419  1
  Sr  Sr5  1  -0.00077713  0.82644573  0.61398341  1
  Sr  Sr6  1  0.31746015  0.18708235  0.14472819  1
  Sr  Sr7  1  0.35200621  0.17110963  0.58635022  1
  Sr  Sr8  1  0.33498009  0.51413505  0.10867149  1
  Sr  Sr9  1  0.32657654  0.50564793  0.62891011  1
  Sr  Sr10  1  0.31742701  0.84102909  0.11100253  1
  Sr  Sr11  1  0.34241540  0.85378811  0.65408510  1
  Sr  Sr12  1  0.67409596  0.18591728  0.12201490  1
  Sr  Sr13  1  0.66548167  0.15814150  0.67008996  1
  Sr  Sr14  1  0.65190621  0.51605164  0.11805702  1
  Sr  Sr15  1  0.68398424  0.50078058  0.61087049  1
  Sr  Sr16  1  0.66922858  0.82939863  0.13043720  1
  Sr  Sr17  1  0.66209649  0.85784328  0.58362268  1
  Sr  Sr18  1  0.16381731  0.01182650  0.11154638  1
  Sr  Sr19  1  0.16776468  -0.01523463  0.67309316  1
  Sr  Sr20  1  0.15789392  0.34809884  0.16656494  1
  Sr  Sr21  1  0.18015420  0.34442231  0.61680426  1
  Sr  Sr22  1  0.15696980  0.65951641  0.10947728  1
  Sr  Sr23  1  0.16475940  0.67532378  0.59531492  1
  Sr  Sr24  1  0.51234284  -0.04227171  0.07250332  1
  Sr  Sr25  1  0.49483314  0.00224147  0.62817751  1
  Sr  Sr26  1  0.48420924  0.33238246  0.10793909  1
  Sr  Sr27  1  0.51298074  0.31146764  0.64459812  1
  Sr  Sr28  1  0.49544107  0.66603501  0.16791826  1
  Sr  Sr29  1  0.50528674  0.64063923  0.61576872  1
  Sr  Sr30  1  0.81321354  -0.01683300  0.15768966  1
  Sr  Sr31  1  0.83868728  -0.00496753  0.61082508  1
  Sr  Sr32  1  0.84776819  0.31762298  0.13101014  1
  Sr  Sr33  1  0.82731970  0.31504349  0.59923133  1
  Sr  Sr34  1  0.82600377  0.65129499  0.09418296  1
  Sr  Sr35  1  0.84191562  0.64693057  0.64881775  1
  Sr  Sr36  1  -0.02769635  0.16776485  0.43531096  1
  Sr  Sr37  1  0.02128754  0.16984675  0.87483501  1
  Sr  Sr38  1  0.00311323  0.47912625  0.32647103  1
  Sr  Sr39  1  -0.00498928  0.51214079  0.88742453  1
  Sr  Sr40  1  0.00274361  0.84063056  0.38573807  1
  Sr  Sr41  1  -0.01447105  0.84906594  0.83143414  1
  Sr  Sr42  1  0.33585784  0.16173968  0.36635540  1
  Sr  Sr43  1  0.33555525  0.18446890  0.91454636  1
  Sr  Sr44  1  0.31919459  0.52614383  0.40649415  1
  Sr  Sr45  1  0.33635137  0.49777489  0.86534111  1
  Sr  Sr46  1  0.33073190  0.84675472  0.35567510  1
  Sr  Sr47  1  0.33048779  0.84422741  0.88053251  1
  Sr  Sr48  1  0.67419210  0.17098533  0.32803874  1
  Sr  Sr49  1  0.66049187  0.18014069  0.87667377  1
  Sr  Sr50  1  0.66336797  0.50466380  0.39627367  1
  Sr  Sr51  1  0.67181045  0.52782322  0.86207274  1
  Sr  Sr52  1  0.67057897  0.84788534  0.36253529  1
  Sr  Sr53  1  0.67567921  0.84102231  0.91887116  1
  Sr  Sr54  1  0.18690392  -0.00973730  0.32663091  1
  Sr  Sr55  1  0.16529390  0.00500995  0.88655229  1
  Sr  Sr56  1  0.17343670  0.33337911  0.38656642  1
  Sr  Sr57  1  0.15816463  0.35445153  0.83123389  1
  Sr  Sr58  1  0.15547585  0.67127131  0.38886603  1
  Sr  Sr59  1  0.17453617  0.66427377  0.91192640  1
  Sr  Sr60  1  0.48132651  -0.00537211  0.41258249  1
  Sr  Sr61  1  0.49937796  -0.01374733  0.86363591  1
  Sr  Sr62  1  0.50107154  0.29991472  0.34649308  1
  Sr  Sr63  1  0.49419051  0.33689392  0.89461090  1
  Sr  Sr64  1  0.49568816  0.64786114  0.37751347  1
  Sr  Sr65  1  0.48418480  0.65830766  0.82928492  1
  Sr  Sr66  1  0.84762873  -0.01490538  0.38404782  1
  Sr  Sr67  1  0.82526259  -0.00622726  0.85501604  1
  Sr  Sr68  1  0.83144090  0.32794705  0.37504441  1
  Sr  Sr69  1  0.84500211  0.29821810  0.90625197  1
  Sr  Sr70  1  0.83873562  0.63570753  0.37811985  1
  Sr  Sr71  1  0.83866019  0.66782534  0.87208206  1
  Ta  Ta72  1  0.16772437  0.22533872  0.00515023  1
  Ta  Ta73  1  0.17858491  0.12859022  0.49576500  1
  Ta  Ta74  1  0.16580244  0.46960048  0.00058343  1
  Ta  Ta75  1  0.11809258  0.50220905  0.50095875  1
  Ta  Ta76  1  0.11537902  0.84072682  -0.00398817  1
  Ta  Ta77  1  0.18487159  0.85828683  0.50739267  1
  Ta  Ta78  1  0.50268023  0.13652843  0.00890689  1
  Ta  Ta79  1  0.55026971  0.16753670  0.49815254  1
  Ta  Ta80  1  0.50109179  0.53732264  -0.00360596  1
  Ta  Ta81  1  0.49520559  0.44750914  0.49675174  1
  Ta  Ta82  1  0.49533745  0.78126709  -0.00413300  1
  Ta  Ta83  1  0.48755865  0.80930812  0.49915816  1
  Ta  Ta84  1  0.82665125  0.11769624  0.00566459  1
  Ta  Ta85  1  0.77383198  0.15634893  0.49584214  1
  Ta  Ta86  1  0.81098524  0.46876994  0.00467670  1
  Ta  Ta87  1  0.89117282  0.48912199  0.50229228  1
  Ta  Ta88  1  0.86768636  0.84174384  -0.00334794  1
  Ta  Ta89  1  0.82717611  0.78900518  0.49565276  1
  Ta  Ta90  1  0.13112829  0.16827647  0.25030176  1
  Ta  Ta91  1  0.21340539  0.17305046  0.75059552  1
  Ta  Ta92  1  0.19014308  0.52091858  0.25244717  1
  Ta  Ta93  1  0.16877725  0.54404352  0.75216745  1
  Ta  Ta94  1  0.16060842  0.80064616  0.24055939  1
  Ta  Ta95  1  0.16549061  0.79973109  0.75821424  1
  Ta  Ta96  1  0.49619871  0.12107974  0.23639635  1
  Ta  Ta97  1  0.45873111  0.16299657  0.75905260  1
  Ta  Ta98  1  0.49394483  0.47677222  0.24510677  1
  Ta  Ta99  1  0.51932933  0.47178080  0.75214772  1
  Ta  Ta100  1  0.49405554  0.85838267  0.24224664  1
  Ta  Ta101  1  0.54245777  0.82922142  0.75456390  1
  Ta  Ta102  1  0.86610719  0.15432088  0.25496996  1
  Ta  Ta103  1  0.85888727  0.16576003  0.73962241  1
  Ta  Ta104  1  0.80054216  0.49069990  0.24263541  1
  Ta  Ta105  1  0.83368748  0.44605756  0.75273327  1
  Ta  Ta106  1  0.83831774  0.78314306  0.25125361  1
  Ta  Ta107  1  0.79156000  0.82903549  0.74837028  1
  Ta  Ta108  1  0.00457190  0.05621142  0.26092572  1
  Ta  Ta109  1  -0.01319013  0.02872475  0.74576006  1
  Ta  Ta110  1  0.00006148  0.27391325  0.26258936  1
  Ta  Ta111  1  -0.03628625  0.32721382  0.75474213  1
  Ta  Ta112  1  -0.00417338  0.68533208  0.24683816  1
  Ta  Ta113  1  0.03702112  0.67282695  0.75496108  1
  Ta  Ta114  1  0.38825164  0.00320292  0.22776401  1
  Ta  Ta115  1  0.33527397  0.04979726  0.75404974  1
  Ta  Ta116  1  0.33778982  0.38204172  0.24985806  1
  Ta  Ta117  1  0.34326024  0.30406783  0.75670175  1
  Ta  Ta118  1  0.30314244  0.67134892  0.25188537  1
  Ta  Ta119  1  0.29497862  0.67474825  0.75235991  1
  Ta  Ta120  1  0.60661201  0.00044186  0.24256351  1
  Ta  Ta121  1  0.66401723  -0.04513949  0.75031618  1
  Ta  Ta122  1  0.66628878  0.37053853  0.24816013  1
  Ta  Ta123  1  0.68425130  0.35471076  0.74761271  1
  Ta  Ta124  1  0.69230145  0.66215433  0.24562966  1
  Ta  Ta125  1  0.66630227  0.71508900  0.75044628  1
  Ta  Ta126  1  -0.02299923  -0.01704970  -0.00693484  1
  Ta  Ta127  1  0.06593513  0.00298836  0.49571205  1
  Ta  Ta128  1  0.03578736  0.34034522  -0.00117222  1
  Ta  Ta129  1  0.00205779  0.36427386  0.50061242  1
  Ta  Ta130  1  -0.00566227  0.72209652  -0.00517660  1
  Ta  Ta131  1  -0.01291862  0.63549804  0.50695709  1
  Ta  Ta132  1  0.35295838  0.02663824  0.01216008  1
  Ta  Ta133  1  0.28942083  -0.00360880  0.50881203  1
  Ta  Ta134  1  0.28749892  0.34946218  0.00282920  1
  Ta  Ta135  1  0.36673558  0.34835084  0.49800399  1
  Ta  Ta136  1  0.36895137  0.66969958  -0.00456244  1
  Ta  Ta137  1  0.33909834  0.71547193  0.49995002  1
  Ta  Ta138  1  0.67603167  0.02607391  0.00463397  1
  Ta  Ta139  1  0.66050930  0.04008101  0.49356816  1
  Ta  Ta140  1  0.67639375  0.36185086  -0.00155208  1
  Ta  Ta141  1  0.64890847  0.30518400  0.50099223  1
  Ta  Ta142  1  0.62152814  0.66937376  0.00032056  1
  Ta  Ta143  1  0.67401565  0.69053068  0.49614677  1
  N  N144  1  0.83967949  0.49182262  0.12642640  1
  N  N145  1  0.67188768  0.32990032  0.62310539  1
  N  N146  1  0.17028037  0.83545557  0.62813466  1
  N  N147  1  0.83881807  0.81637483  0.37492337  1
  N  N148  1  0.65971288  0.00172744  0.12500080  1
  N  N149  1  0.01848280  0.00986077  0.38106175  1
  N  N150  1  0.82034178  0.15666030  0.62518181  1
  N  N151  1  0.32847192  0.33658259  0.87401272  1
  N  N152  1  -0.00002785  0.66270080  0.62804542  1
  N  N153  1  0.16238127  0.50744962  0.87255107  1
  N  N154  1  0.16157642  0.50516424  0.12741910  1
  N  N155  1  0.00180967  0.33673121  0.87773899  1
  N  N156  1  0.16013144  0.50624758  0.62180962  1
  N  N157  1  -0.00346633  0.00859683  0.87034341  1
  N  N158  1  0.49521151  0.50029860  0.12343268  1
  N  N159  1  0.83569134  0.14763725  0.12556507  1
  N  N160  1  0.00115181  0.32327054  0.37949363  1
  N  N161  1  0.33253910  0.67129924  0.87383073  1
  N  N162  1  0.31706212  0.00706807  0.12704616  1
  N  N163  1  0.32515941  0.35023788  0.13202571  1
  N  N164  1  0.49584994  0.81634022  0.12805667  1
  N  N165  1  0.32798223  0.01001493  0.62796190  1
  N  N166  1  0.15582328  0.50392595  0.37497267  1
  N  N167  1  0.15327785  0.83757741  0.12314213  1
  N  N168  1  0.50403771  0.82638627  0.87399354  1
  N  N169  1  0.15850593  0.84487329  0.87390244  1
  N  N170  1  0.50388922  0.49638864  0.87100396  1
  N  N171  1  0.32650374  0.68323156  0.37664834  1
  N  N172  1  0.82968818  0.83087741  0.87552549  1
  N  N173  1  0.82266690  0.15761743  0.38016465  1
  N  N174  1  0.16100492  0.18154242  0.12196712  1
  N  N175  1  -0.00271376  0.67928406  0.87738806  1
  N  N176  1  0.66003087  0.67198929  0.12740993  1
  O  O177  1  0.33835073  0.01436451  0.88152454  1
  O  O178  1  0.33448883  0.00363317  0.37686934  1
  O  O179  1  0.19230826  0.16117767  0.62414295  1
  O  O180  1  0.65698858  0.00183449  0.62985903  1
  O  O181  1  0.00181957  0.31475226  0.13591346  1
  O  O182  1  0.83487906  0.46660397  0.87642299  1
  O  O183  1  0.67067203  0.33681948  0.87786201  1
  O  O184  1  0.84999016  0.48564736  0.36532981  1
  O  O185  1  0.66233214  0.69364645  0.62028383  1
  O  O186  1  0.65604795  0.34892812  0.12505518  1
  O  O187  1  0.32387317  0.68455317  0.62281489  1
  O  O188  1  0.66274600  0.34447062  0.37235959  1
  O  O189  1  0.50576066  0.15048518  0.37719905  1
  O  O190  1  -0.00397419  0.66378751  0.37103797  1
  O  O191  1  0.49263199  0.83160074  0.37513727  1
  O  O192  1  0.34563994  0.33834375  0.37281079  1
  O  O193  1  0.50326798  0.14425299  0.87968131  1
  O  O194  1  0.18246045  0.18536595  0.87383494  1
  O  O195  1  0.84447316  0.47604525  0.62383104  1
  O  O196  1  0.83596543  0.14930238  0.87548451  1
  O  O197  1  0.18071887  0.14831440  0.36973057  1
  O  O198  1  0.50708395  0.48760172  0.37940728  1
  O  O199  1  0.50430380  0.15984830  0.62328503  1
  O  O200  1  0.51204344  0.47302257  0.61846179  1
  O  O201  1  0.66322389  -0.00672018  0.87315787  1
  O  O202  1  0.66555002  0.68653230  0.87692977  1
  O  O203  1  0.34953299  0.33083495  0.62232208  1
  O  O204  1  0.63762838  0.00524520  0.36997313  1
  O  O205  1  0.00470032  0.32994192  0.63257587  1
  O  O206  1  -0.00483434  0.67341622  0.12119566  1
  O  O207  1  0.33526238  0.67320050  0.12702641  1
  O  O208  1  0.50758080  0.82287208  0.62254947  1
  O  O209  1  0.51117840  0.17856107  0.12449602  1
  O  O210  1  0.17193083  0.83613524  0.36449847  1
  O  O211  1  0.83655731  0.82556926  0.12878065  1
  O  O212  1  0.83002553  0.81788251  0.62425609  1
  O  O213  1  0.00591406  0.01660552  0.12711283  1
  O  O214  1  0.66007899  0.66595538  0.37335672  1
  O  O215  1  0.02184245  0.01710306  0.62275025  1
