# generated using pymatgen
data_Sr24Ta24N11O13
_symmetry_space_group_name_H-M   'P 1'
_cell_length_a   16.81760919
_cell_length_b   16.79700295
_cell_length_c   15.77334940
_cell_angle_alpha   90.11147788
_cell_angle_beta   89.88815916
_cell_angle_gamma   90.02431202
_symmetry_Int_Tables_number   1
_chemical_formula_structural   Sr24Ta24N11O13
_chemical_formula_sum   'Sr72 Ta72 N33 O39'
_cell_volume   4455.72409040
_cell_formula_units_Z   3
loop_
 _symmetry_equiv_pos_site_id
 _symmetry_equiv_pos_as_xyz
  1  'x, y, z'
loop_
 _atom_site_type_symbol
 _atom_site_label
 _atom_site_symmetry_multiplicity
 _atom_site_fract_x
 _atom_site_fract_y
 _atom_site_fract_z
 _atom_site_occupancy
  Sr  Sr0  1  -0.02391231  0.17950921  0.12671016  1
  Sr  Sr1  1  -0.00119585  0.15428473  0.58399772  1
  Sr  Sr2  1  -0.01014843  0.49199370  0.15925185  1
  Sr  Sr3  1  0.00519617  0.50087220  0.61386042  1
  Sr  Sr4  1  0.01055059  0.82202581  0.11061710  1
  Sr  Sr5  1  -0.00595629  0.85111221  0.67193495  1
  Sr  Sr6  1  0.33016413  0.15131381  0.16826280  1
  Sr  Sr7  1  0.32794143  0.16709301  0.62210095  1
  Sr  Sr8  1  0.32257656  0.50751275  0.12730432  1
  Sr  Sr9  1  0.35794538  0.49379036  0.61611163  1
  Sr  Sr10  1  0.34106341  0.83984462  0.08814083  1
  Sr  Sr11  1  0.34479717  0.81926658  0.62776630  1
  Sr  Sr12  1  0.64197022  0.16136588  0.08600599  1
  Sr  Sr13  1  0.66778871  0.15579269  0.63735968  1
  Sr  Sr14  1  0.67712105  0.48991172  0.11539518  1
  Sr  Sr15  1  0.67151919  0.50048162  0.66372611  1
  Sr  Sr16  1  0.65425882  0.84661415  0.13616935  1
  Sr  Sr17  1  0.68027228  0.81552508  0.57651673  1
  Sr  Sr18  1  0.16257883  0.00527349  0.12121617  1
  Sr  Sr19  1  0.16829154  0.01512831  0.60724750  1
  Sr  Sr20  1  0.18055869  0.33967901  0.11789437  1
  Sr  Sr21  1  0.18120258  0.34163139  0.66167359  1
  Sr  Sr22  1  0.17264123  0.67228782  0.11669701  1
  Sr  Sr23  1  0.15041889  0.68399463  0.63106329  1
  Sr  Sr24  1  0.49725599  -0.00284114  0.11636323  1
  Sr  Sr25  1  0.49162550  0.00561718  0.67209520  1
  Sr  Sr26  1  0.51046977  0.33095349  0.10965907  1
  Sr  Sr27  1  0.49652422  0.31839295  0.59282866  1
  Sr  Sr28  1  0.50484650  0.64857440  0.17325851  1
  Sr  Sr29  1  0.49319846  0.66344158  0.61525440  1
  Sr  Sr30  1  0.83960533  -0.01056414  0.16953319  1
  Sr  Sr31  1  0.82383717  0.00191864  0.61568870  1
  Sr  Sr32  1  0.83530290  0.33636124  0.13276151  1
  Sr  Sr33  1  0.84860833  0.35334978  0.63279927  1
  Sr  Sr34  1  0.82136850  0.67643688  0.08951516  1
  Sr  Sr35  1  0.83362564  0.67361397  0.61051495  1
  Sr  Sr36  1  -0.02456042  0.17508555  0.37451382  1
  Sr  Sr37  1  0.00964242  0.18000701  0.91825122  1
  Sr  Sr38  1  -0.01381105  0.50457262  0.39065413  1
  Sr  Sr39  1  0.00724654  0.47769297  0.83152486  1
  Sr  Sr40  1  0.01111221  0.84584909  0.32776750  1
  Sr  Sr41  1  -0.00519808  0.83744346  0.87931217  1
  Sr  Sr42  1  0.33823644  0.16398044  0.37918713  1
  Sr  Sr43  1  0.32061744  0.15752600  0.83426407  1
  Sr  Sr44  1  0.33876227  0.50552978  0.36516109  1
  Sr  Sr45  1  0.33128259  0.48595425  0.89589836  1
  Sr  Sr46  1  0.31662562  0.82784020  0.41597932  1
  Sr  Sr47  1  0.36143301  0.82334484  0.86369583  1
  Sr  Sr48  1  0.65795091  0.17465115  0.41210540  1
  Sr  Sr49  1  0.66959602  0.15310126  0.86206796  1
  Sr  Sr50  1  0.66502676  0.48123213  0.33173860  1
  Sr  Sr51  1  0.67739691  0.49944833  0.88205551  1
  Sr  Sr52  1  0.67011182  0.84660835  0.36279310  1
  Sr  Sr53  1  0.66869314  0.82860300  0.90993938  1
  Sr  Sr54  1  0.17982397  0.01203632  0.38608675  1
  Sr  Sr55  1  0.14604120  0.01127289  0.88855355  1
  Sr  Sr56  1  0.19064416  0.33885384  0.34446624  1
  Sr  Sr57  1  0.17324164  0.33660335  0.87762039  1
  Sr  Sr58  1  0.15012677  0.67217291  0.36572334  1
  Sr  Sr59  1  0.16048130  0.67752007  0.88504965  1
  Sr  Sr60  1  0.49757333  0.00096787  0.33950363  1
  Sr  Sr61  1  0.51443231  -0.00123942  0.88753450  1
  Sr  Sr62  1  0.50442000  0.31908331  0.39514127  1
  Sr  Sr63  1  0.50383978  0.33886434  0.90815048  1
  Sr  Sr64  1  0.48904845  0.67471361  0.39174859  1
  Sr  Sr65  1  0.49733329  0.64571084  0.82993244  1
  Sr  Sr66  1  0.82508175  0.00747307  0.38534860  1
  Sr  Sr67  1  0.83332460  0.00178279  0.83516911  1
  Sr  Sr68  1  0.84360996  0.34754698  0.35954996  1
  Sr  Sr69  1  0.83468088  0.33512264  0.86629414  1
  Sr  Sr70  1  0.83383103  0.67116918  0.40504052  1
  Sr  Sr71  1  0.82746956  0.68131965  0.88946760  1
  Ta  Ta72  1  0.20743227  0.17094371  -0.00184850  1
  Ta  Ta73  1  0.16859757  0.21111204  0.50293525  1
  Ta  Ta74  1  0.12534196  0.50379361  -0.00106451  1
  Ta  Ta75  1  0.18151357  0.48378098  0.50203111  1
  Ta  Ta76  1  0.18006245  0.85042633  -0.00428047  1
  Ta  Ta77  1  0.12613556  0.84136242  0.50375441  1
  Ta  Ta78  1  0.44970991  0.16193069  -0.00745247  1
  Ta  Ta79  1  0.49530831  0.12182670  0.50787557  1
  Ta  Ta80  1  0.50497664  0.53689913  -0.00269180  1
  Ta  Ta81  1  0.54704322  0.49548601  0.50432246  1
  Ta  Ta82  1  0.50407222  0.77024165  0.00316465  1
  Ta  Ta83  1  0.50219788  0.87800334  0.50540113  1
  Ta  Ta84  1  0.82176711  0.13857427  0.00065316  1
  Ta  Ta85  1  0.81932464  0.19997648  0.50116782  1
  Ta  Ta86  1  0.86712197  0.49489722  -0.00152241  1
  Ta  Ta87  1  0.78652659  0.49838720  0.49284482  1
  Ta  Ta88  1  0.83692168  0.87550442  -0.00310389  1
  Ta  Ta89  1  0.87720822  0.84439225  0.49613190  1
  Ta  Ta90  1  0.13688953  0.16831234  0.25033225  1
  Ta  Ta91  1  0.13157164  0.16408534  0.74876311  1
  Ta  Ta92  1  0.15080796  0.50454896  0.24644167  1
  Ta  Ta93  1  0.18869240  0.52453211  0.75411469  1
  Ta  Ta94  1  0.20372782  0.84115965  0.24434778  1
  Ta  Ta95  1  0.18645825  0.85771034  0.74758401  1
  Ta  Ta96  1  0.51980521  0.17658365  0.25566723  1
  Ta  Ta97  1  0.49889118  0.20040510  0.75412189  1
  Ta  Ta98  1  0.49236249  0.46358824  0.24920408  1
  Ta  Ta99  1  0.50084764  0.45719306  0.75189350  1
  Ta  Ta100  1  0.45516926  0.82647489  0.25447416  1
  Ta  Ta101  1  0.54957501  0.82174286  0.74209028  1
  Ta  Ta102  1  0.78764811  0.16929941  0.24757471  1
  Ta  Ta103  1  0.87636527  0.17378082  0.75358171  1
  Ta  Ta104  1  0.83018190  0.54754790  0.24675214  1
  Ta  Ta105  1  0.84402497  0.54091925  0.75414596  1
  Ta  Ta106  1  0.83329777  0.79308564  0.25209083  1
  Ta  Ta107  1  0.80077094  0.82367249  0.74502729  1
  Ta  Ta108  1  0.02033847  0.02644669  0.24998114  1
  Ta  Ta109  1  0.00527304  0.04639600  0.75313849  1
  Ta  Ta110  1  0.02900358  0.32945427  0.25647058  1
  Ta  Ta111  1  0.00692534  0.28818636  0.74082344  1
  Ta  Ta112  1  -0.03386775  0.66669203  0.24698433  1
  Ta  Ta113  1  -0.02077658  0.65961868  0.75174233  1
  Ta  Ta114  1  0.32826411  -0.04154419  0.25035597  1
  Ta  Ta115  1  0.30597840  -0.01874417  0.75091204  1
  Ta  Ta116  1  0.37211970  0.33505452  0.25357933  1
  Ta  Ta117  1  0.37039180  0.33442000  0.74810851  1
  Ta  Ta118  1  0.32520521  0.70240244  0.25182498  1
  Ta  Ta119  1  0.31287583  0.64809606  0.74713215  1
  Ta  Ta120  1  0.66539405  0.05425671  0.24926540  1
  Ta  Ta121  1  0.66558915  -0.05705245  0.74704349  1
  Ta  Ta122  1  0.65653944  0.29528199  0.24996945  1
  Ta  Ta123  1  0.63115264  0.32627914  0.74849875  1
  Ta  Ta124  1  0.69616725  0.66926241  0.25265314  1
  Ta  Ta125  1  0.67803750  0.69055041  0.74712250  1
  Ta  Ta126  1  -0.04578751  0.00366984  -0.00257655  1
  Ta  Ta127  1  0.00244846  -0.04310066  0.49957583  1
  Ta  Ta128  1  0.00242761  0.37526788  0.00035064  1
  Ta  Ta129  1  0.04772230  0.33460983  0.50081771  1
  Ta  Ta130  1  -0.00374715  0.61061123  -0.00172193  1
  Ta  Ta131  1  -0.00037235  0.73115788  0.49981489  1
  Ta  Ta132  1  0.32349239  0.02761192  0.00348027  1
  Ta  Ta133  1  0.37049961  -0.00197131  0.49832850  1
  Ta  Ta134  1  0.33393413  0.28371871  0.00157425  1
  Ta  Ta135  1  0.30509486  0.33706425  0.50014936  1
  Ta  Ta136  1  0.37321594  0.66263497  0.00576078  1
  Ta  Ta137  1  0.30007627  0.64442787  0.50068791  1
  Ta  Ta138  1  0.72272364  0.00005924  0.00239919  1
  Ta  Ta139  1  0.62583786  -0.00233122  0.50209648  1
  Ta  Ta140  1  0.68712867  0.32276383  0.00186622  1
  Ta  Ta141  1  0.68429856  0.35654459  0.49631368  1
  Ta  Ta142  1  0.62361378  0.65873503  0.00245520  1
  Ta  Ta143  1  0.66349723  0.61670294  0.49580694  1
  N  N144  1  0.50982792  0.83155001  0.62063567  1
  N  N145  1  0.33132068  0.66371935  0.62339653  1
  N  N146  1  0.16609317  0.50538929  0.87320680  1
  N  N147  1  -0.01025904  0.01224930  0.87782772  1
  N  N148  1  0.84002277  0.16874307  0.87127946  1
  N  N149  1  0.67000665  0.32822601  0.12205520  1
  N  N150  1  0.83817914  0.83687551  0.36731895  1
  N  N151  1  0.16575696  0.17574444  0.62401341  1
  N  N152  1  0.17118358  0.83934428  0.11618585  1
  N  N153  1  0.34015587  0.33060232  0.62612728  1
  N  N154  1  0.33344652  0.00031551  0.12498849  1
  N  N155  1  0.16421384  0.50416380  0.12554038  1
  N  N156  1  0.49452000  0.15894118  0.87420514  1
  N  N157  1  0.50003656  0.16039310  0.37643926  1
  N  N158  1  0.83327282  0.84043162  0.87559296  1
  N  N159  1  0.83193527  0.50982843  0.12445746  1
  N  N160  1  0.16862828  0.17183144  0.87960037  1
  N  N161  1  0.50374968  0.49613813  0.87856714  1
  N  N162  1  0.82463344  0.50777947  0.37303314  1
  N  N163  1  0.51571229  0.48985843  0.62507864  1
  N  N164  1  0.33895929  -0.00778667  0.37746636  1
  N  N165  1  0.16390995  0.84227625  0.62572620  1
  N  N166  1  0.34404380  0.33038363  0.37722402  1
  N  N167  1  0.32294131  0.66870876  0.37847724  1
  N  N168  1  0.01036956  0.33175734  0.62522023  1
  N  N169  1  0.01001772  0.34291743  0.37575748  1
  N  N170  1  0.82427576  0.16495440  0.12728778  1
  N  N171  1  0.83638808  0.83852210  0.62673655  1
  N  N172  1  0.49972619  0.16000752  0.62698957  1
  N  N173  1  0.34075826  0.66741937  0.12740482  1
  N  N174  1  0.66813690  0.33233796  0.37451858  1
  N  N175  1  0.83322228  0.50779765  0.87253699  1
  N  N176  1  0.82120960  0.17762824  0.38158245  1
  O  O177  1  -0.01791405  0.65856834  0.11921007  1
  O  O178  1  0.66559230  0.66534879  0.13047285  1
  O  O179  1  -0.00491424  0.65655408  0.87719196  1
  O  O180  1  -0.00738566  0.02022142  0.12681793  1
  O  O181  1  0.51387500  0.79778035  0.86667922  1
  O  O182  1  0.32805823  -0.00960840  0.62514727  1
  O  O183  1  0.14968135  0.83692207  0.86830701  1
  O  O184  1  0.66202799  0.67226510  0.87233439  1
  O  O185  1  0.16549816  0.16969289  0.12684238  1
  O  O186  1  0.00189551  0.00161381  0.63022266  1
  O  O187  1  0.65480751  0.33282003  0.62598872  1
  O  O188  1  0.01039468  0.33204958  0.87714831  1
  O  O189  1  0.16463529  0.84020118  0.36854297  1
  O  O190  1  -0.00886528  0.68958173  0.37068532  1
  O  O191  1  0.65106328  0.01089614  0.37377132  1
  O  O192  1  0.33288237  0.31682474  0.87204058  1
  O  O193  1  0.01490264  0.33446385  0.12007938  1
  O  O194  1  0.16709727  0.49741399  0.37925542  1
  O  O195  1  0.67374534  0.66128992  0.62162327  1
  O  O196  1  0.01610233  -0.00187078  0.37246069  1
  O  O197  1  0.65969873  0.32337990  0.87137240  1
  O  O198  1  0.82181148  0.51226292  0.62877028  1
  O  O199  1  0.16543820  0.49625352  0.62792159  1
  O  O200  1  0.34152012  0.30661003  0.13320755  1
  O  O201  1  0.68358069  0.00590482  0.13104509  1
  O  O202  1  0.31961649  0.00025191  0.87229791  1
  O  O203  1  0.49366399  0.80349037  0.13442976  1
  O  O204  1  0.65572461  -0.00987489  0.62627619  1
  O  O205  1  0.67740899  -0.01809769  0.87149170  1
  O  O206  1  0.51156983  0.47701331  0.37423922  1
  O  O207  1  0.48360216  0.83459557  0.37879470  1
  O  O208  1  0.67512663  0.66508603  0.37719784  1
  O  O209  1  0.83684322  0.83316412  0.12792094  1
  O  O210  1  0.49854366  0.49295212  0.12492463  1
  O  O211  1  0.15668428  0.17091560  0.37565777  1
  O  O212  1  0.48908733  0.15720599  0.11884077  1
  O  O213  1  -0.01033079  0.69211704  0.63000704  1
  O  O214  1  0.82928484  0.17566043  0.62889673  1
  O  O215  1  0.34340500  0.66261299  0.87151112  1
