# generated using pymatgen
data_Sr24Ta24N11O13
_symmetry_space_group_name_H-M   'P 1'
_cell_length_a   16.77723484
_cell_length_b   16.79954353
_cell_length_c   15.73350652
_cell_angle_alpha   89.64485919
_cell_angle_beta   89.74089874
_cell_angle_gamma   90.10192297
_symmetry_Int_Tables_number   1
_chemical_formula_structural   Sr24Ta24N11O13
_chemical_formula_sum   'Sr72 Ta72 N33 O39'
_cell_volume   4434.34927009
_cell_formula_units_Z   3
loop_
 _symmetry_equiv_pos_site_id
 _symmetry_equiv_pos_as_xyz
  1  'x, y, z'
loop_
 _atom_site_type_symbol
 _atom_site_label
 _atom_site_symmetry_multiplicity
 _atom_site_fract_x
 _atom_site_fract_y
 _atom_site_fract_z
 _atom_site_occupancy
  Sr  Sr0  1  -0.00786547  0.15947076  0.12275677  1
  Sr  Sr1  1  -0.02171640  0.15498907  0.61212884  1
  Sr  Sr2  1  -0.01536543  0.50883396  0.09311542  1
  Sr  Sr3  1  0.01757591  0.49512803  0.63596636  1
  Sr  Sr4  1  -0.01154927  0.82312617  0.17228772  1
  Sr  Sr5  1  0.00319139  0.83678203  0.61713504  1
  Sr  Sr6  1  0.33900930  0.15260862  0.09247636  1
  Sr  Sr7  1  0.32983523  0.18261157  0.63669391  1
  Sr  Sr8  1  0.31908166  0.48350411  0.13189977  1
  Sr  Sr9  1  0.34414503  0.50796365  0.58710148  1
  Sr  Sr10  1  0.32409129  0.82106916  0.13149808  1
  Sr  Sr11  1  0.33104617  0.81563588  0.65637181  1
  Sr  Sr12  1  0.65573866  0.15302140  0.16720497  1
  Sr  Sr13  1  0.67002956  0.16895672  0.61515889  1
  Sr  Sr14  1  0.65524420  0.47423981  0.12509161  1
  Sr  Sr15  1  0.65205581  0.49827432  0.66303918  1
  Sr  Sr16  1  0.66949993  0.83742295  0.07842282  1
  Sr  Sr17  1  0.65907294  0.82527384  0.62937986  1
  Sr  Sr18  1  0.16680283  0.01702498  0.09139104  1
  Sr  Sr19  1  0.17703729  0.01325471  0.61652701  1
  Sr  Sr20  1  0.16022865  0.32859495  0.16705602  1
  Sr  Sr21  1  0.18613295  0.35468470  0.61286342  1
  Sr  Sr22  1  0.17451887  0.66395893  0.11696325  1
  Sr  Sr23  1  0.15870983  0.68455973  0.66493936  1
  Sr  Sr24  1  0.49500423  -0.00269452  0.13385499  1
  Sr  Sr25  1  0.50434370  0.01837050  0.58093861  1
  Sr  Sr26  1  0.48285704  0.34093748  0.10852553  1
  Sr  Sr27  1  0.51580410  0.32910523  0.66457487  1
  Sr  Sr28  1  0.51378174  0.68421541  0.12794347  1
  Sr  Sr29  1  0.50313853  0.66989950  0.62410750  1
  Sr  Sr30  1  0.83736841  0.00601647  0.12000781  1
  Sr  Sr31  1  0.82633038  -0.00430496  0.67252705  1
  Sr  Sr32  1  0.85224295  0.33442669  0.09146003  1
  Sr  Sr33  1  0.85286891  0.35741909  0.62606246  1
  Sr  Sr34  1  0.83584376  0.66126115  0.13644284  1
  Sr  Sr35  1  0.84491586  0.68659732  0.57207776  1
  Sr  Sr36  1  -0.00489814  0.16285150  0.36368823  1
  Sr  Sr37  1  -0.01997107  0.15121087  0.90643734  1
  Sr  Sr38  1  -0.02166855  0.49125354  0.41177978  1
  Sr  Sr39  1  0.00796931  0.49857478  0.86480632  1
  Sr  Sr40  1  0.00343774  0.82956507  0.38396887  1
  Sr  Sr41  1  0.00290308  0.82940275  0.84211797  1
  Sr  Sr42  1  0.32630477  0.14688223  0.41304963  1
  Sr  Sr43  1  0.33897468  0.17577660  0.86837191  1
  Sr  Sr44  1  0.33131488  0.49116877  0.36977931  1
  Sr  Sr45  1  0.33472698  0.49784640  0.91277365  1
  Sr  Sr46  1  0.34320842  0.82847779  0.34156631  1
  Sr  Sr47  1  0.31895257  0.81771437  0.86760370  1
  Sr  Sr48  1  0.66528568  0.16572648  0.38060912  1
  Sr  Sr49  1  0.66741402  0.16010832  0.84109536  1
  Sr  Sr50  1  0.66319718  0.50935637  0.33441000  1
  Sr  Sr51  1  0.65431750  0.47900864  0.87239835  1
  Sr  Sr52  1  0.65670231  0.81912321  0.42019630  1
  Sr  Sr53  1  0.66662941  0.84017852  0.86964507  1
  Sr  Sr54  1  0.15617118  0.00114407  0.41125253  1
  Sr  Sr55  1  0.18297891  0.01457555  0.88109480  1
  Sr  Sr56  1  0.18373360  0.34756698  0.38267868  1
  Sr  Sr57  1  0.16846653  0.33425878  0.83307404  1
  Sr  Sr58  1  0.17910354  0.68941873  0.33788182  1
  Sr  Sr59  1  0.16958065  0.65542673  0.88869639  1
  Sr  Sr60  1  0.49421094  0.00403799  0.36596252  1
  Sr  Sr61  1  0.49874242  0.00453336  0.90623593  1
  Sr  Sr62  1  0.52123785  0.34850173  0.33476331  1
  Sr  Sr63  1  0.49218465  0.33466216  0.88468647  1
  Sr  Sr64  1  0.49759477  0.66601911  0.39072524  1
  Sr  Sr65  1  0.51749922  0.68561666  0.84572161  1
  Sr  Sr66  1  0.84773280  0.00347134  0.32614164  1
  Sr  Sr67  1  0.83099262  -0.00188015  0.88041391  1
  Sr  Sr68  1  0.83541444  0.31524696  0.41894540  1
  Sr  Sr69  1  0.85084509  0.34775846  0.88157186  1
  Sr  Sr70  1  0.83955077  0.65578517  0.36334002  1
  Sr  Sr71  1  0.83838122  0.67226168  0.90657961  1
  Ta  Ta72  1  0.16174352  0.21304693  -0.00098998  1
  Ta  Ta73  1  0.14170571  0.18764257  0.50318073  1
  Ta  Ta74  1  0.16008829  0.45833489  -0.00409113  1
  Ta  Ta75  1  0.16702508  0.55177167  0.50285276  1
  Ta  Ta76  1  0.13866686  0.83823877  0.00865414  1
  Ta  Ta77  1  0.18940594  0.81796458  0.49804405  1
  Ta  Ta78  1  0.53959649  0.17006268  -0.00423291  1
  Ta  Ta79  1  0.50209414  0.21511641  0.50264322  1
  Ta  Ta80  1  0.50619976  0.54179024  -0.00293748  1
  Ta  Ta81  1  0.52805547  0.47766593  0.50524426  1
  Ta  Ta82  1  0.47491661  0.83083396  -0.00400639  1
  Ta  Ta83  1  0.46253710  0.83585569  0.50533003  1
  Ta  Ta84  1  0.78856495  0.16699537  0.00271977  1
  Ta  Ta85  1  0.82880390  0.10841743  0.49253897  1
  Ta  Ta86  1  0.80159130  0.51151070  0.00434982  1
  Ta  Ta87  1  0.77910235  0.49973153  0.49608061  1
  Ta  Ta88  1  0.86959293  0.83496378  0.00448002  1
  Ta  Ta89  1  0.83123270  0.88893433  0.50234937  1
  Ta  Ta90  1  0.18496727  0.14428233  0.25193046  1
  Ta  Ta91  1  0.12316421  0.16129030  0.75299636  1
  Ta  Ta92  1  0.12360338  0.50520653  0.25418456  1
  Ta  Ta93  1  0.20896997  0.50650983  0.74929885  1
  Ta  Ta94  1  0.16633518  0.87984198  0.25015008  1
  Ta  Ta95  1  0.16223867  0.87475278  0.74530743  1
  Ta  Ta96  1  0.46373754  0.17219723  0.25203582  1
  Ta  Ta97  1  0.49818537  0.13288109  0.74772878  1
  Ta  Ta98  1  0.48433709  0.52879468  0.23547738  1
  Ta  Ta99  1  0.46378333  0.50535014  0.75381751  1
  Ta  Ta100  1  0.54359480  0.83317634  0.24619035  1
  Ta  Ta101  1  0.49842111  0.88079674  0.74754530  1
  Ta  Ta102  1  0.83413749  0.20182687  0.24795684  1
  Ta  Ta103  1  0.83904697  0.19064997  0.75395464  1
  Ta  Ta104  1  0.84463854  0.46472917  0.25266173  1
  Ta  Ta105  1  0.83357143  0.53572835  0.74535330  1
  Ta  Ta106  1  0.77959170  0.82904966  0.25258479  1
  Ta  Ta107  1  0.83276238  0.79924489  0.74213846  1
  Ta  Ta108  1  0.04371732  0.00269880  0.24314795  1
  Ta  Ta109  1  0.02117305  0.01063320  0.74961430  1
  Ta  Ta110  1  -0.02533619  0.34854311  0.25395107  1
  Ta  Ta111  1  -0.00006712  0.29288307  0.75103427  1
  Ta  Ta112  1  0.00960764  0.62969642  0.24951776  1
  Ta  Ta113  1  -0.04504783  0.66257698  0.74052159  1
  Ta  Ta114  1  0.30220164  0.01393191  0.25570283  1
  Ta  Ta115  1  0.36286211  -0.00260512  0.74453351  1
  Ta  Ta116  1  0.33908102  0.28678261  0.24979754  1
  Ta  Ta117  1  0.34000742  0.37425398  0.75093385  1
  Ta  Ta118  1  0.35588079  0.64737238  0.24051680  1
  Ta  Ta119  1  0.33657766  0.62802967  0.75283570  1
  Ta  Ta120  1  0.66437698  -0.04735862  0.25005562  1
  Ta  Ta121  1  0.62075591  -0.00101336  0.74671844  1
  Ta  Ta122  1  0.72275090  0.32741358  0.25102653  1
  Ta  Ta123  1  0.70259978  0.32038648  0.74947665  1
  Ta  Ta124  1  0.66618734  0.70150508  0.25009922  1
  Ta  Ta125  1  0.72067429  0.66584169  0.74215111  1
  Ta  Ta126  1  -0.00333445  -0.05215998  0.00547877  1
  Ta  Ta127  1  -0.03786366  -0.00107272  0.50249543  1
  Ta  Ta128  1  0.04217495  0.33066690  -0.00526283  1
  Ta  Ta129  1  0.02474099  0.31082861  0.50783842  1
  Ta  Ta130  1  0.00283057  0.71199979  0.00721009  1
  Ta  Ta131  1  0.04383664  0.66676607  0.50110653  1
  Ta  Ta132  1  0.33971867  -0.03384028  0.00063715  1
  Ta  Ta133  1  0.33346477  -0.05060029  0.49724099  1
  Ta  Ta134  1  0.28803090  0.32647463  -0.00174532  1
  Ta  Ta135  1  0.38284693  0.33423265  0.50258736  1
  Ta  Ta136  1  0.36979334  0.66878341  -0.00350778  1
  Ta  Ta137  1  0.31097672  0.68672622  0.50405991  1
  Ta  Ta138  1  0.66456337  0.04088499  0.00105129  1
  Ta  Ta139  1  0.70012045  -0.00231570  0.49895421  1
  Ta  Ta140  1  0.67086999  0.29288758  0.00430056  1
  Ta  Ta141  1  0.64850826  0.36136328  0.49969002  1
  Ta  Ta142  1  0.66619538  0.64197945  -0.00305958  1
  Ta  Ta143  1  0.66471679  0.62343270  0.50464800  1
  N  N144  1  0.33061259  0.66148427  0.12107593  1
  N  N145  1  0.51104446  0.83994528  0.12620187  1
  N  N146  1  -0.00749489  -0.00150193  0.63111403  1
  N  N147  1  0.49565467  0.49442018  0.11744957  1
  N  N148  1  0.33030659  0.33475776  0.87646489  1
  N  N149  1  0.67630752  0.66306653  0.62289403  1
  N  N150  1  0.83062595  0.84067440  0.62253369  1
  N  N151  1  0.50312361  0.50618127  0.87398624  1
  N  N152  1  0.16431283  0.83360635  0.12856751  1
  N  N153  1  0.83139048  0.15564082  0.37567636  1
  N  N154  1  0.50243527  0.17509157  0.62206057  1
  N  N155  1  0.16524187  0.84631245  0.62556053  1
  N  N156  1  0.82012195  0.49283516  0.37702205  1
  N  N157  1  0.49822774  0.83806302  0.62303378  1
  N  N158  1  0.00026713  -0.00624100  0.12788379  1
  N  N159  1  0.32617603  -0.00866054  0.37733236  1
  N  N160  1  0.01121451  0.33573376  0.62821880  1
  N  N161  1  0.00536262  0.32897417  0.87461780  1
  N  N162  1  0.17537322  0.51569723  0.62175802  1
  N  N163  1  0.35131040  0.34152650  0.62332351  1
  N  N164  1  0.83025049  0.16629473  0.12705224  1
  N  N165  1  0.33417885  0.66498668  0.87449024  1
  N  N166  1  0.16979901  0.49384479  0.87520129  1
  N  N167  1  0.50310625  0.49783005  0.62522417  1
  N  N168  1  0.32372578  0.31671787  0.12994519  1
  N  N169  1  0.50164766  0.84187782  0.87434259  1
  N  N170  1  0.33085019  0.66601737  0.62340200  1
  N  N171  1  0.82428758  0.49768896  0.12376661  1
  N  N172  1  -0.00016430  0.66763503  0.12610786  1
  N  N173  1  0.00046648  0.66879296  0.62410872  1
  N  N174  1  0.82840048  0.16662198  0.87534393  1
  N  N175  1  0.50524299  0.16710339  0.87503034  1
  N  N176  1  0.16724598  0.84186079  0.37371872  1
  O  O177  1  0.17398988  0.16995538  0.12570014  1
  O  O178  1  0.67467178  0.31354892  0.13031236  1
  O  O179  1  0.49498024  0.16771606  0.12706931  1
  O  O180  1  0.82705853  0.51500761  0.87153043  1
  O  O181  1  0.33025291  -0.01101667  0.12422783  1
  O  O182  1  0.50800786  0.50179471  0.36125599  1
  O  O183  1  0.15970374  0.85417836  0.87258081  1
  O  O184  1  0.14196024  0.48545505  0.13053924  1
  O  O185  1  0.14622317  0.16985980  0.62717856  1
  O  O186  1  0.00385739  0.66795404  0.37459524  1
  O  O187  1  0.82976414  0.83203456  0.13232287  1
  O  O188  1  0.34116980  -0.01129002  0.87264825  1
  O  O189  1  0.33954301  0.33370457  0.37316149  1
  O  O190  1  0.66961277  0.00513895  0.62674833  1
  O  O191  1  0.67977670  0.65539956  0.87138369  1
  O  O192  1  0.16732864  0.16550640  0.37461455  1
  O  O193  1  0.68068614  0.31743343  0.87334055  1
  O  O194  1  0.65928473  0.00184809  0.87470582  1
  O  O195  1  0.14611583  0.16487936  0.88027238  1
  O  O196  1  0.48383142  0.16798515  0.37839631  1
  O  O197  1  0.00201540  0.33839409  0.12933303  1
  O  O198  1  0.34192865  -0.00199148  0.62019422  1
  O  O199  1  0.82547202  0.14641593  0.62992924  1
  O  O200  1  0.66250546  -0.00523367  0.12123258  1
  O  O201  1  -0.00985526  0.33357407  0.37942994  1
  O  O202  1  0.84848628  0.82698642  0.87345449  1
  O  O203  1  0.67918943  0.33410574  0.37658285  1
  O  O204  1  0.00005895  0.00318324  0.36776795  1
  O  O205  1  0.68274862  0.33074086  0.62427882  1
  O  O206  1  -0.00630708  -0.01347851  0.88057843  1
  O  O207  1  0.67089785  0.67633568  0.12461124  1
  O  O208  1  0.15216504  0.50363381  0.37843752  1
  O  O209  1  0.81327520  0.84833807  0.37567560  1
  O  O210  1  0.50543424  0.82791006  0.38017341  1
  O  O211  1  -0.01072954  0.67889341  0.88044332  1
  O  O212  1  0.82508372  0.50813426  0.62062074  1
  O  O213  1  0.33667428  0.66983279  0.36890714  1
  O  O214  1  0.67522893  -0.01625023  0.37544212  1
  O  O215  1  0.66078157  0.66983602  0.37687843  1
