# generated using pymatgen
data_Sr24Ta24N11O13
_symmetry_space_group_name_H-M   'P 1'
_cell_length_a   16.70383005
_cell_length_b   16.94272618
_cell_length_c   15.66148084
_cell_angle_alpha   89.27434133
_cell_angle_beta   89.63992287
_cell_angle_gamma   90.21200010
_symmetry_Int_Tables_number   1
_chemical_formula_structural   Sr24Ta24N11O13
_chemical_formula_sum   'Sr72 Ta72 N33 O39'
_cell_volume   4431.85626322
_cell_formula_units_Z   3
loop_
 _symmetry_equiv_pos_site_id
 _symmetry_equiv_pos_as_xyz
  1  'x, y, z'
loop_
 _atom_site_type_symbol
 _atom_site_label
 _atom_site_symmetry_multiplicity
 _atom_site_fract_x
 _atom_site_fract_y
 _atom_site_fract_z
 _atom_site_occupancy
  Sr  Sr0  1  -0.00870649  0.18181470  0.09370452  1
  Sr  Sr1  1  -0.00450099  0.16836374  0.62698993  1
  Sr  Sr2  1  0.00319831  0.48584786  0.13676443  1
  Sr  Sr3  1  -0.00656228  0.54262137  0.57118262  1
  Sr  Sr4  1  0.00795372  0.85760830  0.11216711  1
  Sr  Sr5  1  -0.00639615  0.83590150  0.66165581  1
  Sr  Sr6  1  0.32876954  0.17338443  0.13662748  1
  Sr  Sr7  1  0.33425833  0.19128789  0.59713168  1
  Sr  Sr8  1  0.34606277  0.52184459  0.08911595  1
  Sr  Sr9  1  0.32030450  0.51051781  0.64361345  1
  Sr  Sr10  1  0.32019557  0.84304229  0.14582251  1
  Sr  Sr11  1  0.33236787  0.84412875  0.61496165  1
  Sr  Sr12  1  0.66884325  0.18872179  0.12779772  1
  Sr  Sr13  1  0.65465514  0.17113172  0.65174528  1
  Sr  Sr14  1  0.64888272  0.51998639  0.14422075  1
  Sr  Sr15  1  0.67411746  0.50037628  0.62164304  1
  Sr  Sr16  1  0.67036176  0.83366235  0.12616575  1
  Sr  Sr17  1  0.67515613  0.85189288  0.59271377  1
  Sr  Sr18  1  0.16995870  0.00543988  0.11615061  1
  Sr  Sr19  1  0.16352252  -0.03168445  0.65483381  1
  Sr  Sr20  1  0.17052949  0.32866853  0.16414352  1
  Sr  Sr21  1  0.15689680  0.30359309  0.61997950  1
  Sr  Sr22  1  0.16312596  0.63729529  0.10697323  1
  Sr  Sr23  1  0.18715090  0.66178785  0.60678426  1
  Sr  Sr24  1  0.52186970  -0.01448628  0.09850855  1
  Sr  Sr25  1  0.50431885  0.00173952  0.63867899  1
  Sr  Sr26  1  0.49698186  0.31671348  0.13659992  1
  Sr  Sr27  1  0.50123844  0.33063389  0.58081293  1
  Sr  Sr28  1  0.50916741  0.67994366  0.12084781  1
  Sr  Sr29  1  0.50025235  0.63149319  0.68222286  1
  Sr  Sr30  1  0.83143205  -0.02449065  0.14271964  1
  Sr  Sr31  1  0.84530599  -0.00763557  0.59891777  1
  Sr  Sr32  1  0.83717311  0.33344140  0.11392523  1
  Sr  Sr33  1  0.82386278  0.31132742  0.66065279  1
  Sr  Sr34  1  0.85469718  0.63810213  0.12402365  1
  Sr  Sr35  1  0.81838158  0.66617638  0.62042673  1
  Sr  Sr36  1  -0.00925159  0.16353445  0.41819953  1
  Sr  Sr37  1  0.00295507  0.19331433  0.85736375  1
  Sr  Sr38  1  -0.00052801  0.49398379  0.35169727  1
  Sr  Sr39  1  -0.01517089  0.50841351  0.91317588  1
  Sr  Sr40  1  0.00135574  0.86525078  0.33107499  1
  Sr  Sr41  1  0.00167904  0.84078951  0.87136644  1
  Sr  Sr42  1  0.32869481  0.18702291  0.36457389  1
  Sr  Sr43  1  0.33091473  0.18078408  0.89460783  1
  Sr  Sr44  1  0.33261537  0.52116100  0.39812345  1
  Sr  Sr45  1  0.33955545  0.49950214  0.86949617  1
  Sr  Sr46  1  0.32493242  0.82576638  0.38174928  1
  Sr  Sr47  1  0.33044017  0.87520621  0.84556361  1
  Sr  Sr48  1  0.66787244  0.18533876  0.34690711  1
  Sr  Sr49  1  0.65880228  0.18349487  0.87681719  1
  Sr  Sr50  1  0.65537425  0.50827534  0.39140752  1
  Sr  Sr51  1  0.67135258  0.52652450  0.83163454  1
  Sr  Sr52  1  0.68093453  0.82856445  0.37540228  1
  Sr  Sr53  1  0.65587864  0.84016890  0.90871530  1
  Sr  Sr54  1  0.17926373  -0.01918365  0.34276563  1
  Sr  Sr55  1  0.16197932  -0.00433540  0.89013197  1
  Sr  Sr56  1  0.15843681  0.31038843  0.37963625  1
  Sr  Sr57  1  0.17821334  0.33149585  0.82994763  1
  Sr  Sr58  1  0.16689088  0.64767295  0.39579739  1
  Sr  Sr59  1  0.17004777  0.62811760  0.88672969  1
  Sr  Sr60  1  0.50354043  -0.03492064  0.41887617  1
  Sr  Sr61  1  0.51646947  -0.00066197  0.85980447  1
  Sr  Sr62  1  0.49796551  0.33107334  0.37213720  1
  Sr  Sr63  1  0.48569527  0.31873901  0.91775721  1
  Sr  Sr64  1  0.50414190  0.67203032  0.33489589  1
  Sr  Sr65  1  0.50777559  0.66877587  0.89406042  1
  Sr  Sr66  1  0.83195060  -0.00930841  0.37102022  1
  Sr  Sr67  1  0.83705378  -0.03662129  0.89987468  1
  Sr  Sr68  1  0.83673132  0.32218188  0.35790097  1
  Sr  Sr69  1  0.83043941  0.32759103  0.88078580  1
  Sr  Sr70  1  0.83694587  0.64178076  0.40236694  1
  Sr  Sr71  1  0.84131906  0.66212651  0.84807806  1
  Ta  Ta72  1  0.16313196  0.20006204  -0.00048390  1
  Ta  Ta73  1  0.17119470  0.11069288  0.49875902  1
  Ta  Ta74  1  0.16488702  0.45550777  -0.00198342  1
  Ta  Ta75  1  0.16089827  0.46193217  0.49442816  1
  Ta  Ta76  1  0.17855566  0.80300127  -0.01503199  1
  Ta  Ta77  1  0.13291917  0.83337970  0.49175332  1
  Ta  Ta78  1  0.49872496  0.13909695  0.01118007  1
  Ta  Ta79  1  0.51497935  0.14563517  0.48948326  1
  Ta  Ta80  1  0.53296394  0.49379214  -0.00624651  1
  Ta  Ta81  1  0.49263035  0.53463592  0.50197978  1
  Ta  Ta82  1  0.45588845  0.83793321  -0.00324997  1
  Ta  Ta83  1  0.50172752  0.78671559  0.50947596  1
  Ta  Ta84  1  0.82650405  0.13513080  -0.00476432  1
  Ta  Ta85  1  0.79867687  0.17212076  0.50835291  1
  Ta  Ta86  1  0.79192120  0.50103859  -0.00800148  1
  Ta  Ta87  1  0.83400822  0.44950821  0.50474287  1
  Ta  Ta88  1  0.83973930  0.78834226  0.00083547  1
  Ta  Ta89  1  0.87541688  0.82670918  0.49395686  1
  Ta  Ta90  1  0.12372332  0.15779192  0.25598631  1
  Ta  Ta91  1  0.18458733  0.13967355  0.74336600  1
  Ta  Ta92  1  0.20451781  0.50343429  0.25414258  1
  Ta  Ta93  1  0.11351565  0.50124190  0.73958435  1
  Ta  Ta94  1  0.15992493  0.77942374  0.24936716  1
  Ta  Ta95  1  0.17286441  0.78271628  0.76423141  1
  Ta  Ta96  1  0.49888269  0.12019290  0.25935136  1
  Ta  Ta97  1  0.47814744  0.19113528  0.74208773  1
  Ta  Ta98  1  0.47467826  0.49176053  0.25332586  1
  Ta  Ta99  1  0.49773675  0.44412221  0.74874759  1
  Ta  Ta100  1  0.50021023  0.86292700  0.24567856  1
  Ta  Ta101  1  0.51162163  0.81867965  0.75044410  1
  Ta  Ta102  1  0.86563966  0.15846950  0.24975625  1
  Ta  Ta103  1  0.83077254  0.11614339  0.75433697  1
  Ta  Ta104  1  0.80443830  0.49232052  0.25680806  1
  Ta  Ta105  1  0.88080612  0.49572122  0.73664978  1
  Ta  Ta106  1  0.84256658  0.78576302  0.24814196  1
  Ta  Ta107  1  0.80349496  0.84028689  0.74797335  1
  Ta  Ta108  1  -0.00100019  0.04895149  0.24784606  1
  Ta  Ta109  1  -0.01896828  0.01935554  0.75935787  1
  Ta  Ta110  1  -0.00392774  0.29159817  0.25129305  1
  Ta  Ta111  1  -0.00360443  0.37972078  0.74292677  1
  Ta  Ta112  1  0.00974509  0.68794477  0.25299799  1
  Ta  Ta113  1  0.02124025  0.64665625  0.74744385  1
  Ta  Ta114  1  0.38664282  0.00006152  0.25330061  1
  Ta  Ta115  1  0.33274661  0.05368221  0.74744541  1
  Ta  Ta116  1  0.33616168  0.38474833  0.25279136  1
  Ta  Ta117  1  0.36869995  0.33032025  0.75151107  1
  Ta  Ta118  1  0.31433686  0.65805677  0.24696956  1
  Ta  Ta119  1  0.32932444  0.69984310  0.76176664  1
  Ta  Ta120  1  0.63327304  0.00309494  0.25296107  1
  Ta  Ta121  1  0.69945349  -0.00831442  0.75240070  1
  Ta  Ta122  1  0.66982596  0.36627055  0.24673449  1
  Ta  Ta123  1  0.61977939  0.33856805  0.75033475  1
  Ta  Ta124  1  0.70041719  0.66797147  0.24905098  1
  Ta  Ta125  1  0.66217843  0.71877644  0.75049332  1
  Ta  Ta126  1  -0.01617479  0.03196837  -0.00266723  1
  Ta  Ta127  1  0.02530092  -0.02448540  0.49588037  1
  Ta  Ta128  1  0.04796311  0.33580786  0.00220617  1
  Ta  Ta129  1  -0.01207986  0.35322510  0.50053613  1
  Ta  Ta130  1  0.00253798  0.69306657  -0.00697471  1
  Ta  Ta131  1  0.00529549  0.72423663  0.49122282  1
  Ta  Ta132  1  0.35868782  0.00645585  0.00412622  1
  Ta  Ta133  1  0.32470902  0.02175418  0.49710873  1
  Ta  Ta134  1  0.28897030  0.34158424  0.00027359  1
  Ta  Ta135  1  0.31268223  0.36582742  0.49650609  1
  Ta  Ta136  1  0.32788709  0.71283844  -0.01382873  1
  Ta  Ta137  1  0.38907778  0.67119182  0.51502278  1
  Ta  Ta138  1  0.68432584  0.03173160  0.00796418  1
  Ta  Ta139  1  0.66983442  0.04552168  0.49841692  1
  Ta  Ta140  1  0.66249190  0.38327783  -0.00243273  1
  Ta  Ta141  1  0.69272862  0.32103903  0.50535665  1
  Ta  Ta142  1  0.69320691  0.65437454  -0.00253845  1
  Ta  Ta143  1  0.61499928  0.67077420  0.51359265  1
  N  N144  1  0.00719245  -0.00708086  0.87676514  1
  N  N145  1  0.00312400  0.01210564  0.12026257  1
  N  N146  1  0.49465854  0.50792565  0.37393620  1
  N  N147  1  0.15761761  0.14891152  0.62317009  1
  N  N148  1  0.15765535  0.14958859  0.37737728  1
  N  N149  1  0.50131563  0.16195029  0.13257680  1
  N  N150  1  0.16672500  0.82158241  0.37026062  1
  N  N151  1  0.82814875  0.48754014  0.37955192  1
  N  N152  1  0.49571986  0.83891390  0.87129651  1
  N  N153  1  0.34807762  0.67531232  0.64211654  1
  N  N154  1  -0.00362080  0.32880868  0.38046862  1
  N  N155  1  0.16292056  0.84394116  0.86707797  1
  N  N156  1  0.84233575  0.82139801  0.12614057  1
  N  N157  1  0.82565991  0.15555294  0.63140808  1
  N  N158  1  0.33277154  0.34296380  0.37712915  1
  N  N159  1  0.49592163  0.17897096  0.37058463  1
  N  N160  1  0.83208044  0.81757282  0.87401689  1
  N  N161  1  0.67365406  0.01242183  0.13419080  1
  N  N162  1  0.00932963  0.33236190  0.13036529  1
  N  N163  1  0.00292112  0.00742737  0.37941497  1
  N  N164  1  0.49463270  0.17366245  0.61964133  1
  N  N165  1  0.66666845  0.67752755  0.87371480  1
  N  N166  1  0.66993336  0.67310750  0.12877133  1
  N  N167  1  0.15861364  0.49299241  0.36869789  1
  N  N168  1  0.49270060  0.83329036  0.12400887  1
  N  N169  1  0.84001029  0.82809262  0.37226552  1
  N  N170  1  0.00227168  0.66381949  0.87261393  1
  N  N171  1  0.66393059  0.34803788  0.12542091  1
  N  N172  1  0.83644431  0.83220190  0.62317697  1
  N  N173  1  0.83384519  0.50145134  0.62241478  1
  N  N174  1  0.65929183  0.33236472  0.62845545  1
  N  N175  1  0.65788982  0.66988034  0.63133734  1
  N  N176  1  0.33116136  0.33907480  0.87747409  1
  O  O177  1  0.66165000  0.33710525  0.87600711  1
  O  O178  1  0.01069008  0.67618631  0.12744883  1
  O  O179  1  0.00487184  -0.00808224  0.63305101  1
  O  O180  1  0.34347865  0.02957639  0.62446637  1
  O  O181  1  0.49967301  0.49791451  0.11716655  1
  O  O182  1  0.14279800  0.48134882  0.86402841  1
  O  O183  1  0.49775021  0.16937149  0.88220029  1
  O  O184  1  0.81460969  0.49214251  0.11819437  1
  O  O185  1  0.16904407  0.80366155  0.12059229  1
  O  O186  1  0.65733737  0.67007697  0.37320115  1
  O  O187  1  0.16448153  0.17232458  0.12462227  1
  O  O188  1  0.49851722  0.84715668  0.61977086  1
  O  O189  1  0.49392127  0.48623455  0.62241320  1
  O  O190  1  0.82890124  0.49972399  0.86554989  1
  O  O191  1  0.34784534  0.64640245  0.88337438  1
  O  O192  1  0.34523264  0.02643024  0.87816820  1
  O  O193  1  0.50821980  0.49458936  0.86908363  1
  O  O194  1  0.67510435  0.02880517  0.37263726  1
  O  O195  1  0.33915496  0.00203241  0.12986532  1
  O  O196  1  0.83385448  0.15070541  0.12680023  1
  O  O197  1  0.32099923  0.67644983  0.11910061  1
  O  O198  1  0.00827974  0.68659290  0.62245857  1
  O  O199  1  0.14239822  0.50858431  0.61310252  1
  O  O200  1  0.00750180  0.34628553  0.87615964  1
  O  O201  1  0.67713414  0.00930862  0.62598220  1
  O  O202  1  0.66128626  0.33725533  0.38068707  1
  O  O203  1  0.16035380  0.81502799  0.63605975  1
  O  O204  1  -0.00007034  0.32078806  0.63276745  1
  O  O205  1  0.83406261  0.16313768  0.37546988  1
  O  O206  1  0.16511586  0.48489057  0.13081274  1
  O  O207  1  0.00434995  0.66178596  0.38086863  1
  O  O208  1  0.16642097  0.17893113  0.87276661  1
  O  O209  1  0.33188029  0.34560277  0.62746913  1
  O  O210  1  0.67791989  -0.00441490  0.87851611  1
  O  O211  1  0.32589100  0.34767095  0.12632680  1
  O  O212  1  0.82239195  0.17050380  0.87154869  1
  O  O213  1  0.33928499  -0.00805778  0.37687153  1
  O  O214  1  0.34466116  0.67139052  0.37189709  1
  O  O215  1  0.50164105  0.82212184  0.37215913  1
