# generated using pymatgen
data_Sr24Ta24N11O13
_symmetry_space_group_name_H-M   'P 1'
_cell_length_a   16.72038424
_cell_length_b   16.80890206
_cell_length_c   15.68636146
_cell_angle_alpha   89.64908159
_cell_angle_beta   90.01343425
_cell_angle_gamma   89.86266290
_symmetry_Int_Tables_number   1
_chemical_formula_structural   Sr24Ta24N11O13
_chemical_formula_sum   'Sr72 Ta72 N33 O39'
_cell_volume   4408.57680733
_cell_formula_units_Z   3
loop_
 _symmetry_equiv_pos_site_id
 _symmetry_equiv_pos_as_xyz
  1  'x, y, z'
loop_
 _atom_site_type_symbol
 _atom_site_label
 _atom_site_symmetry_multiplicity
 _atom_site_fract_x
 _atom_site_fract_y
 _atom_site_fract_z
 _atom_site_occupancy
  Sr  Sr0  1  0.01144099  0.15901254  0.13249830  1
  Sr  Sr1  1  -0.02725794  0.18769679  0.60715789  1
  Sr  Sr2  1  -0.01167028  0.51817534  0.17755300  1
  Sr  Sr3  1  -0.00109477  0.50785775  0.62547059  1
  Sr  Sr4  1  0.01261828  0.82392548  0.07432122  1
  Sr  Sr5  1  0.00145959  0.85178903  0.63604886  1
  Sr  Sr6  1  0.32297589  0.15798635  0.08370541  1
  Sr  Sr7  1  0.33045088  0.16606777  0.63320314  1
  Sr  Sr8  1  0.33043058  0.49250198  0.13509195  1
  Sr  Sr9  1  0.32187667  0.52422098  0.58584511  1
  Sr  Sr10  1  0.34654633  0.84908808  0.13942709  1
  Sr  Sr11  1  0.34000143  0.82354414  0.65299066  1
  Sr  Sr12  1  0.65713444  0.17973708  0.11444571  1
  Sr  Sr13  1  0.66794311  0.16799503  0.66436127  1
  Sr  Sr14  1  0.67486885  0.50885247  0.08808424  1
  Sr  Sr15  1  0.65754312  0.51726860  0.63899007  1
  Sr  Sr16  1  0.67497511  0.83930807  0.13987557  1
  Sr  Sr17  1  0.65397731  0.85638604  0.58083027  1
  Sr  Sr18  1  0.16103453  -0.00670523  0.13342703  1
  Sr  Sr19  1  0.18709407  -0.02128003  0.64070804  1
  Sr  Sr20  1  0.17620466  0.30654846  0.09075960  1
  Sr  Sr21  1  0.16554618  0.31793940  0.64350983  1
  Sr  Sr22  1  0.17782815  0.65036263  0.14329959  1
  Sr  Sr23  1  0.15798202  0.65378382  0.58654016  1
  Sr  Sr24  1  0.51107979  0.00104647  0.12764913  1
  Sr  Sr25  1  0.50317847  -0.00330253  0.58755938  1
  Sr  Sr26  1  0.49174180  0.32913248  0.15922073  1
  Sr  Sr27  1  0.50695632  0.31815876  0.63255011  1
  Sr  Sr28  1  0.49684552  0.63147944  0.09769488  1
  Sr  Sr29  1  0.49800823  0.66825873  0.63075232  1
  Sr  Sr30  1  0.85096259  0.00056090  0.14693275  1
  Sr  Sr31  1  0.82911498  0.00188623  0.61593258  1
  Sr  Sr32  1  0.84835394  0.33451963  0.13919494  1
  Sr  Sr33  1  0.83042585  0.35865265  0.57992457  1
  Sr  Sr34  1  0.82835091  0.67961396  0.11837714  1
  Sr  Sr35  1  0.83735401  0.65793915  0.67422018  1
  Sr  Sr36  1  -0.00280938  0.15871455  0.36071492  1
  Sr  Sr37  1  -0.00407126  0.20691933  0.89923132  1
  Sr  Sr38  1  -0.00807137  0.51588696  0.37830834  1
  Sr  Sr39  1  0.01016583  0.50690039  0.84192886  1
  Sr  Sr40  1  0.01479436  0.83896704  0.41903617  1
  Sr  Sr41  1  -0.01758312  0.84151460  0.85853127  1
  Sr  Sr42  1  0.33571102  0.15161509  0.42129601  1
  Sr  Sr43  1  0.32839927  0.17784530  0.85816026  1
  Sr  Sr44  1  0.33322967  0.49962430  0.36216303  1
  Sr  Sr45  1  0.31888850  0.51109307  0.91606859  1
  Sr  Sr46  1  0.32178400  0.83796521  0.33617816  1
  Sr  Sr47  1  0.34715705  0.82618818  0.85729204  1
  Sr  Sr48  1  0.64090180  0.18731843  0.32790986  1
  Sr  Sr49  1  0.66571614  0.16935366  0.87807539  1
  Sr  Sr50  1  0.66225595  0.48909576  0.41612947  1
  Sr  Sr51  1  0.66620056  0.52107208  0.86808051  1
  Sr  Sr52  1  0.67074608  0.83475979  0.36502911  1
  Sr  Sr53  1  0.66108747  0.85399142  0.90138356  1
  Sr  Sr54  1  0.17130039  -0.00929874  0.36691364  1
  Sr  Sr55  1  0.16126852  -0.04026204  0.85118058  1
  Sr  Sr56  1  0.17993890  0.29776977  0.40349324  1
  Sr  Sr57  1  0.17089916  0.33832658  0.87225560  1
  Sr  Sr58  1  0.16896225  0.65388042  0.36796706  1
  Sr  Sr59  1  0.17122690  0.65726764  0.90674310  1
  Sr  Sr60  1  0.50400746  -0.01794353  0.35867001  1
  Sr  Sr61  1  0.50773132  0.00184848  0.91532295  1
  Sr  Sr62  1  0.49398445  0.32818817  0.36749229  1
  Sr  Sr63  1  0.50616446  0.31913466  0.83294680  1
  Sr  Sr64  1  0.51557835  0.64463280  0.41183851  1
  Sr  Sr65  1  0.48928667  0.65914697  0.86277125  1
  Sr  Sr66  1  0.84409246  -0.01167484  0.38990153  1
  Sr  Sr67  1  0.83196340  0.02031612  0.82980495  1
  Sr  Sr68  1  0.84171243  0.34082092  0.36825529  1
  Sr  Sr69  1  0.81307702  0.33370536  0.92825497  1
  Sr  Sr70  1  0.82755894  0.67210386  0.33776119  1
  Sr  Sr71  1  0.83093851  0.68530541  0.88918530  1
  Ta  Ta72  1  0.15693189  0.11390728  -0.02804450  1
  Ta  Ta73  1  0.14383072  0.13249376  0.50859084  1
  Ta  Ta74  1  0.12772327  0.49222400  0.01996677  1
  Ta  Ta75  1  0.15630101  0.46293944  0.48801517  1
  Ta  Ta76  1  0.20488650  0.83212004  0.00288919  1
  Ta  Ta77  1  0.20261062  0.83004116  0.49973038  1
  Ta  Ta78  1  0.49588984  0.19986974  -0.00236360  1
  Ta  Ta79  1  0.53082468  0.16959757  0.49834824  1
  Ta  Ta80  1  0.49647624  0.45331535  0.00050402  1
  Ta  Ta81  1  0.48224608  0.46532988  0.50143412  1
  Ta  Ta82  1  0.49762983  0.80887425  0.00642594  1
  Ta  Ta83  1  0.46012869  0.82336764  0.48611613  1
  Ta  Ta84  1  0.83742404  0.13067709  -0.00371348  1
  Ta  Ta85  1  0.78997123  0.17568411  0.49741034  1
  Ta  Ta86  1  0.87052763  0.50812926  0.00820790  1
  Ta  Ta87  1  0.83177356  0.54606308  0.50252172  1
  Ta  Ta88  1  0.83214177  0.88469201  -0.00807839  1
  Ta  Ta89  1  0.83580656  0.79093822  0.50505491  1
  Ta  Ta90  1  0.19564992  0.16606299  0.25769645  1
  Ta  Ta91  1  0.14207743  0.14603485  0.76046671  1
  Ta  Ta92  1  0.16458635  0.44050873  0.25673052  1
  Ta  Ta93  1  0.19115186  0.51343035  0.74694325  1
  Ta  Ta94  1  0.12977177  0.82593258  0.25255930  1
  Ta  Ta95  1  0.16480108  0.77827890  0.74441913  1
  Ta  Ta96  1  0.44995245  0.15764852  0.24357976  1
  Ta  Ta97  1  0.49820051  0.11871615  0.75519645  1
  Ta  Ta98  1  0.53075091  0.50718875  0.25076809  1
  Ta  Ta99  1  0.45031934  0.49943286  0.75071327  1
  Ta  Ta100  1  0.50465935  0.77464185  0.25556736  1
  Ta  Ta101  1  0.52248874  0.85793558  0.74608479  1
  Ta  Ta102  1  0.81564867  0.15822083  0.24700544  1
  Ta  Ta103  1  0.83872236  0.22060110  0.75743559  1
  Ta  Ta104  1  0.78778492  0.50319393  0.25358534  1
  Ta  Ta105  1  0.83034234  0.46482673  0.75279772  1
  Ta  Ta106  1  0.88491491  0.83772963  0.24765901  1
  Ta  Ta107  1  0.78719660  0.84251254  0.74721945  1
  Ta  Ta108  1  0.00544240  -0.04458110  0.24448739  1
  Ta  Ta109  1  0.01156382  0.05132374  0.75745328  1
  Ta  Ta110  1  0.03860829  0.32911275  0.24843539  1
  Ta  Ta111  1  -0.05235630  0.34152019  0.75233054  1
  Ta  Ta112  1  0.00225590  0.71462148  0.25139807  1
  Ta  Ta113  1  0.03493973  0.67616842  0.75214262  1
  Ta  Ta114  1  0.33099693  0.03803113  0.25114445  1
  Ta  Ta115  1  0.38088864  -0.00232651  0.74344602  1
  Ta  Ta116  1  0.31509637  0.28942800  0.25124051  1
  Ta  Ta117  1  0.33108069  0.38277428  0.74612839  1
  Ta  Ta118  1  0.37459059  0.66506920  0.25377291  1
  Ta  Ta119  1  0.30861642  0.64214949  0.74817458  1
  Ta  Ta120  1  0.69071914  0.02199610  0.24901585  1
  Ta  Ta121  1  0.64178156  -0.01538141  0.74701056  1
  Ta  Ta122  1  0.67094568  0.37368114  0.24951109  1
  Ta  Ta123  1  0.71365119  0.34156487  0.74953067  1
  Ta  Ta124  1  0.64417408  0.64635660  0.24775930  1
  Ta  Ta125  1  0.65858980  0.72707751  0.74465275  1
  Ta  Ta126  1  -0.01225616  0.01550410  -0.01009526  1
  Ta  Ta127  1  0.02127495  0.01863404  0.50791846  1
  Ta  Ta128  1  0.00137004  0.39251930  0.00731877  1
  Ta  Ta129  1  0.02021332  0.34869820  0.49697447  1
  Ta  Ta130  1  0.00157348  0.62330785  0.01020961  1
  Ta  Ta131  1  -0.04102806  0.67315976  0.49895176  1
  Ta  Ta132  1  0.30684536  -0.01757738  -0.00959570  1
  Ta  Ta133  1  0.33236829  -0.04061791  0.49626221  1
  Ta  Ta134  1  0.37302963  0.33168464  -0.01074301  1
  Ta  Ta135  1  0.34336435  0.34692115  0.51233410  1
  Ta  Ta136  1  0.33822240  0.69979783  0.00769527  1
  Ta  Ta137  1  0.33700864  0.70341211  0.49237886  1
  Ta  Ta138  1  0.70896309  0.01189014  -0.00513766  1
  Ta  Ta139  1  0.66738687  0.05861995  0.49808994  1
  Ta  Ta140  1  0.61533331  0.33807374  -0.00310142  1
  Ta  Ta141  1  0.66021516  0.29451711  0.49394364  1
  Ta  Ta142  1  0.64805304  0.69298277  0.00126347  1
  Ta  Ta143  1  0.70891321  0.67746913  0.50732863  1
  N  N144  1  0.34581346  -0.00935707  0.62329500  1
  N  N145  1  0.82365290  0.51125142  0.37776646  1
  N  N146  1  0.66519331  0.01390008  0.61801431  1
  N  N147  1  0.00524418  -0.01096272  0.12263209  1
  N  N148  1  0.33230622  0.66667016  0.88437349  1
  N  N149  1  0.51181678  0.82000412  0.37269792  1
  N  N150  1  0.66654935  0.33554542  0.37452369  1
  N  N151  1  0.16842285  0.49804363  0.37131407  1
  N  N152  1  -0.00572406  0.67556536  0.37961213  1
  N  N153  1  0.82967299  0.50759595  0.63128583  1
  N  N154  1  0.66348387  0.67083267  0.12349559  1
  N  N155  1  0.33543314  0.65696817  0.37689109  1
  N  N156  1  0.83224743  0.50843890  0.13018971  1
  N  N157  1  0.50296662  0.15898407  0.87214553  1
  N  N158  1  0.33511208  0.33771074  0.86972381  1
  N  N159  1  0.49882800  0.48590970  0.38104519  1
  N  N160  1  0.82438209  0.85228059  0.86939103  1
  N  N161  1  0.33054430  0.66978507  0.62748571  1
  N  N162  1  0.17042484  0.81721231  0.62608187  1
  N  N163  1  0.66958733  0.00938009  0.87321798  1
  N  N164  1  0.48745692  0.16385855  0.12419048  1
  N  N165  1  -0.00289075  -0.00756899  0.86306912  1
  N  N166  1  0.50237295  0.48269998  0.12984853  1
  N  N167  1  0.16544545  0.82586974  0.37382375  1
  N  N168  1  0.66582308  0.68249013  0.62840265  1
  N  N169  1  0.33593958  -0.00068645  0.37089680  1
  N  N170  1  0.83500790  0.18171755  0.88485996  1
  N  N171  1  0.32890398  0.32378324  0.63273271  1
  N  N172  1  0.33751585  0.65710914  0.12828284  1
  N  N173  1  0.16722858  0.48932148  0.13977637  1
  N  N174  1  0.16930000  0.14845836  0.37889570  1
  N  N175  1  0.00228006  0.66995170  0.12370639  1
  N  N176  1  0.16890919  0.18611202  0.87884739  1
  O  O177  1  0.50156862  0.83977745  0.61725361  1
  O  O178  1  0.17337261  0.16009207  0.63188591  1
  O  O179  1  0.83615398  0.17159315  0.12296743  1
  O  O180  1  0.33273133  0.30935840  0.38018646  1
  O  O181  1  0.81571609  0.17537333  0.36975368  1
  O  O182  1  0.17122814  0.49750316  0.61965186  1
  O  O183  1  0.17792142  0.83390834  0.12710489  1
  O  O184  1  0.65710506  0.68251804  0.86808173  1
  O  O185  1  0.16718246  0.50263391  0.87652424  1
  O  O186  1  0.00325959  0.67049422  0.62756624  1
  O  O187  1  -0.01374476  0.35899077  0.88133349  1
  O  O188  1  0.49449022  0.16783624  0.37457427  1
  O  O189  1  -0.01223322  0.34690623  0.62127161  1
  O  O190  1  0.33559655  -0.01617689  0.86849903  1
  O  O191  1  0.47829909  0.50643296  0.62681181  1
  O  O192  1  0.85181708  0.83093063  0.38104651  1
  O  O193  1  0.81869503  0.18402213  0.62348754  1
  O  O194  1  0.67105216  0.67408247  0.38140867  1
  O  O195  1  0.65038183  0.33936111  0.12549940  1
  O  O196  1  0.51405443  0.16177468  0.62728204  1
  O  O197  1  -0.01350854  0.01306305  0.63173523  1
  O  O198  1  0.67841083  0.01323123  0.37377052  1
  O  O199  1  0.82767238  0.49645301  0.88503674  1
  O  O200  1  0.85738094  0.84692561  0.11326855  1
  O  O201  1  0.01871971  0.31574567  0.37526680  1
  O  O202  1  0.67189543  0.01491428  0.12413106  1
  O  O203  1  0.82955039  0.83981433  0.62542100  1
  O  O204  1  0.47442004  0.50072381  0.87653329  1
  O  O205  1  0.50512182  0.82463978  0.13137092  1
  O  O206  1  0.31899501  0.00224390  0.11741541  1
  O  O207  1  0.16687535  0.14833247  0.10147336  1
  O  O208  1  0.32944807  0.31145249  0.12274834  1
  O  O209  1  0.67842489  0.32796915  0.62475509  1
  O  O210  1  0.01154054  0.33200087  0.12380967  1
  O  O211  1  0.00934200  -0.00282075  0.37999433  1
  O  O212  1  0.01617001  0.65825950  0.87894429  1
  O  O213  1  0.18775891  0.81206479  0.87573564  1
  O  O214  1  0.66420088  0.33873997  0.86974238  1
  O  O215  1  0.50262793  0.83711462  0.88063958  1
