# generated using pymatgen
data_Sr24Ta24N11O13
_symmetry_space_group_name_H-M   'P 1'
_cell_length_a   16.76204940
_cell_length_b   16.84570035
_cell_length_c   15.62508936
_cell_angle_alpha   90.52578417
_cell_angle_beta   90.13950240
_cell_angle_gamma   90.16154368
_symmetry_Int_Tables_number   1
_chemical_formula_structural   Sr24Ta24N11O13
_chemical_formula_sum   'Sr72 Ta72 N33 O39'
_cell_volume   4411.81577894
_cell_formula_units_Z   3
loop_
 _symmetry_equiv_pos_site_id
 _symmetry_equiv_pos_as_xyz
  1  'x, y, z'
loop_
 _atom_site_type_symbol
 _atom_site_label
 _atom_site_symmetry_multiplicity
 _atom_site_fract_x
 _atom_site_fract_y
 _atom_site_fract_z
 _atom_site_occupancy
  Sr  Sr0  1  0.02296858  0.19646861  0.17081321  1
  Sr  Sr1  1  -0.00129208  0.17161689  0.61368863  1
  Sr  Sr2  1  0.00183276  0.49975678  0.08793581  1
  Sr  Sr3  1  0.00929179  0.50530303  0.62534246  1
  Sr  Sr4  1  -0.00044455  0.85374278  0.12882750  1
  Sr  Sr5  1  0.01643545  0.84716393  0.65343887  1
  Sr  Sr6  1  0.33250873  0.17938830  0.09162393  1
  Sr  Sr7  1  0.34164372  0.14396165  0.63547579  1
  Sr  Sr8  1  0.35223504  0.51030505  0.12555065  1
  Sr  Sr9  1  0.34019216  0.52045457  0.66061743  1
  Sr  Sr10  1  0.34277202  0.85470805  0.14419294  1
  Sr  Sr11  1  0.32106215  0.82794021  0.58312684  1
  Sr  Sr12  1  0.66764569  0.17195770  0.12178586  1
  Sr  Sr13  1  0.68863517  0.18799257  0.64078671  1
  Sr  Sr14  1  0.68488589  0.50701873  0.17346329  1
  Sr  Sr15  1  0.66371590  0.49239795  0.61227448  1
  Sr  Sr16  1  0.67204905  0.81422443  0.08305174  1
  Sr  Sr17  1  0.65760977  0.83530316  0.63942299  1
  Sr  Sr18  1  0.17985911  -0.00063993  0.11180090  1
  Sr  Sr19  1  0.16222675  0.01601135  0.66867380  1
  Sr  Sr20  1  0.16905669  0.34386643  0.13910135  1
  Sr  Sr21  1  0.15001296  0.32420946  0.57388876  1
  Sr  Sr22  1  0.14028750  0.64839663  0.10645959  1
  Sr  Sr23  1  0.16646886  0.66340486  0.62806461  1
  Sr  Sr24  1  0.50715515  0.00748927  0.17228499  1
  Sr  Sr25  1  0.49388297  -0.02152603  0.61056549  1
  Sr  Sr26  1  0.49751338  0.31196858  0.08985829  1
  Sr  Sr27  1  0.47633671  0.32103664  0.62427048  1
  Sr  Sr28  1  0.49137696  0.68841279  0.11108893  1
  Sr  Sr29  1  0.50491172  0.65347315  0.66359520  1
  Sr  Sr30  1  0.81939840  -0.01307801  0.10334970  1
  Sr  Sr31  1  0.83551439  -0.01354645  0.61760071  1
  Sr  Sr32  1  0.82859659  0.33115463  0.12565068  1
  Sr  Sr33  1  0.83886331  0.32960092  0.66242427  1
  Sr  Sr34  1  0.83349635  0.66299017  0.13573224  1
  Sr  Sr35  1  0.81937970  0.64009666  0.57792885  1
  Sr  Sr36  1  0.00345878  0.17884481  0.38231768  1
  Sr  Sr37  1  0.00649689  0.17872373  0.84805364  1
  Sr  Sr38  1  0.01608571  0.51770614  0.41454686  1
  Sr  Sr39  1  -0.00346042  0.49594553  0.87654537  1
  Sr  Sr40  1  -0.01146285  0.84229964  0.34279141  1
  Sr  Sr41  1  0.00702181  0.85386249  0.86904217  1
  Sr  Sr42  1  0.35055042  0.18848433  0.41933555  1
  Sr  Sr43  1  0.32630740  0.15336953  0.86637980  1
  Sr  Sr44  1  0.33016787  0.50489180  0.33746233  1
  Sr  Sr45  1  0.35306016  0.51362743  0.87280502  1
  Sr  Sr46  1  0.33504248  0.83395669  0.36627157  1
  Sr  Sr47  1  0.33389103  0.83278479  0.91994012  1
  Sr  Sr48  1  0.67112336  0.15946861  0.34359151  1
  Sr  Sr49  1  0.68716200  0.18081405  0.89934208  1
  Sr  Sr50  1  0.66433706  0.49818891  0.38331211  1
  Sr  Sr51  1  0.67636125  0.49484590  0.84608463  1
  Sr  Sr52  1  0.67608608  0.84545590  0.42767898  1
  Sr  Sr53  1  0.65928517  0.82836339  0.86502952  1
  Sr  Sr54  1  0.15794388  -0.01902699  0.32261938  1
  Sr  Sr55  1  0.17521492  -0.00637044  0.89029521  1
  Sr  Sr56  1  0.16895045  0.34117905  0.36474641  1
  Sr  Sr57  1  0.15684361  0.33738508  0.90353260  1
  Sr  Sr58  1  0.16779980  0.67255708  0.40663610  1
  Sr  Sr59  1  0.14861535  0.65076045  0.84998063  1
  Sr  Sr60  1  0.48560684  -0.00264710  0.38830120  1
  Sr  Sr61  1  0.50040599  -0.00113766  0.83529933  1
  Sr  Sr62  1  0.50800113  0.33237457  0.41386156  1
  Sr  Sr63  1  0.47718709  0.31879577  0.87905613  1
  Sr  Sr64  1  0.48633193  0.64667321  0.32822960  1
  Sr  Sr65  1  0.49825899  0.66832839  0.88460586  1
  Sr  Sr66  1  0.84348070  -0.00257818  0.39813509  1
  Sr  Sr67  1  0.81981780  -0.01749255  0.88118412  1
  Sr  Sr68  1  0.82411055  0.31435862  0.33465779  1
  Sr  Sr69  1  0.83938745  0.33317201  0.87308082  1
  Sr  Sr70  1  0.82888828  0.66143696  0.36826769  1
  Sr  Sr71  1  0.82966119  0.65612970  0.90464739  1
  Ta  Ta72  1  0.13855372  0.17278802  0.00619659  1
  Ta  Ta73  1  0.16755854  0.12848271  0.49557654  1
  Ta  Ta74  1  0.19854333  0.50028544  0.00244044  1
  Ta  Ta75  1  0.20993563  0.50320848  0.50176977  1
  Ta  Ta76  1  0.15774927  0.79930253  -0.00075225  1
  Ta  Ta77  1  0.14075653  0.86013257  0.49094686  1
  Ta  Ta78  1  0.50927122  0.11655925  0.00482255  1
  Ta  Ta79  1  0.54769490  0.15805877  0.50104592  1
  Ta  Ta80  1  0.54264752  0.49854769  0.00331199  1
  Ta  Ta81  1  0.47765096  0.52122362  0.49381017  1
  Ta  Ta82  1  0.50498448  0.88988793  0.00369577  1
  Ta  Ta83  1  0.49606696  0.77310578  0.49554715  1
  Ta  Ta84  1  0.87663853  0.16510958  0.00241835  1
  Ta  Ta85  1  0.82154200  0.18460961  0.49954434  1
  Ta  Ta86  1  0.80522267  0.49379163  0.00415499  1
  Ta  Ta87  1  0.83232878  0.44924956  0.49332675  1
  Ta  Ta88  1  0.85514148  0.81537147  -0.00567026  1
  Ta  Ta89  1  0.86384616  0.82123852  0.50264504  1
  Ta  Ta90  1  0.21135426  0.17057767  0.25329872  1
  Ta  Ta91  1  0.17077474  0.21353482  0.73968606  1
  Ta  Ta92  1  0.14480496  0.52309991  0.25313322  1
  Ta  Ta93  1  0.17129400  0.45551867  0.74109346  1
  Ta  Ta94  1  0.16323610  0.78959052  0.24439785  1
  Ta  Ta95  1  0.20567944  0.82956413  0.75576643  1
  Ta  Ta96  1  0.48167567  0.18891690  0.25390844  1
  Ta  Ta97  1  0.53663285  0.16803506  0.75072518  1
  Ta  Ta98  1  0.50385799  0.44734881  0.25098197  1
  Ta  Ta99  1  0.51653787  0.46801793  0.75509877  1
  Ta  Ta100  1  0.55818650  0.83373884  0.25840157  1
  Ta  Ta101  1  0.45108418  0.82868292  0.74968461  1
  Ta  Ta102  1  0.84544861  0.13062350  0.24543921  1
  Ta  Ta103  1  0.83940041  0.13418642  0.75129079  1
  Ta  Ta104  1  0.87893757  0.50026485  0.25157368  1
  Ta  Ta105  1  0.83821288  0.52877191  0.75078553  1
  Ta  Ta106  1  0.79040284  0.83799392  0.25700034  1
  Ta  Ta107  1  0.83101341  0.78683222  0.74731533  1
  Ta  Ta108  1  -0.02419177  0.02410816  0.23769315  1
  Ta  Ta109  1  -0.01811988  0.01835058  0.75599485  1
  Ta  Ta110  1  -0.00031873  0.38302567  0.25512077  1
  Ta  Ta111  1  0.03150910  0.33957784  0.74482386  1
  Ta  Ta112  1  0.01231614  0.65003077  0.25569160  1
  Ta  Ta113  1  -0.04739794  0.66870860  0.74364001  1
  Ta  Ta114  1  0.33227895  0.05373486  0.25294942  1
  Ta  Ta115  1  0.33096066  -0.05074267  0.75534564  1
  Ta  Ta116  1  0.35958992  0.31753890  0.25594585  1
  Ta  Ta117  1  0.29423752  0.33362886  0.74144437  1
  Ta  Ta118  1  0.28583588  0.67371471  0.23848842  1
  Ta  Ta119  1  0.32953390  0.71088414  0.75322854  1
  Ta  Ta120  1  0.68098336  -0.03352422  0.25781445  1
  Ta  Ta121  1  0.67022935  0.03415807  0.73992336  1
  Ta  Ta122  1  0.62567802  0.33073518  0.24809873  1
  Ta  Ta123  1  0.63371497  0.33158399  0.75234043  1
  Ta  Ta124  1  0.66486405  0.70593936  0.25929595  1
  Ta  Ta125  1  0.70312958  0.65815648  0.74645137  1
  Ta  Ta126  1  0.00079723  0.05200154  0.01212413  1
  Ta  Ta127  1  0.04063426  -0.00504691  0.49566929  1
  Ta  Ta128  1  -0.00448773  0.30680296  0.00492960  1
  Ta  Ta129  1  -0.04393935  0.33946197  0.49452825  1
  Ta  Ta130  1  -0.00701830  0.70072913  -0.00210598  1
  Ta  Ta131  1  -0.00563660  0.71477003  0.49960664  1
  Ta  Ta132  1  0.37707262  0.00575818  0.00363014  1
  Ta  Ta133  1  0.26901433  -0.00064770  0.49224897  1
  Ta  Ta134  1  0.31651599  0.35908637  -0.00069524  1
  Ta  Ta135  1  0.33211790  0.38780136  0.49679861  1
  Ta  Ta136  1  0.29314111  0.66532808  -0.00250230  1
  Ta  Ta137  1  0.35662993  0.64566817  0.50193178  1
  Ta  Ta138  1  0.63282866  -0.00226937  -0.00171992  1
  Ta  Ta139  1  0.66950195  0.04138433  0.51215441  1
  Ta  Ta140  1  0.66706276  0.37814818  0.00716006  1
  Ta  Ta141  1  0.69626092  0.31828324  0.49356847  1
  Ta  Ta142  1  0.66555295  0.61495739  0.00575845  1
  Ta  Ta143  1  0.61904697  0.66419679  0.49331770  1
  N  N144  1  0.33490023  0.67043947  0.62271026  1
  N  N145  1  -0.00659259  0.33464602  0.62354460  1
  N  N146  1  0.17112872  0.50372293  0.62729611  1
  N  N147  1  0.50481928  0.15868067  0.12502673  1
  N  N148  1  0.33816902  0.34271467  0.37831957  1
  N  N149  1  0.33606897  -0.00747297  0.87456645  1
  N  N150  1  0.83770722  0.15660543  0.36655996  1
  N  N151  1  0.16407207  0.83026151  0.88066566  1
  N  N152  1  0.17597109  0.17418498  0.12773800  1
  N  N153  1  0.66370618  0.65829231  0.37623429  1
  N  N154  1  0.34162569  0.01603979  0.13515924  1
  N  N155  1  0.17152177  0.16746095  0.62046162  1
  N  N156  1  -0.00195765  0.67476037  0.37905896  1
  N  N157  1  0.66391104  0.33332501  0.12225892  1
  N  N158  1  0.82710800  0.82443038  0.87240021  1
  N  N159  1  0.17271472  0.50606804  0.37543614  1
  N  N160  1  0.66688845  -0.01219492  0.62243008  1
  N  N161  1  0.50690281  0.49690581  0.87640623  1
  N  N162  1  0.00339267  0.34631634  0.12495628  1
  N  N163  1  0.50966414  0.16446807  0.38135268  1
  N  N164  1  0.83013775  0.83334909  0.37791868  1
  N  N165  1  0.00011338  0.33807350  0.37408021  1
  N  N166  1  0.84199982  0.16400219  0.87974053  1
  N  N167  1  0.32891108  0.66831362  0.88020250  1
  N  N168  1  0.17357322  0.49806423  0.12341962  1
  N  N169  1  0.84378654  0.50345137  0.12898185  1
  N  N170  1  0.83625200  0.50054333  0.87298441  1
  N  N171  1  0.15972267  0.82942497  0.36912027  1
  N  N172  1  0.00053166  0.33636730  0.87496135  1
  N  N173  1  0.84284503  0.16425659  0.62371130  1
  N  N174  1  0.02148650  0.00385332  0.12478110  1
  N  N175  1  0.49868901  0.49352795  0.37314890  1
  N  N176  1  0.66791524  0.32668716  0.37342923  1
  O  O177  1  0.30693630  -0.01311868  0.61756772  1
  O  O178  1  0.65325080  0.33357180  0.88134203  1
  O  O179  1  0.68078660  -0.00330397  0.38422547  1
  O  O180  1  0.16694477  0.18385279  0.87752411  1
  O  O181  1  0.82767919  0.48834097  0.62062105  1
  O  O182  1  0.66510523  -0.01616314  0.13102570  1
  O  O183  1  0.34019499  0.67085496  0.12357071  1
  O  O184  1  0.33357816  0.34426157  0.12453387  1
  O  O185  1  0.16737836  0.83637931  0.62930036  1
  O  O186  1  0.16601655  0.17927089  0.37485949  1
  O  O187  1  0.65872519  0.00388800  0.86615523  1
  O  O188  1  0.67797532  0.65177102  0.87323274  1
  O  O189  1  -0.01127671  0.67928969  0.12467991  1
  O  O190  1  0.01005800  0.00483983  0.63039626  1
  O  O191  1  0.50163682  0.16836408  0.62746104  1
  O  O192  1  0.48851677  0.84576529  0.88239667  1
  O  O193  1  0.47733278  0.81424217  0.61665555  1
  O  O194  1  0.52225298  0.84502593  0.12919013  1
  O  O195  1  0.31383942  -0.00809216  0.37083901  1
  O  O196  1  0.31621856  0.34013481  0.87363871  1
  O  O197  1  -0.00509426  0.01156860  0.88252868  1
  O  O198  1  0.82627988  0.49824274  0.37566670  1
  O  O199  1  0.67171713  0.65463573  0.61973754  1
  O  O200  1  0.17387592  0.49489703  0.86643517  1
  O  O201  1  0.81883862  0.83025094  0.62370571  1
  O  O202  1  0.52467880  0.16146121  0.87749101  1
  O  O203  1  0.32425996  0.66646540  0.36381834  1
  O  O204  1  0.82164080  0.82962573  0.12135986  1
  O  O205  1  0.66833709  0.66037916  0.12998302  1
  O  O206  1  0.31984770  0.33491490  0.61738182  1
  O  O207  1  0.50207992  0.48280758  0.12552176  1
  O  O208  1  0.81850322  0.16409179  0.11721543  1
  O  O209  1  0.65969648  0.33760780  0.62526810  1
  O  O210  1  0.01091296  0.00430493  0.36534564  1
  O  O211  1  -0.01181565  0.67805944  0.86731115  1
  O  O212  1  0.15534066  0.84101804  0.12751453  1
  O  O213  1  -0.02476429  0.66262211  0.61745102  1
  O  O214  1  0.50022776  0.81845983  0.37200344  1
  O  O215  1  0.50390094  0.49901014  0.62945249  1
