# generated using pymatgen
data_Sr24Ta24N11O13
_symmetry_space_group_name_H-M   'P 1'
_cell_length_a   16.75898962
_cell_length_b   16.77459490
_cell_length_c   15.73786043
_cell_angle_alpha   89.74163298
_cell_angle_beta   90.27858463
_cell_angle_gamma   90.16230576
_symmetry_Int_Tables_number   1
_chemical_formula_structural   Sr24Ta24N11O13
_chemical_formula_sum   'Sr72 Ta72 N33 O39'
_cell_volume   4424.19537344
_cell_formula_units_Z   3
loop_
 _symmetry_equiv_pos_site_id
 _symmetry_equiv_pos_as_xyz
  1  'x, y, z'
loop_
 _atom_site_type_symbol
 _atom_site_label
 _atom_site_symmetry_multiplicity
 _atom_site_fract_x
 _atom_site_fract_y
 _atom_site_fract_z
 _atom_site_occupancy
  Sr  Sr0  1  0.00196262  0.16984961  0.10947385  1
  Sr  Sr1  1  0.00286378  0.17393499  0.58753568  1
  Sr  Sr2  1  0.00731058  0.50656086  0.11178157  1
  Sr  Sr3  1  -0.00134002  0.47775407  0.67123264  1
  Sr  Sr4  1  0.02277058  0.85611548  0.15987201  1
  Sr  Sr5  1  0.00028032  0.82764088  0.61783559  1
  Sr  Sr6  1  0.33322804  0.16815437  0.11728628  1
  Sr  Sr7  1  0.32349098  0.15017574  0.67486050  1
  Sr  Sr8  1  0.34293131  0.50646419  0.17326388  1
  Sr  Sr9  1  0.32431919  0.49524241  0.61675933  1
  Sr  Sr10  1  0.34481881  0.82644306  0.10844355  1
  Sr  Sr11  1  0.34449890  0.83423420  0.59936613  1
  Sr  Sr12  1  0.67815744  0.18086446  0.14761158  1
  Sr  Sr13  1  0.66357591  0.17285532  0.61666766  1
  Sr  Sr14  1  0.65219856  0.50844665  0.08080566  1
  Sr  Sr15  1  0.67643761  0.49540714  0.62993298  1
  Sr  Sr16  1  0.68677137  0.83688104  0.14102080  1
  Sr  Sr17  1  0.66054963  0.83788315  0.63366918  1
  Sr  Sr18  1  0.16492493  0.00896045  0.16590809  1
  Sr  Sr19  1  0.14703187  -0.00017359  0.61650504  1
  Sr  Sr20  1  0.14787570  0.32423858  0.07366155  1
  Sr  Sr21  1  0.17355574  0.33718438  0.63324319  1
  Sr  Sr22  1  0.16016271  0.65587090  0.12872540  1
  Sr  Sr23  1  0.16132052  0.67103610  0.60857267  1
  Sr  Sr24  1  0.46675898  -0.00916676  0.08987216  1
  Sr  Sr25  1  0.49712946  -0.00312676  0.62763514  1
  Sr  Sr26  1  0.50185724  0.31955244  0.13550752  1
  Sr  Sr27  1  0.49731597  0.35798178  0.57622513  1
  Sr  Sr28  1  0.50016605  0.67296439  0.12282059  1
  Sr  Sr29  1  0.51118713  0.65667675  0.66918313  1
  Sr  Sr30  1  0.82929185  0.00224848  0.11156583  1
  Sr  Sr31  1  0.82546534  -0.01938203  0.66726188  1
  Sr  Sr32  1  0.84258285  0.33960542  0.16306758  1
  Sr  Sr33  1  0.82734214  0.32253188  0.61348442  1
  Sr  Sr34  1  0.82808584  0.66220120  0.11543569  1
  Sr  Sr35  1  0.82976912  0.67711304  0.58926913  1
  Sr  Sr36  1  0.01358584  0.17641466  0.38977770  1
  Sr  Sr37  1  -0.00764303  0.16408269  0.90391749  1
  Sr  Sr38  1  -0.01569198  0.49414570  0.33331226  1
  Sr  Sr39  1  0.01106719  0.50176518  0.88911333  1
  Sr  Sr40  1  0.00804583  0.82857294  0.38921634  1
  Sr  Sr41  1  0.01408622  0.85275249  0.83257539  1
  Sr  Sr42  1  0.32395438  0.15503013  0.33461006  1
  Sr  Sr43  1  0.34461148  0.17962527  0.89357661  1
  Sr  Sr44  1  0.31892697  0.48302510  0.39177506  1
  Sr  Sr45  1  0.33423124  0.50299589  0.83605827  1
  Sr  Sr46  1  0.34812252  0.84148331  0.39190006  1
  Sr  Sr47  1  0.34420350  0.81659743  0.90983554  1
  Sr  Sr48  1  0.66001236  0.16549328  0.37276698  1
  Sr  Sr49  1  0.67873250  0.17662850  0.86770441  1
  Sr  Sr50  1  0.67877459  0.49975157  0.41271107  1
  Sr  Sr51  1  0.66368342  0.50414671  0.87010120  1
  Sr  Sr52  1  0.66684293  0.82572526  0.36654096  1
  Sr  Sr53  1  0.67980437  0.85022455  0.86239878  1
  Sr  Sr54  1  0.15638571  0.00567251  0.37840948  1
  Sr  Sr55  1  0.16289310  -0.00278069  0.84038191  1
  Sr  Sr56  1  0.16216603  0.32767472  0.40946271  1
  Sr  Sr57  1  0.18305612  0.34357790  0.85852187  1
  Sr  Sr58  1  0.16209551  0.64789127  0.36885311  1
  Sr  Sr59  1  0.16453089  0.67735496  0.89302684  1
  Sr  Sr60  1  0.50501401  -0.01688243  0.41434566  1
  Sr  Sr61  1  0.48472430  0.00246304  0.86979269  1
  Sr  Sr62  1  0.48073097  0.31596202  0.35496245  1
  Sr  Sr63  1  0.51884797  0.32919017  0.92285525  1
  Sr  Sr64  1  0.49886271  0.67552668  0.33362968  1
  Sr  Sr65  1  0.49941179  0.66232980  0.87879469  1
  Sr  Sr66  1  0.80799562  -0.01489563  0.32896101  1
  Sr  Sr67  1  0.83703396  0.00064879  0.88537643  1
  Sr  Sr68  1  0.83788077  0.32122954  0.38012129  1
  Sr  Sr69  1  0.81521716  0.35315215  0.81883829  1
  Sr  Sr70  1  0.82167014  0.66662740  0.38438164  1
  Sr  Sr71  1  0.84281069  0.65950054  0.90972901  1
  Ta  Ta72  1  0.16666479  0.12188252  0.00029629  1
  Ta  Ta73  1  0.21340465  0.16113404  0.50389728  1
  Ta  Ta74  1  0.21186751  0.50035152  0.00361602  1
  Ta  Ta75  1  0.11869368  0.49723095  0.49678280  1
  Ta  Ta76  1  0.15245841  0.85808194  -0.00375777  1
  Ta  Ta77  1  0.17739285  0.83904920  0.50130278  1
  Ta  Ta78  1  0.53211536  0.14861063  0.00857450  1
  Ta  Ta79  1  0.45212342  0.16142489  0.50218468  1
  Ta  Ta80  1  0.45617790  0.50032689  -0.00005109  1
  Ta  Ta81  1  0.50079770  0.55375080  0.49847354  1
  Ta  Ta82  1  0.53976909  0.83488038  0.00020960  1
  Ta  Ta83  1  0.51017031  0.78607380  0.50154972  1
  Ta  Ta84  1  0.82667536  0.20899196  -0.00104450  1
  Ta  Ta85  1  0.82695486  0.11523053  0.50139103  1
  Ta  Ta86  1  0.83209376  0.46667623  -0.00936533  1
  Ta  Ta87  1  0.86964236  0.49447265  0.51021580  1
  Ta  Ta88  1  0.87870840  0.83641357  -0.00165716  1
  Ta  Ta89  1  0.82807211  0.86850385  0.50376614  1
  Ta  Ta90  1  0.15265355  0.20365431  0.24108505  1
  Ta  Ta91  1  0.12804545  0.17109524  0.75142011  1
  Ta  Ta92  1  0.16050037  0.45173678  0.24583988  1
  Ta  Ta93  1  0.16406841  0.53607666  0.75406212  1
  Ta  Ta94  1  0.20642309  0.82189824  0.25025857  1
  Ta  Ta95  1  0.21185294  0.82424284  0.75278323  1
  Ta  Ta96  1  0.49702005  0.11417689  0.24467431  1
  Ta  Ta97  1  0.50782040  0.18678904  0.75827160  1
  Ta  Ta98  1  0.54271614  0.49690097  0.25303001  1
  Ta  Ta99  1  0.50333934  0.46319733  0.75612314  1
  Ta  Ta100  1  0.49606911  0.86180761  0.24846709  1
  Ta  Ta101  1  0.47180810  0.83403596  0.75286731  1
  Ta  Ta102  1  0.86703324  0.15810380  0.25405391  1
  Ta  Ta103  1  0.85859150  0.16240578  0.74126041  1
  Ta  Ta104  1  0.79888276  0.51012331  0.24678316  1
  Ta  Ta105  1  0.83685192  0.54966123  0.74862999  1
  Ta  Ta106  1  0.85949827  0.81047640  0.24588484  1
  Ta  Ta107  1  0.83906040  0.79042897  0.75289965  1
  Ta  Ta108  1  -0.01863816  0.03220826  0.25417172  1
  Ta  Ta109  1  -0.00685708  0.04563316  0.74502105  1
  Ta  Ta110  1  0.03240963  0.31966513  0.24605974  1
  Ta  Ta111  1  -0.00234366  0.28799805  0.74615679  1
  Ta  Ta112  1  -0.02194645  0.67902092  0.25000328  1
  Ta  Ta113  1  -0.01568472  0.66213931  0.74723135  1
  Ta  Ta114  1  0.35201832  -0.02132957  0.25069408  1
  Ta  Ta115  1  0.33055368  -0.04598822  0.75251503  1
  Ta  Ta116  1  0.28256978  0.32891521  0.24949352  1
  Ta  Ta117  1  0.39892126  0.32990933  0.75250746  1
  Ta  Ta118  1  0.31953814  0.69590688  0.25106345  1
  Ta  Ta119  1  0.32142421  0.68816598  0.75411451  1
  Ta  Ta120  1  0.61885163  0.00135112  0.24284419  1
  Ta  Ta121  1  0.65209820  0.02331534  0.75203038  1
  Ta  Ta122  1  0.66712647  0.38196316  0.24308213  1
  Ta  Ta123  1  0.61669475  0.33351602  0.75018145  1
  Ta  Ta124  1  0.67210650  0.62973094  0.24886269  1
  Ta  Ta125  1  0.70372905  0.67080095  0.75096955  1
  Ta  Ta126  1  0.02393060  -0.01836123  -0.00556374  1
  Ta  Ta127  1  -0.04895957  -0.00347442  0.50441312  1
  Ta  Ta128  1  -0.06103650  0.33592743  -0.00986366  1
  Ta  Ta129  1  -0.00445815  0.37436511  0.50421152  1
  Ta  Ta130  1  0.00608196  0.73226928  0.00127562  1
  Ta  Ta131  1  -0.00373812  0.61349809  0.50436121  1
  Ta  Ta132  1  0.28207182  -0.00355433  0.00387693  1
  Ta  Ta133  1  0.32258635  0.02861082  0.49793094  1
  Ta  Ta134  1  0.33897728  0.37493298  0.00355991  1
  Ta  Ta135  1  0.33210459  0.28056587  0.49894651  1
  Ta  Ta136  1  0.33383651  0.62318261  -0.00046614  1
  Ta  Ta137  1  0.37165561  0.66293614  0.50161595  1
  Ta  Ta138  1  0.64442096  0.00851660  0.01333766  1
  Ta  Ta139  1  0.69847008  -0.00282727  0.49428896  1
  Ta  Ta140  1  0.70993691  0.33184448  -0.00170142  1
  Ta  Ta141  1  0.66584877  0.32834339  0.49651425  1
  Ta  Ta142  1  0.66035705  0.69717460  0.00269679  1
  Ta  Ta143  1  0.63217147  0.66888648  0.49688263  1
  N  N144  1  0.00005583  0.32744900  0.62208605  1
  N  N145  1  0.66045543  -0.00259725  0.37467765  1
  N  N146  1  0.32118238  0.32006206  0.37041785  1
  N  N147  1  0.84801267  0.84128543  0.12643643  1
  N  N148  1  0.50489086  0.83243521  0.12378604  1
  N  N149  1  0.84650454  0.83320893  0.86945525  1
  N  N150  1  0.65577989  0.33518646  0.61790632  1
  N  N151  1  0.83668797  0.50235146  0.86844274  1
  N  N152  1  0.16100276  0.16582872  0.11681906  1
  N  N153  1  -0.01034801  0.00238298  0.62643831  1
  N  N154  1  0.15096751  0.48770190  0.37255927  1
  N  N155  1  0.49840105  0.49712793  0.88020011  1
  N  N156  1  0.31548159  -0.00436077  0.12560213  1
  N  N157  1  0.17395174  0.83586152  0.87483341  1
  N  N158  1  0.33622222  0.66233049  0.87508482  1
  N  N159  1  0.50531564  0.82720749  0.37552465  1
  N  N160  1  0.67466513  0.34622616  0.12018672  1
  N  N161  1  0.66563097  0.33829667  0.86543838  1
  N  N162  1  0.50558414  0.16791454  0.88229893  1
  N  N163  1  0.17183706  0.50630194  0.87208095  1
  N  N164  1  -0.00150904  0.65911756  0.62396958  1
  N  N165  1  0.83461885  0.83012414  0.62287388  1
  N  N166  1  0.66276031  0.66205821  0.37361076  1
  N  N167  1  0.32862708  -0.00063165  0.37746300  1
  N  N168  1  0.50453588  0.83098924  0.87514266  1
  N  N169  1  0.49208255  0.16214860  0.13079895  1
  N  N170  1  0.16857100  0.49246037  0.12176328  1
  N  N171  1  0.67707070  0.00057194  0.13412416  1
  N  N172  1  0.00084262  0.00591816  0.87526919  1
  N  N173  1  0.50176559  0.82112589  0.62650420  1
  N  N174  1  0.83174087  0.16037574  0.61868042  1
  N  N175  1  0.66505100  0.67032675  0.12278608  1
  N  N176  1  0.83598083  0.49832261  0.63055693  1
  O  O177  1  0.85174595  0.16305005  0.38097633  1
  O  O178  1  0.35164683  0.66187837  0.62619406  1
  O  O179  1  0.50106743  0.49982971  0.13104434  1
  O  O180  1  0.67176117  0.66941776  0.62722820  1
  O  O181  1  0.00451586  0.68924099  0.88188546  1
  O  O182  1  -0.00591966  0.01645275  0.38077588  1
  O  O183  1  0.65675124  0.01261672  0.87669828  1
  O  O184  1  -0.00080148  0.33572544  0.37335627  1
  O  O185  1  0.68303890  0.67158140  0.87693711  1
  O  O186  1  0.32491720  0.66530302  0.12586886  1
  O  O187  1  0.17044923  0.83049755  0.62714698  1
  O  O188  1  0.84432458  0.18277889  0.13146280  1
  O  O189  1  0.16470484  0.50952455  0.62588939  1
  O  O190  1  0.33071739  0.35114493  0.12857076  1
  O  O191  1  0.82907361  0.50613307  0.37399265  1
  O  O192  1  0.84084310  0.83482144  0.37309031  1
  O  O193  1  -0.02607758  0.32638883  0.86636648  1
  O  O194  1  -0.00125597  0.01090612  0.12871653  1
  O  O195  1  -0.01445914  0.65099487  0.37282765  1
  O  O196  1  0.33385642  -0.01061173  0.62950951  1
  O  O197  1  0.66123844  0.00973103  0.62664344  1
  O  O198  1  0.35024079  0.34234822  0.87471951  1
  O  O199  1  0.14594534  0.16630618  0.87826528  1
  O  O200  1  -0.00971225  0.32834762  0.11129527  1
  O  O201  1  0.47714762  0.15350621  0.37479440  1
  O  O202  1  0.32329146  -0.02517150  0.87914130  1
  O  O203  1  0.81769867  0.50025365  0.12083621  1
  O  O204  1  0.18456223  0.83527524  0.37800536  1
  O  O205  1  0.83377683  0.17926829  0.87427593  1
  O  O206  1  0.16997545  0.16594874  0.38009183  1
  O  O207  1  0.51764927  0.51461046  0.37536576  1
  O  O208  1  0.18183761  0.83468493  0.12771182  1
  O  O209  1  0.47595702  0.15769564  0.62716223  1
  O  O210  1  0.16708402  0.16700143  0.62888292  1
  O  O211  1  0.68098094  0.33874677  0.36622585  1
  O  O212  1  0.00378077  0.68447873  0.12475368  1
  O  O213  1  0.34163687  0.67694015  0.37399460  1
  O  O214  1  0.50012786  0.50860466  0.62135807  1
  O  O215  1  0.35528785  0.31905643  0.63232396  1
