# generated using pymatgen
data_Sr24Ta24N11O13
_symmetry_space_group_name_H-M   'P 1'
_cell_length_a   17.58631159
_cell_length_b   16.63589935
_cell_length_c   15.09238867
_cell_angle_alpha   89.95643294
_cell_angle_beta   91.56818273
_cell_angle_gamma   90.94483197
_symmetry_Int_Tables_number   1
_chemical_formula_structural   Sr24Ta24N11O13
_chemical_formula_sum   'Sr72 Ta72 N33 O39'
_cell_volume   4413.23716896
_cell_formula_units_Z   3
loop_
 _symmetry_equiv_pos_site_id
 _symmetry_equiv_pos_as_xyz
  1  'x, y, z'
loop_
 _atom_site_type_symbol
 _atom_site_label
 _atom_site_symmetry_multiplicity
 _atom_site_fract_x
 _atom_site_fract_y
 _atom_site_fract_z
 _atom_site_occupancy
  Sr  Sr0  1  0.03011264  0.13382076  0.13627756  1
  Sr  Sr1  1  0.01173947  0.14778277  0.62624248  1
  Sr  Sr2  1  -0.01863624  0.49919267  0.12228188  1
  Sr  Sr3  1  0.04145101  0.53152870  0.67596531  1
  Sr  Sr4  1  0.01338198  0.84345215  0.14168745  1
  Sr  Sr5  1  -0.03462045  0.82405475  0.55605907  1
  Sr  Sr6  1  0.34080232  0.17068466  0.13514447  1
  Sr  Sr7  1  0.39472296  0.18519003  0.73628844  1
  Sr  Sr8  1  0.38078478  0.49257793  0.12372065  1
  Sr  Sr9  1  0.34895816  0.48087650  0.60251527  1
  Sr  Sr10  1  0.39367314  0.79233485  0.09827047  1
  Sr  Sr11  1  0.32920717  0.84714657  0.61522642  1
  Sr  Sr12  1  0.68910158  0.17463727  0.14819568  1
  Sr  Sr13  1  0.66774334  0.14817238  0.60699171  1
  Sr  Sr14  1  0.69366014  0.47050011  0.14282337  1
  Sr  Sr15  1  0.67201981  0.50013777  0.62986183  1
  Sr  Sr16  1  0.66917906  0.84731668  0.11661346  1
  Sr  Sr17  1  0.68763890  0.84424801  0.68393563  1
  Sr  Sr18  1  0.17102023  0.00835413  0.13254634  1
  Sr  Sr19  1  0.13302201  -0.01796894  0.58005381  1
  Sr  Sr20  1  0.12260870  0.37514977  0.09481324  1
  Sr  Sr21  1  0.14829491  0.36509012  0.61620271  1
  Sr  Sr22  1  0.11876221  0.65578415  0.09605779  1
  Sr  Sr23  1  0.19043856  0.67715433  0.66854091  1
  Sr  Sr24  1  0.47256626  0.03012424  0.10663234  1
  Sr  Sr25  1  0.49391805  -0.00421131  0.62760192  1
  Sr  Sr26  1  0.48626455  0.32853270  0.12623520  1
  Sr  Sr27  1  0.50358588  0.34781827  0.65546659  1
  Sr  Sr28  1  0.52039862  0.65073218  0.13595957  1
  Sr  Sr29  1  0.47511464  0.65247232  0.56914962  1
  Sr  Sr30  1  0.80028896  0.00297868  0.12072945  1
  Sr  Sr31  1  0.82845129  0.01190229  0.63015647  1
  Sr  Sr32  1  0.83267488  0.33515959  0.12695677  1
  Sr  Sr33  1  0.78804771  0.32752941  0.56884398  1
  Sr  Sr34  1  0.80093179  0.68929466  0.13062423  1
  Sr  Sr35  1  0.83950780  0.66052508  0.62491478  1
  Sr  Sr36  1  0.05943325  0.15160017  0.38737660  1
  Sr  Sr37  1  0.00958559  0.14642798  0.84382042  1
  Sr  Sr38  1  0.01945649  0.48859428  0.35340769  1
  Sr  Sr39  1  -0.00608140  0.50380698  0.88827115  1
  Sr  Sr40  1  0.03586494  0.83315543  0.36033979  1
  Sr  Sr41  1  0.04201934  0.84214177  0.92424322  1
  Sr  Sr42  1  0.32011325  0.13916687  0.35861553  1
  Sr  Sr43  1  0.31977104  0.14699151  0.92359792  1
  Sr  Sr44  1  0.34055457  0.50101223  0.37236083  1
  Sr  Sr45  1  0.38114829  0.49627100  0.89662118  1
  Sr  Sr46  1  0.35031774  0.82950357  0.38403450  1
  Sr  Sr47  1  0.32895701  0.81836909  0.84002318  1
  Sr  Sr48  1  0.67736364  0.16201964  0.39166027  1
  Sr  Sr49  1  0.71743397  0.17107912  0.91171760  1
  Sr  Sr50  1  0.71866552  0.49057593  0.42383813  1
  Sr  Sr51  1  0.67830669  0.48555155  0.84666461  1
  Sr  Sr52  1  0.66632412  0.81084122  0.33587861  1
  Sr  Sr53  1  0.67878037  0.82074149  0.89649542  1
  Sr  Sr54  1  0.18907212  -0.02916686  0.36738012  1
  Sr  Sr55  1  0.14815458  0.01615975  0.90036646  1
  Sr  Sr56  1  0.18743749  0.35661237  0.39897044  1
  Sr  Sr57  1  0.11534511  0.33817743  0.84065617  1
  Sr  Sr58  1  0.14013475  0.66383449  0.31780459  1
  Sr  Sr59  1  0.14445333  0.66906156  0.87418425  1
  Sr  Sr60  1  0.46694153  0.00763000  0.40100671  1
  Sr  Sr61  1  0.44536992  0.00229768  0.83560136  1
  Sr  Sr62  1  0.43112604  0.32076514  0.36592240  1
  Sr  Sr63  1  0.49307979  0.33601328  0.87207921  1
  Sr  Sr64  1  0.48511561  0.68121631  0.35155910  1
  Sr  Sr65  1  0.49530840  0.67638385  0.91214022  1
  Sr  Sr66  1  0.78382795  0.00067598  0.36012473  1
  Sr  Sr67  1  0.83172055  0.00870108  0.85428272  1
  Sr  Sr68  1  0.82942684  0.33836520  0.34860352  1
  Sr  Sr69  1  0.82291745  0.34620796  0.90160995  1
  Sr  Sr70  1  0.83550913  0.67676717  0.40966501  1
  Sr  Sr71  1  0.80031672  0.66162199  0.83289064  1
  Ta  Ta72  1  0.15652501  0.20790027  -0.00132607  1
  Ta  Ta73  1  0.20470686  0.18314931  0.53162204  1
  Ta  Ta74  1  0.20672389  0.49692510  -0.03787854  1
  Ta  Ta75  1  0.17241495  0.55808360  0.49732204  1
  Ta  Ta76  1  0.22015672  0.81527184  0.01561434  1
  Ta  Ta77  1  0.17352137  0.77111445  0.48895171  1
  Ta  Ta78  1  0.53875370  0.17272993  -0.00848233  1
  Ta  Ta79  1  0.48010783  0.18197481  0.52895915  1
  Ta  Ta80  1  0.55260298  0.49060167  0.00173351  1
  Ta  Ta81  1  0.52983040  0.47871942  0.47978246  1
  Ta  Ta82  1  0.50994182  0.88006107  -0.02564724  1
  Ta  Ta83  1  0.55100187  0.82866934  0.50684416  1
  Ta  Ta84  1  0.88405224  0.15958530  0.00245869  1
  Ta  Ta85  1  0.87701645  0.16444234  0.47259410  1
  Ta  Ta86  1  0.82568173  0.53435647  -0.00556822  1
  Ta  Ta87  1  0.89924265  0.49017094  0.51761463  1
  Ta  Ta88  1  0.86042411  0.83678354  0.00341122  1
  Ta  Ta89  1  0.78015907  0.84891536  0.50413077  1
  Ta  Ta90  1  0.17453652  0.22711550  0.23067920  1
  Ta  Ta91  1  0.20200727  0.17068384  0.73963439  1
  Ta  Ta92  1  0.20398740  0.50401439  0.22494960  1
  Ta  Ta93  1  0.22534970  0.50197132  0.76893546  1
  Ta  Ta94  1  0.22551972  0.81343238  0.21069103  1
  Ta  Ta95  1  0.14317917  0.85337469  0.74389596  1
  Ta  Ta96  1  0.52290239  0.16604809  0.25884678  1
  Ta  Ta97  1  0.56704036  0.15910544  0.78309781  1
  Ta  Ta98  1  0.54828097  0.48828279  0.27240234  1
  Ta  Ta99  1  0.50799970  0.53675654  0.74325261  1
  Ta  Ta100  1  0.50567821  0.87760153  0.24404062  1
  Ta  Ta101  1  0.50404614  0.78793535  0.72740765  1
  Ta  Ta102  1  0.88478136  0.15685844  0.26394369  1
  Ta  Ta103  1  0.83658060  0.20451988  0.74066658  1
  Ta  Ta104  1  0.84134985  0.53461044  0.25965095  1
  Ta  Ta105  1  0.84997927  0.47015960  0.73022695  1
  Ta  Ta106  1  0.85825268  0.83980026  0.26156341  1
  Ta  Ta107  1  0.87364295  0.83579716  0.75137877  1
  Ta  Ta108  1  -0.04439247  -0.00056825  0.27573749  1
  Ta  Ta109  1  0.00094223  -0.05874077  0.73354894  1
  Ta  Ta110  1  0.00418443  0.29611111  0.24071791  1
  Ta  Ta111  1  -0.05688791  0.33452374  0.73085929  1
  Ta  Ta112  1  -0.04910682  0.67339753  0.25342742  1
  Ta  Ta113  1  0.00141508  0.74053601  0.74584102  1
  Ta  Ta114  1  0.33555628  -0.05725025  0.20683550  1
  Ta  Ta115  1  0.26740711  0.00547242  0.74613510  1
  Ta  Ta116  1  0.27770132  0.34836289  0.19726589  1
  Ta  Ta117  1  0.29292846  0.34333748  0.78704074  1
  Ta  Ta118  1  0.30660150  0.66080456  0.21793161  1
  Ta  Ta119  1  0.36638148  0.64309056  0.74558323  1
  Ta  Ta120  1  0.61129253  0.00779102  0.25134040  1
  Ta  Ta121  1  0.63882632  0.01728121  0.78310671  1
  Ta  Ta122  1  0.62543598  0.33167172  0.29033240  1
  Ta  Ta123  1  0.67861266  0.30111200  0.74607855  1
  Ta  Ta124  1  0.67548643  0.61995993  0.27417010  1
  Ta  Ta125  1  0.61385056  0.66940216  0.74063446  1
  Ta  Ta126  1  -0.03832337  -0.00126994  0.00283689  1
  Ta  Ta127  1  -0.04546097  0.00341772  0.47153965  1
  Ta  Ta128  1  -0.01116184  0.29048527  0.00179256  1
  Ta  Ta129  1  -0.02672837  0.32519785  0.49975376  1
  Ta  Ta130  1  -0.06183552  0.68188558  -0.00985228  1
  Ta  Ta131  1  0.03518211  0.64721640  0.49684706  1
  Ta  Ta132  1  0.31959001  -0.05012172  0.00165995  1
  Ta  Ta133  1  0.31860319  0.08732364  0.58219227  1
  Ta  Ta134  1  0.28345219  0.33873450  -0.01180610  1
  Ta  Ta135  1  0.33434541  0.27174829  0.55329514  1
  Ta  Ta136  1  0.30340882  0.65507362  -0.00366216  1
  Ta  Ta137  1  0.29624681  0.66428084  0.48942670  1
  Ta  Ta138  1  0.61508208  0.01537020  -0.02275279  1
  Ta  Ta139  1  0.65010338  -0.04302624  0.50987013  1
  Ta  Ta140  1  0.64081705  0.33096078  0.00208262  1
  Ta  Ta141  1  0.60624045  0.32518077  0.48752369  1
  Ta  Ta142  1  0.66847951  0.62485913  -0.00541448  1
  Ta  Ta143  1  0.65908086  0.70050511  0.53024795  1
  N  N144  1  0.80707973  0.83518847  0.37417256  1
  N  N145  1  0.64924570  0.32396332  0.62047557  1
  N  N146  1  0.36827512  0.64267494  0.11452065  1
  N  N147  1  0.51815142  0.17572641  0.12570347  1
  N  N148  1  0.36193859  0.01220195  0.68265228  1
  N  N149  1  0.65793133  0.66312893  0.87264371  1
  N  N150  1  -0.00239421  0.67296577  0.37662631  1
  N  N151  1  0.34543715  0.66386541  0.88022144  1
  N  N152  1  0.81603467  0.17477432  0.36185849  1
  N  N153  1  0.33330948  0.66546643  0.61709301  1
  N  N154  1  0.31812442  0.02073207  0.10580295  1
  N  N155  1  0.29898000  -0.01102164  0.87516336  1
  N  N156  1  -0.01643220  -0.02040147  0.60678373  1
  N  N157  1  -0.02069636  0.33953693  0.12581829  1
  N  N158  1  0.83534033  0.50109092  0.86086752  1
  N  N159  1  0.69613225  0.67066190  0.64864290  1
  N  N160  1  0.81546817  0.49733877  0.60003959  1
  N  N161  1  0.35106692  0.30226037  0.88478564  1
  N  N162  1  0.14055810  0.50950107  0.85411553  1
  N  N163  1  0.16797588  0.17451652  0.86140409  1
  N  N164  1  0.82851407  0.83603342  0.63169639  1
  N  N165  1  0.53009818  0.49239149  0.14479123  1
  N  N166  1  0.51207478  0.49965372  0.60392092  1
  N  N167  1  0.82441233  0.84703541  0.12541790  1
  N  N168  1  0.51994470  0.16355461  0.64948021  1
  N  N169  1  0.83713102  0.50532152  0.12604423  1
  N  N170  1  0.34491774  0.32687386  0.09420876  1
  N  N171  1  0.86470761  0.50224366  0.39151630  1
  N  N172  1  0.66883370  0.33103295  0.88010053  1
  N  N173  1  0.69027588  0.32547240  0.39957587  1
  N  N174  1  0.52326337  0.49926924  0.86825720  1
  N  N175  1  0.17742894  0.16483144  0.11903538  1
  N  N176  1  0.85639895  0.17180623  0.86601915  1
  O  O177  1  0.63286212  0.00450059  0.38660931  1
  O  O178  1  0.00725825  0.31195909  0.62652866  1
  O  O179  1  0.18818939  0.51422350  0.35766109  1
  O  O180  1  0.01133668  0.68771674  0.62655731  1
  O  O181  1  0.17587258  0.51633421  0.09623162  1
  O  O182  1  0.19183929  0.20488029  0.37102916  1
  O  O183  1  0.33580973  0.66113207  0.35848527  1
  O  O184  1  -0.03603111  -0.00637022  0.13890935  1
  O  O185  1  0.81971838  0.84895085  0.87281483  1
  O  O186  1  0.51920370  0.87195523  0.10627515  1
  O  O187  1  0.47770791  0.16867711  0.87331728  1
  O  O188  1  0.13718978  0.21494772  0.63549919  1
  O  O189  1  0.32875979  -0.01473585  0.32735288  1
  O  O190  1  0.32476658  0.36874071  0.47411844  1
  O  O191  1  0.35376540  0.32826211  0.66970456  1
  O  O192  1  -0.02586197  0.32816544  0.87126720  1
  O  O193  1  0.04201920  -0.00864854  0.38937363  1
  O  O194  1  0.64982390  0.32321143  0.15371378  1
  O  O195  1  0.64569497  -0.00681463  0.65006414  1
  O  O196  1  0.14232094  0.81124153  0.11177024  1
  O  O197  1  0.84044058  0.16111214  0.12849285  1
  O  O198  1  -0.02250902  0.67570539  0.12333655  1
  O  O199  1  -0.01363228  0.33377794  0.37182487  1
  O  O200  1  0.18293176  0.52061667  0.63251692  1
  O  O201  1  0.47778766  0.53357239  0.37163001  1
  O  O202  1  0.84510266  0.16682704  0.60768591  1
  O  O203  1  0.50622217  0.83968517  0.37188065  1
  O  O204  1  0.46854424  0.16389955  0.37795304  1
  O  O205  1  0.63561112  0.01043956  0.12006872  1
  O  O206  1  0.69883593  -0.01567810  0.89651233  1
  O  O207  1  0.16788318  0.82243657  0.61240141  1
  O  O208  1  0.67682969  0.65616789  0.39993231  1
  O  O209  1  0.17753430  0.82466240  0.87425517  1
  O  O210  1  0.47181153  0.82404000  0.60106815  1
  O  O211  1  -0.00857810  -0.01369332  0.87393886  1
  O  O212  1  -0.00375079  0.69683104  0.87745912  1
  O  O213  1  0.66781511  0.62978819  0.14073881  1
  O  O214  1  0.49586687  0.83901327  0.85041199  1
  O  O215  1  0.18205677  0.81188599  0.35818528  1
