# generated using pymatgen
data_Sr24Ta24N11O13
_symmetry_space_group_name_H-M   'P 1'
_cell_length_a   16.94193342
_cell_length_b   16.67895740
_cell_length_c   15.59681135
_cell_angle_alpha   90.47552742
_cell_angle_beta   90.34396715
_cell_angle_gamma   90.09400315
_symmetry_Int_Tables_number   1
_chemical_formula_structural   Sr24Ta24N11O13
_chemical_formula_sum   'Sr72 Ta72 N33 O39'
_cell_volume   4407.01252465
_cell_formula_units_Z   3
loop_
 _symmetry_equiv_pos_site_id
 _symmetry_equiv_pos_as_xyz
  1  'x, y, z'
loop_
 _atom_site_type_symbol
 _atom_site_label
 _atom_site_symmetry_multiplicity
 _atom_site_fract_x
 _atom_site_fract_y
 _atom_site_fract_z
 _atom_site_occupancy
  Sr  Sr0  1  -0.00514233  0.17346681  0.11468839  1
  Sr  Sr1  1  0.00992353  0.17365260  0.66833802  1
  Sr  Sr2  1  -0.02060337  0.50543550  0.15295052  1
  Sr  Sr3  1  -0.03748858  0.50277868  0.61061247  1
  Sr  Sr4  1  -0.01965950  0.82310272  0.10427278  1
  Sr  Sr5  1  -0.01048874  0.84513985  0.62144568  1
  Sr  Sr6  1  0.33989496  0.17828653  0.13539058  1
  Sr  Sr7  1  0.31758550  0.14647282  0.57779668  1
  Sr  Sr8  1  0.28861373  0.49622547  0.09242748  1
  Sr  Sr9  1  0.34684847  0.49309347  0.62863817  1
  Sr  Sr10  1  0.35141373  0.81899212  0.11194114  1
  Sr  Sr11  1  0.33152168  0.84035256  0.66609549  1
  Sr  Sr12  1  0.67093562  0.13786661  0.07733083  1
  Sr  Sr13  1  0.66526987  0.16977960  0.63275292  1
  Sr  Sr14  1  0.68217614  0.50832107  0.13208040  1
  Sr  Sr15  1  0.65263300  0.50487124  0.57558697  1
  Sr  Sr16  1  0.67322014  0.83937326  0.17921587  1
  Sr  Sr17  1  0.64827969  0.82227982  0.62239372  1
  Sr  Sr18  1  0.19039446  0.01295429  0.17010793  1
  Sr  Sr19  1  0.16102057  -0.00375857  0.62087740  1
  Sr  Sr20  1  0.16666264  0.32238909  0.08380841  1
  Sr  Sr21  1  0.17928987  0.33482751  0.62353325  1
  Sr  Sr22  1  0.17653141  0.67739015  0.12218635  1
  Sr  Sr23  1  0.22516308  0.65903132  0.67140047  1
  Sr  Sr24  1  0.49527274  0.01054200  0.08223655  1
  Sr  Sr25  1  0.50692512  -0.01134448  0.63662520  1
  Sr  Sr26  1  0.52409809  0.34498249  0.12378023  1
  Sr  Sr27  1  0.49939666  0.33386149  0.65845476  1
  Sr  Sr28  1  0.51543705  0.66454843  0.13831869  1
  Sr  Sr29  1  0.51333669  0.65166869  0.57116717  1
  Sr  Sr30  1  0.83313401  -0.02080816  0.14685377  1
  Sr  Sr31  1  0.84278417  0.00140385  0.59468043  1
  Sr  Sr32  1  0.85031865  0.35160477  0.17582938  1
  Sr  Sr33  1  0.82354155  0.33701457  0.60598542  1
  Sr  Sr34  1  0.83987844  0.64542849  0.10194614  1
  Sr  Sr35  1  0.83615736  0.68197458  0.65579801  1
  Sr  Sr36  1  -0.01678039  0.16005368  0.33029823  1
  Sr  Sr37  1  0.00896248  0.17489444  0.88145295  1
  Sr  Sr38  1  -0.00544578  0.49063730  0.38517386  1
  Sr  Sr39  1  -0.04142329  0.51101800  0.85313796  1
  Sr  Sr40  1  0.00522441  0.85514682  0.40993809  1
  Sr  Sr41  1  -0.01149778  0.82842841  0.88467498  1
  Sr  Sr42  1  0.33014309  0.16636592  0.36516838  1
  Sr  Sr43  1  0.33143686  0.16236607  0.90886237  1
  Sr  Sr44  1  0.31519303  0.50816149  0.41092222  1
  Sr  Sr45  1  0.31176568  0.48835660  0.84643169  1
  Sr  Sr46  1  0.31532226  0.82412795  0.33189733  1
  Sr  Sr47  1  0.33715006  0.82735983  0.88068805  1
  Sr  Sr48  1  0.68127687  0.15405000  0.41392984  1
  Sr  Sr49  1  0.65677756  0.16809559  0.85955910  1
  Sr  Sr50  1  0.65314696  0.47826070  0.34609869  1
  Sr  Sr51  1  0.66407160  0.51651930  0.90968433  1
  Sr  Sr52  1  0.63369905  0.83796322  0.38446295  1
  Sr  Sr53  1  0.67460513  0.82074750  0.83928092  1
  Sr  Sr54  1  0.17559486  0.00580700  0.38322505  1
  Sr  Sr55  1  0.15386898  -0.00441017  0.83603326  1
  Sr  Sr56  1  0.17630840  0.34270300  0.41321975  1
  Sr  Sr57  1  0.17044713  0.32789752  0.87565274  1
  Sr  Sr58  1  0.17537558  0.65724935  0.35579380  1
  Sr  Sr59  1  0.18955766  0.67074845  0.89058015  1
  Sr  Sr60  1  0.50562255  0.02448756  0.41572540  1
  Sr  Sr61  1  0.51849451  -0.00497194  0.86338956  1
  Sr  Sr62  1  0.48380081  0.32042438  0.32429036  1
  Sr  Sr63  1  0.51177249  0.34257761  0.86462200  1
  Sr  Sr64  1  0.49096681  0.67446357  0.36070580  1
  Sr  Sr65  1  0.52665659  0.66014918  0.89929794  1
  Sr  Sr66  1  0.83609381  -0.00466790  0.36590034  1
  Sr  Sr67  1  0.84650129  0.02449411  0.93042748  1
  Sr  Sr68  1  0.81916162  0.33695149  0.38466622  1
  Sr  Sr69  1  0.84738417  0.31901376  0.81424801  1
  Sr  Sr70  1  0.91013486  0.69319643  0.46267009  1
  Sr  Sr71  1  0.82647208  0.67238408  0.87352984  1
  Ta  Ta72  1  0.16778349  0.12577194  0.00052468  1
  Ta  Ta73  1  0.12443293  0.16842863  0.50183147  1
  Ta  Ta74  1  0.11098931  0.50649654  -0.00594130  1
  Ta  Ta75  1  0.14856527  0.52330301  0.53143096  1
  Ta  Ta76  1  0.16346094  0.87263631  0.00128963  1
  Ta  Ta77  1  0.19116783  0.81629886  0.50591009  1
  Ta  Ta78  1  0.49688426  0.19841520  -0.00605359  1
  Ta  Ta79  1  0.49572248  0.21523206  0.49972148  1
  Ta  Ta80  1  0.46555157  0.49478352  -0.00561133  1
  Ta  Ta81  1  0.49153706  0.44340502  0.49072594  1
  Ta  Ta82  1  0.54374260  0.82861612  0.00220896  1
  Ta  Ta83  1  0.45356097  0.83591947  0.50073541  1
  Ta  Ta84  1  0.83270655  0.23903209  -0.00246293  1
  Ta  Ta85  1  0.87348331  0.16847007  0.50597919  1
  Ta  Ta86  1  0.82898379  0.42607359  -0.01361706  1
  Ta  Ta87  1  0.80816307  0.53049748  0.48187777  1
  Ta  Ta88  1  0.79775706  0.82676688  0.01371128  1
  Ta  Ta89  1  0.79564858  0.83571403  0.49921210  1
  Ta  Ta90  1  0.16479332  0.20596956  0.24837833  1
  Ta  Ta91  1  0.20192724  0.16800421  0.74965292  1
  Ta  Ta92  1  0.16314496  0.47481201  0.25345851  1
  Ta  Ta93  1  0.12318452  0.50703375  0.73471444  1
  Ta  Ta94  1  0.12246411  0.83370791  0.25053611  1
  Ta  Ta95  1  0.14060973  0.81421597  0.75474905  1
  Ta  Ta96  1  0.52518163  0.14113486  0.24062914  1
  Ta  Ta97  1  0.45537582  0.16048825  0.74982654  1
  Ta  Ta98  1  0.43433825  0.49794512  0.24541185  1
  Ta  Ta99  1  0.52844570  0.51897189  0.73750655  1
  Ta  Ta100  1  0.49420787  0.89077338  0.25197704  1
  Ta  Ta101  1  0.50326510  0.78609063  0.74259127  1
  Ta  Ta102  1  0.79470665  0.16478112  0.24264124  1
  Ta  Ta103  1  0.83355244  0.12615728  0.74890667  1
  Ta  Ta104  1  0.83476725  0.59509774  0.31014637  1
  Ta  Ta105  1  0.77628134  0.50208474  0.73416752  1
  Ta  Ta106  1  0.84909807  0.77935236  0.26472942  1
  Ta  Ta107  1  0.83626083  0.88293612  0.75751972  1
  Ta  Ta108  1  0.01585095  -0.02642577  0.25044126  1
  Ta  Ta109  1  -0.03443703  -0.00138109  0.75542711  1
  Ta  Ta110  1  0.04824607  0.33599911  0.24726336  1
  Ta  Ta111  1  0.02341810  0.35851101  0.74077378  1
  Ta  Ta112  1  -0.00197882  0.68895816  0.26467394  1
  Ta  Ta113  1  0.03675910  0.66955965  0.73200470  1
  Ta  Ta114  1  0.37796372  0.00215926  0.25444083  1
  Ta  Ta115  1  0.33358107  0.03547252  0.74528921  1
  Ta  Ta116  1  0.29783774  0.36081323  0.25120862  1
  Ta  Ta117  1  0.33328033  0.28432043  0.75022051  1
  Ta  Ta118  1  0.33643103  0.62979861  0.24261148  1
  Ta  Ta119  1  0.39963615  0.65831479  0.74658905  1
  Ta  Ta120  1  0.64683763  0.02529133  0.24946229  1
  Ta  Ta121  1  0.71430472  -0.00012036  0.76044873  1
  Ta  Ta122  1  0.66787959  0.26786717  0.24791595  1
  Ta  Ta123  1  0.66741923  0.37929547  0.74201208  1
  Ta  Ta124  1  0.70296352  0.67182411  0.27704587  1
  Ta  Ta125  1  0.64966809  0.64288399  0.72865356  1
  Ta  Ta126  1  0.04224454  -0.00212561  0.00488768  1
  Ta  Ta127  1  0.00403840  0.04658021  0.50241077  1
  Ta  Ta128  1  -0.01750804  0.35479103  -0.00658654  1
  Ta  Ta129  1  -0.00298946  0.29106584  0.49869158  1
  Ta  Ta130  1  0.01659688  0.64547637  -0.00266226  1
  Ta  Ta131  1  0.07923790  0.67131941  0.53760304  1
  Ta  Ta132  1  0.29551295  -0.00660038  -0.00172872  1
  Ta  Ta133  1  0.33347744  -0.04592692  0.49769993  1
  Ta  Ta134  1  0.36520448  0.33975316  -0.00593949  1
  Ta  Ta135  1  0.36856094  0.32755625  0.49615295  1
  Ta  Ta136  1  0.36406739  0.64239270  -0.00913591  1
  Ta  Ta137  1  0.32835793  0.69992711  0.49983374  1
  Ta  Ta138  1  0.67315919  -0.05552301  0.00303313  1
  Ta  Ta139  1  0.68194131  -0.02158110  0.50451645  1
  Ta  Ta140  1  0.68993146  0.32848493  -0.00281512  1
  Ta  Ta141  1  0.62032263  0.32851373  0.48690532  1
  Ta  Ta142  1  0.67415758  0.72030543  0.01705223  1
  Ta  Ta143  1  0.71520174  0.67444778  0.47948780  1
  N  N144  1  0.36179176  0.66209394  0.61511701  1
  N  N145  1  0.33317217  0.66615231  0.36980227  1
  N  N146  1  0.65709706  0.31794645  0.36245175  1
  N  N147  1  0.66906155  -0.01038017  0.12819541  1
  N  N148  1  0.66818203  -0.00143778  0.38299147  1
  N  N149  1  0.32961380  -0.00564903  0.62609197  1
  N  N150  1  -0.00473950  0.33243642  0.61881298  1
  N  N151  1  0.33727016  0.32959073  0.86940570  1
  N  N152  1  0.17207483  0.16967910  0.12804853  1
  N  N153  1  0.00260210  0.00655427  0.37027792  1
  N  N154  1  0.50597962  0.16459438  0.11750177  1
  N  N155  1  0.16183221  0.83324832  0.87873283  1
  N  N156  1  0.83080139  0.81372543  0.14637855  1
  N  N157  1  0.00364836  0.33744376  0.86721101  1
  N  N158  1  0.50084090  0.16306377  0.86743068  1
  N  N159  1  0.81120595  0.50528423  0.61513922  1
  N  N160  1  0.50308863  0.48893617  0.61679159  1
  N  N161  1  -0.00071431  0.00759705  0.63177020  1
  N  N162  1  -0.01427617  0.67578827  0.61676669  1
  N  N163  1  0.83700745  0.16508272  0.62896345  1
  N  N164  1  0.33727849  -0.00297053  0.37316243  1
  N  N165  1  0.16917765  0.16242938  0.87815870  1
  N  N166  1  0.16551564  0.16461171  0.62141957  1
  N  N167  1  0.33607414  0.66169347  0.11466458  1
  N  N168  1  0.82091331  0.48544315  0.36477658  1
  N  N169  1  0.49295620  0.82470870  0.62110987  1
  N  N170  1  0.00069352  0.00192429  0.88848683  1
  N  N171  1  0.19988603  0.49561589  0.64134482  1
  N  N172  1  0.67271260  0.66638246  0.60787169  1
  N  N173  1  0.00786559  0.33777770  0.12855243  1
  N  N174  1  0.34629988  0.65853728  0.85969012  1
  N  N175  1  0.67773204  -0.00379024  0.88505651  1
  N  N176  1  0.32633549  0.33569956  0.36989916  1
  O  O177  1  0.48626434  0.83712126  0.36802520  1
  O  O178  1  -0.01529270  -0.00551934  0.12463320  1
  O  O179  1  0.66723122  0.35510220  0.86838834  1
  O  O180  1  0.00517292  0.33147868  0.37336562  1
  O  O181  1  0.31148855  -0.00883588  0.87046452  1
  O  O182  1  0.83643980  0.19998653  0.12306977  1
  O  O183  1  0.17106653  0.17261727  0.37451909  1
  O  O184  1  0.51242895  0.85062860  0.12719100  1
  O  O185  1  0.82792085  0.84162654  0.63046038  1
  O  O186  1  0.13226818  0.50647313  0.86933214  1
  O  O187  1  0.81252785  0.48423507  0.86799436  1
  O  O188  1  0.67490805  0.67088355  0.88339512  1
  O  O189  1  0.82822889  0.48709061  0.09392297  1
  O  O190  1  0.00283847  0.66537043  0.12719096  1
  O  O191  1  0.47108179  0.49445694  0.12596356  1
  O  O192  1  0.66807420  -0.00508853  0.63727443  1
  O  O193  1  0.85240333  0.84007259  0.38624043  1
  O  O194  1  0.67264534  0.31870570  0.12425856  1
  O  O195  1  0.32074734  0.33979671  0.11602634  1
  O  O196  1  0.50401483  0.49955632  0.87346131  1
  O  O197  1  0.15910525  0.82515163  0.37940975  1
  O  O198  1  0.13867614  0.49463613  0.12639152  1
  O  O199  1  0.00957260  0.66208143  0.87111651  1
  O  O200  1  0.47274292  0.48051666  0.36529904  1
  O  O201  1  0.67916340  0.67792692  0.14568202  1
  O  O202  1  0.83219342  0.16000868  0.36893220  1
  O  O203  1  0.18116660  0.83683415  0.63569996  1
  O  O204  1  0.49573791  0.17218575  0.37498981  1
  O  O205  1  0.65557791  0.34817538  0.61661621  1
  O  O206  1  0.83412214  0.18168834  0.87896946  1
  O  O207  1  0.52476186  0.81712311  0.87371684  1
  O  O208  1  0.03618214  0.68024550  0.39620909  1
  O  O209  1  0.33497041  0.32708128  0.62422707  1
  O  O210  1  0.13982025  0.83067483  0.12430592  1
  O  O211  1  0.63300038  0.68212878  0.38586679  1
  O  O212  1  0.49870418  0.17617532  0.62421734  1
  O  O213  1  0.15833704  0.49679064  0.38490354  1
  O  O214  1  0.33346510  0.00097497  0.12214634  1
  O  O215  1  0.83022047  0.83236133  0.87595711  1
