# generated using pymatgen
data_Sr24Ta24N11O13
_symmetry_space_group_name_H-M   'P 1'
_cell_length_a   16.87153305
_cell_length_b   16.71309378
_cell_length_c   15.71428477
_cell_angle_alpha   89.73404575
_cell_angle_beta   89.97929364
_cell_angle_gamma   89.63112191
_symmetry_Int_Tables_number   1
_chemical_formula_structural   Sr24Ta24N11O13
_chemical_formula_sum   'Sr72 Ta72 N33 O39'
_cell_volume   4430.90371432
_cell_formula_units_Z   3
loop_
 _symmetry_equiv_pos_site_id
 _symmetry_equiv_pos_as_xyz
  1  'x, y, z'
loop_
 _atom_site_type_symbol
 _atom_site_label
 _atom_site_symmetry_multiplicity
 _atom_site_fract_x
 _atom_site_fract_y
 _atom_site_fract_z
 _atom_site_occupancy
  Sr  Sr0  1  0.00028410  0.16467476  0.10156974  1
  Sr  Sr1  1  0.02772856  0.15652004  0.62575737  1
  Sr  Sr2  1  0.01248614  0.50971937  0.12969478  1
  Sr  Sr3  1  -0.00446601  0.50375280  0.66397773  1
  Sr  Sr4  1  0.01355169  0.84059325  0.12496789  1
  Sr  Sr5  1  0.01915409  0.82433181  0.60100269  1
  Sr  Sr6  1  0.33106599  0.17322061  0.13580921  1
  Sr  Sr7  1  0.35134436  0.15778707  0.59993378  1
  Sr  Sr8  1  0.32501894  0.50925733  0.08312766  1
  Sr  Sr9  1  0.33008257  0.48605527  0.63580827  1
  Sr  Sr10  1  0.34253582  0.82169177  0.16071391  1
  Sr  Sr11  1  0.34423969  0.84230521  0.64089537  1
  Sr  Sr12  1  0.69093826  0.17046132  0.16162755  1
  Sr  Sr13  1  0.66751982  0.16946000  0.62144922  1
  Sr  Sr14  1  0.65116849  0.50602116  0.13606997  1
  Sr  Sr15  1  0.68782313  0.50647255  0.57843053  1
  Sr  Sr16  1  0.67146449  0.85035887  0.08849031  1
  Sr  Sr17  1  0.67168346  0.82841110  0.64297014  1
  Sr  Sr18  1  0.14582052  0.01361168  0.08222031  1
  Sr  Sr19  1  0.15977948  -0.01727619  0.64660700  1
  Sr  Sr20  1  0.15270987  0.32608415  0.16624970  1
  Sr  Sr21  1  0.17133658  0.33790806  0.61864514  1
  Sr  Sr22  1  0.15790060  0.67270274  0.13316402  1
  Sr  Sr23  1  0.15966103  0.66332218  0.58802974  1
  Sr  Sr24  1  0.47636337  0.00116442  0.12997203  1
  Sr  Sr25  1  0.50852280  0.01461014  0.57805872  1
  Sr  Sr26  1  0.48473934  0.34825056  0.10954797  1
  Sr  Sr27  1  0.50539260  0.32531897  0.66788755  1
  Sr  Sr28  1  0.49492420  0.67586314  0.15956307  1
  Sr  Sr29  1  0.48837447  0.64339415  0.61925588  1
  Sr  Sr30  1  0.82477670  -0.01210773  0.13257995  1
  Sr  Sr31  1  0.81264798  -0.00589565  0.66370093  1
  Sr  Sr32  1  0.83917577  0.32124558  0.09775378  1
  Sr  Sr33  1  0.81620259  0.32069946  0.61465896  1
  Sr  Sr34  1  0.79936412  0.65252229  0.10516503  1
  Sr  Sr35  1  0.83082655  0.67441035  0.62976445  1
  Sr  Sr36  1  0.01002183  0.17419399  0.39803354  1
  Sr  Sr37  1  0.02480247  0.16283308  0.87377771  1
  Sr  Sr38  1  0.01271245  0.50522919  0.33423651  1
  Sr  Sr39  1  0.00580416  0.50709099  0.87051890  1
  Sr  Sr40  1  -0.00175873  0.83149153  0.37304183  1
  Sr  Sr41  1  0.04240265  0.83399548  0.89643432  1
  Sr  Sr42  1  0.33677489  0.17881470  0.35781836  1
  Sr  Sr43  1  0.35234932  0.15329112  0.91699772  1
  Sr  Sr44  1  0.31618661  0.50916039  0.42106706  1
  Sr  Sr45  1  0.33440317  0.49490928  0.86557346  1
  Sr  Sr46  1  0.35242656  0.83695455  0.35875435  1
  Sr  Sr47  1  0.33767920  0.83699208  0.85090259  1
  Sr  Sr48  1  0.68052142  0.16454061  0.38323712  1
  Sr  Sr49  1  0.67353814  0.18519625  0.83177647  1
  Sr  Sr50  1  0.64723807  0.51397158  0.36002941  1
  Sr  Sr51  1  0.67368065  0.49135032  0.92191995  1
  Sr  Sr52  1  0.67674455  0.84299215  0.38976577  1
  Sr  Sr53  1  0.66871476  0.81623831  0.86285712  1
  Sr  Sr54  1  0.13212025  -0.00273030  0.41109658  1
  Sr  Sr55  1  0.17288067  0.00468789  0.86865497  1
  Sr  Sr56  1  0.17112603  0.32787281  0.38381806  1
  Sr  Sr57  1  0.15584664  0.34416793  0.83244337  1
  Sr  Sr58  1  0.15262160  0.67607524  0.36125095  1
  Sr  Sr59  1  0.16139407  0.65304754  0.92006668  1
  Sr  Sr60  1  0.47756130  0.00495101  0.37384358  1
  Sr  Sr61  1  0.49951450  -0.00167646  0.91539559  1
  Sr  Sr62  1  0.51053457  0.33508676  0.32954229  1
  Sr  Sr63  1  0.49660104  0.34148306  0.88656362  1
  Sr  Sr64  1  0.49213016  0.65453064  0.37676268  1
  Sr  Sr65  1  0.48834141  0.68806467  0.83376239  1
  Sr  Sr66  1  0.82933006  -0.00981446  0.33819005  1
  Sr  Sr67  1  0.79528063  -0.01353207  0.86919142  1
  Sr  Sr68  1  0.82767747  0.31493409  0.40450050  1
  Sr  Sr69  1  0.83046602  0.32624070  0.88488386  1
  Sr  Sr70  1  0.81290424  0.65203722  0.38873869  1
  Sr  Sr71  1  0.82110403  0.66126425  0.86425162  1
  Ta  Ta72  1  0.17256038  0.21084769  0.00026204  1
  Ta  Ta73  1  0.19423305  0.14984616  0.49736107  1
  Ta  Ta74  1  0.16016804  0.45907644  0.00047572  1
  Ta  Ta75  1  0.12120206  0.49792992  0.49905475  1
  Ta  Ta76  1  0.21535651  0.83342134  0.01015039  1
  Ta  Ta77  1  0.20845725  0.83558117  0.49904937  1
  Ta  Ta78  1  0.54527881  0.17472868  0.00175230  1
  Ta  Ta79  1  0.50825252  0.21363516  0.50065408  1
  Ta  Ta80  1  0.49392483  0.55081197  0.00220498  1
  Ta  Ta81  1  0.49783494  0.45440235  0.49622167  1
  Ta  Ta82  1  0.47952234  0.81306429  0.00617150  1
  Ta  Ta83  1  0.50133631  0.81771547  0.50233664  1
  Ta  Ta84  1  0.81688945  0.14292380  0.00216496  1
  Ta  Ta85  1  0.83904938  0.11964303  0.49783334  1
  Ta  Ta86  1  0.86398948  0.49856957  0.00455161  1
  Ta  Ta87  1  0.88563493  0.49402423  0.49789550  1
  Ta  Ta88  1  0.86372124  0.82859307  -0.01450098  1
  Ta  Ta89  1  0.83768785  0.85922083  0.50621442  1
  Ta  Ta90  1  0.15358317  0.13195927  0.24837634  1
  Ta  Ta91  1  0.22266546  0.16604016  0.75723732  1
  Ta  Ta92  1  0.20485361  0.50238806  0.25001987  1
  Ta  Ta93  1  0.16918934  0.54358885  0.74932524  1
  Ta  Ta94  1  0.16425720  0.88062489  0.24767487  1
  Ta  Ta95  1  0.17061480  0.78397684  0.74630958  1
  Ta  Ta96  1  0.52431503  0.15232734  0.25319776  1
  Ta  Ta97  1  0.48542841  0.13707930  0.74856148  1
  Ta  Ta98  1  0.44679409  0.50421826  0.24872423  1
  Ta  Ta99  1  0.53650699  0.49963139  0.75389694  1
  Ta  Ta100  1  0.54328711  0.84917603  0.24674568  1
  Ta  Ta101  1  0.50298435  0.89451554  0.74868297  1
  Ta  Ta102  1  0.86774095  0.17613276  0.25221130  1
  Ta  Ta103  1  0.86693584  0.16711817  0.75025059  1
  Ta  Ta104  1  0.83280622  0.46072207  0.24801121  1
  Ta  Ta105  1  0.80850287  0.48544146  0.74962722  1
  Ta  Ta106  1  0.82679914  0.80366120  0.24301343  1
  Ta  Ta107  1  0.88894036  0.83251460  0.76487750  1
  Ta  Ta108  1  0.01159720  0.01480777  0.25180316  1
  Ta  Ta109  1  -0.02305435  -0.01051738  0.76268559  1
  Ta  Ta110  1  -0.03464731  0.32428121  0.24964549  1
  Ta  Ta111  1  -0.03226452  0.31815003  0.75065965  1
  Ta  Ta112  1  -0.04928256  0.68188621  0.23711608  1
  Ta  Ta113  1  0.01980827  0.68568981  0.75401695  1
  Ta  Ta114  1  0.27837641  0.00273901  0.24598862  1
  Ta  Ta115  1  0.36390543  0.01975102  0.75280257  1
  Ta  Ta116  1  0.32813899  0.38152116  0.24633762  1
  Ta  Ta117  1  0.33635397  0.29021333  0.75598089  1
  Ta  Ta118  1  0.32396509  0.62587220  0.24739015  1
  Ta  Ta119  1  0.29110932  0.66462636  0.74836235  1
  Ta  Ta120  1  0.63881668  -0.00257871  0.25327018  1
  Ta  Ta121  1  0.61933318  0.00563336  0.74654946  1
  Ta  Ta122  1  0.70278316  0.34210790  0.25173179  1
  Ta  Ta123  1  0.67257964  0.38144284  0.75125007  1
  Ta  Ta124  1  0.66883334  0.70823527  0.24732512  1
  Ta  Ta125  1  0.66038829  0.61427764  0.75081975  1
  Ta  Ta126  1  -0.04467236  -0.00743196  -0.01805909  1
  Ta  Ta127  1  -0.05138460  -0.00674076  0.50238610  1
  Ta  Ta128  1  0.02444992  0.34310955  -0.00589573  1
  Ta  Ta129  1  -0.00245857  0.36895847  0.50320987  1
  Ta  Ta130  1  -0.03242144  0.67078668  0.00165308  1
  Ta  Ta131  1  -0.01349636  0.63169181  0.50119661  1
  Ta  Ta132  1  0.32340064  -0.04211738  0.01068205  1
  Ta  Ta133  1  0.30773606  -0.00951999  0.49684479  1
  Ta  Ta134  1  0.28921536  0.33183638  0.00455995  1
  Ta  Ta135  1  0.37710866  0.32856314  0.49818947  1
  Ta  Ta136  1  0.35447473  0.69077458  0.00401066  1
  Ta  Ta137  1  0.33294115  0.70229394  0.49754389  1
  Ta  Ta138  1  0.66593678  0.05711817  0.00147016  1
  Ta  Ta139  1  0.70624594  -0.00452134  0.50609438  1
  Ta  Ta140  1  0.66489339  0.29312719  -0.00311189  1
  Ta  Ta141  1  0.62650867  0.33647958  0.50342595  1
  Ta  Ta142  1  0.61690953  0.67277830  -0.00248534  1
  Ta  Ta143  1  0.64211360  0.68980467  0.50292477  1
  N  N144  1  0.16673156  0.49707441  0.11913513  1
  N  N145  1  0.17817345  0.82594119  0.62238246  1
  N  N146  1  0.48807262  0.51078397  0.11850502  1
  N  N147  1  0.00335433  0.66675709  0.87858436  1
  N  N148  1  0.17183260  0.83806962  0.12680260  1
  N  N149  1  0.17038504  0.16592969  0.37757832  1
  N  N150  1  0.16488067  0.17168858  0.12764682  1
  N  N151  1  0.32465790  0.33923450  0.12714722  1
  N  N152  1  0.32897843  0.66592058  0.12476813  1
  N  N153  1  -0.01494810  -0.00129821  0.37251048  1
  N  N154  1  0.66159720  0.34385835  0.62606661  1
  N  N155  1  0.83545315  0.49093431  0.12259795  1
  N  N156  1  0.16607273  0.50117535  0.87052492  1
  N  N157  1  0.01845935  0.00294919  0.88056789  1
  N  N158  1  0.83968640  0.15318908  0.37459688  1
  N  N159  1  0.50379585  0.84128837  0.12559834  1
  N  N160  1  0.16315124  0.50349416  0.38082751  1
  N  N161  1  0.50609769  0.16985912  0.62395984  1
  N  N162  1  0.66778067  0.33687276  0.87942925  1
  N  N163  1  0.48645842  0.49195317  0.37841907  1
  N  N164  1  0.00223133  0.67192422  0.12747332  1
  N  N165  1  0.82428115  0.82267781  0.86606592  1
  N  N166  1  0.15946206  0.50183801  0.62740224  1
  N  N167  1  0.65092500  0.67862044  0.12324317  1
  N  N168  1  0.84036141  0.15405778  0.12459807  1
  N  N169  1  0.65363825  0.65789645  0.87145564  1
  N  N170  1  0.66032336  0.65644831  0.62445167  1
  N  N171  1  0.32033282  0.00486655  0.12587572  1
  N  N172  1  0.66036658  0.00245095  0.61925579  1
  N  N173  1  -0.00461247  0.66148739  0.62097231  1
  N  N174  1  0.65721670  0.67393328  0.37440281  1
  N  N175  1  0.18481533  0.16764929  0.87714749  1
  N  N176  1  0.00032915  0.33567054  0.87026324  1
  O  O177  1  0.34666490  -0.00209308  0.88407747  1
  O  O178  1  0.18790738  0.15696097  0.63065381  1
  O  O179  1  0.82781643  0.82683743  0.11375235  1
  O  O180  1  0.50048574  0.85041746  0.62219578  1
  O  O181  1  -0.01382700  -0.00297787  0.63152598  1
  O  O182  1  0.18850067  0.81698457  0.87299908  1
  O  O183  1  0.33507675  0.00103163  0.62071128  1
  O  O184  1  0.85330160  0.49043134  0.37183175  1
  O  O185  1  0.51497048  0.16450010  0.37954881  1
  O  O186  1  0.85091618  0.15858531  0.62487793  1
  O  O187  1  0.50633421  0.83192898  0.37459521  1
  O  O188  1  0.49208657  0.84855767  0.87080727  1
  O  O189  1  0.35208683  0.33738754  0.37303713  1
  O  O190  1  -0.01372662  0.34045581  0.37413150  1
  O  O191  1  0.33233888  0.67427604  0.86922616  1
  O  O192  1  0.32995028  0.67437184  0.37382901  1
  O  O193  1  0.66118387  0.01619933  0.12757601  1
  O  O194  1  0.52367576  0.17074883  0.13153462  1
  O  O195  1  -0.00074304  0.34622798  0.63008542  1
  O  O196  1  0.16560113  0.84089178  0.37447175  1
  O  O197  1  0.67445302  0.33976730  0.37571327  1
  O  O198  1  0.83316567  0.83302624  0.37988482  1
  O  O199  1  0.83941109  0.16406605  0.87169824  1
  O  O200  1  0.66094426  0.00064922  0.38078118  1
  O  O201  1  -0.01448611  0.00258900  0.10973424  1
  O  O202  1  0.50757693  0.48823821  0.62944753  1
  O  O203  1  0.35247610  0.31540885  0.63043309  1
  O  O204  1  -0.00733795  0.32638600  0.12550039  1
  O  O205  1  0.33521163  0.68233637  0.62411693  1
  O  O206  1  0.50908848  0.50210459  0.88016509  1
  O  O207  1  0.65083235  0.03299399  0.87316211  1
  O  O208  1  0.51275530  0.16476429  0.87209089  1
  O  O209  1  0.32277134  -0.00435603  0.37099233  1
  O  O210  1  0.83721862  0.48910469  0.62481009  1
  O  O211  1  0.33960457  0.31231226  0.88130673  1
  O  O212  1  0.85175160  0.83721441  0.63387407  1
  O  O213  1  0.82923993  0.48921148  0.87659915  1
  O  O214  1  0.68709783  0.32608143  0.12581480  1
  O  O215  1  -0.02208239  0.65804153  0.36235906  1
