# generated using pymatgen
data_Sr24Ta24N11O13
_symmetry_space_group_name_H-M   'P 1'
_cell_length_a   16.55797024
_cell_length_b   17.04955050
_cell_length_c   15.62878659
_cell_angle_alpha   89.98757828
_cell_angle_beta   90.01789505
_cell_angle_gamma   90.34127237
_symmetry_Int_Tables_number   1
_chemical_formula_structural   Sr24Ta24N11O13
_chemical_formula_sum   'Sr72 Ta72 N33 O39'
_cell_volume   4412.02085897
_cell_formula_units_Z   3
loop_
 _symmetry_equiv_pos_site_id
 _symmetry_equiv_pos_as_xyz
  1  'x, y, z'
loop_
 _atom_site_type_symbol
 _atom_site_label
 _atom_site_symmetry_multiplicity
 _atom_site_fract_x
 _atom_site_fract_y
 _atom_site_fract_z
 _atom_site_occupancy
  Sr  Sr0  1  0.00825462  0.16985502  0.14541191  1
  Sr  Sr1  1  -0.00677286  0.14656777  0.58571062  1
  Sr  Sr2  1  0.00897303  0.49261023  0.07761201  1
  Sr  Sr3  1  -0.01066139  0.48444753  0.64013292  1
  Sr  Sr4  1  0.01079557  0.79453817  0.13762095  1
  Sr  Sr5  1  0.01421519  0.82865748  0.64689246  1
  Sr  Sr6  1  0.34350553  0.16295440  0.08213699  1
  Sr  Sr7  1  0.32009992  0.15317754  0.63796665  1
  Sr  Sr8  1  0.32492485  0.49136080  0.17018643  1
  Sr  Sr9  1  0.34114535  0.49298181  0.62951050  1
  Sr  Sr10  1  0.34309060  0.82783157  0.13497193  1
  Sr  Sr11  1  0.33844730  0.80485260  0.60759522  1
  Sr  Sr12  1  0.67054135  0.13960542  0.14596025  1
  Sr  Sr13  1  0.67580859  0.15582012  0.65178290  1
  Sr  Sr14  1  0.66796559  0.50111994  0.13077635  1
  Sr  Sr15  1  0.65909345  0.46036513  0.59415804  1
  Sr  Sr16  1  0.67648408  0.82490563  0.09986122  1
  Sr  Sr17  1  0.64861018  0.81485326  0.62938054  1
  Sr  Sr18  1  0.16692494  0.03902622  0.09710175  1
  Sr  Sr19  1  0.16102944  0.00698701  0.63336968  1
  Sr  Sr20  1  0.15606245  0.34551143  0.13334483  1
  Sr  Sr21  1  0.17536448  0.34427121  0.66442687  1
  Sr  Sr22  1  0.19087067  0.67303826  0.14320721  1
  Sr  Sr23  1  0.16045968  0.66780211  0.57724092  1
  Sr  Sr24  1  0.49088651  0.00347959  0.14267086  1
  Sr  Sr25  1  0.48763405  0.02931598  0.64490212  1
  Sr  Sr26  1  0.50958789  0.34223459  0.13921354  1
  Sr  Sr27  1  0.48887831  0.33935070  0.57755583  1
  Sr  Sr28  1  0.51340884  0.68753537  0.07867583  1
  Sr  Sr29  1  0.48681438  0.65908752  0.64965590  1
  Sr  Sr30  1  0.83408853  0.01354219  0.11830400  1
  Sr  Sr31  1  0.82625443  0.00757565  0.59408522  1
  Sr  Sr32  1  0.83771855  0.36912091  0.09540832  1
  Sr  Sr33  1  0.83211814  0.33110508  0.63449059  1
  Sr  Sr34  1  0.81426793  0.67699596  0.15647109  1
  Sr  Sr35  1  0.82051724  0.69760631  0.63536264  1
  Sr  Sr36  1  0.00418570  0.18271900  0.36449682  1
  Sr  Sr37  1  -0.00436739  0.12940172  0.91302967  1
  Sr  Sr38  1  -0.00316914  0.50032400  0.41521260  1
  Sr  Sr39  1  -0.01134188  0.49222725  0.86154061  1
  Sr  Sr40  1  0.01895501  0.80297413  0.35165058  1
  Sr  Sr41  1  0.01106889  0.82538600  0.85879902  1
  Sr  Sr42  1  0.34275228  0.15678623  0.41581205  1
  Sr  Sr43  1  0.31763673  0.16466908  0.86290048  1
  Sr  Sr44  1  0.33864050  0.48022316  0.36978461  1
  Sr  Sr45  1  0.33640476  0.49844501  0.84206647  1
  Sr  Sr46  1  0.33257726  0.83199812  0.35942598  1
  Sr  Sr47  1  0.33388192  0.79301096  0.90002329  1
  Sr  Sr48  1  0.66491603  0.14399649  0.34621450  1
  Sr  Sr49  1  0.68111940  0.15444489  0.86016379  1
  Sr  Sr50  1  0.67828712  0.48944674  0.36276531  1
  Sr  Sr51  1  0.65443537  0.47566820  0.90889017  1
  Sr  Sr52  1  0.68300537  0.82647326  0.40106330  1
  Sr  Sr53  1  0.66271162  0.81480228  0.87048074  1
  Sr  Sr54  1  0.16070596  0.03324019  0.39235931  1
  Sr  Sr55  1  0.16009947  0.00562522  0.86435895  1
  Sr  Sr56  1  0.16140003  0.34104382  0.34283924  1
  Sr  Sr57  1  0.15947121  0.35874038  0.86895276  1
  Sr  Sr58  1  0.18648340  0.66686798  0.36167280  1
  Sr  Sr59  1  0.15154823  0.67397310  0.92713783  1
  Sr  Sr60  1  0.48795752  0.00766704  0.35423863  1
  Sr  Sr61  1  0.49242637  0.03376255  0.85764434  1
  Sr  Sr62  1  0.50591158  0.33504441  0.36576787  1
  Sr  Sr63  1  0.50165197  0.33188198  0.91814379  1
  Sr  Sr64  1  0.50372711  0.71642305  0.42551710  1
  Sr  Sr65  1  0.50184598  0.65839008  0.86700153  1
  Sr  Sr66  1  0.84724177  0.02766015  0.36629151  1
  Sr  Sr67  1  0.82549871  0.00264406  0.90411706  1
  Sr  Sr68  1  0.84591439  0.35929569  0.41108676  1
  Sr  Sr69  1  0.82252060  0.34308671  0.86224929  1
  Sr  Sr70  1  0.81446632  0.67499603  0.36213842  1
  Sr  Sr71  1  0.83634433  0.68765067  0.83506067  1
  Ta  Ta72  1  0.16152165  0.21090777  -0.00484355  1
  Ta  Ta73  1  0.16707506  0.21374142  0.49905004  1
  Ta  Ta74  1  0.21095860  0.50153881  0.00891093  1
  Ta  Ta75  1  0.17764962  0.47414630  0.49967603  1
  Ta  Ta76  1  0.16753305  0.86400449  0.01341736  1
  Ta  Ta77  1  0.16501552  0.85826455  0.49290611  1
  Ta  Ta78  1  0.53642287  0.16005540  0.00789246  1
  Ta  Ta79  1  0.53729965  0.15993381  0.49408039  1
  Ta  Ta80  1  0.45757349  0.50181134  0.00586960  1
  Ta  Ta81  1  0.50037585  0.53373140  0.48401209  1
  Ta  Ta82  1  0.49683511  0.87500339  -0.01081887  1
  Ta  Ta83  1  0.49860757  0.89013827  0.50652920  1
  Ta  Ta84  1  0.82930058  0.19265464  0.00786758  1
  Ta  Ta85  1  0.80469456  0.18310634  0.49499765  1
  Ta  Ta86  1  0.83043624  0.54539651  -0.00653119  1
  Ta  Ta87  1  0.82333766  0.54617115  0.51729101  1
  Ta  Ta88  1  0.85750620  0.81428634  -0.00000837  1
  Ta  Ta89  1  0.87600645  0.83250170  0.49479928  1
  Ta  Ta90  1  0.21048995  0.17355394  0.24799041  1
  Ta  Ta91  1  0.11803433  0.17104804  0.75538842  1
  Ta  Ta92  1  0.11469747  0.51000102  0.24720566  1
  Ta  Ta93  1  0.16025173  0.54030038  0.75227352  1
  Ta  Ta94  1  0.16770909  0.89270376  0.23272562  1
  Ta  Ta95  1  0.18840246  0.80601977  0.75230765  1
  Ta  Ta96  1  0.46104633  0.17370643  0.24932192  1
  Ta  Ta97  1  0.49936519  0.21356675  0.74843582  1
  Ta  Ta98  1  0.50871708  0.53910353  0.26008177  1
  Ta  Ta99  1  0.51802685  0.46695154  0.75561459  1
  Ta  Ta100  1  0.52538778  0.82359810  0.24173578  1
  Ta  Ta101  1  0.48529815  0.85989943  0.76774484  1
  Ta  Ta102  1  0.83290294  0.22755809  0.25282436  1
  Ta  Ta103  1  0.86824769  0.15347355  0.74525451  1
  Ta  Ta104  1  0.86733692  0.50078326  0.24504909  1
  Ta  Ta105  1  0.79725235  0.51259400  0.74038248  1
  Ta  Ta106  1  0.83813203  0.86567741  0.24450704  1
  Ta  Ta107  1  0.83051120  0.88169436  0.74710232  1
  Ta  Ta108  1  0.00913286  -0.02748902  0.23832357  1
  Ta  Ta109  1  -0.02636477  0.00716857  0.74816869  1
  Ta  Ta110  1  -0.02106197  0.36247238  0.25068329  1
  Ta  Ta111  1  -0.00487585  0.28610954  0.75641554  1
  Ta  Ta112  1  -0.00853340  0.61639972  0.24771582  1
  Ta  Ta113  1  0.05495888  0.66171473  0.75025659  1
  Ta  Ta114  1  0.31035151  0.02225983  0.24921695  1
  Ta  Ta115  1  0.32732148  -0.05314560  0.75381530  1
  Ta  Ta116  1  0.33528274  0.29221543  0.25463381  1
  Ta  Ta117  1  0.38590161  0.32935566  0.75050227  1
  Ta  Ta118  1  0.40484847  0.66394542  0.25776499  1
  Ta  Ta119  1  0.27178811  0.66660066  0.75067808  1
  Ta  Ta120  1  0.67521632  -0.04535558  0.24480281  1
  Ta  Ta121  1  0.67975117  -0.02658929  0.75377009  1
  Ta  Ta122  1  0.70036121  0.32104837  0.24418551  1
  Ta  Ta123  1  0.62413889  0.33107004  0.74600342  1
  Ta  Ta124  1  0.61371374  0.67133997  0.25995211  1
  Ta  Ta125  1  0.66380981  0.60588481  0.74762277  1
  Ta  Ta126  1  0.00608490  -0.05083205  0.00430790  1
  Ta  Ta127  1  0.00388978  -0.04750673  0.49894714  1
  Ta  Ta128  1  -0.00278174  0.30509000  -0.00760668  1
  Ta  Ta129  1  0.03925787  0.33040547  0.50864788  1
  Ta  Ta130  1  -0.05235324  0.66765953  -0.00616062  1
  Ta  Ta131  1  -0.03225339  0.67669746  0.50408748  1
  Ta  Ta132  1  0.33576590  -0.02676523  -0.00390196  1
  Ta  Ta133  1  0.33249135  -0.02793170  0.50260435  1
  Ta  Ta134  1  0.32146701  0.36147855  0.00367971  1
  Ta  Ta135  1  0.29343660  0.33413609  0.49781239  1
  Ta  Ta136  1  0.33644092  0.61883692  0.00779467  1
  Ta  Ta137  1  0.34445923  0.63009415  0.48879908  1
  Ta  Ta138  1  0.63382702  -0.00010247  -0.00076642  1
  Ta  Ta139  1  0.63819878  0.00717764  0.49902298  1
  Ta  Ta140  1  0.67766941  0.28717319  0.01569962  1
  Ta  Ta141  1  0.66976046  0.28477132  0.49540197  1
  Ta  Ta142  1  0.70440110  0.65630028  -0.01228429  1
  Ta  Ta143  1  0.66345683  0.63430695  0.50377242  1
  N  N144  1  0.50410357  0.17019756  0.12865233  1
  N  N145  1  0.66976909  -0.01420350  0.12584359  1
  N  N146  1  0.33237786  0.00116816  0.11481201  1
  N  N147  1  0.66712989  -0.00212824  0.87457496  1
  N  N148  1  0.84031669  0.83023576  0.12416529  1
  N  N149  1  -0.00327159  0.33734397  0.11495961  1
  N  N150  1  0.65665691  0.31368763  0.62532074  1
  N  N151  1  0.84150761  0.18424252  0.36784203  1
  N  N152  1  0.66805331  0.34595630  0.12120451  1
  N  N153  1  0.50348365  0.16392028  0.37317044  1
  N  N154  1  0.32228115  -0.01402403  0.63739337  1
  N  N155  1  -0.01116626  0.34264895  0.86582651  1
  N  N156  1  0.49868782  0.81360182  0.88246925  1
  N  N157  1  0.51247789  0.48481331  0.37359402  1
  N  N158  1  0.15927384  0.16422187  0.87403407  1
  N  N159  1  0.00207662  0.32860787  0.62767445  1
  N  N160  1  0.33629691  0.32691572  0.38133627  1
  N  N161  1  0.34536221  0.66827609  0.36819920  1
  N  N162  1  0.83767983  0.51660780  0.12351251  1
  N  N163  1  0.50623705  0.83858376  0.11874708  1
  N  N164  1  0.17979127  0.82595880  0.13278515  1
  N  N165  1  0.49611911  0.48932781  0.87899574  1
  N  N166  1  0.16606982  0.50646757  0.13168279  1
  N  N167  1  0.82967351  0.48351730  0.61942387  1
  N  N168  1  0.00234612  0.34242352  0.37460604  1
  N  N169  1  0.17545890  0.18744033  0.12149633  1
  N  N170  1  0.65698336  0.66833909  0.38346207  1
  N  N171  1  0.66263579  0.64843173  0.86756807  1
  N  N172  1  0.32660656  0.00205741  0.37623033  1
  N  N173  1  0.83619556  0.16195266  0.62394126  1
  N  N174  1  0.17273135  0.18389384  0.37552038  1
  N  N175  1  -0.00142523  -0.01470027  0.62404239  1
  N  N176  1  -0.00180316  -0.02121604  0.88427037  1
  O  O177  1  0.84017733  0.84357226  0.86843480  1
  O  O178  1  0.50847542  0.18333874  0.88241699  1
  O  O179  1  0.64476270  0.66574174  0.63639339  1
  O  O180  1  0.00625513  0.67428615  0.62535305  1
  O  O181  1  0.17576184  0.49740133  0.62481210  1
  O  O182  1  -0.01959699  0.64982565  0.11772635  1
  O  O183  1  -0.02464017  0.65689337  0.37804235  1
  O  O184  1  0.50115290  0.18311071  0.61761777  1
  O  O185  1  0.49972832  0.49016142  0.60890255  1
  O  O186  1  0.32799653  0.33985615  0.12857158  1
  O  O187  1  0.00419139  0.66661549  0.87015584  1
  O  O188  1  0.31313854  0.65108816  0.61569581  1
  O  O189  1  0.16852841  0.51355835  0.88672081  1
  O  O190  1  0.65993323  -0.01208797  0.37444989  1
  O  O191  1  -0.00459926  0.01431216  0.11734857  1
  O  O192  1  0.66626268  0.33420633  0.37057495  1
  O  O193  1  0.34280078  0.34619553  0.87648945  1
  O  O194  1  0.17409972  0.82300403  0.88723876  1
  O  O195  1  0.16315044  0.17267660  0.63177917  1
  O  O196  1  0.00375924  -0.02875861  0.36384255  1
  O  O197  1  0.84502069  0.17011954  0.13252569  1
  O  O198  1  0.49933429  0.49949447  0.12899396  1
  O  O199  1  0.17435426  0.82902448  0.61676893  1
  O  O200  1  0.83112207  0.49845376  0.86580007  1
  O  O201  1  0.85779546  0.82838581  0.36739538  1
  O  O202  1  0.83795959  0.51303442  0.38982207  1
  O  O203  1  0.66268505  0.66582343  0.11457232  1
  O  O204  1  0.16972048  0.85996586  0.36428932  1
  O  O205  1  0.66110242  0.32279236  0.88841867  1
  O  O206  1  0.83628574  0.16822598  0.88015214  1
  O  O207  1  0.84856850  0.84742264  0.62422351  1
  O  O208  1  0.35336102  0.64887876  0.13738839  1
  O  O209  1  0.31180728  0.64717188  0.87465935  1
  O  O210  1  0.65695031  0.00197198  0.62496032  1
  O  O211  1  0.32014528  0.00992961  0.86454964  1
  O  O212  1  0.49811725  0.87136964  0.63274949  1
  O  O213  1  0.33825517  0.33800420  0.62891420  1
  O  O214  1  0.15642463  0.49459102  0.37493447  1
  O  O215  1  0.50569456  0.85907317  0.37949255  1
