# generated using pymatgen
data_Sr24Ta24N11O13
_symmetry_space_group_name_H-M   'P 1'
_cell_length_a   16.75394946
_cell_length_b   16.85428315
_cell_length_c   15.75100011
_cell_angle_alpha   90.23381192
_cell_angle_beta   89.77433134
_cell_angle_gamma   89.91182263
_symmetry_Int_Tables_number   1
_chemical_formula_structural   Sr24Ta24N11O13
_chemical_formula_sum   'Sr72 Ta72 N33 O39'
_cell_volume   4447.62447444
_cell_formula_units_Z   3
loop_
 _symmetry_equiv_pos_site_id
 _symmetry_equiv_pos_as_xyz
  1  'x, y, z'
loop_
 _atom_site_type_symbol
 _atom_site_label
 _atom_site_symmetry_multiplicity
 _atom_site_fract_x
 _atom_site_fract_y
 _atom_site_fract_z
 _atom_site_occupancy
  Sr  Sr0  1  -0.00738143  0.16533330  0.13620686  1
  Sr  Sr1  1  0.01855438  0.14794114  0.57753053  1
  Sr  Sr2  1  0.01770247  0.48363969  0.12634781  1
  Sr  Sr3  1  0.00654505  0.48824210  0.62385427  1
  Sr  Sr4  1  -0.00101956  0.82432352  0.12036302  1
  Sr  Sr5  1  0.00810043  0.82533648  0.65117518  1
  Sr  Sr6  1  0.34129400  0.17350160  0.11708117  1
  Sr  Sr7  1  0.32503542  0.14955926  0.66825074  1
  Sr  Sr8  1  0.33190939  0.52029488  0.15603826  1
  Sr  Sr9  1  0.34848280  0.50868961  0.60958592  1
  Sr  Sr10  1  0.33449278  0.83430455  0.10255486  1
  Sr  Sr11  1  0.32928707  0.83694059  0.59395306  1
  Sr  Sr12  1  0.66832167  0.13658953  0.09397761  1
  Sr  Sr13  1  0.66485371  0.16644288  0.62820942  1
  Sr  Sr14  1  0.67062620  0.48457641  0.10841335  1
  Sr  Sr15  1  0.67413883  0.48869373  0.65565607  1
  Sr  Sr16  1  0.65761430  0.82922784  0.15142983  1
  Sr  Sr17  1  0.66578118  0.81319669  0.61883443  1
  Sr  Sr18  1  0.15753928  0.02059973  0.17561075  1
  Sr  Sr19  1  0.16630248  -0.01099097  0.61453744  1
  Sr  Sr20  1  0.15556634  0.31017234  0.08218803  1
  Sr  Sr21  1  0.17080618  0.32741007  0.62985067  1
  Sr  Sr22  1  0.17066781  0.68442284  0.10634646  1
  Sr  Sr23  1  0.15509052  0.65711454  0.66384300  1
  Sr  Sr24  1  0.50104832  -0.00145841  0.11748944  1
  Sr  Sr25  1  0.51316466  0.02163354  0.65698155  1
  Sr  Sr26  1  0.48802831  0.34828184  0.13560564  1
  Sr  Sr27  1  0.49911854  0.33257846  0.58835541  1
  Sr  Sr28  1  0.49989296  0.67303767  0.15410034  1
  Sr  Sr29  1  0.49852059  0.66679791  0.61832946  1
  Sr  Sr30  1  0.84240183  0.02420401  0.10824674  1
  Sr  Sr31  1  0.83200248  0.02947950  0.60658390  1
  Sr  Sr32  1  0.83046860  0.35288611  0.13775969  1
  Sr  Sr33  1  0.82440312  0.34817138  0.65651923  1
  Sr  Sr34  1  0.81906251  0.69319337  0.11961054  1
  Sr  Sr35  1  0.84431507  0.68211652  0.59849652  1
  Sr  Sr36  1  -0.00180310  0.16267158  0.36746122  1
  Sr  Sr37  1  0.00116507  0.15932915  0.90847484  1
  Sr  Sr38  1  -0.00417729  0.49289756  0.38662691  1
  Sr  Sr39  1  0.01979490  0.47516802  0.85886668  1
  Sr  Sr40  1  0.00608485  0.80880453  0.35085275  1
  Sr  Sr41  1  0.00858363  0.82913887  0.87798398  1
  Sr  Sr42  1  0.34498239  0.15392672  0.33178632  1
  Sr  Sr43  1  0.32960695  0.17871379  0.88413208  1
  Sr  Sr44  1  0.34200838  0.49740093  0.38140696  1
  Sr  Sr45  1  0.34204982  0.52427526  0.85490879  1
  Sr  Sr46  1  0.32583694  0.84010941  0.40121531  1
  Sr  Sr47  1  0.32902535  0.82935324  0.90423468  1
  Sr  Sr48  1  0.65394707  0.16006534  0.41414587  1
  Sr  Sr49  1  0.67004837  0.15271383  0.85726785  1
  Sr  Sr50  1  0.67893922  0.46686943  0.34595746  1
  Sr  Sr51  1  0.66444259  0.49647134  0.88484205  1
  Sr  Sr52  1  0.65835520  0.82180235  0.37013074  1
  Sr  Sr53  1  0.64787973  0.82116270  0.85031199  1
  Sr  Sr54  1  0.16902394  0.00067670  0.38596316  1
  Sr  Sr55  1  0.15757775  -0.00532087  0.83711212  1
  Sr  Sr56  1  0.15338901  0.33704212  0.42294114  1
  Sr  Sr57  1  0.17157912  0.31943128  0.87020333  1
  Sr  Sr58  1  0.15897689  0.64054380  0.32698957  1
  Sr  Sr59  1  0.17009070  0.66495878  0.88225766  1
  Sr  Sr60  1  0.50903436  0.00977366  0.35172214  1
  Sr  Sr61  1  0.49083280  0.01018612  0.88283171  1
  Sr  Sr62  1  0.48699129  0.33201256  0.36863446  1
  Sr  Sr63  1  0.49523246  0.34904883  0.90908900  1
  Sr  Sr64  1  0.48306281  0.68086670  0.39551402  1
  Sr  Sr65  1  0.50803059  0.65746994  0.83452083  1
  Sr  Sr66  1  0.82802504  0.03380999  0.39517574  1
  Sr  Sr67  1  0.84347563  0.02427054  0.89139053  1
  Sr  Sr68  1  0.84432931  0.34646278  0.34145835  1
  Sr  Sr69  1  0.81946224  0.35449135  0.86230264  1
  Sr  Sr70  1  0.83349701  0.68312179  0.38605134  1
  Sr  Sr71  1  0.82550287  0.69336180  0.89427548  1
  Ta  Ta72  1  0.16629891  0.11519498  -0.00103520  1
  Ta  Ta73  1  0.21625998  0.16011009  0.49364869  1
  Ta  Ta74  1  0.19226702  0.49390838  -0.00400173  1
  Ta  Ta75  1  0.16811276  0.53170033  0.50298608  1
  Ta  Ta76  1  0.16360923  0.89463410  0.00987272  1
  Ta  Ta77  1  0.14783656  0.79849097  0.49967597  1
  Ta  Ta78  1  0.51266532  0.18322096  -0.00685831  1
  Ta  Ta79  1  0.46224770  0.15529990  0.50242159  1
  Ta  Ta80  1  0.48930588  0.53188390  -0.00396318  1
  Ta  Ta81  1  0.54893067  0.50105457  0.50487540  1
  Ta  Ta82  1  0.51182656  0.80332302  -0.00008578  1
  Ta  Ta83  1  0.50301908  0.88343583  0.50018559  1
  Ta  Ta84  1  0.82785064  0.21075726  -0.00118792  1
  Ta  Ta85  1  0.82953865  0.22114603  0.49705085  1
  Ta  Ta86  1  0.86385268  0.51427974  -0.00125581  1
  Ta  Ta87  1  0.81302873  0.48628489  0.49631260  1
  Ta  Ta88  1  0.81136453  0.85998748  0.00363006  1
  Ta  Ta89  1  0.84756958  0.86163300  0.49678249  1
  Ta  Ta90  1  0.16690689  0.21334669  0.25859756  1
  Ta  Ta91  1  0.12558315  0.16092879  0.75069462  1
  Ta  Ta92  1  0.16574366  0.44088679  0.25234010  1
  Ta  Ta93  1  0.19485828  0.48037069  0.74679117  1
  Ta  Ta94  1  0.19645882  0.83649345  0.24724301  1
  Ta  Ta95  1  0.21159654  0.82910673  0.75085629  1
  Ta  Ta96  1  0.53863123  0.17215320  0.25004225  1
  Ta  Ta97  1  0.49555929  0.21375428  0.74994583  1
  Ta  Ta98  1  0.52099016  0.51790532  0.25576306  1
  Ta  Ta99  1  0.50025820  0.46374820  0.74719280  1
  Ta  Ta100  1  0.46255801  0.83985746  0.25805748  1
  Ta  Ta101  1  0.45725257  0.83839274  0.74714793  1
  Ta  Ta102  1  0.78948160  0.17335927  0.25387822  1
  Ta  Ta103  1  0.87728028  0.17179253  0.74459676  1
  Ta  Ta104  1  0.83906360  0.53983149  0.25049402  1
  Ta  Ta105  1  0.84222911  0.53971161  0.74956287  1
  Ta  Ta106  1  0.83436375  0.88163073  0.24988155  1
  Ta  Ta107  1  0.83328610  0.86740378  0.75144948  1
  Ta  Ta108  1  -0.02551958  -0.01638243  0.25537664  1
  Ta  Ta109  1  -0.01806059  0.02465552  0.74076525  1
  Ta  Ta110  1  0.03638988  0.32882649  0.25265114  1
  Ta  Ta111  1  0.00267620  0.28508562  0.74635543  1
  Ta  Ta112  1  -0.02474566  0.63923185  0.24927497  1
  Ta  Ta113  1  -0.02903076  0.64851083  0.74834660  1
  Ta  Ta114  1  0.33450514  -0.03628568  0.25242879  1
  Ta  Ta115  1  0.33365599  -0.04598476  0.75121397  1
  Ta  Ta116  1  0.29003336  0.33213801  0.25600432  1
  Ta  Ta117  1  0.35393541  0.34783486  0.75171211  1
  Ta  Ta118  1  0.33036210  0.70684969  0.25507768  1
  Ta  Ta119  1  0.33087890  0.70444277  0.73874522  1
  Ta  Ta120  1  0.68955442  0.01372942  0.25099433  1
  Ta  Ta121  1  0.70092336  -0.02130766  0.74673718  1
  Ta  Ta122  1  0.65896596  0.29087487  0.24875295  1
  Ta  Ta123  1  0.62536559  0.32677709  0.75240724  1
  Ta  Ta124  1  0.66885607  0.63411750  0.25286620  1
  Ta  Ta125  1  0.70212793  0.65289508  0.74802529  1
  Ta  Ta126  1  0.03166686  -0.00716727  0.00898754  1
  Ta  Ta127  1  -0.00601776  -0.04654856  0.49807267  1
  Ta  Ta128  1  -0.03324498  0.33169845  0.00326027  1
  Ta  Ta129  1  -0.03913615  0.32714285  0.49947138  1
  Ta  Ta130  1  -0.00802948  0.63128907  -0.00232612  1
  Ta  Ta131  1  0.03714116  0.66477298  0.49923815  1
  Ta  Ta132  1  0.29546850  0.00623958  0.00343771  1
  Ta  Ta133  1  0.35461220  0.02538910  0.49602954  1
  Ta  Ta134  1  0.32674001  0.37949786  -0.00091209  1
  Ta  Ta135  1  0.32918120  0.28342033  0.49694140  1
  Ta  Ta136  1  0.36688265  0.65715807  0.00509822  1
  Ta  Ta137  1  0.27703852  0.66608113  0.49617570  1
  Ta  Ta138  1  0.67149488  -0.04307792  0.00096224  1
  Ta  Ta139  1  0.65400764  -0.02467619  0.50049517  1
  Ta  Ta140  1  0.66920682  0.30182705  -0.00455081  1
  Ta  Ta141  1  0.68890087  0.34718264  0.50594465  1
  Ta  Ta142  1  0.63353076  0.67260356  -0.00486599  1
  Ta  Ta143  1  0.67090155  0.61740402  0.50318573  1
  N  N144  1  0.33466372  -0.00077215  0.37314941  1
  N  N145  1  0.33799431  0.67565223  0.12397914  1
  N  N146  1  0.66578931  0.32927225  0.62583426  1
  N  N147  1  0.16861968  0.84479888  0.12764750  1
  N  N148  1  0.49123872  0.17492609  0.62497050  1
  N  N149  1  0.67257311  0.65594400  0.62508251  1
  N  N150  1  0.48929413  0.84446486  0.38044265  1
  N  N151  1  0.66302410  0.66436903  0.87471770  1
  N  N152  1  -0.00393112  0.32945110  0.37985225  1
  N  N153  1  0.00145803  -0.00202199  0.13713187  1
  N  N154  1  0.15742830  0.14936143  0.87200323  1
  N  N155  1  0.67090968  -0.00224693  0.37478114  1
  N  N156  1  0.17188750  0.16764775  0.37676286  1
  N  N157  1  0.82087761  0.18722721  0.37524128  1
  N  N158  1  0.33586050  0.34753129  0.87804425  1
  N  N159  1  0.51107308  0.49952473  0.62651550  1
  N  N160  1  0.83367476  0.50555988  0.37620239  1
  N  N161  1  0.32796737  0.32617412  0.37561219  1
  N  N162  1  0.17313726  0.50146160  0.87403124  1
  N  N163  1  -0.00115427  0.65915694  0.62612357  1
  N  N164  1  0.32191836  0.67003228  0.37712717  1
  N  N165  1  0.49163548  0.17088879  0.87424497  1
  N  N166  1  0.50236983  0.50558113  0.87471815  1
  N  N167  1  0.67765622  -0.00382721  0.62707857  1
  N  N168  1  0.00040970  0.65418306  0.37224560  1
  N  N169  1  -0.00422036  0.32697349  0.12246506  1
  N  N170  1  0.66475006  0.33029699  0.87586346  1
  N  N171  1  0.82989177  0.84909179  0.12694753  1
  N  N172  1  0.32585900  0.67705326  0.61764069  1
  N  N173  1  0.16984851  0.49779988  0.62493627  1
  N  N174  1  0.50228463  0.16940046  0.37039725  1
  N  N175  1  0.66552542  -0.01407533  0.12220087  1
  N  N176  1  0.00206021  -0.00814577  0.62026095  1
  O  O177  1  0.82910550  0.18739868  0.62886027  1
  O  O178  1  0.00545900  0.64736791  0.12076406  1
  O  O179  1  0.82592213  0.19054312  0.12627766  1
  O  O180  1  0.82919746  0.84443194  0.37417782  1
  O  O181  1  0.00926856  0.64754540  0.87240814  1
  O  O182  1  -0.00441352  0.31456956  0.87193079  1
  O  O183  1  0.65945327  0.32313927  0.12684388  1
  O  O184  1  0.32013383  0.00913236  0.12920189  1
  O  O185  1  0.16628572  0.48704577  0.37610862  1
  O  O186  1  0.68084080  -0.00545464  0.87428413  1
  O  O187  1  0.16902830  0.14875905  0.62628390  1
  O  O188  1  0.83758735  0.18603548  0.87048556  1
  O  O189  1  0.48743790  0.81927503  0.87654249  1
  O  O190  1  0.31953592  -0.00765028  0.87380468  1
  O  O191  1  0.84241634  0.85088933  0.62254879  1
  O  O192  1  0.84851175  0.85885577  0.87529225  1
  O  O193  1  0.66051932  0.31700857  0.37641056  1
  O  O194  1  0.50711328  0.51343142  0.13101747  1
  O  O195  1  0.33199003  0.32201401  0.61978165  1
  O  O196  1  0.01088590  0.00279526  0.38284493  1
  O  O197  1  0.51369477  0.49660841  0.37901432  1
  O  O198  1  0.84324407  0.51394811  0.87705511  1
  O  O199  1  0.84265260  0.51033243  0.62348540  1
  O  O200  1  0.17442666  0.84501300  0.87491106  1
  O  O201  1  0.16317045  0.16384386  0.12258077  1
  O  O202  1  0.15893297  0.81952609  0.37537714  1
  O  O203  1  0.66165926  0.65180559  0.12631913  1
  O  O204  1  0.33511953  0.67820869  0.87900823  1
  O  O205  1  0.83600617  0.50780048  0.12247676  1
  O  O206  1  0.67539157  0.65105997  0.37647409  1
  O  O207  1  0.17215171  0.47877244  0.12984863  1
  O  O208  1  0.48373332  0.85049476  0.62250139  1
  O  O209  1  0.50226895  0.16297937  0.12388615  1
  O  O210  1  0.33125581  0.34115818  0.12180015  1
  O  O211  1  0.00004917  0.00292076  0.86883822  1
  O  O212  1  0.00911857  0.30753629  0.61908046  1
  O  O213  1  0.32954411  -0.00375656  0.62993278  1
  O  O214  1  0.49768758  0.82522346  0.12538042  1
  O  O215  1  0.16471243  0.82382540  0.62698147  1
