# generated using pymatgen
data_Sr24Ta24N11O13
_symmetry_space_group_name_H-M   'P 1'
_cell_length_a   15.77103183
_cell_length_b   20.50879048
_cell_length_c   13.58831935
_cell_angle_alpha   87.96465058
_cell_angle_beta   90.04249212
_cell_angle_gamma   90.08050479
_symmetry_Int_Tables_number   1
_chemical_formula_structural   Sr24Ta24N11O13
_chemical_formula_sum   'Sr72 Ta72 N33 O39'
_cell_volume   4392.29284771
_cell_formula_units_Z   3
loop_
 _symmetry_equiv_pos_site_id
 _symmetry_equiv_pos_as_xyz
  1  'x, y, z'
loop_
 _atom_site_type_symbol
 _atom_site_label
 _atom_site_symmetry_multiplicity
 _atom_site_fract_x
 _atom_site_fract_y
 _atom_site_fract_z
 _atom_site_occupancy
  Sr  Sr0  1  0.00064522  0.13962779  0.09997135  1
  Sr  Sr1  1  0.00060144  0.16914318  0.60309021  1
  Sr  Sr2  1  -0.00306913  0.45139782  0.12119663  1
  Sr  Sr3  1  -0.00512481  0.46200442  0.61956153  1
  Sr  Sr4  1  0.00090608  0.79252904  0.18887606  1
  Sr  Sr5  1  0.00175069  0.79651016  0.68037510  1
  Sr  Sr6  1  0.34469301  0.14935087  0.10190907  1
  Sr  Sr7  1  0.31920757  0.16414502  0.60386556  1
  Sr  Sr8  1  0.33482756  0.45008876  0.13751030  1
  Sr  Sr9  1  0.32981436  0.44935549  0.62522289  1
  Sr  Sr10  1  0.33337252  0.80385775  0.16416014  1
  Sr  Sr11  1  0.33487092  0.79803261  0.67591923  1
  Sr  Sr12  1  0.65444402  0.13559931  0.10340097  1
  Sr  Sr13  1  0.67823243  0.16158909  0.60344918  1
  Sr  Sr14  1  0.66616318  0.45553290  0.12724633  1
  Sr  Sr15  1  0.67450666  0.45628248  0.61561429  1
  Sr  Sr16  1  0.66556457  0.79736285  0.18165422  1
  Sr  Sr17  1  0.66235012  0.79925312  0.67965468  1
  Sr  Sr18  1  0.17346200  0.03627052  0.14506695  1
  Sr  Sr19  1  0.16131530  0.04773696  0.65548230  1
  Sr  Sr20  1  0.16566330  0.34901091  0.09526393  1
  Sr  Sr21  1  0.16108635  0.35226541  0.58956673  1
  Sr  Sr22  1  0.16801842  0.70139419  0.10657001  1
  Sr  Sr23  1  0.16944891  0.70293969  0.60016746  1
  Sr  Sr24  1  0.49431788  0.02153519  0.14169064  1
  Sr  Sr25  1  0.49904841  0.05912967  0.65360228  1
  Sr  Sr26  1  0.50158542  0.35152997  0.09359853  1
  Sr  Sr27  1  0.50567311  0.35333248  0.59046760  1
  Sr  Sr28  1  0.49719227  0.70744152  0.10201467  1
  Sr  Sr29  1  0.49862482  0.70341777  0.60018108  1
  Sr  Sr30  1  0.83326611  0.04138050  0.15654249  1
  Sr  Sr31  1  0.83905257  0.04250301  0.65573510  1
  Sr  Sr32  1  0.83031035  0.34849484  0.09591857  1
  Sr  Sr33  1  0.83229602  0.34752925  0.58942958  1
  Sr  Sr34  1  0.83089345  0.70545032  0.09634169  1
  Sr  Sr35  1  0.83415626  0.70911235  0.60166926  1
  Sr  Sr36  1  0.00472733  0.11733679  0.35690645  1
  Sr  Sr37  1  -0.00016835  0.11933918  0.84714038  1
  Sr  Sr38  1  0.00050978  0.47790924  0.36660488  1
  Sr  Sr39  1  -0.00658520  0.49619232  0.86707159  1
  Sr  Sr40  1  0.00837046  0.80733401  0.42982409  1
  Sr  Sr41  1  -0.00633544  0.80170970  0.93369714  1
  Sr  Sr42  1  0.33168473  0.12866989  0.36005100  1
  Sr  Sr43  1  0.33231603  0.13156976  0.85068964  1
  Sr  Sr44  1  0.33323398  0.48445935  0.37686654  1
  Sr  Sr45  1  0.33446988  0.48183866  0.87171075  1
  Sr  Sr46  1  0.32962517  0.83112569  0.42538521  1
  Sr  Sr47  1  0.33123705  0.77779380  0.91881298  1
  Sr  Sr48  1  0.66604073  0.12095565  0.36141877  1
  Sr  Sr49  1  0.66928020  0.12438303  0.84770506  1
  Sr  Sr50  1  0.67009913  0.47933948  0.37021362  1
  Sr  Sr51  1  0.66942271  0.49535772  0.86415196  1
  Sr  Sr52  1  0.66288740  0.80378143  0.43343947  1
  Sr  Sr53  1  0.67520487  0.78445149  0.91702821  1
  Sr  Sr54  1  0.16840616  0.01046127  0.40793843  1
  Sr  Sr55  1  0.16513815  0.02481521  0.90394901  1
  Sr  Sr56  1  0.16773716  0.38384233  0.33613673  1
  Sr  Sr57  1  0.16419199  0.38726117  0.84233055  1
  Sr  Sr58  1  0.18323883  0.68058640  0.35437248  1
  Sr  Sr59  1  0.15031430  0.67922841  0.85701695  1
  Sr  Sr60  1  0.49710969  0.01806032  0.40291015  1
  Sr  Sr61  1  0.49905127  0.02716949  0.89736403  1
  Sr  Sr62  1  0.50026975  0.38200933  0.33657820  1
  Sr  Sr63  1  0.50434720  0.38074956  0.84656554  1
  Sr  Sr64  1  0.49018303  0.68146399  0.35797579  1
  Sr  Sr65  1  0.50504343  0.68536833  0.85479336  1
  Sr  Sr66  1  0.83574648  0.02014745  0.40882989  1
  Sr  Sr67  1  0.83759075  0.02108768  0.91040389  1
  Sr  Sr68  1  0.83378871  0.37049302  0.33550561  1
  Sr  Sr69  1  0.82767963  0.37857140  0.84821163  1
  Sr  Sr70  1  0.83178801  0.71454023  0.34853424  1
  Sr  Sr71  1  0.84308312  0.66791189  0.85422322  1
  Ta  Ta72  1  0.17212009  0.20953299  -0.02191105  1
  Ta  Ta73  1  0.16072849  0.22159385  0.44506118  1
  Ta  Ta74  1  0.17152794  0.53885303  0.00498126  1
  Ta  Ta75  1  0.15874945  0.54137956  0.50408465  1
  Ta  Ta76  1  0.16784198  0.87292934  0.02985458  1
  Ta  Ta77  1  0.16662661  0.88647819  0.57768118  1
  Ta  Ta78  1  0.50519045  0.21933367  -0.04097875  1
  Ta  Ta79  1  0.49925714  0.21648076  0.46309003  1
  Ta  Ta80  1  0.49474127  0.54074350  0.01483783  1
  Ta  Ta81  1  0.50677890  0.54409446  0.50091321  1
  Ta  Ta82  1  0.50402525  0.87273174  0.01171131  1
  Ta  Ta83  1  0.50029901  0.89666746  0.57934183  1
  Ta  Ta84  1  0.82777609  0.21094496  -0.02568194  1
  Ta  Ta85  1  0.83740381  0.21423594  0.44530586  1
  Ta  Ta86  1  0.82992545  0.54345005  0.02274873  1
  Ta  Ta87  1  0.83945123  0.55387906  0.47958558  1
  Ta  Ta88  1  0.83036001  0.88054620  0.05733944  1
  Ta  Ta89  1  0.83096903  0.88050273  0.56146112  1
  Ta  Ta90  1  0.16918578  0.21063614  0.23188937  1
  Ta  Ta91  1  0.15732018  0.22526615  0.76227532  1
  Ta  Ta92  1  0.16037010  0.54573060  0.22274019  1
  Ta  Ta93  1  0.17279769  0.54787021  0.72022479  1
  Ta  Ta94  1  0.16661196  0.88103523  0.26638324  1
  Ta  Ta95  1  0.17680511  0.87891755  0.79736320  1
  Ta  Ta96  1  0.50348443  0.21737388  0.24710386  1
  Ta  Ta97  1  0.49988134  0.22096100  0.74814150  1
  Ta  Ta98  1  0.50355914  0.54773067  0.22849634  1
  Ta  Ta99  1  0.49492817  0.54610949  0.71774564  1
  Ta  Ta100  1  0.50123093  0.87589399  0.27970544  1
  Ta  Ta101  1  0.49392840  0.87796142  0.79390878  1
  Ta  Ta102  1  0.83075872  0.20559951  0.23129698  1
  Ta  Ta103  1  0.84123200  0.22088909  0.75839359  1
  Ta  Ta104  1  0.83511625  0.55701729  0.23884759  1
  Ta  Ta105  1  0.83242381  0.55149796  0.70008834  1
  Ta  Ta106  1  0.83398234  0.88199877  0.27115625  1
  Ta  Ta107  1  0.83232083  0.88121677  0.78269200  1
  Ta  Ta108  1  0.00123976  -0.04504895  0.26483164  1
  Ta  Ta109  1  0.00721389  -0.05007628  0.77301242  1
  Ta  Ta110  1  0.00120135  0.27861484  0.22945767  1
  Ta  Ta111  1  -0.00020497  0.29645755  0.74809721  1
  Ta  Ta112  1  -0.00612424  0.62488562  0.24472901  1
  Ta  Ta113  1  0.00094808  0.61610525  0.69242400  1
  Ta  Ta114  1  0.33309057  -0.04623213  0.26188631  1
  Ta  Ta115  1  0.33470366  -0.05592672  0.77270799  1
  Ta  Ta116  1  0.33400013  0.28452732  0.23529646  1
  Ta  Ta117  1  0.32911998  0.29376660  0.75214456  1
  Ta  Ta118  1  0.33385696  0.60948953  0.21554068  1
  Ta  Ta119  1  0.33864672  0.61903832  0.73568064  1
  Ta  Ta120  1  0.66770157  -0.04835646  0.25761490  1
  Ta  Ta121  1  0.66275796  -0.04817415  0.77149194  1
  Ta  Ta122  1  0.66438797  0.28121460  0.24250362  1
  Ta  Ta123  1  0.66484561  0.28977537  0.74352017  1
  Ta  Ta124  1  0.67306086  0.62468793  0.24352568  1
  Ta  Ta125  1  0.66127532  0.62287653  0.71330676  1
  Ta  Ta126  1  0.00140281  -0.04873466  0.04003372  1
  Ta  Ta127  1  -0.00092510  -0.04527671  0.54579543  1
  Ta  Ta128  1  0.00148979  0.28359720  -0.03220422  1
  Ta  Ta129  1  0.00111456  0.29608301  0.44082825  1
  Ta  Ta130  1  -0.00327143  0.61159127  0.02657395  1
  Ta  Ta131  1  -0.00658854  0.62749379  0.47437402  1
  Ta  Ta132  1  0.32997552  -0.06703281  -0.01599239  1
  Ta  Ta133  1  0.33326897  -0.03606290  0.56647904  1
  Ta  Ta134  1  0.33108581  0.29030080  -0.03226432  1
  Ta  Ta135  1  0.33315248  0.29564449  0.44810044  1
  Ta  Ta136  1  0.33617933  0.61143895  0.00127678  1
  Ta  Ta137  1  0.33445470  0.60999509  0.52128378  1
  Ta  Ta138  1  0.67219889  -0.05438706  0.03418864  1
  Ta  Ta139  1  0.66692000  -0.03521046  0.55484572  1
  Ta  Ta140  1  0.66539091  0.28276591  -0.03907142  1
  Ta  Ta141  1  0.66287808  0.29123051  0.45445931  1
  Ta  Ta142  1  0.66289264  0.61675805  0.01103910  1
  Ta  Ta143  1  0.67855322  0.62126827  0.49242018  1
  N  N144  1  0.00231177  -0.00886202  0.41003047  1
  N  N145  1  0.83406117  0.81726304  0.67817500  1
  N  N146  1  0.16727696  0.51593015  0.36575270  1
  N  N147  1  0.66195077  0.01195798  0.13993133  1
  N  N148  1  0.16694782  0.47674544  0.62962198  1
  N  N149  1  0.33684587  0.32863879  0.09615882  1
  N  N150  1  0.00254207  0.35691579  0.31984701  1
  N  N151  1  0.50569899  0.80885992  0.90787858  1
  N  N152  1  0.16251976  0.51511970  0.86860063  1
  N  N153  1  0.67326332  0.31679135  0.60453736  1
  N  N154  1  0.50417493  0.47643002  0.12816090  1
  N  N155  1  0.66408439  0.63757825  0.86859738  1
  N  N156  1  0.82670705  0.15996992  0.09830077  1
  N  N157  1  0.66872049  0.02500313  0.66583671  1
  N  N158  1  0.66183849  0.35457233  0.33614243  1
  N  N159  1  0.50155365  0.50790800  0.37257746  1
  N  N160  1  0.33267326  0.35824373  0.33592916  1
  N  N161  1  0.50082381  0.14938372  0.85050216  1
  N  N162  1  0.00512146  0.01807107  0.15401209  1
  N  N163  1  0.33256912  0.36019007  0.84799141  1
  N  N164  1  0.83265650  0.81209576  0.17428060  1
  N  N165  1  0.66432763  0.67764495  0.36184787  1
  N  N166  1  -0.00028622  -0.00323601  0.91209273  1
  N  N167  1  0.00811954  0.68876415  0.34698891  1
  N  N168  1  0.83576331  0.14353402  0.34878923  1
  N  N169  1  0.32770935  0.65698960  0.86440469  1
  N  N170  1  0.00170602  0.01763750  0.66719309  1
  N  N171  1  0.17294116  0.16177076  0.10607366  1
  N  N172  1  -0.00382821  0.32608636  0.09762089  1
  N  N173  1  0.16936641  0.81795369  0.16169556  1
  N  N174  1  0.00494081  0.68858579  0.58877307  1
  N  N175  1  -0.00157230  0.68416346  0.11084969  1
  N  N176  1  0.66444003  0.68841384  0.59939223  1
  O  O177  1  0.33784673  0.68907189  0.09169557  1
  O  O178  1  0.17013045  0.14073622  0.36519513  1
  O  O179  1  0.83300572  0.84168798  0.41495519  1
  O  O180  1  0.67036492  0.32629836  0.09506817  1
  O  O181  1  0.48377180  0.18012358  0.60170066  1
  O  O182  1  0.33979402  -0.02111323  0.12076044  1
  O  O183  1  0.49891111  0.14042302  0.35868569  1
  O  O184  1  0.50541523  0.50764847  0.86669875  1
  O  O185  1  -0.00197011  0.30600317  0.59145837  1
  O  O186  1  0.82956470  0.83026333  0.91247800  1
  O  O187  1  0.50131814  0.18804835  0.10571110  1
  O  O188  1  0.66421520  -0.00647629  0.40448814  1
  O  O189  1  0.49976813  0.88680616  0.42842906  1
  O  O190  1  0.49846883  0.82619311  0.15737034  1
  O  O191  1  0.17165074  0.87517352  0.42682371  1
  O  O192  1  0.50240153  0.47283504  0.61891350  1
  O  O193  1  0.33174698  -0.04000498  0.41103338  1
  O  O194  1  0.66771381  0.00554957  0.89843706  1
  O  O195  1  0.16031887  0.80442014  0.92501487  1
  O  O196  1  -0.00256117  0.36577527  0.85265190  1
  O  O197  1  0.33306702  0.68835756  0.60829869  1
  O  O198  1  0.33125612  0.01408948  0.89312491  1
  O  O199  1  0.66220062  0.69112487  0.10950724  1
  O  O200  1  0.83370113  0.47198335  0.61640600  1
  O  O201  1  0.33262869  0.62565067  0.36249169  1
  O  O202  1  0.16072893  0.21425015  0.60163343  1
  O  O203  1  0.32683509  0.31132151  0.59763863  1
  O  O204  1  0.82949964  0.53495720  0.85475836  1
  O  O205  1  0.83315659  0.49157661  0.35663526  1
  O  O206  1  0.33118333  0.03644224  0.66114372  1
  O  O207  1  0.16290701  0.46792437  0.12785493  1
  O  O208  1  0.00032069  0.62354550  0.87268022  1
  O  O209  1  0.16346234  0.14253776  0.85062275  1
  O  O210  1  0.49700832  0.81198676  0.67605553  1
  O  O211  1  0.83461398  0.14175105  0.86028716  1
  O  O212  1  0.66135528  0.36490951  0.84828114  1
  O  O213  1  0.16930996  0.80935447  0.69266497  1
  O  O214  1  0.84304682  0.21161084  0.60553534  1
  O  O215  1  0.83237490  0.47342641  0.13606425  1
