# generated using pymatgen
data_Sr24Ta24N11O13
_symmetry_space_group_name_H-M   'P 1'
_cell_length_a   17.11722936
_cell_length_b   16.66635330
_cell_length_c   15.55716233
_cell_angle_alpha   90.58177409
_cell_angle_beta   89.11379962
_cell_angle_gamma   89.43921880
_symmetry_Int_Tables_number   1
_chemical_formula_structural   Sr24Ta24N11O13
_chemical_formula_sum   'Sr72 Ta72 N33 O39'
_cell_volume   4437.19603252
_cell_formula_units_Z   3
loop_
 _symmetry_equiv_pos_site_id
 _symmetry_equiv_pos_as_xyz
  1  'x, y, z'
loop_
 _atom_site_type_symbol
 _atom_site_label
 _atom_site_symmetry_multiplicity
 _atom_site_fract_x
 _atom_site_fract_y
 _atom_site_fract_z
 _atom_site_occupancy
  Sr  Sr0  1  0.00444524  0.16398694  0.12366336  1
  Sr  Sr1  1  0.03919523  0.15965331  0.59620466  1
  Sr  Sr2  1  0.02051477  0.50743781  0.15188527  1
  Sr  Sr3  1  -0.00459865  0.49537431  0.60585743  1
  Sr  Sr4  1  0.04204043  0.84231738  0.10198560  1
  Sr  Sr5  1  -0.00227757  0.84662958  0.64251548  1
  Sr  Sr6  1  0.36407742  0.17683476  0.09870137  1
  Sr  Sr7  1  0.34663466  0.17589422  0.64446840  1
  Sr  Sr8  1  0.32727627  0.49618377  0.11835470  1
  Sr  Sr9  1  0.39582490  0.49889809  0.61024783  1
  Sr  Sr10  1  0.33611543  0.85953366  0.18262727  1
  Sr  Sr11  1  0.33998051  0.84027278  0.61848426  1
  Sr  Sr12  1  0.68060014  0.16008834  0.15806696  1
  Sr  Sr13  1  0.67228307  0.18216611  0.60522657  1
  Sr  Sr14  1  0.70269346  0.48661609  0.08818177  1
  Sr  Sr15  1  0.65146628  0.52594119  0.65809477  1
  Sr  Sr16  1  0.70875302  0.82984445  0.13994904  1
  Sr  Sr17  1  0.67548878  0.81952927  0.58600407  1
  Sr  Sr18  1  0.17309075  0.00402772  0.14057990  1
  Sr  Sr19  1  0.15799503  -0.01089672  0.57905572  1
  Sr  Sr20  1  0.13972507  0.33543027  0.16633011  1
  Sr  Sr21  1  0.15788927  0.32523098  0.62628187  1
  Sr  Sr22  1  0.15675033  0.64836575  0.10081627  1
  Sr  Sr23  1  0.11660147  0.66404919  0.65657173  1
  Sr  Sr24  1  0.49703607  -0.00885419  0.10091618  1
  Sr  Sr25  1  0.48768705  0.01021474  0.65994469  1
  Sr  Sr26  1  0.53492896  0.32496523  0.14567942  1
  Sr  Sr27  1  0.49608446  0.32514571  0.57624670  1
  Sr  Sr28  1  0.43972205  0.68373000  0.15962221  1
  Sr  Sr29  1  0.51394348  0.67337777  0.61694727  1
  Sr  Sr30  1  0.81645807  0.00612631  0.15240024  1
  Sr  Sr31  1  0.80846648  -0.00191101  0.62539635  1
  Sr  Sr32  1  0.85032636  0.32229899  0.07469654  1
  Sr  Sr33  1  0.80960142  0.34487402  0.63072705  1
  Sr  Sr34  1  0.82812044  0.65228621  0.14805301  1
  Sr  Sr35  1  0.79847874  0.66864972  0.60255223  1
  Sr  Sr36  1  0.02395955  0.16294282  0.35724514  1
  Sr  Sr37  1  0.00361696  0.16893530  0.89471039  1
  Sr  Sr38  1  -0.00661853  0.49651867  0.38413729  1
  Sr  Sr39  1  0.03046492  0.50006039  0.83217750  1
  Sr  Sr40  1  0.03415297  0.84736960  0.39495392  1
  Sr  Sr41  1  0.00768617  0.83083783  0.86628090  1
  Sr  Sr42  1  0.36935102  0.19080541  0.38362527  1
  Sr  Sr43  1  0.33427745  0.16407737  0.87489428  1
  Sr  Sr44  1  0.36756841  0.50238649  0.37890091  1
  Sr  Sr45  1  0.33789907  0.50833057  0.89116639  1
  Sr  Sr46  1  0.33375786  0.83586118  0.38903546  1
  Sr  Sr47  1  0.33839554  0.81756732  0.83176047  1
  Sr  Sr48  1  0.67487604  0.17314320  0.38262531  1
  Sr  Sr49  1  0.68426566  0.14450100  0.82071840  1
  Sr  Sr50  1  0.68240734  0.49952850  0.30172755  1
  Sr  Sr51  1  0.66189302  0.49215817  0.88099727  1
  Sr  Sr52  1  0.68088768  0.82333361  0.36950906  1
  Sr  Sr53  1  0.62531773  0.85569113  0.95559615  1
  Sr  Sr54  1  0.17572816  -0.00706778  0.36661797  1
  Sr  Sr55  1  0.14683562  0.00378452  0.91772675  1
  Sr  Sr56  1  0.14233543  0.33700914  0.38827374  1
  Sr  Sr57  1  0.16495688  0.31794658  0.83290811  1
  Sr  Sr58  1  0.13784794  0.64156425  0.39961114  1
  Sr  Sr59  1  0.16426351  0.66826683  0.87651407  1
  Sr  Sr60  1  0.48443574  -0.01456779  0.35654449  1
  Sr  Sr61  1  0.49654214  0.01368116  0.87556836  1
  Sr  Sr62  1  0.51538079  0.33302397  0.35421743  1
  Sr  Sr63  1  0.46221246  0.33688026  0.94629303  1
  Sr  Sr64  1  0.47680707  0.67709927  0.38276504  1
  Sr  Sr65  1  0.48935867  0.64477245  0.84110669  1
  Sr  Sr66  1  0.80194028  0.00488947  0.37564991  1
  Sr  Sr67  1  0.82980367  -0.00508712  0.84846677  1
  Sr  Sr68  1  0.82495909  0.33111259  0.40519171  1
  Sr  Sr69  1  0.82438193  0.33645942  0.86228207  1
  Sr  Sr70  1  0.83300313  0.66311753  0.36184258  1
  Sr  Sr71  1  0.78316604  0.67211414  0.92460776  1
  Ta  Ta72  1  0.17263391  0.19705866  0.00840845  1
  Ta  Ta73  1  0.21729543  0.17027428  0.49299861  1
  Ta  Ta74  1  0.16246886  0.46470264  -0.01419940  1
  Ta  Ta75  1  0.20665491  0.49675129  0.52468438  1
  Ta  Ta76  1  0.23313954  0.82542492  0.01176430  1
  Ta  Ta77  1  0.17652391  0.79344605  0.51350393  1
  Ta  Ta78  1  0.55493573  0.16706016  -0.00356033  1
  Ta  Ta79  1  0.50645445  0.12743925  0.49800117  1
  Ta  Ta80  1  0.50580488  0.53108427  0.01901879  1
  Ta  Ta81  1  0.56459254  0.50822153  0.45667835  1
  Ta  Ta82  1  0.43842492  0.81434261  0.00624347  1
  Ta  Ta83  1  0.50681681  0.86393222  0.49398317  1
  Ta  Ta84  1  0.81973775  0.14313554  -0.00324465  1
  Ta  Ta85  1  0.86769285  0.16272867  0.50206731  1
  Ta  Ta86  1  0.89839327  0.50670117  -0.00416453  1
  Ta  Ta87  1  0.77259369  0.50675204  0.48711068  1
  Ta  Ta88  1  0.86360371  0.85014773  0.00468558  1
  Ta  Ta89  1  0.86459721  0.83860657  0.49311406  1
  Ta  Ta90  1  0.21952818  0.17797482  0.26354302  1
  Ta  Ta91  1  0.16853682  0.12307931  0.74413504  1
  Ta  Ta92  1  0.19587070  0.49901870  0.27349670  1
  Ta  Ta93  1  0.21555229  0.49638571  0.73069553  1
  Ta  Ta94  1  0.16869851  0.78930768  0.25839941  1
  Ta  Ta95  1  0.17046234  0.87726360  0.75284124  1
  Ta  Ta96  1  0.50895186  0.13647102  0.25483412  1
  Ta  Ta97  1  0.50660829  0.23336769  0.75771843  1
  Ta  Ta98  1  0.51954551  0.52314641  0.21443571  1
  Ta  Ta99  1  0.49959583  0.43471815  0.77743356  1
  Ta  Ta100  1  0.53090670  0.83200130  0.23918315  1
  Ta  Ta101  1  0.52220923  0.83618515  0.75611081  1
  Ta  Ta102  1  0.84891183  0.19168106  0.25265014  1
  Ta  Ta103  1  0.88056131  0.16887008  0.72734116  1
  Ta  Ta104  1  0.84971391  0.45571160  0.23883213  1
  Ta  Ta105  1  0.84054298  0.51951760  0.74944302  1
  Ta  Ta106  1  0.89040152  0.83895381  0.26389918  1
  Ta  Ta107  1  0.81340559  0.81674199  0.74830025  1
  Ta  Ta108  1  -0.01977159  -0.01126072  0.26579700  1
  Ta  Ta109  1  0.01797960  0.02165395  0.74218995  1
  Ta  Ta110  1  -0.04459013  0.33218699  0.24652116  1
  Ta  Ta111  1  -0.01813725  0.31141753  0.74369684  1
  Ta  Ta112  1  0.00666122  0.70152758  0.25035134  1
  Ta  Ta113  1  -0.07601680  0.66528476  0.75447525  1
  Ta  Ta114  1  0.34115814  0.04685241  0.24979412  1
  Ta  Ta115  1  0.28547219  0.00048371  0.75072727  1
  Ta  Ta116  1  0.31011317  0.33504628  0.25687834  1
  Ta  Ta117  1  0.35564233  0.34978731  0.74985318  1
  Ta  Ta118  1  0.28235862  0.65112192  0.26416840  1
  Ta  Ta119  1  0.30342644  0.64504702  0.72088280  1
  Ta  Ta120  1  0.63244551  -0.00940518  0.24653018  1
  Ta  Ta121  1  0.65969110  -0.06914749  0.76115899  1
  Ta  Ta122  1  0.72273293  0.32807167  0.23877251  1
  Ta  Ta123  1  0.63394244  0.33591616  0.74753976  1
  Ta  Ta124  1  0.62470481  0.66796514  0.22131641  1
  Ta  Ta125  1  0.66072110  0.74306633  0.78138268  1
  Ta  Ta126  1  -0.04419950  -0.00185183  0.00344512  1
  Ta  Ta127  1  -0.03590336  0.00344698  0.49297593  1
  Ta  Ta128  1  0.03316094  0.35350669  -0.00164340  1
  Ta  Ta129  1  -0.02315409  0.31065290  0.49550597  1
  Ta  Ta130  1  -0.03042930  0.66695948  -0.00168926  1
  Ta  Ta131  1  -0.02512526  0.69646341  0.50392339  1
  Ta  Ta132  1  0.32777897  -0.03101402  0.00235068  1
  Ta  Ta133  1  0.35008969  0.02372758  0.49479969  1
  Ta  Ta134  1  0.26553466  0.33227744  0.00209983  1
  Ta  Ta135  1  0.30681350  0.33956962  0.50371726  1
  Ta  Ta136  1  0.33092236  0.68723081  -0.00252809  1
  Ta  Ta137  1  0.29125209  0.65497654  0.52709946  1
  Ta  Ta138  1  0.67770878  0.03645108  -0.00108368  1
  Ta  Ta139  1  0.62339046  -0.00270073  0.49901870  1
  Ta  Ta140  1  0.67227488  0.27801565  -0.00685217  1
  Ta  Ta141  1  0.66215667  0.38115441  0.48170344  1
  Ta  Ta142  1  0.59778944  0.66937720  0.03321041  1
  Ta  Ta143  1  0.66068378  0.62915697  0.44552253  1
  N  N144  1  0.66535477  -0.00875598  0.11418855  1
  N  N145  1  0.33360957  0.01076669  0.12201287  1
  N  N146  1  0.18155744  0.82052512  0.38356000  1
  N  N147  1  0.67324312  0.33668842  0.35428163  1
  N  N148  1  0.68951335  0.66015869  0.10246686  1
  N  N149  1  0.85626934  0.49329745  0.11085267  1
  N  N150  1  0.82033115  0.17171482  0.62419800  1
  N  N151  1  0.34192740  0.33542326  0.62375390  1
  N  N152  1  0.50526060  0.48620933  0.90304501  1
  N  N153  1  0.33309281  0.00268352  0.37388143  1
  N  N154  1  0.17130322  0.16390766  0.37752408  1
  N  N155  1  0.47980644  0.83566524  0.12304139  1
  N  N156  1  0.50397047  0.82971009  0.37353061  1
  N  N157  1  0.02115008  0.00565208  0.38280173  1
  N  N158  1  0.18094815  0.48964948  0.86120597  1
  N  N159  1  0.16182235  0.83624677  0.63386687  1
  N  N160  1  0.83633741  0.16406047  0.37548989  1
  N  N161  1  0.66412590  -0.01118285  0.87182536  1
  N  N162  1  0.65403343  -0.00479781  0.37729096  1
  N  N163  1  0.19081581  0.82557130  0.13203310  1
  N  N164  1  0.00372949  0.00266512  0.62018859  1
  N  N165  1  0.82807242  0.83405753  0.62309231  1
  N  N166  1  -0.00971761  0.33471905  0.37595911  1
  N  N167  1  0.18714624  0.15640798  0.62469364  1
  N  N168  1  -0.00015513  0.33372689  0.11692501  1
  N  N169  1  0.82915070  0.83144642  0.36917266  1
  N  N170  1  0.17124625  0.49114701  0.39599549  1
  N  N171  1  0.68792376  0.66513659  0.32239009  1
  N  N172  1  0.14270648  0.49019911  0.63348664  1
  N  N173  1  0.83899861  0.16134681  0.11794951  1
  N  N174  1  0.51574395  0.49971651  0.33473237  1
  N  N175  1  0.68742377  0.32150238  0.10838343  1
  N  N176  1  0.51905529  0.16926956  0.38066404  1
  O  O177  1  0.65760124  -0.03006126  0.63257680  1
  O  O178  1  0.47086133  0.45462077  0.11313275  1
  O  O179  1  0.65619459  0.67943995  0.67793990  1
  O  O180  1  0.17107234  0.49286073  0.13405531  1
  O  O181  1  0.17576170  0.17868024  0.13561460  1
  O  O182  1  0.00372638  0.68264437  0.11830366  1
  O  O183  1  0.63619767  0.70683577  0.90731630  1
  O  O184  1  -0.04208786  0.67349014  0.62616599  1
  O  O185  1  0.48589135  0.83403948  0.88090953  1
  O  O186  1  0.80493361  0.51098321  0.62384007  1
  O  O187  1  -0.02837583  0.00353279  0.13062209  1
  O  O188  1  0.50775527  0.83429579  0.62397524  1
  O  O189  1  0.85462368  0.49396754  0.87160014  1
  O  O190  1  0.30310403  0.33948198  0.13007191  1
  O  O191  1  0.83778595  0.15288027  0.85148362  1
  O  O192  1  0.30689572  0.65312760  0.39173703  1
  O  O193  1  0.64933328  0.34515242  0.61696438  1
  O  O194  1  -0.01378924  0.00832013  0.87730888  1
  O  O195  1  -0.00218859  0.33632181  0.62318513  1
  O  O196  1  0.33413427  -0.00052847  0.62877004  1
  O  O197  1  0.52693727  0.17256985  0.86526212  1
  O  O198  1  -0.00833988  0.67728748  0.37401531  1
  O  O199  1  0.84608687  0.83868301  0.88073709  1
  O  O200  1  0.52297083  0.16772222  0.12863157  1
  O  O201  1  -0.05538928  0.68037370  0.87403203  1
  O  O202  1  0.36888858  0.68297981  0.62140551  1
  O  O203  1  0.32188518  0.00556288  0.87654812  1
  O  O204  1  0.31618097  0.32604330  0.88075991  1
  O  O205  1  0.50998780  0.53692469  0.71207103  1
  O  O206  1  0.85890923  0.83796439  0.13275009  1
  O  O207  1  0.83073218  0.49771416  0.37291780  1
  O  O208  1  -0.00104701  0.32321235  0.87088278  1
  O  O209  1  0.35394945  0.34841495  0.37516486  1
  O  O210  1  0.31652625  0.66340407  0.85492052  1
  O  O211  1  0.67152065  0.33415179  0.87366015  1
  O  O212  1  0.50184020  0.18340166  0.62988318  1
  O  O213  1  0.30187287  0.65101677  0.12981883  1
  O  O214  1  0.18927935  0.82838748  0.87214943  1
  O  O215  1  0.16879787  0.16498435  0.88074914  1
