# generated using pymatgen
data_Sr24Ta24N11O13
_symmetry_space_group_name_H-M   'P 1'
_cell_length_a   16.73899462
_cell_length_b   16.80797637
_cell_length_c   15.73275365
_cell_angle_alpha   89.88161717
_cell_angle_beta   89.84523076
_cell_angle_gamma   89.95431688
_symmetry_Int_Tables_number   1
_chemical_formula_structural   Sr24Ta24N11O13
_chemical_formula_sum   'Sr72 Ta72 N33 O39'
_cell_volume   4426.36163792
_cell_formula_units_Z   3
loop_
 _symmetry_equiv_pos_site_id
 _symmetry_equiv_pos_as_xyz
  1  'x, y, z'
loop_
 _atom_site_type_symbol
 _atom_site_label
 _atom_site_symmetry_multiplicity
 _atom_site_fract_x
 _atom_site_fract_y
 _atom_site_fract_z
 _atom_site_occupancy
  Sr  Sr0  1  0.00073545  0.16830362  0.16907696  1
  Sr  Sr1  1  -0.00647920  0.16648452  0.61378878  1
  Sr  Sr2  1  -0.00833167  0.49853100  0.12242023  1
  Sr  Sr3  1  0.00250856  0.52929971  0.63056755  1
  Sr  Sr4  1  0.01001022  0.83689208  0.13090677  1
  Sr  Sr5  1  -0.00146381  0.83688657  0.58792515  1
  Sr  Sr6  1  0.32369137  0.15537902  0.13343426  1
  Sr  Sr7  1  0.34909749  0.18335895  0.57781532  1
  Sr  Sr8  1  0.34608969  0.50585834  0.11865183  1
  Sr  Sr9  1  0.32749371  0.48664231  0.67337414  1
  Sr  Sr10  1  0.34496964  0.83506541  0.08622127  1
  Sr  Sr11  1  0.31981227  0.84391752  0.64063771  1
  Sr  Sr12  1  0.66614190  0.16395666  0.11006874  1
  Sr  Sr13  1  0.64145689  0.18784386  0.67021610  1
  Sr  Sr14  1  0.66855749  0.53515451  0.08641010  1
  Sr  Sr15  1  0.66514861  0.50923036  0.61955170  1
  Sr  Sr16  1  0.65490557  0.82368738  0.17175245  1
  Sr  Sr17  1  0.67538957  0.86241931  0.62084224  1
  Sr  Sr18  1  0.17466832  -0.00299068  0.11193251  1
  Sr  Sr19  1  0.16469021  0.00324227  0.66246493  1
  Sr  Sr20  1  0.17665804  0.34294622  0.07748824  1
  Sr  Sr21  1  0.16340304  0.31958947  0.62492306  1
  Sr  Sr22  1  0.16588778  0.64802307  0.16535008  1
  Sr  Sr23  1  0.15814270  0.68305511  0.60965338  1
  Sr  Sr24  1  0.52203077  -0.00473210  0.13766621  1
  Sr  Sr25  1  0.49204606  -0.00112144  0.62013555  1
  Sr  Sr26  1  0.50486498  0.31989577  0.14537306  1
  Sr  Sr27  1  0.49976247  0.34276463  0.62993436  1
  Sr  Sr28  1  0.49258746  0.66489060  0.12765340  1
  Sr  Sr29  1  0.49739421  0.65944155  0.59278828  1
  Sr  Sr30  1  0.83163604  0.00149595  0.09447379  1
  Sr  Sr31  1  0.85268162  -0.00632019  0.61466395  1
  Sr  Sr32  1  0.83802455  0.30800731  0.15033272  1
  Sr  Sr33  1  0.83138376  0.31948173  0.61621497  1
  Sr  Sr34  1  0.84230301  0.67394060  0.11611070  1
  Sr  Sr35  1  0.81396648  0.65377095  0.66089026  1
  Sr  Sr36  1  -0.01542368  0.17119678  0.38915420  1
  Sr  Sr37  1  0.01255927  0.16027961  0.82391110  1
  Sr  Sr38  1  0.00219873  0.51097833  0.36030091  1
  Sr  Sr39  1  -0.01015329  0.51498037  0.88722797  1
  Sr  Sr40  1  0.01509796  0.83544844  0.36631247  1
  Sr  Sr41  1  -0.01007911  0.84269422  0.92011337  1
  Sr  Sr42  1  0.33132477  0.15656015  0.36513189  1
  Sr  Sr43  1  0.29738503  0.16600012  0.91996268  1
  Sr  Sr44  1  0.34426213  0.50859703  0.33159314  1
  Sr  Sr45  1  0.33283287  0.49117102  0.88178027  1
  Sr  Sr46  1  0.33852320  0.81967346  0.41803228  1
  Sr  Sr47  1  0.32879671  0.83897840  0.86704478  1
  Sr  Sr48  1  0.66368412  0.19183962  0.33028081  1
  Sr  Sr49  1  0.66333082  0.16348998  0.89355504  1
  Sr  Sr50  1  0.66333845  0.50185815  0.41781933  1
  Sr  Sr51  1  0.67343806  0.52518486  0.87448837  1
  Sr  Sr52  1  0.66595990  0.85030450  0.37594530  1
  Sr  Sr53  1  0.68367133  0.83881276  0.82862567  1
  Sr  Sr54  1  0.15827028  0.01184511  0.32351530  1
  Sr  Sr55  1  0.17395224  -0.01108794  0.88603918  1
  Sr  Sr56  1  0.16574810  0.31527499  0.41258549  1
  Sr  Sr57  1  0.16662062  0.33163578  0.87299078  1
  Sr  Sr58  1  0.16385609  0.67642613  0.38681739  1
  Sr  Sr59  1  0.17933217  0.65908123  0.82809355  1
  Sr  Sr60  1  0.49842482  -0.00482655  0.38387267  1
  Sr  Sr61  1  0.51715347  -0.00865733  0.85044970  1
  Sr  Sr62  1  0.49194403  0.33325316  0.37232849  1
  Sr  Sr63  1  0.51136458  0.32957784  0.84985532  1
  Sr  Sr64  1  0.49945623  0.66408016  0.37252906  1
  Sr  Sr65  1  0.48668336  0.65193627  0.92025985  1
  Sr  Sr66  1  0.84106742  -0.01223969  0.41441986  1
  Sr  Sr67  1  0.84165636  -0.00567460  0.88456893  1
  Sr  Sr68  1  0.83284658  0.33096461  0.37196312  1
  Sr  Sr69  1  0.83173818  0.30290915  0.86783657  1
  Sr  Sr70  1  0.82171136  0.66697158  0.34887160  1
  Sr  Sr71  1  0.83604953  0.66647743  0.88535702  1
  Ta  Ta72  1  0.10717530  0.17111351  0.00325170  1
  Ta  Ta73  1  0.16857059  0.12200102  0.49580209  1
  Ta  Ta74  1  0.16603848  0.53589752  -0.00483560  1
  Ta  Ta75  1  0.19800586  0.49423949  0.50147942  1
  Ta  Ta76  1  0.17046703  0.78631270  -0.00071500  1
  Ta  Ta77  1  0.16793258  0.88161447  0.49654141  1
  Ta  Ta78  1  0.47833403  0.16549713  -0.00856674  1
  Ta  Ta79  1  0.54418587  0.17144245  0.49813535  1
  Ta  Ta80  1  0.50859933  0.45779312  -0.00119797  1
  Ta  Ta81  1  0.46032450  0.49444782  0.50439009  1
  Ta  Ta82  1  0.53143895  0.84073424  0.00243443  1
  Ta  Ta83  1  0.51969461  0.82504943  0.49890912  1
  Ta  Ta84  1  0.89929169  0.16647277  -0.00016307  1
  Ta  Ta85  1  0.77965336  0.16553816  0.49596905  1
  Ta  Ta86  1  0.82512245  0.44935088  0.00399855  1
  Ta  Ta87  1  0.85442732  0.50345244  0.49973592  1
  Ta  Ta88  1  0.78919093  0.83268401  0.00632768  1
  Ta  Ta89  1  0.82434255  0.79112113  0.50117435  1
  Ta  Ta90  1  0.16820261  0.21650766  0.24075878  1
  Ta  Ta91  1  0.21519018  0.16806293  0.74652719  1
  Ta  Ta92  1  0.17142499  0.45525342  0.24724560  1
  Ta  Ta93  1  0.13960206  0.47879794  0.75331556  1
  Ta  Ta94  1  0.21419958  0.83182506  0.25172348  1
  Ta  Ta95  1  0.12003414  0.83430857  0.74895395  1
  Ta  Ta96  1  0.49233286  0.15003183  0.24407732  1
  Ta  Ta97  1  0.45141830  0.16306337  0.76108619  1
  Ta  Ta98  1  0.54072220  0.49952149  0.24462899  1
  Ta  Ta99  1  0.50860271  0.52609236  0.75419962  1
  Ta  Ta100  1  0.46156616  0.83107234  0.25123559  1
  Ta  Ta101  1  0.49515379  0.79434831  0.75346099  1
  Ta  Ta102  1  0.82998499  0.11762698  0.25833791  1
  Ta  Ta103  1  0.82333278  0.13990886  0.74655732  1
  Ta  Ta104  1  0.79416188  0.49870529  0.25222258  1
  Ta  Ta105  1  0.83727625  0.46644666  0.74572884  1
  Ta  Ta106  1  0.83797821  0.86639013  0.24857728  1
  Ta  Ta107  1  0.87585157  0.83682463  0.75008617  1
  Ta  Ta108  1  -0.03879821  -0.00383495  0.25362453  1
  Ta  Ta109  1  -0.00542089  -0.03482964  0.75533524  1
  Ta  Ta110  1  0.04606546  0.34104209  0.24614352  1
  Ta  Ta111  1  -0.00421310  0.36572196  0.75028438  1
  Ta  Ta112  1  -0.00798760  0.67300714  0.24588637  1
  Ta  Ta113  1  -0.00510666  0.71044596  0.75339331  1
  Ta  Ta114  1  0.34327040  -0.03394717  0.25293024  1
  Ta  Ta115  1  0.33525281  0.04486386  0.75416160  1
  Ta  Ta116  1  0.29889667  0.33198942  0.24676685  1
  Ta  Ta117  1  0.32972449  0.29368803  0.75220210  1
  Ta  Ta118  1  0.33269805  0.70333957  0.24688912  1
  Ta  Ta119  1  0.37608486  0.66591534  0.75482194  1
  Ta  Ta120  1  0.70352058  0.00888984  0.25595912  1
  Ta  Ta121  1  0.69973561  0.02385810  0.75091573  1
  Ta  Ta122  1  0.66563161  0.38462484  0.25269954  1
  Ta  Ta123  1  0.68290184  0.36540401  0.74619840  1
  Ta  Ta124  1  0.66018885  0.63038157  0.25557334  1
  Ta  Ta125  1  0.61451920  0.67371822  0.75468358  1
  Ta  Ta126  1  0.00723942  0.03542792  0.00066657  1
  Ta  Ta127  1  0.04860744  0.00507318  0.49266417  1
  Ta  Ta128  1  -0.01323947  0.31257532  0.00495353  1
  Ta  Ta129  1  -0.00894374  0.36858382  0.50037447  1
  Ta  Ta130  1  0.04744525  0.66978497  -0.00453511  1
  Ta  Ta131  1  -0.04995949  0.66893269  0.50411658  1
  Ta  Ta132  1  0.37830531  0.00864994  -0.00755216  1
  Ta  Ta133  1  0.28708003  0.00111174  0.49488787  1
  Ta  Ta134  1  0.37298608  0.32622001  -0.00523809  1
  Ta  Ta135  1  0.33032698  0.38164935  0.50592392  1
  Ta  Ta136  1  0.29027353  0.66543121  -0.00066402  1
  Ta  Ta137  1  0.32571498  0.60656300  0.50379760  1
  Ta  Ta138  1  0.66418002  -0.04667767  -0.00494252  1
  Ta  Ta139  1  0.66133039  0.04888961  0.49681013  1
  Ta  Ta140  1  0.66899069  0.35533718  0.00253272  1
  Ta  Ta141  1  0.66165795  0.30734702  0.49862623  1
  Ta  Ta142  1  0.66034508  0.72403754  -0.00548797  1
  Ta  Ta143  1  0.67825543  0.69469073  0.49921978  1
  N  N144  1  0.00204199  0.67517731  0.87933044  1
  N  N145  1  0.66220580  0.34697243  0.37650353  1
  N  N146  1  0.82574689  0.83517028  0.12939843  1
  N  N147  1  0.16377552  0.49850736  0.87412683  1
  N  N148  1  0.50482667  0.16046609  0.12415796  1
  N  N149  1  0.66206284  0.66897611  0.37590803  1
  N  N150  1  0.15611614  0.17614296  0.11924027  1
  N  N151  1  0.82604694  0.49951617  0.37125240  1
  N  N152  1  0.00459347  0.33680668  0.12661552  1
  N  N153  1  0.82837899  0.49739703  0.62572013  1
  N  N154  1  0.50356312  0.49661690  0.87785813  1
  N  N155  1  0.67073665  0.00833855  0.37698991  1
  N  N156  1  0.33036906  0.33539025  0.62304542  1
  N  N157  1  0.49344241  0.50004878  0.62381263  1
  N  N158  1  0.33746571  -0.00057829  0.87744000  1
  N  N159  1  0.82527730  0.15881895  0.38010212  1
  N  N160  1  0.15744977  0.84321922  0.62970962  1
  N  N161  1  0.50695293  0.49716487  0.12316303  1
  N  N162  1  -0.01501760  0.67919270  0.62449766  1
  N  N163  1  0.32693998  -0.00519525  0.37327256  1
  N  N164  1  0.50197193  0.82879389  0.37739583  1
  N  N165  1  0.65768241  0.68338662  0.87415453  1
  N  N166  1  0.50058471  0.82964136  0.12665183  1
  N  N167  1  0.00346135  0.67085132  0.12562015  1
  N  N168  1  0.33404444  0.66286071  0.87121034  1
  N  N169  1  0.66525224  0.34389960  0.62675300  1
  N  N170  1  0.32902679  0.66930425  0.12680073  1
  N  N171  1  0.17557079  0.84041270  0.36766736  1
  N  N172  1  0.00729053  0.00006316  0.87392414  1
  N  N173  1  0.00320188  0.00402543  0.37147550  1
  N  N174  1  0.51179210  0.16305635  0.86740983  1
  N  N175  1  0.67531204  -0.00400842  0.87404466  1
  N  N176  1  0.33131606  0.32936668  0.87985032  1
  O  O177  1  0.17524261  0.83097046  0.12030839  1
  O  O178  1  0.33988457  0.64247823  0.62668901  1
  O  O179  1  0.32488265  0.65461960  0.38152700  1
  O  O180  1  0.17131299  0.16848497  0.36294253  1
  O  O181  1  0.83510677  0.83415151  0.62564089  1
  O  O182  1  0.31722999  0.34623823  0.37338692  1
  O  O183  1  -0.00310054  0.34426106  0.62137047  1
  O  O184  1  0.67622908  0.00302115  0.11454406  1
  O  O185  1  0.83477933  0.46783328  0.88193418  1
  O  O186  1  0.83458797  0.46774471  0.12892715  1
  O  O187  1  0.15741205  0.17233013  0.86734366  1
  O  O188  1  0.17122331  0.49273861  0.62844245  1
  O  O189  1  0.17753080  0.15917831  0.62427702  1
  O  O190  1  0.49637247  0.16661840  0.62371036  1
  O  O191  1  0.49796075  0.82157267  0.62962809  1
  O  O192  1  0.85216122  0.15595498  0.12164250  1
  O  O193  1  0.65814782  0.01350455  0.63021520  1
  O  O194  1  0.32677919  0.00205428  0.63133819  1
  O  O195  1  0.00334155  -0.00187075  0.12881957  1
  O  O196  1  0.83494546  0.83402767  0.87415110  1
  O  O197  1  -0.01314404  0.66651011  0.37998203  1
  O  O198  1  0.16495375  0.82977180  0.87619725  1
  O  O199  1  0.49453561  0.49381513  0.37031809  1
  O  O200  1  0.50525902  0.17127622  0.37530214  1
  O  O201  1  -0.00626482  0.34450639  0.87300909  1
  O  O202  1  0.82757892  0.83155519  0.37816464  1
  O  O203  1  0.66559066  0.33732730  0.12736903  1
  O  O204  1  0.85804854  0.15238750  0.87260601  1
  O  O205  1  0.32987900  0.33002561  0.12217831  1
  O  O206  1  0.49007513  0.82295047  0.87875214  1
  O  O207  1  0.82956418  0.15424655  0.62023485  1
  O  O208  1  0.65574436  0.67299163  0.62812265  1
  O  O209  1  0.65648772  0.67737991  0.13212178  1
  O  O210  1  0.34595221  -0.00764852  0.11664079  1
  O  O211  1  0.18142524  0.47786773  0.37132228  1
  O  O212  1  0.67148033  0.33884581  0.87642828  1
  O  O213  1  0.16765165  0.49096138  0.12159262  1
  O  O214  1  0.00738354  0.00817996  0.63081109  1
  O  O215  1  0.00840864  0.35359209  0.37554437  1
