# generated using pymatgen
data_Sr24Ta24N11O13
_symmetry_space_group_name_H-M   'P 1'
_cell_length_a   16.76661009
_cell_length_b   16.86226308
_cell_length_c   15.76770768
_cell_angle_alpha   90.11521977
_cell_angle_beta   90.01207382
_cell_angle_gamma   89.83699785
_symmetry_Int_Tables_number   1
_chemical_formula_structural   Sr24Ta24N11O13
_chemical_formula_sum   'Sr72 Ta72 N33 O39'
_cell_volume   4457.86631608
_cell_formula_units_Z   3
loop_
 _symmetry_equiv_pos_site_id
 _symmetry_equiv_pos_as_xyz
  1  'x, y, z'
loop_
 _atom_site_type_symbol
 _atom_site_label
 _atom_site_symmetry_multiplicity
 _atom_site_fract_x
 _atom_site_fract_y
 _atom_site_fract_z
 _atom_site_occupancy
  Sr  Sr0  1  -0.00191901  0.18176984  0.13274966  1
  Sr  Sr1  1  0.00724294  0.17525471  0.58688168  1
  Sr  Sr2  1  0.01866592  0.49936334  0.17255708  1
  Sr  Sr3  1  0.00151700  0.51138757  0.62130496  1
  Sr  Sr4  1  0.00535880  0.83528130  0.11206410  1
  Sr  Sr5  1  -0.00560557  0.85927908  0.66419558  1
  Sr  Sr6  1  0.33273052  0.15143729  0.11291241  1
  Sr  Sr7  1  0.31527324  0.17862536  0.66713162  1
  Sr  Sr8  1  0.32340770  0.50939626  0.08447894  1
  Sr  Sr9  1  0.34092647  0.50283976  0.61431191  1
  Sr  Sr10  1  0.34315942  0.81931128  0.17129535  1
  Sr  Sr11  1  0.32221879  0.84848764  0.60902405  1
  Sr  Sr12  1  0.67145648  0.18176142  0.13050355  1
  Sr  Sr13  1  0.66410884  0.17842919  0.62378409  1
  Sr  Sr14  1  0.65973753  0.49750827  0.12546035  1
  Sr  Sr15  1  0.66455714  0.53109172  0.64393285  1
  Sr  Sr16  1  0.66423962  0.86370979  0.10859443  1
  Sr  Sr17  1  0.66712272  0.84404640  0.60911013  1
  Sr  Sr18  1  0.16250470  -0.01557752  0.08891649  1
  Sr  Sr19  1  0.16772714  0.00304125  0.63167112  1
  Sr  Sr20  1  0.18009439  0.32501485  0.11440525  1
  Sr  Sr21  1  0.16202574  0.33360818  0.64851342  1
  Sr  Sr22  1  0.15995480  0.67031375  0.13442819  1
  Sr  Sr23  1  0.17697256  0.64580518  0.58543404  1
  Sr  Sr24  1  0.48307482  -0.00505264  0.13039207  1
  Sr  Sr25  1  0.51381986  -0.00469985  0.56794380  1
  Sr  Sr26  1  0.51710357  0.32571193  0.16858406  1
  Sr  Sr27  1  0.50497143  0.32610302  0.61380111  1
  Sr  Sr28  1  0.50705603  0.65608679  0.11296345  1
  Sr  Sr29  1  0.49512478  0.67459414  0.66366757  1
  Sr  Sr30  1  0.84401893  -0.02044414  0.12550919  1
  Sr  Sr31  1  0.82177553  -0.00953197  0.66898578  1
  Sr  Sr32  1  0.82250790  0.32519459  0.09028860  1
  Sr  Sr33  1  0.83049908  0.30925154  0.62069881  1
  Sr  Sr34  1  0.82722098  0.62921780  0.14069383  1
  Sr  Sr35  1  0.83245997  0.65703873  0.61710940  1
  Sr  Sr36  1  0.00373308  0.16627156  0.37520863  1
  Sr  Sr37  1  -0.00637922  0.19778295  0.90868067  1
  Sr  Sr38  1  0.00219587  0.52103223  0.38386878  1
  Sr  Sr39  1  0.01159630  0.49554379  0.83451280  1
  Sr  Sr40  1  -0.00858150  0.85191081  0.35337498  1
  Sr  Sr41  1  0.01315641  0.83583274  0.88881375  1
  Sr  Sr42  1  0.33151480  0.18701151  0.33163221  1
  Sr  Sr43  1  0.33114852  0.15097283  0.88369561  1
  Sr  Sr44  1  0.33658865  0.49711577  0.40748956  1
  Sr  Sr45  1  0.33620227  0.51374159  0.88670873  1
  Sr  Sr46  1  0.31983333  0.82972552  0.38418832  1
  Sr  Sr47  1  0.34021032  0.83231439  0.83328752  1
  Sr  Sr48  1  0.65212867  0.18560891  0.40341051  1
  Sr  Sr49  1  0.67948515  0.17846844  0.84875451  1
  Sr  Sr50  1  0.65805586  0.51788925  0.34703717  1
  Sr  Sr51  1  0.67323242  0.50987506  0.89286813  1
  Sr  Sr52  1  0.67240921  0.85050389  0.39151896  1
  Sr  Sr53  1  0.65275477  0.85635297  0.88809165  1
  Sr  Sr54  1  0.15090948  0.00321438  0.41521257  1
  Sr  Sr55  1  0.17987354  -0.01930554  0.85508703  1
  Sr  Sr56  1  0.14801731  0.31816584  0.33939831  1
  Sr  Sr57  1  0.17609464  0.33733944  0.87828489  1
  Sr  Sr58  1  0.16595231  0.66794368  0.36886186  1
  Sr  Sr59  1  0.16619651  0.65758160  0.90499011  1
  Sr  Sr60  1  0.46897201  -0.01211207  0.36475076  1
  Sr  Sr61  1  0.49797826  0.00741992  0.90965667  1
  Sr  Sr62  1  0.50412501  0.33954110  0.38411460  1
  Sr  Sr63  1  0.50888302  0.30262472  0.83407162  1
  Sr  Sr64  1  0.50158146  0.66153058  0.33806563  1
  Sr  Sr65  1  0.50244754  0.65877691  0.87966883  1
  Sr  Sr66  1  0.84011192  -0.00413690  0.33687392  1
  Sr  Sr67  1  0.83446921  -0.02406932  0.87939511  1
  Sr  Sr68  1  0.83280018  0.30524429  0.41391106  1
  Sr  Sr69  1  0.82562313  0.32015992  0.88482392  1
  Sr  Sr70  1  0.82040677  0.65986287  0.39782464  1
  Sr  Sr71  1  0.84523553  0.63719024  0.85648189  1
  Ta  Ta72  1  0.15302719  0.14628332  -0.00525146  1
  Ta  Ta73  1  0.19941304  0.18411333  0.49787711  1
  Ta  Ta74  1  0.12488318  0.49695594  0.00448103  1
  Ta  Ta75  1  0.16594072  0.45492392  0.49036386  1
  Ta  Ta76  1  0.21358149  0.82397220  -0.00408625  1
  Ta  Ta77  1  0.12490935  0.82902139  0.50251723  1
  Ta  Ta78  1  0.51176337  0.18951314  0.00235432  1
  Ta  Ta79  1  0.44156776  0.17098465  0.50174290  1
  Ta  Ta80  1  0.50203713  0.45146395  0.00370625  1
  Ta  Ta81  1  0.51699774  0.52563255  0.49423082  1
  Ta  Ta82  1  0.46394395  0.82781258  0.00411706  1
  Ta  Ta83  1  0.49577816  0.79509595  0.49039094  1
  Ta  Ta84  1  0.82497515  0.13366354  -0.00412452  1
  Ta  Ta85  1  0.83446568  0.11835639  0.50820736  1
  Ta  Ta86  1  0.89103860  0.49532559  0.00180814  1
  Ta  Ta87  1  0.82405763  0.47702806  0.50153716  1
  Ta  Ta88  1  0.83011932  0.78351089  0.00264725  1
  Ta  Ta89  1  0.85152580  0.85680243  0.49921496  1
  Ta  Ta90  1  0.16298716  0.12244563  0.25064994  1
  Ta  Ta91  1  0.12012703  0.16616912  0.74740313  1
  Ta  Ta92  1  0.20835513  0.49511131  0.24894171  1
  Ta  Ta93  1  0.18954672  0.51704663  0.75404815  1
  Ta  Ta94  1  0.15988600  0.86434118  0.25526683  1
  Ta  Ta95  1  0.16557371  0.78126805  0.74956531  1
  Ta  Ta96  1  0.51893265  0.14684847  0.26193579  1
  Ta  Ta97  1  0.49729799  0.12135426  0.73406779  1
  Ta  Ta98  1  0.45677163  0.49497754  0.24466965  1
  Ta  Ta99  1  0.49375122  0.47981270  0.75237125  1
  Ta  Ta100  1  0.53245696  0.83032567  0.24963578  1
  Ta  Ta101  1  0.50912923  0.87290872  0.74168298  1
  Ta  Ta102  1  0.82743711  0.18630936  0.25308665  1
  Ta  Ta103  1  0.87515953  0.16240640  0.75079407  1
  Ta  Ta104  1  0.83547521  0.45714208  0.25400873  1
  Ta  Ta105  1  0.82979389  0.46222267  0.75108605  1
  Ta  Ta106  1  0.82553708  0.80081335  0.25413373  1
  Ta  Ta107  1  0.81778422  0.80364982  0.75310838  1
  Ta  Ta108  1  0.03931451  0.00774080  0.24082306  1
  Ta  Ta109  1  0.00116854  0.04667092  0.75429101  1
  Ta  Ta110  1  -0.05186289  0.33194687  0.25698624  1
  Ta  Ta111  1  -0.01369720  0.31423390  0.74847821  1
  Ta  Ta112  1  -0.02338520  0.68750919  0.25933883  1
  Ta  Ta113  1  0.02786702  0.67635029  0.74872887  1
  Ta  Ta114  1  0.28240133  -0.00313300  0.24927294  1
  Ta  Ta115  1  0.38451622  0.00178749  0.73608263  1
  Ta  Ta116  1  0.33514681  0.37739905  0.24448003  1
  Ta  Ta117  1  0.34345357  0.36517070  0.75344656  1
  Ta  Ta118  1  0.33152239  0.62806379  0.25107321  1
  Ta  Ta119  1  0.30300491  0.65836078  0.75065577  1
  Ta  Ta120  1  0.64958649  0.02252796  0.25604564  1
  Ta  Ta121  1  0.62274466  0.00478944  0.74109631  1
  Ta  Ta122  1  0.70617634  0.33543050  0.25660362  1
  Ta  Ta123  1  0.67582558  0.36771628  0.74776694  1
  Ta  Ta124  1  0.67407073  0.70951851  0.25389253  1
  Ta  Ta125  1  0.67964572  0.70739115  0.74815584  1
  Ta  Ta126  1  -0.00028483  0.03178431  -0.00388422  1
  Ta  Ta127  1  -0.03569426  -0.01042187  0.51001396  1
  Ta  Ta128  1  0.00540338  0.37261676  -0.00090728  1
  Ta  Ta129  1  0.01337841  0.35576082  0.49923483  1
  Ta  Ta130  1  -0.01195391  0.63293757  0.00455964  1
  Ta  Ta131  1  -0.00330799  0.71990219  0.50311293  1
  Ta  Ta132  1  0.33028853  -0.04957812  0.00405459  1
  Ta  Ta133  1  0.32540741  0.04892074  0.50185966  1
  Ta  Ta134  1  0.39193722  0.32503030  0.00244287  1
  Ta  Ta135  1  0.31176412  0.31547155  0.49816634  1
  Ta  Ta136  1  0.33802048  0.70904080  -0.00322936  1
  Ta  Ta137  1  0.37867715  0.66965897  0.49464572  1
  Ta  Ta138  1  0.67300889  0.04013225  -0.00180957  1
  Ta  Ta139  1  0.71546789  0.01032021  0.50431671  1
  Ta  Ta140  1  0.63035189  0.32948751  -0.00211218  1
  Ta  Ta141  1  0.67057048  0.38559510  0.50234340  1
  Ta  Ta142  1  0.68930254  0.69051787  0.00099109  1
  Ta  Ta143  1  0.62752620  0.67092812  0.49848513  1
  N  N144  1  0.16792738  0.49882473  0.12150573  1
  N  N145  1  0.16080389  0.17029342  0.62907333  1
  N  N146  1  0.66638666  0.34627038  0.37614780  1
  N  N147  1  0.17564111  0.82128963  0.86946258  1
  N  N148  1  0.83602036  0.15394794  0.62824905  1
  N  N149  1  0.00355481  0.34681766  0.87678370  1
  N  N150  1  0.33632784  0.00759995  0.62099162  1
  N  N151  1  0.66665673  0.00480074  0.62195235  1
  N  N152  1  0.49716356  0.49120519  0.12406023  1
  N  N153  1  0.16825618  0.16234217  0.37529862  1
  N  N154  1  -0.01198901  0.32933559  0.37497475  1
  N  N155  1  0.49743075  0.50231647  0.37476308  1
  N  N156  1  -0.00282084  0.34005889  0.62530379  1
  N  N157  1  0.49458234  0.16344687  0.61399101  1
  N  N158  1  0.66144872  0.34562768  0.62140106  1
  N  N159  1  0.33880206  0.65929829  0.37391835  1
  N  N160  1  0.66965179  0.33822625  0.12865557  1
  N  N161  1  0.83578600  0.15661927  0.87591653  1
  N  N162  1  0.49155198  0.16550465  0.37899783  1
  N  N163  1  0.66222449  0.68548853  0.62622040  1
  N  N164  1  0.15567546  0.84115815  0.37809751  1
  N  N165  1  0.83009612  0.83554685  0.37738631  1
  N  N166  1  -0.00827220  0.68175654  0.38088709  1
  N  N167  1  0.49684255  0.83332685  0.12430103  1
  N  N168  1  0.33508799  0.67155268  0.87004346  1
  N  N169  1  0.66516381  0.68009412  0.37576598  1
  N  N170  1  0.32167865  -0.01503159  0.12690754  1
  N  N171  1  0.16738834  0.50161551  0.87393904  1
  N  N172  1  0.16820266  0.49057545  0.37338734  1
  N  N173  1  0.66346327  0.33907503  0.87658014  1
  N  N174  1  0.49263343  0.83250327  0.37019932  1
  N  N175  1  0.00036994  0.00600316  0.12023574  1
  N  N176  1  -0.00596088  0.00921332  0.62918695  1
  O  O177  1  0.84633589  0.79461589  0.87949773  1
  O  O178  1  0.50004570  0.49284415  0.87661363  1
  O  O179  1  0.00599097  0.65750488  0.87301767  1
  O  O180  1  0.84522103  0.48295764  0.87783901  1
  O  O181  1  0.34591323  -0.00851855  0.87882599  1
  O  O182  1  0.31417662  0.00581036  0.37558839  1
  O  O183  1  0.83065024  0.16865748  0.12768810  1
  O  O184  1  0.51168511  0.17093594  0.12861493  1
  O  O185  1  0.67474517  0.67567569  0.12427790  1
  O  O186  1  -0.00265823  -0.00749930  0.87282333  1
  O  O187  1  -0.00657860  0.33973476  0.13615099  1
  O  O188  1  0.34334949  0.33493264  0.11969444  1
  O  O189  1  0.83534905  0.15593806  0.37525424  1
  O  O190  1  0.16877646  0.82942887  0.12129443  1
  O  O191  1  -0.01348371  0.65510447  0.12995866  1
  O  O192  1  0.84715078  0.47858123  0.12322605  1
  O  O193  1  0.32646194  0.34243191  0.63036778  1
  O  O194  1  0.16836603  0.15747728  0.87136058  1
  O  O195  1  0.66246120  0.68735548  0.87771144  1
  O  O196  1  0.83677778  0.81732335  0.12344059  1
  O  O197  1  0.16389915  0.82673113  0.62592262  1
  O  O198  1  0.49778363  0.15907017  0.87632081  1
  O  O199  1  0.84229433  0.48283159  0.62927007  1
  O  O200  1  0.49826596  0.85326141  0.87036825  1
  O  O201  1  0.50574692  0.84180701  0.61806952  1
  O  O202  1  0.50057154  0.50153602  0.62853867  1
  O  O203  1  0.35258828  0.34174966  0.87751533  1
  O  O204  1  0.66065687  0.02337315  0.12804205  1
  O  O205  1  0.00668170  0.67405535  0.62454738  1
  O  O206  1  0.68005095  0.01287204  0.37524183  1
  O  O207  1  0.83379397  0.48579079  0.37891540  1
  O  O208  1  0.32814628  0.33636361  0.37250128  1
  O  O209  1  0.82859529  0.82979728  0.63062859  1
  O  O210  1  0.18215425  0.49236665  0.61617657  1
  O  O211  1  0.16844351  0.15537248  0.11934396  1
  O  O212  1  0.65523236  0.02056137  0.87423605  1
  O  O213  1  0.34032029  0.65914795  0.61929858  1
  O  O214  1  -0.00438989  0.00627616  0.36650751  1
  O  O215  1  0.33518818  0.66626619  0.12411729  1
