# generated using pymatgen
data_Sr24Ta24N11O13
_symmetry_space_group_name_H-M   'P 1'
_cell_length_a   20.69155472
_cell_length_b   15.66657976
_cell_length_c   13.40024142
_cell_angle_alpha   90.04556190
_cell_angle_beta   89.34491929
_cell_angle_gamma   89.95262293
_symmetry_Int_Tables_number   1
_chemical_formula_structural   Sr24Ta24N11O13
_chemical_formula_sum   'Sr72 Ta72 N33 O39'
_cell_volume   4343.61441127
_cell_formula_units_Z   3
loop_
 _symmetry_equiv_pos_site_id
 _symmetry_equiv_pos_as_xyz
  1  'x, y, z'
loop_
 _atom_site_type_symbol
 _atom_site_label
 _atom_site_symmetry_multiplicity
 _atom_site_fract_x
 _atom_site_fract_y
 _atom_site_fract_z
 _atom_site_occupancy
  Sr  Sr0  1  -0.04599738  0.16188800  0.16315179  1
  Sr  Sr1  1  0.00788325  0.15690378  0.66332098  1
  Sr  Sr2  1  -0.00609189  0.52781756  0.16968244  1
  Sr  Sr3  1  -0.01738409  0.48822180  0.66880757  1
  Sr  Sr4  1  -0.00982980  0.81525979  0.16451546  1
  Sr  Sr5  1  -0.01551287  0.84813777  0.66390087  1
  Sr  Sr6  1  0.29054102  0.16428539  0.05936804  1
  Sr  Sr7  1  0.29245198  0.16212127  0.56478869  1
  Sr  Sr8  1  0.28544082  0.50170372  0.05882666  1
  Sr  Sr9  1  0.28894380  0.49835427  0.56114905  1
  Sr  Sr10  1  0.28827902  0.83478030  0.05829566  1
  Sr  Sr11  1  0.28864895  0.84120150  0.56324589  1
  Sr  Sr12  1  0.63979243  0.16836460  0.15455734  1
  Sr  Sr13  1  0.62435497  0.16281507  0.66181772  1
  Sr  Sr14  1  0.64393429  0.50841010  0.16440103  1
  Sr  Sr15  1  0.62326027  0.50137063  0.67579229  1
  Sr  Sr16  1  0.63768725  0.82960554  0.15966844  1
  Sr  Sr17  1  0.62827342  0.83241289  0.65806612  1
  Sr  Sr18  1  0.19635134  0.00173220  0.15666026  1
  Sr  Sr19  1  0.17526221  0.00306032  0.65579667  1
  Sr  Sr20  1  0.20174219  0.33221414  0.16052499  1
  Sr  Sr21  1  0.19380257  0.32868306  0.66503086  1
  Sr  Sr22  1  0.18821186  0.66935805  0.15683174  1
  Sr  Sr23  1  0.20330139  0.66935336  0.66038293  1
  Sr  Sr24  1  0.54542983  -0.00138362  0.05785965  1
  Sr  Sr25  1  0.54251281  -0.00157508  0.55597576  1
  Sr  Sr26  1  0.54469271  0.33523000  0.05741561  1
  Sr  Sr27  1  0.53569125  0.33575805  0.55822517  1
  Sr  Sr28  1  0.53460322  0.66767667  0.05072695  1
  Sr  Sr29  1  0.54416670  0.66312433  0.54777655  1
  Sr  Sr30  1  0.85709995  -0.02798398  0.14148494  1
  Sr  Sr31  1  0.85988819  0.00693998  0.64066646  1
  Sr  Sr32  1  0.86341669  0.35220599  0.14692735  1
  Sr  Sr33  1  0.87639725  0.31273141  0.65442598  1
  Sr  Sr34  1  0.83074168  0.67787696  0.15062526  1
  Sr  Sr35  1  0.87557976  0.67155250  0.65714706  1
  Sr  Sr36  1  -0.03409991  0.17111209  0.41398831  1
  Sr  Sr37  1  -0.03602202  0.16519765  0.91271244  1
  Sr  Sr38  1  -0.02935293  0.49686734  0.41276066  1
  Sr  Sr39  1  -0.03323759  0.50211236  0.92068049  1
  Sr  Sr40  1  -0.03691988  0.83045881  0.41571887  1
  Sr  Sr41  1  -0.03560715  0.83308963  0.91595138  1
  Sr  Sr42  1  0.32516471  0.17301904  0.30783302  1
  Sr  Sr43  1  0.31173363  0.16195581  0.81316777  1
  Sr  Sr44  1  0.31993470  0.49559798  0.31012477  1
  Sr  Sr45  1  0.29535609  0.49992159  0.80587355  1
  Sr  Sr46  1  0.31191236  0.83124911  0.31283304  1
  Sr  Sr47  1  0.31485200  0.83856171  0.81209862  1
  Sr  Sr48  1  0.61743637  0.17876712  0.40633524  1
  Sr  Sr49  1  0.61958313  0.16421568  0.90586967  1
  Sr  Sr50  1  0.64030091  0.48836291  0.42796302  1
  Sr  Sr51  1  0.61355560  0.50085594  0.91425150  1
  Sr  Sr52  1  0.61547306  0.82920822  0.40933773  1
  Sr  Sr53  1  0.61369506  0.83451592  0.90318409  1
  Sr  Sr54  1  0.21888475  0.00766047  0.40296682  1
  Sr  Sr55  1  0.21914995  0.00152581  0.90583172  1
  Sr  Sr56  1  0.21518141  0.33141850  0.41160231  1
  Sr  Sr57  1  0.21510915  0.33081251  0.91449156  1
  Sr  Sr58  1  0.22308757  0.66236968  0.40634284  1
  Sr  Sr59  1  0.21563121  0.66784859  0.91032875  1
  Sr  Sr60  1  0.53213173  0.00384772  0.30621108  1
  Sr  Sr61  1  0.51912302  -0.00232830  0.80703974  1
  Sr  Sr62  1  0.50085479  0.34207728  0.30480269  1
  Sr  Sr63  1  0.53232613  0.33040540  0.80672930  1
  Sr  Sr64  1  0.50342328  0.65598079  0.30376357  1
  Sr  Sr65  1  0.52306679  0.66854577  0.80121686  1
  Sr  Sr66  1  0.86296046  0.00081437  0.39146106  1
  Sr  Sr67  1  0.86142617  0.00105950  0.88564642  1
  Sr  Sr68  1  0.85540196  0.33605512  0.41223724  1
  Sr  Sr69  1  0.86426501  0.33447534  0.89521053  1
  Sr  Sr70  1  0.86404887  0.66106294  0.40967163  1
  Sr  Sr71  1  0.86342442  0.66682537  0.89927571  1
  Ta  Ta72  1  0.11622058  0.16770653  0.03721093  1
  Ta  Ta73  1  0.12371826  0.16965039  0.49536131  1
  Ta  Ta74  1  0.12411054  0.49053777  0.01985507  1
  Ta  Ta75  1  0.12825287  0.50322012  0.52752648  1
  Ta  Ta76  1  0.12218208  0.84780984  0.00945415  1
  Ta  Ta77  1  0.12220718  0.82334388  0.50568679  1
  Ta  Ta78  1  0.45130580  0.16677621  -0.05609465  1
  Ta  Ta79  1  0.45196684  0.15965172  0.45859495  1
  Ta  Ta80  1  0.44452285  0.49628075  -0.07677278  1
  Ta  Ta81  1  0.44633388  0.50091891  0.46829667  1
  Ta  Ta82  1  0.45073261  0.83576567  -0.04773982  1
  Ta  Ta83  1  0.45449698  0.83905571  0.44519980  1
  Ta  Ta84  1  0.78259409  0.16805027  0.00416302  1
  Ta  Ta85  1  0.77052547  0.16181806  0.52121020  1
  Ta  Ta86  1  0.77224612  0.49741761  -0.00781112  1
  Ta  Ta87  1  0.78210250  0.50307067  0.56870654  1
  Ta  Ta88  1  0.76863707  0.83539414  -0.00822095  1
  Ta  Ta89  1  0.78254769  0.83169778  0.53372132  1
  Ta  Ta90  1  0.11227741  0.17096534  0.27271398  1
  Ta  Ta91  1  0.12917927  0.16782396  0.81873055  1
  Ta  Ta92  1  0.13177335  0.49408529  0.30026535  1
  Ta  Ta93  1  0.12885668  0.50276990  0.79314695  1
  Ta  Ta94  1  0.12785651  0.84408318  0.29704434  1
  Ta  Ta95  1  0.13271514  0.82659424  0.79712486  1
  Ta  Ta96  1  0.45931273  0.15849743  0.17031470  1
  Ta  Ta97  1  0.45475448  0.16735428  0.68135250  1
  Ta  Ta98  1  0.44500377  0.50216734  0.14409105  1
  Ta  Ta99  1  0.44661399  0.49524752  0.69155299  1
  Ta  Ta100  1  0.45726331  0.84058734  0.17963707  1
  Ta  Ta101  1  0.45458668  0.83196257  0.67121052  1
  Ta  Ta102  1  0.78287647  0.16737977  0.28391154  1
  Ta  Ta103  1  0.77203596  0.17202468  0.77259594  1
  Ta  Ta104  1  0.78625754  0.50213218  0.28961418  1
  Ta  Ta105  1  0.78211134  0.49723430  0.77488418  1
  Ta  Ta106  1  0.77253015  0.83573078  0.30949491  1
  Ta  Ta107  1  0.78119858  0.83160521  0.76107536  1
  Ta  Ta108  1  0.04624270  0.00083935  0.27535152  1
  Ta  Ta109  1  0.05734577  -0.00805589  0.82601756  1
  Ta  Ta110  1  0.05335619  0.32749846  0.28119804  1
  Ta  Ta111  1  0.05733616  0.33349530  0.81969812  1
  Ta  Ta112  1  0.06716359  0.67723846  0.32638423  1
  Ta  Ta113  1  0.05370979  0.66885360  0.78417660  1
  Ta  Ta114  1  0.38340633  -0.00495233  0.18213096  1
  Ta  Ta115  1  0.38211215  0.00157853  0.66614035  1
  Ta  Ta116  1  0.37977835  0.33161445  0.14531330  1
  Ta  Ta117  1  0.37628410  0.33608551  0.68700831  1
  Ta  Ta118  1  0.37164210  0.67036399  0.16683627  1
  Ta  Ta119  1  0.37473182  0.66333673  0.68311184  1
  Ta  Ta120  1  0.70502463  0.00808665  0.28487147  1
  Ta  Ta121  1  0.71002991  -0.00307595  0.77615993  1
  Ta  Ta122  1  0.71566759  0.33083235  0.27924966  1
  Ta  Ta123  1  0.70918882  0.33551711  0.80080385  1
  Ta  Ta124  1  0.70819415  0.66403802  0.32013075  1
  Ta  Ta125  1  0.70804219  0.66433629  0.78488238  1
  Ta  Ta126  1  0.04480530  0.00247880  0.04480517  1
  Ta  Ta127  1  0.05752035  -0.00837301  0.49779995  1
  Ta  Ta128  1  0.05135835  0.32570715  0.04465381  1
  Ta  Ta129  1  0.05763668  0.33443109  0.50920160  1
  Ta  Ta130  1  0.05936403  0.67136943  0.00392216  1
  Ta  Ta131  1  0.05320464  0.66467508  0.54456322  1
  Ta  Ta132  1  0.38840866  0.00263887  -0.03529126  1
  Ta  Ta133  1  0.39039675  -0.00455490  0.44582247  1
  Ta  Ta134  1  0.37973039  0.33790101  -0.07454316  1
  Ta  Ta135  1  0.37971067  0.33330786  0.46665339  1
  Ta  Ta136  1  0.37755042  0.66167279  -0.05823486  1
  Ta  Ta137  1  0.38059652  0.67119980  0.46210111  1
  Ta  Ta138  1  0.70945635  0.00094802  0.01256943  1
  Ta  Ta139  1  0.70868551  0.00060481  0.50714406  1
  Ta  Ta140  1  0.71170239  0.33063604  0.01410422  1
  Ta  Ta141  1  0.71748986  0.32834817  0.57958760  1
  Ta  Ta142  1  0.70239065  0.67174573  0.00377596  1
  Ta  Ta143  1  0.72161426  0.66897511  0.56067257  1
  N  N144  1  0.31243634  0.33137863  0.04432864  1
  N  N145  1  -0.00301574  0.67430407  0.66559894  1
  N  N146  1  0.50911439  0.49844678  0.80565857  1
  N  N147  1  0.52229227  0.83113377  0.55236932  1
  N  N148  1  0.52068321  0.83284513  0.05307254  1
  N  N149  1  0.19171361  0.49884947  0.91728334  1
  N  N150  1  0.66354385  0.00098724  0.14459981  1
  N  N151  1  -0.00919356  0.66760761  0.90815033  1
  N  N152  1  0.32565528  0.67014157  0.80693226  1
  N  N153  1  0.19786713  0.83689236  0.90948475  1
  N  N154  1  0.18965996  0.16435625  0.93210455  1
  N  N155  1  0.16561182  0.49961346  0.16359024  1
  N  N156  1  0.84658844  0.83860163  0.65303965  1
  N  N157  1  0.17769770  0.49828640  0.66646309  1
  N  N158  1  0.30967738  0.67200583  0.56100323  1
  N  N159  1  0.52146984  0.16717853  0.55901940  1
  N  N160  1  -0.01678956  -0.01055884  0.16840382  1
  N  N161  1  0.63807179  0.66826253  0.89539127  1
  N  N162  1  0.31884710  0.32784770  0.80349426  1
  N  N163  1  0.84140243  0.83069792  0.40787489  1
  N  N164  1  0.83830630  0.16844181  0.88317723  1
  N  N165  1  0.64050261  0.33055178  0.91193158  1
  N  N166  1  0.34912157  0.66789393  0.31070490  1
  N  N167  1  0.50465932  0.82974244  0.30485699  1
  N  N168  1  0.30822030  0.66966741  0.04916416  1
  N  N169  1  0.63964946  0.00706237  0.40416081  1
  N  N170  1  0.48530267  0.17093663  0.30864323  1
  N  N171  1  0.49426955  0.83381520  0.80377978  1
  N  N172  1  0.84347762  0.50212833  0.89421329  1
  N  N173  1  -0.01521689  0.00004946  0.92168929  1
  N  N174  1  0.50231880  0.16521416  0.80945975  1
  N  N175  1  0.19626933  0.49815216  0.41888239  1
  N  N176  1  0.30991460  0.32822502  0.56486650  1
  O  O177  1  0.03820151  0.32509291  0.66906884  1
  O  O178  1  0.63693986  0.33649384  0.66538053  1
  O  O179  1  0.04740114  -0.00278895  0.65899914  1
  O  O180  1  0.84343693  0.17093328  0.41591493  1
  O  O181  1  -0.01941583  0.00340752  0.40794154  1
  O  O182  1  0.45593789  0.49950600  0.30565268  1
  O  O183  1  -0.01734593  0.33274445  0.93354729  1
  O  O184  1  0.82278591  0.49381750  0.42996808  1
  O  O185  1  0.83315339  0.16261876  0.63821321  1
  O  O186  1  -0.01728816  0.33453530  0.41239313  1
  O  O187  1  0.05274490  0.67331422  0.16392597  1
  O  O188  1  0.64091388  0.66476151  0.65960230  1
  O  O189  1  0.30682606  0.00028300  0.05580837  1
  O  O190  1  0.36844623  0.33068727  0.30619544  1
  O  O191  1  0.19213100  0.16802799  0.38542993  1
  O  O192  1  0.32817227  0.00248627  0.30942885  1
  O  O193  1  0.52255733  0.49933547  0.05028308  1
  O  O194  1  0.34988789  0.00087942  0.81121219  1
  O  O195  1  0.85891041  0.48309405  0.65699107  1
  O  O196  1  0.65915798  0.33693183  0.15438543  1
  O  O197  1  0.31025391  0.00239105  0.54010920  1
  O  O198  1  0.13389241  0.16221918  0.65104344  1
  O  O199  1  0.82748928  0.17253968  0.15052407  1
  O  O200  1  0.17030663  0.83734614  0.63944015  1
  O  O201  1  0.69570574  0.66521872  0.16667574  1
  O  O202  1  0.79185912  0.50992750  0.14448521  1
  O  O203  1  -0.01325720  0.66393783  0.41313470  1
  O  O204  1  0.53336490  0.16887206  0.05630462  1
  O  O205  1  0.69379807  0.34086108  0.42484191  1
  O  O206  1  0.84430787  0.83452423  0.89410251  1
  O  O207  1  0.18494966  0.16463528  0.16555392  1
  O  O208  1  0.20490374  0.84236331  0.41613078  1
  O  O209  1  0.78494160  0.83235003  0.15212249  1
  O  O210  1  0.64978913  -0.00309732  0.65571327  1
  O  O211  1  -0.01318929  0.33529379  0.16201221  1
  O  O212  1  0.52342445  0.49844140  0.56299312  1
  O  O213  1  0.64659555  0.65311098  0.43900273  1
  O  O214  1  0.16807195  0.83879441  0.15654276  1
  O  O215  1  0.63950201  -0.00013756  0.88629636  1
