# generated using pymatgen
data_Sr24Ta24N11O13
_symmetry_space_group_name_H-M   'P 1'
_cell_length_a   16.80932262
_cell_length_b   16.85649260
_cell_length_c   15.63965813
_cell_angle_alpha   90.07808287
_cell_angle_beta   89.46592998
_cell_angle_gamma   89.78877811
_symmetry_Int_Tables_number   1
_chemical_formula_structural   Sr24Ta24N11O13
_chemical_formula_sum   'Sr72 Ta72 N33 O39'
_cell_volume   4431.21110076
_cell_formula_units_Z   3
loop_
 _symmetry_equiv_pos_site_id
 _symmetry_equiv_pos_as_xyz
  1  'x, y, z'
loop_
 _atom_site_type_symbol
 _atom_site_label
 _atom_site_symmetry_multiplicity
 _atom_site_fract_x
 _atom_site_fract_y
 _atom_site_fract_z
 _atom_site_occupancy
  Sr  Sr0  1  -0.01866893  0.17395290  0.16712917  1
  Sr  Sr1  1  0.01816932  0.17202253  0.60264267  1
  Sr  Sr2  1  0.01136390  0.49510553  0.09757190  1
  Sr  Sr3  1  0.00364385  0.50511608  0.62836883  1
  Sr  Sr4  1  0.01294988  0.84473605  0.10628004  1
  Sr  Sr5  1  -0.01059575  0.84492549  0.65719690  1
  Sr  Sr6  1  0.33513096  0.17332702  0.11721728  1
  Sr  Sr7  1  0.33677225  0.18207559  0.66131917  1
  Sr  Sr8  1  0.34574172  0.53078863  0.13225826  1
  Sr  Sr9  1  0.33748899  0.49353950  0.61660973  1
  Sr  Sr10  1  0.33932635  0.84845685  0.11773503  1
  Sr  Sr11  1  0.33702292  0.85610145  0.63736348  1
  Sr  Sr12  1  0.68038454  0.18477955  0.07345076  1
  Sr  Sr13  1  0.67060898  0.15808427  0.63388157  1
  Sr  Sr14  1  0.68065546  0.49108081  0.15830592  1
  Sr  Sr15  1  0.68028542  0.52036938  0.63526488  1
  Sr  Sr16  1  0.66218899  0.84527693  0.13752988  1
  Sr  Sr17  1  0.67197023  0.83337818  0.58325692  1
  Sr  Sr18  1  0.18005713  -0.00854964  0.07891126  1
  Sr  Sr19  1  0.15695435  -0.02077830  0.62362396  1
  Sr  Sr20  1  0.15994158  0.30915560  0.12812635  1
  Sr  Sr21  1  0.16888578  0.31883730  0.65519015  1
  Sr  Sr22  1  0.15210830  0.66185593  0.14367341  1
  Sr  Sr23  1  0.16697397  0.62679810  0.58037255  1
  Sr  Sr24  1  0.48965881  -0.00149655  0.17016106  1
  Sr  Sr25  1  0.51487952  0.00309390  0.61392539  1
  Sr  Sr26  1  0.49419176  0.33226573  0.13382162  1
  Sr  Sr27  1  0.49736476  0.33285261  0.58961839  1
  Sr  Sr28  1  0.49212059  0.68494544  0.08730753  1
  Sr  Sr29  1  0.47497594  0.65037721  0.65193686  1
  Sr  Sr30  1  0.82443382  -0.01402674  0.10886985  1
  Sr  Sr31  1  0.83446534  -0.00702741  0.65863344  1
  Sr  Sr32  1  0.83413794  0.34066305  0.12372531  1
  Sr  Sr33  1  0.82046636  0.30243053  0.60581320  1
  Sr  Sr34  1  0.79308268  0.65415473  0.16277316  1
  Sr  Sr35  1  0.83768620  0.66661191  0.61395133  1
  Sr  Sr36  1  -0.00094261  0.16208208  0.38058243  1
  Sr  Sr37  1  0.01585581  0.18866133  0.84519529  1
  Sr  Sr38  1  0.00979184  0.53350841  0.39724696  1
  Sr  Sr39  1  -0.00377806  0.49113294  0.87952071  1
  Sr  Sr40  1  0.01230280  0.84482472  0.35749367  1
  Sr  Sr41  1  -0.01685837  0.83847636  0.87739040  1
  Sr  Sr42  1  0.35190232  0.17949164  0.32965599  1
  Sr  Sr43  1  0.32699879  0.18344127  0.89244356  1
  Sr  Sr44  1  0.32988144  0.50578792  0.39003369  1
  Sr  Sr45  1  0.35287512  0.51396971  0.87295077  1
  Sr  Sr46  1  0.33610804  0.86844351  0.38821252  1
  Sr  Sr47  1  0.35013301  0.83828993  0.85883384  1
  Sr  Sr48  1  0.65434472  0.17837888  0.41946643  1
  Sr  Sr49  1  0.67527780  0.15235500  0.86010795  1
  Sr  Sr50  1  0.68928972  0.50484765  0.36079584  1
  Sr  Sr51  1  0.67863617  0.51354392  0.84593698  1
  Sr  Sr52  1  0.67678023  0.83955744  0.36101962  1
  Sr  Sr53  1  0.66621457  0.82668837  0.91813513  1
  Sr  Sr54  1  0.16068464  -0.00673051  0.41414130  1
  Sr  Sr55  1  0.16045017  -0.02804626  0.87175138  1
  Sr  Sr56  1  0.16075972  0.29409307  0.36281506  1
  Sr  Sr57  1  0.17185211  0.33141057  0.86847505  1
  Sr  Sr58  1  0.17203557  0.65775631  0.35851971  1
  Sr  Sr59  1  0.13250763  0.64166037  0.91870396  1
  Sr  Sr60  1  0.52100829  -0.00763410  0.38762286  1
  Sr  Sr61  1  0.49970777  0.01611396  0.83397821  1
  Sr  Sr62  1  0.49616556  0.34085939  0.36624817  1
  Sr  Sr63  1  0.49520006  0.32117890  0.91840283  1
  Sr  Sr64  1  0.46656835  0.65440295  0.39311628  1
  Sr  Sr65  1  0.49372821  0.67247703  0.87247990  1
  Sr  Sr66  1  0.85362245  -0.00547105  0.32974401  1
  Sr  Sr67  1  0.82531248  -0.01376261  0.88591757  1
  Sr  Sr68  1  0.83286369  0.32014703  0.36754460  1
  Sr  Sr69  1  0.81583136  0.32453196  0.89322344  1
  Sr  Sr70  1  0.81669318  0.66422995  0.39358758  1
  Sr  Sr71  1  0.84231963  0.64554119  0.83041451  1
  Ta  Ta72  1  0.12515083  0.16320444  -0.00584489  1
  Ta  Ta73  1  0.21683396  0.16333807  0.50696130  1
  Ta  Ta74  1  0.19611453  0.48384838  0.00978358  1
  Ta  Ta75  1  0.16185664  0.44135572  0.49576828  1
  Ta  Ta76  1  0.18887958  0.80467096  -0.00357863  1
  Ta  Ta77  1  0.15847507  0.80556689  0.50301112  1
  Ta  Ta78  1  0.50222400  0.13116215  0.00263388  1
  Ta  Ta79  1  0.45434754  0.16739702  0.49762512  1
  Ta  Ta80  1  0.54154498  0.50416851  -0.00188482  1
  Ta  Ta81  1  0.53719357  0.50590353  0.50435171  1
  Ta  Ta82  1  0.49696921  0.87893870  -0.00125534  1
  Ta  Ta83  1  0.49231532  0.80256350  0.50590891  1
  Ta  Ta84  1  0.87778834  0.16045087  -0.00895300  1
  Ta  Ta85  1  0.83709802  0.12282708  0.50111312  1
  Ta  Ta86  1  0.81941097  0.52407329  0.00209624  1
  Ta  Ta87  1  0.84190913  0.47247328  0.49805251  1
  Ta  Ta88  1  0.83028334  0.77023964  -0.00311616  1
  Ta  Ta89  1  0.85554807  0.85273813  0.50239116  1
  Ta  Ta90  1  0.16805730  0.12372698  0.24727610  1
  Ta  Ta91  1  0.17165071  0.12960740  0.75352106  1
  Ta  Ta92  1  0.16177337  0.46712562  0.26409539  1
  Ta  Ta93  1  0.17099902  0.51640547  0.74736128  1
  Ta  Ta94  1  0.18165700  0.85911181  0.24375022  1
  Ta  Ta95  1  0.15835829  0.78187150  0.75632231  1
  Ta  Ta96  1  0.55285856  0.17039996  0.24190098  1
  Ta  Ta97  1  0.50363433  0.21060582  0.75571329  1
  Ta  Ta98  1  0.50398793  0.52590752  0.25266628  1
  Ta  Ta99  1  0.51003235  0.45233664  0.74733663  1
  Ta  Ta100  1  0.49093090  0.80336858  0.24896985  1
  Ta  Ta101  1  0.54379578  0.83198787  0.75537975  1
  Ta  Ta102  1  0.78404878  0.16591328  0.24676267  1
  Ta  Ta103  1  0.86208919  0.16766371  0.75151760  1
  Ta  Ta104  1  0.87915514  0.50114909  0.25012302  1
  Ta  Ta105  1  0.84310725  0.45581367  0.74782972  1
  Ta  Ta106  1  0.85528155  0.80976366  0.24174441  1
  Ta  Ta107  1  0.79008835  0.82143561  0.75130745  1
  Ta  Ta108  1  0.05236769  0.00112163  0.24705879  1
  Ta  Ta109  1  0.00272505  0.03135333  0.75334247  1
  Ta  Ta110  1  0.00577507  0.37291205  0.25293105  1
  Ta  Ta111  1  -0.03706902  0.33720471  0.74786551  1
  Ta  Ta112  1  -0.03255173  0.67322422  0.24524219  1
  Ta  Ta113  1  0.04553922  0.66032058  0.74863196  1
  Ta  Ta114  1  0.28834661  0.00515494  0.24492026  1
  Ta  Ta115  1  0.31689125  0.02171008  0.75461454  1
  Ta  Ta116  1  0.31268401  0.36782448  0.24245279  1
  Ta  Ta117  1  0.36792834  0.34572428  0.75784660  1
  Ta  Ta118  1  0.34488224  0.70299485  0.24852672  1
  Ta  Ta119  1  0.27388320  0.66690951  0.75940567  1
  Ta  Ta120  1  0.67070279  0.04493778  0.24553913  1
  Ta  Ta121  1  0.66726761  -0.04715025  0.75523677  1
  Ta  Ta122  1  0.66580459  0.29995715  0.24870004  1
  Ta  Ta123  1  0.64152806  0.33592024  0.74331988  1
  Ta  Ta124  1  0.60894391  0.66826987  0.26025307  1
  Ta  Ta125  1  0.66247832  0.71110219  0.74551098  1
  Ta  Ta126  1  -0.00019566  0.04300334  -0.00983369  1
  Ta  Ta127  1  -0.03122611  -0.00711502  0.50180597  1
  Ta  Ta128  1  -0.00211803  0.29937353  0.00541349  1
  Ta  Ta129  1  -0.00087173  0.35431458  0.49429403  1
  Ta  Ta130  1  -0.05417691  0.66085871  0.00482547  1
  Ta  Ta131  1  0.00451934  0.71281368  0.50062676  1
  Ta  Ta132  1  0.37523108  0.00698054  0.00148204  1
  Ta  Ta133  1  0.34065738  0.04807637  0.49951853  1
  Ta  Ta134  1  0.31670476  0.36692599  0.00938422  1
  Ta  Ta135  1  0.31686487  0.31285902  0.50453560  1
  Ta  Ta136  1  0.30418765  0.68232143  -0.01176502  1
  Ta  Ta137  1  0.32246431  0.71123130  0.50812482  1
  Ta  Ta138  1  0.62538688  0.00405536  0.00238933  1
  Ta  Ta139  1  0.72170440  -0.00055196  0.48924899  1
  Ta  Ta140  1  0.65892771  0.38263694  0.00355018  1
  Ta  Ta141  1  0.66889954  0.37058938  0.49686134  1
  Ta  Ta142  1  0.67635402  0.64155668  0.00011356  1
  Ta  Ta143  1  0.62400073  0.66230472  0.49125428  1
  N  N144  1  0.33338737  0.00965677  0.12358199  1
  N  N145  1  0.66369020  0.67345249  0.37020327  1
  N  N146  1  0.83603776  0.49011249  0.86820980  1
  N  N147  1  0.00966338  0.00216656  0.37053780  1
  N  N148  1  0.33601725  0.32521238  0.13129285  1
  N  N149  1  0.66440786  0.32751231  0.62183412  1
  N  N150  1  0.66724954  0.34033048  0.12073809  1
  N  N151  1  0.17058623  0.17040160  0.87902808  1
  N  N152  1  0.83152645  0.82970281  0.62267573  1
  N  N153  1  0.84079560  0.49980054  0.12464382  1
  N  N154  1  0.50925641  0.17159302  0.12397770  1
  N  N155  1  0.00068860  -0.00781811  0.87688284  1
  N  N156  1  0.17137439  0.83094489  0.12238033  1
  N  N157  1  0.84523696  0.49771209  0.37836869  1
  N  N158  1  0.17471682  0.15840420  0.62390995  1
  N  N159  1  0.16876913  0.50253089  0.39018065  1
  N  N160  1  0.50199880  0.17249665  0.87270198  1
  N  N161  1  0.67934006  0.00364141  0.37353127  1
  N  N162  1  -0.00037468  0.33042764  0.12876016  1
  N  N163  1  0.50959124  0.49755493  0.63045289  1
  N  N164  1  0.66773274  0.00385419  0.12004928  1
  N  N165  1  0.83605993  0.15067594  0.62522230  1
  N  N166  1  0.66375929  0.33592243  0.37508435  1
  N  N167  1  0.33372999  0.33450536  0.62566703  1
  N  N168  1  0.66427051  -0.00802485  0.87299031  1
  N  N169  1  0.82464675  0.81064440  0.87867056  1
  N  N170  1  0.33612864  0.67106902  0.86522549  1
  N  N171  1  0.33526863  0.34362424  0.88091050  1
  N  N172  1  0.50053624  0.83912288  0.13020947  1
  N  N173  1  0.16904414  0.47962488  0.62827377  1
  N  N174  1  0.50413962  0.83674900  0.87770241  1
  N  N175  1  0.00059976  0.00254364  0.62384201  1
  N  N176  1  0.82921340  0.15788650  0.87853733  1
  O  O177  1  0.66375429  0.34261910  0.88119645  1
  O  O178  1  0.17298870  0.14497713  0.38027483  1
  O  O179  1  0.15931358  0.82035300  0.63271963  1
  O  O180  1  0.33367741  0.33064869  0.36452367  1
  O  O181  1  0.01525515  0.00273602  0.12196690  1
  O  O182  1  0.00507418  0.68438051  0.62702695  1
  O  O183  1  0.85104750  0.83003279  0.36608395  1
  O  O184  1  0.17063918  0.50182798  0.13657916  1
  O  O185  1  0.64762342  0.65827885  0.12637524  1
  O  O186  1  -0.00347578  0.65596158  0.12192434  1
  O  O187  1  0.52260217  0.50347882  0.87119363  1
  O  O188  1  0.49610449  0.50031043  0.37718776  1
  O  O189  1  0.51457884  0.51620571  0.12757305  1
  O  O190  1  0.65819262  0.67782295  0.61660159  1
  O  O191  1  0.82530470  0.82497030  0.11944228  1
  O  O192  1  -0.01087903  0.34013517  0.61860530  1
  O  O193  1  0.17987819  0.49350140  0.88243767  1
  O  O194  1  0.33199189  0.68537275  0.12186760  1
  O  O195  1  0.49546681  0.82054616  0.63118323  1
  O  O196  1  -0.00313317  0.31972488  0.36741677  1
  O  O197  1  0.13812231  0.82359710  0.88137652  1
  O  O198  1  0.32832137  0.00940553  0.87950420  1
  O  O199  1  0.66769459  0.66515438  0.87437194  1
  O  O200  1  0.31615592  0.68216631  0.63132815  1
  O  O201  1  -0.01385928  0.68974141  0.37689377  1
  O  O202  1  0.49060783  0.17910548  0.62185975  1
  O  O203  1  0.17001397  0.83094061  0.37854622  1
  O  O204  1  0.50128632  0.17353207  0.37502919  1
  O  O205  1  0.49316582  0.83256855  0.38292834  1
  O  O206  1  0.32944018  0.02202456  0.36725696  1
  O  O207  1  0.67498242  -0.01526480  0.61478956  1
  O  O208  1  0.33882551  0.01791590  0.62935999  1
  O  O209  1  -0.00806468  0.65023090  0.86888917  1
  O  O210  1  0.32252129  0.70780300  0.37436687  1
  O  O211  1  0.82997165  0.16498165  0.12186044  1
  O  O212  1  0.82866003  0.15838240  0.36702980  1
  O  O213  1  -0.02055299  0.33823517  0.88038139  1
  O  O214  1  0.84221843  0.50877312  0.62927841  1
  O  O215  1  0.16555685  0.15042873  0.11909669  1
