# generated using pymatgen
data_Sr24Ta24N11O13
_symmetry_space_group_name_H-M   'P 1'
_cell_length_a   16.78798003
_cell_length_b   16.74962643
_cell_length_c   15.64753531
_cell_angle_alpha   89.90410499
_cell_angle_beta   90.08520116
_cell_angle_gamma   90.29721400
_symmetry_Int_Tables_number   1
_chemical_formula_structural   Sr24Ta24N11O13
_chemical_formula_sum   'Sr72 Ta72 N33 O39'
_cell_volume   4399.89774384
_cell_formula_units_Z   3
loop_
 _symmetry_equiv_pos_site_id
 _symmetry_equiv_pos_as_xyz
  1  'x, y, z'
loop_
 _atom_site_type_symbol
 _atom_site_label
 _atom_site_symmetry_multiplicity
 _atom_site_fract_x
 _atom_site_fract_y
 _atom_site_fract_z
 _atom_site_occupancy
  Sr  Sr0  1  0.00923272  0.17129377  0.11880685  1
  Sr  Sr1  1  -0.00681725  0.16396296  0.66971845  1
  Sr  Sr2  1  0.01501294  0.54785674  0.17170226  1
  Sr  Sr3  1  -0.00583699  0.49142325  0.61496011  1
  Sr  Sr4  1  -0.00217501  0.83411722  0.09328776  1
  Sr  Sr5  1  -0.00233534  0.84645839  0.63137278  1
  Sr  Sr6  1  0.36843218  0.18153214  0.15735511  1
  Sr  Sr7  1  0.31412889  0.16097178  0.61417287  1
  Sr  Sr8  1  0.32701703  0.49320674  0.12440262  1
  Sr  Sr9  1  0.35895061  0.52238205  0.57258084  1
  Sr  Sr10  1  0.32801192  0.84252629  0.11463707  1
  Sr  Sr11  1  0.34219791  0.81752359  0.67396934  1
  Sr  Sr12  1  0.66820433  0.16955468  0.08926798  1
  Sr  Sr13  1  0.69203437  0.17096517  0.62488074  1
  Sr  Sr14  1  0.68762958  0.50660307  0.10636560  1
  Sr  Sr15  1  0.65641841  0.51064319  0.66469987  1
  Sr  Sr16  1  0.68626058  0.85239132  0.14828477  1
  Sr  Sr17  1  0.66659724  0.83079054  0.59367334  1
  Sr  Sr18  1  0.14373071  -0.00465788  0.12776556  1
  Sr  Sr19  1  0.16723025  -0.00149816  0.59132893  1
  Sr  Sr20  1  0.17017715  0.33203299  0.09956188  1
  Sr  Sr21  1  0.14687814  0.31283126  0.65150160  1
  Sr  Sr22  1  0.18215368  0.66008665  0.17354724  1
  Sr  Sr23  1  0.15445292  0.66271023  0.61218348  1
  Sr  Sr24  1  0.51552883  0.00167076  0.11242295  1
  Sr  Sr25  1  0.45496913  -0.01160144  0.66283492  1
  Sr  Sr26  1  0.48946464  0.34821845  0.16519254  1
  Sr  Sr27  1  0.50549248  0.32423246  0.61392883  1
  Sr  Sr28  1  0.47353765  0.64190622  0.06449556  1
  Sr  Sr29  1  0.50660404  0.67183616  0.62454744  1
  Sr  Sr30  1  0.84028856  -0.00155114  0.17016698  1
  Sr  Sr31  1  0.82886943  -0.01409317  0.61472196  1
  Sr  Sr32  1  0.83983193  0.31040706  0.12755660  1
  Sr  Sr33  1  0.83422379  0.33868168  0.58830038  1
  Sr  Sr34  1  0.83823135  0.68498692  0.11289904  1
  Sr  Sr35  1  0.81912776  0.63077780  0.65315502  1
  Sr  Sr36  1  -0.01185824  0.15677150  0.32706624  1
  Sr  Sr37  1  0.01654595  0.18828705  0.89769804  1
  Sr  Sr38  1  -0.00243299  0.49518651  0.39411754  1
  Sr  Sr39  1  0.02288775  0.51038591  0.84022645  1
  Sr  Sr40  1  0.02293116  0.83911841  0.43143498  1
  Sr  Sr41  1  -0.00423629  0.83497374  0.87562801  1
  Sr  Sr42  1  0.33382660  0.16688629  0.39171400  1
  Sr  Sr43  1  0.34935548  0.18181548  0.83237151  1
  Sr  Sr44  1  0.34409457  0.50392269  0.36504541  1
  Sr  Sr45  1  0.32340135  0.49442997  0.90404307  1
  Sr  Sr46  1  0.33300709  0.83871608  0.33265310  1
  Sr  Sr47  1  0.34742298  0.84006382  0.88896639  1
  Sr  Sr48  1  0.67627550  0.17606437  0.42247667  1
  Sr  Sr49  1  0.67392224  0.16449425  0.87376090  1
  Sr  Sr50  1  0.67159584  0.48806572  0.32558920  1
  Sr  Sr51  1  0.66375642  0.51445016  0.88095040  1
  Sr  Sr52  1  0.66009026  0.83279367  0.37101290  1
  Sr  Sr53  1  0.68205125  0.85831301  0.87749492  1
  Sr  Sr54  1  0.16182783  0.00094862  0.37807772  1
  Sr  Sr55  1  0.15163340  -0.01033770  0.92636523  1
  Sr  Sr56  1  0.15248640  0.31135118  0.38170321  1
  Sr  Sr57  1  0.17088571  0.33766163  0.87452238  1
  Sr  Sr58  1  0.15521249  0.65093517  0.38910466  1
  Sr  Sr59  1  0.15855470  0.67485542  0.83264942  1
  Sr  Sr60  1  0.48814289  -0.01837183  0.33419902  1
  Sr  Sr61  1  0.50202170  0.00095656  0.89157617  1
  Sr  Sr62  1  0.48539799  0.32567536  0.38586611  1
  Sr  Sr63  1  0.50806341  0.32262999  0.83185860  1
  Sr  Sr64  1  0.50642129  0.67700394  0.40716021  1
  Sr  Sr65  1  0.49598135  0.66021942  0.85934352  1
  Sr  Sr66  1  0.82076870  -0.01029097  0.39419456  1
  Sr  Sr67  1  0.83997744  0.01297859  0.82403299  1
  Sr  Sr68  1  0.83816118  0.32822019  0.37274541  1
  Sr  Sr69  1  0.81779717  0.33271675  0.92676317  1
  Sr  Sr70  1  0.81599703  0.64944745  0.32633510  1
  Sr  Sr71  1  0.83132305  0.66566558  0.89435056  1
  Ta  Ta72  1  0.22580947  0.16695339  -0.00221044  1
  Ta  Ta73  1  0.11019410  0.16393479  0.50151306  1
  Ta  Ta74  1  0.14467282  0.52826601  0.01104710  1
  Ta  Ta75  1  0.18107390  0.46443444  0.51123189  1
  Ta  Ta76  1  0.16465238  0.78610518  0.00583943  1
  Ta  Ta77  1  0.22503526  0.83255235  0.50281754  1
  Ta  Ta78  1  0.48890013  0.19213135  -0.00287778  1
  Ta  Ta79  1  0.49533666  0.11740141  0.50204932  1
  Ta  Ta80  1  0.49916210  0.45245047  -0.01175264  1
  Ta  Ta81  1  0.54682203  0.50068028  0.49719170  1
  Ta  Ta82  1  0.53146167  0.81896028  -0.00284259  1
  Ta  Ta83  1  0.46831496  0.85505079  0.50550128  1
  Ta  Ta84  1  0.84098927  0.12666637  0.00847682  1
  Ta  Ta85  1  0.87972491  0.16287372  0.49900526  1
  Ta  Ta86  1  0.88892007  0.50441649  0.01293860  1
  Ta  Ta87  1  0.80451610  0.51389893  0.48474723  1
  Ta  Ta88  1  0.83247843  0.87937517  -0.00460995  1
  Ta  Ta89  1  0.83275741  0.77855736  0.49360206  1
  Ta  Ta90  1  0.18839759  0.16450469  0.24465334  1
  Ta  Ta91  1  0.16758088  0.12106619  0.76531198  1
  Ta  Ta92  1  0.16774855  0.46076400  0.25533143  1
  Ta  Ta93  1  0.21256095  0.49493835  0.72825193  1
  Ta  Ta94  1  0.13774907  0.83525598  0.25235320  1
  Ta  Ta95  1  0.16664870  0.87300893  0.75616438  1
  Ta  Ta96  1  0.54800870  0.16402414  0.25034589  1
  Ta  Ta97  1  0.52887500  0.14298193  0.74207464  1
  Ta  Ta98  1  0.50154419  0.55141051  0.24059871  1
  Ta  Ta99  1  0.46244977  0.49631459  0.74321658  1
  Ta  Ta100  1  0.50188097  0.78359242  0.22952252  1
  Ta  Ta101  1  0.53884338  0.83588200  0.75128850  1
  Ta  Ta102  1  0.79205446  0.16389661  0.25641499  1
  Ta  Ta103  1  0.83410427  0.22980602  0.76018508  1
  Ta  Ta104  1  0.85676899  0.47314559  0.23393247  1
  Ta  Ta105  1  0.83751522  0.45330157  0.76144974  1
  Ta  Ta106  1  0.87024291  0.82808084  0.27065309  1
  Ta  Ta107  1  0.82815037  0.80926400  0.74815289  1
  Ta  Ta108  1  -0.00018615  -0.05529038  0.26592897  1
  Ta  Ta109  1  0.04443571  -0.00187298  0.75329112  1
  Ta  Ta110  1  0.00848792  0.35783289  0.24455684  1
  Ta  Ta111  1  -0.03707219  0.33984130  0.75407971  1
  Ta  Ta112  1  -0.00375519  0.72644870  0.26705911  1
  Ta  Ta113  1  -0.02573420  0.68434848  0.74689877  1
  Ta  Ta114  1  0.30531243  0.02332276  0.24303650  1
  Ta  Ta115  1  0.27778643  0.00127007  0.76386542  1
  Ta  Ta116  1  0.29389125  0.33298237  0.26011969  1
  Ta  Ta117  1  0.33455702  0.37252357  0.73743312  1
  Ta  Ta118  1  0.37580826  0.66660003  0.23926139  1
  Ta  Ta119  1  0.33053949  0.62376823  0.74079830  1
  Ta  Ta120  1  0.66575901  0.04266178  0.25397260  1
  Ta  Ta121  1  0.64124174  0.00009824  0.73265820  1
  Ta  Ta122  1  0.66430671  0.28994921  0.25297260  1
  Ta  Ta123  1  0.70069885  0.33536749  0.74815139  1
  Ta  Ta124  1  0.62521690  0.66852217  0.23707190  1
  Ta  Ta125  1  0.66906685  0.70776302  0.75616107  1
  Ta  Ta126  1  -0.05068555  0.00438736  -0.00110589  1
  Ta  Ta127  1  -0.00571747  0.03920940  0.50443055  1
  Ta  Ta128  1  0.00452525  0.38969141  0.01727128  1
  Ta  Ta129  1  0.00361334  0.29609079  0.49814261  1
  Ta  Ta130  1  0.02821644  0.65288394  -0.00289756  1
  Ta  Ta131  1  -0.05503530  0.66203499  0.49130118  1
  Ta  Ta132  1  0.33691336  0.05128269  0.00166173  1
  Ta  Ta133  1  0.34773086  -0.02572597  0.49115904  1
  Ta  Ta134  1  0.36161990  0.31497329  -0.01156951  1
  Ta  Ta135  1  0.30236352  0.34803213  0.50780940  1
  Ta  Ta136  1  0.28270370  0.66566603  -0.00178572  1
  Ta  Ta137  1  0.33224982  0.71077259  0.49834759  1
  Ta  Ta138  1  0.71813589  0.00365328  0.00431981  1
  Ta  Ta139  1  0.60853735  -0.00127779  0.50867815  1
  Ta  Ta140  1  0.62056904  0.33700156  0.00142491  1
  Ta  Ta141  1  0.66615472  0.38186637  0.50108175  1
  Ta  Ta142  1  0.65272645  0.70211825  -0.00009103  1
  Ta  Ta143  1  0.68780764  0.63569363  0.48616564  1
  N  N144  1  0.51084780  0.16087476  0.86383314  1
  N  N145  1  0.32756177  0.33077546  0.38226324  1
  N  N146  1  -0.00787310  0.32943716  0.63088980  1
  N  N147  1  -0.00315091  0.32628410  0.37153268  1
  N  N148  1  -0.00395050  -0.00564805  0.37797296  1
  N  N149  1  0.00186181  0.00254300  0.63632490  1
  N  N150  1  0.17461195  0.16859662  0.88459058  1
  N  N151  1  0.49399874  0.83561339  0.62589418  1
  N  N152  1  0.16788011  0.50272042  0.13162900  1
  N  N153  1  -0.00150960  0.66623488  0.37800520  1
  N  N154  1  0.51487944  0.16853763  0.12061807  1
  N  N155  1  0.33963520  0.33631050  0.86597390  1
  N  N156  1  0.49646837  0.49428847  0.87086656  1
  N  N157  1  0.33453348  0.66973044  0.62236856  1
  N  N158  1  0.15986063  0.82360152  0.12782795  1
  N  N159  1  0.68053937  0.00891255  0.12628736  1
  N  N160  1  0.66212974  0.65977566  0.36461362  1
  N  N161  1  0.50849038  0.50156019  0.61801797  1
  N  N162  1  -0.00000183  0.67102098  0.86935854  1
  N  N163  1  0.00536424  0.32353355  0.11864481  1
  N  N164  1  0.83773457  0.15741964  0.13328980  1
  N  N165  1  0.14778603  0.49872393  0.62627351  1
  N  N166  1  0.67409611  0.34664775  0.62431959  1
  N  N167  1  0.66765752  0.67165316  0.87683988  1
  N  N168  1  0.81548292  0.83045514  0.38432327  1
  N  N169  1  0.32835446  0.66322993  0.12004778  1
  N  N170  1  0.83049017  0.49303629  0.36386733  1
  N  N171  1  0.50342715  0.83731730  0.87518064  1
  N  N172  1  0.33016330  0.00209394  0.36739724  1
  N  N173  1  0.83386007  0.16181063  0.38183795  1
  N  N174  1  0.83836633  0.84230105  0.86703635  1
  N  N175  1  0.84420933  0.53243751  0.12793129  1
  N  N176  1  0.67524736  -0.00170652  0.61156301  1
  O  O177  1  0.31167548  0.64996824  0.87159082  1
  O  O178  1  0.33218631  0.00014432  0.88368485  1
  O  O179  1  0.84331397  0.18644684  0.63522927  1
  O  O180  1  0.50790648  0.51909254  0.36761981  1
  O  O181  1  0.64087797  0.33136098  0.12999216  1
  O  O182  1  0.16035288  0.83397125  0.88080121  1
  O  O183  1  0.68472230  0.66754827  0.12144452  1
  O  O184  1  0.46818771  0.14486705  0.62519643  1
  O  O185  1  0.16290517  0.49285048  0.38310090  1
  O  O186  1  0.15731164  0.15760683  0.37100435  1
  O  O187  1  0.82733207  0.83128764  0.61324018  1
  O  O188  1  -0.00608908  -0.00023618  0.87674646  1
  O  O189  1  0.48763548  0.84011837  0.11780963  1
  O  O190  1  0.15261036  0.15658459  0.62546903  1
  O  O191  1  -0.02348232  0.65154553  0.62194583  1
  O  O192  1  0.33805915  0.33258070  0.13655428  1
  O  O193  1  0.64775047  -0.00237563  0.37878380  1
  O  O194  1  0.33705494  0.30966025  0.62825970  1
  O  O195  1  0.68643604  0.01108946  0.85858746  1
  O  O196  1  0.83159605  0.48354548  0.63134408  1
  O  O197  1  0.00956408  0.34862550  0.88991727  1
  O  O198  1  -0.00501014  0.68783361  0.12384713  1
  O  O199  1  0.66597652  0.33333735  0.37480657  1
  O  O200  1  0.17264249  0.49500612  0.85643718  1
  O  O201  1  0.49491401  0.50058563  0.11917247  1
  O  O202  1  0.83249717  0.18316285  0.88083955  1
  O  O203  1  0.18126080  0.83820716  0.38098108  1
  O  O204  1  0.35937061  0.01766109  0.12807029  1
  O  O205  1  0.65751475  0.33409756  0.87860000  1
  O  O206  1  0.16903878  0.17335276  0.11908067  1
  O  O207  1  0.34999846  0.67984858  0.37254072  1
  O  O208  1  0.49185423  0.82520278  0.35676749  1
  O  O209  1  0.84560273  0.48140512  0.88696054  1
  O  O210  1  -0.00924604  -0.01482372  0.13607878  1
  O  O211  1  0.66982072  0.66425652  0.63167947  1
  O  O212  1  0.84107024  0.84190969  0.12545934  1
  O  O213  1  0.18888410  0.84575623  0.62739137  1
  O  O214  1  0.50152167  0.14266811  0.37694132  1
  O  O215  1  0.31354662  0.00550530  0.62202630  1
