# generated using pymatgen
data_Sr24Ta24N11O13
_symmetry_space_group_name_H-M   'P 1'
_cell_length_a   16.77910647
_cell_length_b   16.75294001
_cell_length_c   15.71982935
_cell_angle_alpha   89.57593172
_cell_angle_beta   89.63465583
_cell_angle_gamma   89.69209987
_symmetry_Int_Tables_number   1
_chemical_formula_structural   Sr24Ta24N11O13
_chemical_formula_sum   'Sr72 Ta72 N33 O39'
_cell_volume   4418.56048183
_cell_formula_units_Z   3
loop_
 _symmetry_equiv_pos_site_id
 _symmetry_equiv_pos_as_xyz
  1  'x, y, z'
loop_
 _atom_site_type_symbol
 _atom_site_label
 _atom_site_symmetry_multiplicity
 _atom_site_fract_x
 _atom_site_fract_y
 _atom_site_fract_z
 _atom_site_occupancy
  Sr  Sr0  1  0.00539964  0.17443043  0.11245060  1
  Sr  Sr1  1  0.00127421  0.17381904  0.58548072  1
  Sr  Sr2  1  0.02632393  0.50580041  0.13078868  1
  Sr  Sr3  1  0.00765229  0.48314344  0.65914837  1
  Sr  Sr4  1  -0.00635620  0.83565119  0.14886643  1
  Sr  Sr5  1  0.00008415  0.82586994  0.61805404  1
  Sr  Sr6  1  0.34329646  0.18379921  0.11165043  1
  Sr  Sr7  1  0.31609446  0.17387143  0.66895877  1
  Sr  Sr8  1  0.34224596  0.50836372  0.12120633  1
  Sr  Sr9  1  0.34647785  0.50509356  0.61008394  1
  Sr  Sr10  1  0.33961553  0.83557993  0.12860614  1
  Sr  Sr11  1  0.34185334  0.85880011  0.62797302  1
  Sr  Sr12  1  0.67226052  0.15309150  0.17325554  1
  Sr  Sr13  1  0.65777976  0.17829939  0.61524921  1
  Sr  Sr14  1  0.66712799  0.50716791  0.13196841  1
  Sr  Sr15  1  0.70423983  0.51515759  0.59446380  1
  Sr  Sr16  1  0.67940511  0.85251894  0.07577435  1
  Sr  Sr17  1  0.66270124  0.82914803  0.63383292  1
  Sr  Sr18  1  0.15782879  -0.03952949  0.16210317  1
  Sr  Sr19  1  0.14979672  -0.00467462  0.61219179  1
  Sr  Sr20  1  0.16979483  0.32548867  0.13879845  1
  Sr  Sr21  1  0.15767478  0.32460820  0.63208067  1
  Sr  Sr22  1  0.18088212  0.66305281  0.07912448  1
  Sr  Sr23  1  0.14556447  0.64897443  0.62665603  1
  Sr  Sr24  1  0.49408644  0.02153077  0.13802932  1
  Sr  Sr25  1  0.51387561  -0.00264371  0.57976785  1
  Sr  Sr26  1  0.49556270  0.34972271  0.08204040  1
  Sr  Sr27  1  0.48843049  0.32651366  0.64226588  1
  Sr  Sr28  1  0.49092371  0.65849822  0.16306100  1
  Sr  Sr29  1  0.48717567  0.66537363  0.63803501  1
  Sr  Sr30  1  0.84114891  -0.00217869  0.11499579  1
  Sr  Sr31  1  0.81301730  -0.01585717  0.67358887  1
  Sr  Sr32  1  0.81499916  0.32442439  0.11534519  1
  Sr  Sr33  1  0.83318792  0.32335832  0.62140340  1
  Sr  Sr34  1  0.81985559  0.65797296  0.13917980  1
  Sr  Sr35  1  0.82021837  0.67959036  0.58035897  1
  Sr  Sr36  1  0.01379864  0.17606467  0.38767590  1
  Sr  Sr37  1  -0.01865703  0.16524685  0.91181344  1
  Sr  Sr38  1  0.01803424  0.49015810  0.34299995  1
  Sr  Sr39  1  0.01156033  0.49481773  0.86361236  1
  Sr  Sr40  1  -0.00383592  0.82791880  0.37859109  1
  Sr  Sr41  1  0.00928554  0.84349605  0.84904697  1
  Sr  Sr42  1  0.32953085  0.18300695  0.34387678  1
  Sr  Sr43  1  0.34954108  0.17098657  0.88935444  1
  Sr  Sr44  1  0.33657173  0.49939499  0.39186623  1
  Sr  Sr45  1  0.36674862  0.51588575  0.86216254  1
  Sr  Sr46  1  0.34351549  0.85261874  0.36060379  1
  Sr  Sr47  1  0.33705549  0.83621453  0.87801425  1
  Sr  Sr48  1  0.65082434  0.17136754  0.38902789  1
  Sr  Sr49  1  0.67776044  0.17695744  0.82727785  1
  Sr  Sr50  1  0.68364527  0.52254778  0.35605657  1
  Sr  Sr51  1  0.68249207  0.49185701  0.91801041  1
  Sr  Sr52  1  0.66255217  0.84051270  0.41084646  1
  Sr  Sr53  1  0.66831132  0.83341892  0.86519470  1
  Sr  Sr54  1  0.14854697  -0.01544088  0.39280014  1
  Sr  Sr55  1  0.17884187  -0.01245528  0.82666157  1
  Sr  Sr56  1  0.16692363  0.33037219  0.35568977  1
  Sr  Sr57  1  0.15427001  0.30243560  0.88161847  1
  Sr  Sr58  1  0.17049349  0.65005519  0.41229151  1
  Sr  Sr59  1  0.13907161  0.66657740  0.87369819  1
  Sr  Sr60  1  0.49920176  0.01979262  0.36439834  1
  Sr  Sr61  1  0.48896594  -0.00746284  0.92597610  1
  Sr  Sr62  1  0.48921019  0.33848618  0.41346291  1
  Sr  Sr63  1  0.50605666  0.33285559  0.86547399  1
  Sr  Sr64  1  0.48214551  0.65416116  0.36413655  1
  Sr  Sr65  1  0.50239954  0.68345953  0.83477628  1
  Sr  Sr66  1  0.82758282  0.00056145  0.33805645  1
  Sr  Sr67  1  0.84101448  -0.01299802  0.88731657  1
  Sr  Sr68  1  0.82169694  0.31603744  0.39387868  1
  Sr  Sr69  1  0.83547525  0.33480747  0.87321376  1
  Sr  Sr70  1  0.84879242  0.66969797  0.36255336  1
  Sr  Sr71  1  0.80596968  0.65642428  0.91100604  1
  Ta  Ta72  1  0.16839758  0.11886615  -0.00298917  1
  Ta  Ta73  1  0.20150114  0.16701478  0.49949818  1
  Ta  Ta74  1  0.17934714  0.47262918  -0.00288034  1
  Ta  Ta75  1  0.14864943  0.47743581  0.49965434  1
  Ta  Ta76  1  0.16424427  0.85644900  -0.01023676  1
  Ta  Ta77  1  0.19432863  0.81474080  0.50795149  1
  Ta  Ta78  1  0.54707781  0.17222122  -0.00125057  1
  Ta  Ta79  1  0.45117574  0.17160783  0.50371149  1
  Ta  Ta80  1  0.50758279  0.54516227  -0.00444752  1
  Ta  Ta81  1  0.53498799  0.50926748  0.50052245  1
  Ta  Ta82  1  0.50034384  0.79685531  -0.00098952  1
  Ta  Ta83  1  0.49250018  0.80559769  0.50391414  1
  Ta  Ta84  1  0.78805676  0.16484757  0.00135769  1
  Ta  Ta85  1  0.82637576  0.11965917  0.50451913  1
  Ta  Ta86  1  0.87565065  0.49370039  0.01463705  1
  Ta  Ta87  1  0.87679503  0.49288966  0.49381543  1
  Ta  Ta88  1  0.86766142  0.81322555  0.00308588  1
  Ta  Ta89  1  0.83187692  0.87152940  0.49916442  1
  Ta  Ta90  1  0.16282102  0.13419329  0.25234864  1
  Ta  Ta91  1  0.11723503  0.15829967  0.74405637  1
  Ta  Ta92  1  0.18847393  0.53109287  0.24900147  1
  Ta  Ta93  1  0.19876544  0.49316596  0.75045811  1
  Ta  Ta94  1  0.17263317  0.78010319  0.25372399  1
  Ta  Ta95  1  0.18795562  0.80556572  0.73928564  1
  Ta  Ta96  1  0.49801357  0.22071051  0.24888413  1
  Ta  Ta97  1  0.49918571  0.12941656  0.75130666  1
  Ta  Ta98  1  0.50166170  0.45926784  0.25597654  1
  Ta  Ta99  1  0.55588667  0.50226173  0.75121822  1
  Ta  Ta100  1  0.53045297  0.84308594  0.24667099  1
  Ta  Ta101  1  0.49924571  0.87724762  0.75164088  1
  Ta  Ta102  1  0.86326082  0.17193303  0.24679510  1
  Ta  Ta103  1  0.87091883  0.16162293  0.74429335  1
  Ta  Ta104  1  0.85367781  0.46538497  0.23948148  1
  Ta  Ta105  1  0.82311721  0.51767675  0.75492832  1
  Ta  Ta106  1  0.79636906  0.83089767  0.25010829  1
  Ta  Ta107  1  0.83387856  0.78685208  0.74748041  1
  Ta  Ta108  1  -0.00080156  0.03213562  0.25522973  1
  Ta  Ta109  1  -0.00533506  0.03850271  0.74892956  1
  Ta  Ta110  1  -0.03164795  0.32370675  0.25166878  1
  Ta  Ta111  1  -0.00511278  0.29301940  0.74921179  1
  Ta  Ta112  1  0.05042816  0.66622638  0.25411045  1
  Ta  Ta113  1  -0.05342742  0.65996218  0.74959569  1
  Ta  Ta114  1  0.31130259  0.02167971  0.24944986  1
  Ta  Ta115  1  0.38712764  0.00465512  0.75429891  1
  Ta  Ta116  1  0.36577159  0.35137732  0.25200003  1
  Ta  Ta117  1  0.31057245  0.35898879  0.76333557  1
  Ta  Ta118  1  0.29647264  0.66600356  0.24876020  1
  Ta  Ta119  1  0.30286128  0.67468561  0.74564164  1
  Ta  Ta120  1  0.66167270  -0.04454122  0.24392495  1
  Ta  Ta121  1  0.61249596  0.00229066  0.75418633  1
  Ta  Ta122  1  0.63264229  0.34085350  0.24840310  1
  Ta  Ta123  1  0.67656820  0.38765385  0.75099641  1
  Ta  Ta124  1  0.65860654  0.73088519  0.24630108  1
  Ta  Ta125  1  0.68790501  0.64065990  0.75387510  1
  Ta  Ta126  1  0.04201971  -0.01113531  -0.00590819  1
  Ta  Ta127  1  -0.05089084  -0.00252050  0.50084579  1
  Ta  Ta128  1  -0.00278580  0.35710784  0.00024496  1
  Ta  Ta129  1  0.00147069  0.36517925  0.49901218  1
  Ta  Ta130  1  -0.02343506  0.66858297  0.00513079  1
  Ta  Ta131  1  -0.00623643  0.61381380  0.49532769  1
  Ta  Ta132  1  0.28015465  -0.00223790  -0.00120893  1
  Ta  Ta133  1  0.32926300  0.03930913  0.50392608  1
  Ta  Ta134  1  0.31273761  0.36033604  -0.01587839  1
  Ta  Ta135  1  0.31539751  0.31170185  0.50062042  1
  Ta  Ta136  1  0.37460125  0.67100323  0.00046850  1
  Ta  Ta137  1  0.33386354  0.70109585  0.50661002  1
  Ta  Ta138  1  0.66627482  0.04651767  0.00133502  1
  Ta  Ta139  1  0.70744888  0.00379510  0.50237481  1
  Ta  Ta140  1  0.66740601  0.28594730  -0.00235266  1
  Ta  Ta141  1  0.65305173  0.36307198  0.50152476  1
  Ta  Ta142  1  0.62014023  0.67151689  -0.00105865  1
  Ta  Ta143  1  0.62730792  0.66990064  0.49656570  1
  N  N144  1  -0.00272489  0.33023822  0.88075708  1
  N  N145  1  0.15560388  0.83995442  0.62104136  1
  N  N146  1  -0.00522035  0.32971790  0.37521854  1
  N  N147  1  0.17339251  0.49479811  0.62931347  1
  N  N148  1  0.50876872  0.16696631  0.87869658  1
  N  N149  1  0.82916244  0.15829020  0.62728171  1
  N  N150  1  0.17950071  0.49894643  0.12070825  1
  N  N151  1  0.16762082  0.82839686  0.86826695  1
  N  N152  1  0.50393989  0.83826003  0.88169476  1
  N  N153  1  0.83039709  0.16292080  0.12796969  1
  N  N154  1  0.81947894  0.49896942  0.12275689  1
  N  N155  1  0.50119776  0.83661292  0.62206746  1
  N  N156  1  0.83660522  0.82916491  0.12116912  1
  N  N157  1  0.17620845  0.49572838  0.37588969  1
  N  N158  1  0.35259265  0.32656439  0.87328787  1
  N  N159  1  0.82893818  0.83451175  0.37829090  1
  N  N160  1  0.33716490  0.67015169  0.12253806  1
  N  N161  1  0.49081741  0.17974785  0.37703988  1
  N  N162  1  0.50471837  0.18149501  0.13028402  1
  N  N163  1  0.52235128  0.51022076  0.87444805  1
  N  N164  1  0.00775814  0.00201988  0.87556979  1
  N  N165  1  0.33196628  0.65913363  0.62434452  1
  N  N166  1  0.66578870  0.00253125  0.12597924  1
  N  N167  1  0.16749013  0.15810470  0.37539322  1
  N  N168  1  0.50964872  0.49866393  0.37750969  1
  N  N169  1  -0.00510968  0.32916637  0.62680679  1
  N  N170  1  0.01096194  0.65130828  0.37483309  1
  N  N171  1  0.82673372  0.82729564  0.63011115  1
  N  N172  1  0.15757753  0.15954425  0.62418658  1
  N  N173  1  0.65954321  0.66553434  0.87215887  1
  N  N174  1  0.49134158  0.16780384  0.62280909  1
  N  N175  1  -0.00985398  0.00285602  0.37498943  1
  N  N176  1  0.33168160  0.33942143  0.37965798  1
  O  O177  1  0.15930165  0.14427465  0.87009273  1
  O  O178  1  0.65126151  0.00662694  0.87669500  1
  O  O179  1  0.32864852  0.01824913  0.37384707  1
  O  O180  1  0.67533677  0.33373196  0.86958246  1
  O  O181  1  0.01056597  -0.00229054  0.12646659  1
  O  O182  1  0.01002222  0.66604696  0.12577594  1
  O  O183  1  0.50572831  0.50902496  0.63129176  1
  O  O184  1  0.82859177  0.16065117  0.37329903  1
  O  O185  1  0.82832352  0.16396448  0.87307275  1
  O  O186  1  0.67227669  -0.00742518  0.37083297  1
  O  O187  1  0.32786146  0.32902451  0.63842010  1
  O  O188  1  0.34046283  0.67242144  0.87292069  1
  O  O189  1  0.17277448  0.81647082  0.11595609  1
  O  O190  1  0.84735923  0.48943383  0.36414490  1
  O  O191  1  -0.02727560  0.64717260  0.62520439  1
  O  O192  1  0.83792912  0.50327985  0.88438090  1
  O  O193  1  0.16391258  0.14895844  0.11824073  1
  O  O194  1  -0.02444238  0.65801236  0.87447906  1
  O  O195  1  0.65438117  0.34528141  0.37813551  1
  O  O196  1  0.66163522  0.00109558  0.63022422  1
  O  O197  1  0.65859506  0.68565117  0.12461882  1
  O  O198  1  0.50737364  0.50411221  0.12808278  1
  O  O199  1  0.16144858  0.51627775  0.87811788  1
  O  O200  1  0.66179435  0.66543091  0.62063498  1
  O  O201  1  0.50370019  0.83884002  0.37443482  1
  O  O202  1  0.34379611  0.01828335  0.62892255  1
  O  O203  1  0.83413583  0.82426587  0.87699454  1
  O  O204  1  0.64031351  0.68293219  0.36812019  1
  O  O205  1  0.33188881  0.66915029  0.37786241  1
  O  O206  1  -0.00987731  -0.00189896  0.62456442  1
  O  O207  1  0.65399858  0.32862526  0.12389344  1
  O  O208  1  0.67518583  0.35510774  0.62536067  1
  O  O209  1  0.01310226  0.33018871  0.13110723  1
  O  O210  1  0.33529926  -0.00220314  0.87902548  1
  O  O211  1  0.17783335  0.82174789  0.37901210  1
  O  O212  1  0.31238587  -0.00306431  0.12517733  1
  O  O213  1  0.34249560  0.34556025  0.11104499  1
  O  O214  1  0.50391640  0.84308121  0.12279083  1
  O  O215  1  0.84902655  0.50098849  0.63002836  1
