# generated using pymatgen
data_Sr24Ta24N11O13
_symmetry_space_group_name_H-M   'P 1'
_cell_length_a   16.78704579
_cell_length_b   16.82414530
_cell_length_c   15.71517651
_cell_angle_alpha   90.68144903
_cell_angle_beta   90.52789172
_cell_angle_gamma   90.03067539
_symmetry_Int_Tables_number   1
_chemical_formula_structural   Sr24Ta24N11O13
_chemical_formula_sum   'Sr72 Ta72 N33 O39'
_cell_volume   4437.89791263
_cell_formula_units_Z   3
loop_
 _symmetry_equiv_pos_site_id
 _symmetry_equiv_pos_as_xyz
  1  'x, y, z'
loop_
 _atom_site_type_symbol
 _atom_site_label
 _atom_site_symmetry_multiplicity
 _atom_site_fract_x
 _atom_site_fract_y
 _atom_site_fract_z
 _atom_site_occupancy
  Sr  Sr0  1  -0.00474388  0.16379287  0.11687237  1
  Sr  Sr1  1  0.02437265  0.15425884  0.67542219  1
  Sr  Sr2  1  0.00080900  0.51741030  0.17280802  1
  Sr  Sr3  1  0.00760174  0.48606465  0.60915665  1
  Sr  Sr4  1  -0.00333959  0.81746169  0.08154572  1
  Sr  Sr5  1  0.00008424  0.84371849  0.62900980  1
  Sr  Sr6  1  0.33342390  0.16991349  0.12370931  1
  Sr  Sr7  1  0.32156629  0.16962914  0.57710840  1
  Sr  Sr8  1  0.32725476  0.50504367  0.11662321  1
  Sr  Sr9  1  0.34266887  0.49394852  0.65980025  1
  Sr  Sr10  1  0.31811823  0.84340311  0.14748705  1
  Sr  Sr11  1  0.34241767  0.83740465  0.63711203  1
  Sr  Sr12  1  0.64971028  0.19401776  0.15157990  1
  Sr  Sr13  1  0.67783086  0.16644004  0.61813713  1
  Sr  Sr14  1  0.67521708  0.50571705  0.11545859  1
  Sr  Sr15  1  0.66572028  0.54287004  0.63157922  1
  Sr  Sr16  1  0.66376719  0.85975962  0.14206521  1
  Sr  Sr17  1  0.67021779  0.84423507  0.60809389  1
  Sr  Sr18  1  0.16651709  0.01181723  0.16569213  1
  Sr  Sr19  1  0.17735138  -0.01167332  0.61061610  1
  Sr  Sr20  1  0.17646500  0.31879946  0.08101483  1
  Sr  Sr21  1  0.17030691  0.33837868  0.63298834  1
  Sr  Sr22  1  0.17469805  0.66847116  0.13268685  1
  Sr  Sr23  1  0.13279457  0.66059223  0.57713646  1
  Sr  Sr24  1  0.48847582  -0.01091571  0.10366885  1
  Sr  Sr25  1  0.51503537  -0.01048704  0.66584318  1
  Sr  Sr26  1  0.50081348  0.33486351  0.17225469  1
  Sr  Sr27  1  0.50442857  0.29774047  0.61382450  1
  Sr  Sr28  1  0.50174627  0.63052448  0.07954233  1
  Sr  Sr29  1  0.47975801  0.65981394  0.62778178  1
  Sr  Sr30  1  0.83464195  0.01056564  0.13438129  1
  Sr  Sr31  1  0.82500696  -0.01402532  0.58103161  1
  Sr  Sr32  1  0.85011077  0.32922307  0.11022308  1
  Sr  Sr33  1  0.83000429  0.31504828  0.62302521  1
  Sr  Sr34  1  0.82542877  0.65696815  0.12311643  1
  Sr  Sr35  1  0.84469861  0.67051270  0.66660295  1
  Sr  Sr36  1  -0.00521204  0.14553386  0.33034953  1
  Sr  Sr37  1  -0.01349743  0.17236384  0.89227650  1
  Sr  Sr38  1  0.00734988  0.50190739  0.38577692  1
  Sr  Sr39  1  -0.00458812  0.51043762  0.83630431  1
  Sr  Sr40  1  0.01045705  0.84800369  0.41727553  1
  Sr  Sr41  1  -0.01226581  0.82910930  0.86944146  1
  Sr  Sr42  1  0.32567267  0.17347257  0.37702801  1
  Sr  Sr43  1  0.33350231  0.16461256  0.91061145  1
  Sr  Sr44  1  0.34318445  0.50615230  0.35540612  1
  Sr  Sr45  1  0.32045908  0.49809792  0.88640267  1
  Sr  Sr46  1  0.33466296  0.82957204  0.36226178  1
  Sr  Sr47  1  0.33217592  0.84748580  0.85706846  1
  Sr  Sr48  1  0.67457297  0.18865906  0.40556314  1
  Sr  Sr49  1  0.65393511  0.17907250  0.83199363  1
  Sr  Sr50  1  0.66428866  0.51580520  0.37019426  1
  Sr  Sr51  1  0.67753277  0.51862377  0.89521781  1
  Sr  Sr52  1  0.68142024  0.84059847  0.36574612  1
  Sr  Sr53  1  0.65871629  0.87484643  0.89175079  1
  Sr  Sr54  1  0.17998086  -0.00054029  0.37980478  1
  Sr  Sr55  1  0.14337229  -0.00881072  0.82795265  1
  Sr  Sr56  1  0.17000908  0.32899384  0.41299829  1
  Sr  Sr57  1  0.16549375  0.34426830  0.86163135  1
  Sr  Sr58  1  0.16671006  0.64726815  0.35119932  1
  Sr  Sr59  1  0.16274250  0.68199635  0.91516207  1
  Sr  Sr60  1  0.50762112  -0.04410119  0.33416355  1
  Sr  Sr61  1  0.48860541  0.00404120  0.88399720  1
  Sr  Sr62  1  0.50020050  0.31337134  0.37753202  1
  Sr  Sr63  1  0.50582482  0.31502985  0.84481157  1
  Sr  Sr64  1  0.50774225  0.66506592  0.41779149  1
  Sr  Sr65  1  0.48622397  0.64145577  0.85977112  1
  Sr  Sr66  1  0.82625599  0.00679165  0.36728907  1
  Sr  Sr67  1  0.84024242  -0.00162711  0.92099894  1
  Sr  Sr68  1  0.85056428  0.34188213  0.40446983  1
  Sr  Sr69  1  0.82255699  0.32565566  0.88147382  1
  Sr  Sr70  1  0.82174981  0.65537033  0.32881248  1
  Sr  Sr71  1  0.83559743  0.66288285  0.87547859  1
  Ta  Ta72  1  0.16195681  0.12240322  -0.00117079  1
  Ta  Ta73  1  0.12973131  0.15723138  0.49808917  1
  Ta  Ta74  1  0.12902806  0.50377385  -0.00163933  1
  Ta  Ta75  1  0.20972982  0.50217721  0.50239746  1
  Ta  Ta76  1  0.17210984  0.87075381  0.00251964  1
  Ta  Ta77  1  0.19519087  0.81443355  0.49605592  1
  Ta  Ta78  1  0.52132496  0.19061975  0.00188172  1
  Ta  Ta79  1  0.49698937  0.10340705  0.49355995  1
  Ta  Ta80  1  0.50669633  0.44261159  0.00447605  1
  Ta  Ta81  1  0.50175113  0.47342755  0.50076776  1
  Ta  Ta82  1  0.49188538  0.80534458  0.00016738  1
  Ta  Ta83  1  0.49969185  0.85835842  0.50334077  1
  Ta  Ta84  1  0.78048547  0.17109583  -0.00316720  1
  Ta  Ta85  1  0.87657058  0.15969529  0.50551875  1
  Ta  Ta86  1  0.87313624  0.49798054  0.00174649  1
  Ta  Ta87  1  0.82519318  0.53428031  0.49761765  1
  Ta  Ta88  1  0.80931171  0.81681415  0.00108495  1
  Ta  Ta89  1  0.83762813  0.79024616  0.49746003  1
  Ta  Ta90  1  0.16830699  0.20336181  0.24889156  1
  Ta  Ta91  1  0.21851736  0.16448464  0.74462300  1
  Ta  Ta92  1  0.17149445  0.44837443  0.25407386  1
  Ta  Ta93  1  0.16594566  0.54280306  0.74747031  1
  Ta  Ta94  1  0.12233632  0.83430941  0.24534228  1
  Ta  Ta95  1  0.16172883  0.79582176  0.74162105  1
  Ta  Ta96  1  0.49430328  0.13362175  0.25698789  1
  Ta  Ta97  1  0.43854112  0.15475315  0.74294111  1
  Ta  Ta98  1  0.50594783  0.53293759  0.24516568  1
  Ta  Ta99  1  0.52870548  0.47364927  0.74990296  1
  Ta  Ta100  1  0.49829176  0.77576368  0.24075719  1
  Ta  Ta101  1  0.52703693  0.81116594  0.74976647  1
  Ta  Ta102  1  0.80935512  0.19314354  0.25946909  1
  Ta  Ta103  1  0.83690527  0.13358014  0.75144338  1
  Ta  Ta104  1  0.82406629  0.46612723  0.25066400  1
  Ta  Ta105  1  0.82130555  0.47408003  0.75149423  1
  Ta  Ta106  1  0.87624823  0.83551781  0.25138163  1
  Ta  Ta107  1  0.81599388  0.86079267  0.75558902  1
  Ta  Ta108  1  -0.00288560  -0.04637570  0.24226528  1
  Ta  Ta109  1  -0.05872201  -0.00372781  0.75607091  1
  Ta  Ta110  1  0.03352402  0.33018389  0.25109744  1
  Ta  Ta111  1  -0.01741023  0.33550916  0.75037343  1
  Ta  Ta112  1  -0.00296469  0.71073264  0.25475191  1
  Ta  Ta113  1  0.04380380  0.67380693  0.74757496  1
  Ta  Ta114  1  0.35168874  0.02326967  0.25298252  1
  Ta  Ta115  1  0.33129710  0.03220338  0.74111221  1
  Ta  Ta116  1  0.30234719  0.33301721  0.25561465  1
  Ta  Ta117  1  0.33907225  0.29717255  0.74279935  1
  Ta  Ta118  1  0.37804396  0.66585420  0.24412971  1
  Ta  Ta119  1  0.27546674  0.67093510  0.74506474  1
  Ta  Ta120  1  0.65454946  0.04465137  0.25791118  1
  Ta  Ta121  1  0.71414605  0.00139968  0.74492714  1
  Ta  Ta122  1  0.70402220  0.34805162  0.25863122  1
  Ta  Ta123  1  0.66959438  0.37252290  0.73721176  1
  Ta  Ta124  1  0.62562248  0.67205850  0.24476971  1
  Ta  Ta125  1  0.66006678  0.70741617  0.75480037  1
  Ta  Ta126  1  0.03392603  -0.00431491  0.00054575  1
  Ta  Ta127  1  0.00167522  0.04388452  0.50279524  1
  Ta  Ta128  1  0.00433232  0.39064567  0.00160456  1
  Ta  Ta129  1  0.00681534  0.26632451  0.50237165  1
  Ta  Ta130  1  -0.00334232  0.62697478  0.00865996  1
  Ta  Ta131  1  -0.05067937  0.66850290  0.48969688  1
  Ta  Ta132  1  0.28970952  -0.00710454  0.00429136  1
  Ta  Ta133  1  0.37374497  -0.01292544  0.49619184  1
  Ta  Ta134  1  0.37806525  0.33299492  0.00304712  1
  Ta  Ta135  1  0.34660756  0.36935542  0.50097154  1
  Ta  Ta136  1  0.34229472  0.70580171  0.00261037  1
  Ta  Ta137  1  0.31262563  0.66539292  0.49362397  1
  Ta  Ta138  1  0.65894582  0.05619062  -0.00220698  1
  Ta  Ta139  1  0.62905992  0.00314473  0.49664650  1
  Ta  Ta140  1  0.64544667  0.31948050  0.00016257  1
  Ta  Ta141  1  0.66165557  0.38150406  0.51638683  1
  Ta  Ta142  1  0.66179181  0.71077666  0.00336996  1
  Ta  Ta143  1  0.71076768  0.67921648  0.49160009  1
  N  N144  1  0.83952180  0.49464979  0.12808511  1
  N  N145  1  0.33606383  -0.00170336  0.62019613  1
  N  N146  1  0.16473838  0.82951096  0.61412220  1
  N  N147  1  0.16279038  0.16357560  0.36546946  1
  N  N148  1  0.82028901  0.16711129  0.87903102  1
  N  N149  1  0.66792338  0.67824685  0.37499505  1
  N  N150  1  0.32869147  0.00159973  0.12350284  1
  N  N151  1  0.50304114  0.82717938  0.62539402  1
  N  N152  1  0.17359976  0.16228292  0.62856876  1
  N  N153  1  -0.00671537  0.66462864  0.37136029  1
  N  N154  1  0.33878400  0.32759125  0.62118040  1
  N  N155  1  -0.01048638  -0.00149355  0.87127592  1
  N  N156  1  0.33483891  -0.01052322  0.37014113  1
  N  N157  1  0.67103755  0.32267564  0.62104109  1
  N  N158  1  0.83498204  0.50373765  0.37771187  1
  N  N159  1  0.82638533  0.83446169  0.87859220  1
  N  N160  1  0.16330689  0.16501430  0.11773980  1
  N  N161  1  0.33314071  0.67073170  0.11967092  1
  N  N162  1  0.50665854  0.48320878  0.12978198  1
  N  N163  1  0.33962359  0.66481068  0.37408608  1
  N  N164  1  0.83641418  0.15892306  0.62372840  1
  N  N165  1  0.34029916  0.33265988  0.37370808  1
  N  N166  1  -0.00379026  -0.00779460  0.12046663  1
  N  N167  1  0.15874154  0.83703120  0.12227995  1
  N  N168  1  0.16024068  0.51072213  0.87743536  1
  N  N169  1  0.67231794  0.00555794  0.62774030  1
  N  N170  1  -0.00055222  0.66419623  0.12676566  1
  N  N171  1  0.66358711  0.67691162  0.12214001  1
  N  N172  1  0.83440389  0.49770724  0.87415176  1
  N  N173  1  0.83270696  0.17268719  0.37677196  1
  N  N174  1  0.16949747  0.50171892  0.62112029  1
  N  N175  1  0.66967435  0.01121612  0.37578339  1
  N  N176  1  0.17233304  0.49084643  0.37476538  1
  O  O177  1  0.01346765  0.34835764  0.12717967  1
  O  O178  1  0.49111023  0.82531671  0.87453999  1
  O  O179  1  0.52059839  0.47683912  0.87861856  1
  O  O180  1  0.66162849  0.67715976  0.87496917  1
  O  O181  1  0.34891661  0.33140495  0.12947508  1
  O  O182  1  0.48294277  0.14222821  0.62217474  1
  O  O183  1  -0.00200763  -0.00145570  0.37914406  1
  O  O184  1  0.00780651  0.66409603  0.87238285  1
  O  O185  1  0.16766597  0.49011175  0.13157877  1
  O  O186  1  0.49726685  0.16053420  0.12429414  1
  O  O187  1  0.50337937  0.49690227  0.37534238  1
  O  O188  1  0.50018330  0.83094087  0.12511180  1
  O  O189  1  0.83413230  0.82527344  0.62480462  1
  O  O190  1  -0.00779919  0.67043476  0.62679751  1
  O  O191  1  0.66315850  0.02793455  0.86890928  1
  O  O192  1  0.17902856  0.14812500  0.87089252  1
  O  O193  1  0.35467795  0.32139476  0.87782035  1
  O  O194  1  0.81508774  0.17978012  0.12321820  1
  O  O195  1  0.01150970  0.30716919  0.37359435  1
  O  O196  1  0.50214094  0.49357761  0.63065503  1
  O  O197  1  0.16339096  0.83467801  0.37313806  1
  O  O198  1  -0.00132612  0.35237948  0.87345529  1
  O  O199  1  -0.01557467  0.00336703  0.62506795  1
  O  O200  1  0.84222168  0.82967097  0.12802433  1
  O  O201  1  0.49833312  0.81330319  0.37963896  1
  O  O202  1  0.48970443  0.16042283  0.38421381  1
  O  O203  1  0.33256021  0.00283156  0.88180105  1
  O  O204  1  0.31313787  0.68688757  0.87607791  1
  O  O205  1  -0.00106394  0.31123636  0.62785603  1
  O  O206  1  0.68608101  0.35457428  0.39200303  1
  O  O207  1  0.68060326  0.69224446  0.62734985  1
  O  O208  1  0.48420427  0.16242018  0.87797326  1
  O  O209  1  0.82784459  0.51813535  0.63329024  1
  O  O210  1  0.65763214  0.03691591  0.12250337  1
  O  O211  1  0.16918541  0.83741632  0.86729579  1
  O  O212  1  0.85346091  0.84052595  0.37844647  1
  O  O213  1  0.67011241  0.33975562  0.12527939  1
  O  O214  1  0.32693811  0.66868750  0.63123646  1
  O  O215  1  0.66058452  0.33061809  0.87128714  1
