# generated using pymatgen
data_Sr24Ta24N11O13
_symmetry_space_group_name_H-M   'P 1'
_cell_length_a   17.92312210
_cell_length_b   16.73933656
_cell_length_c   14.88373443
_cell_angle_alpha   90.00575544
_cell_angle_beta   88.00018265
_cell_angle_gamma   90.94746123
_symmetry_Int_Tables_number   1
_chemical_formula_structural   Sr24Ta24N11O13
_chemical_formula_sum   'Sr72 Ta72 N33 O39'
_cell_volume   4462.10508083
_cell_formula_units_Z   3
loop_
 _symmetry_equiv_pos_site_id
 _symmetry_equiv_pos_as_xyz
  1  'x, y, z'
loop_
 _atom_site_type_symbol
 _atom_site_label
 _atom_site_symmetry_multiplicity
 _atom_site_fract_x
 _atom_site_fract_y
 _atom_site_fract_z
 _atom_site_occupancy
  Sr  Sr0  1  0.00943916  0.14876086  0.13915894  1
  Sr  Sr1  1  0.04107404  0.17067675  0.60572274  1
  Sr  Sr2  1  0.00691445  0.50551037  0.11331790  1
  Sr  Sr3  1  0.03543095  0.46008267  0.64611033  1
  Sr  Sr4  1  0.04978245  0.83759376  0.07451848  1
  Sr  Sr5  1  -0.00886748  0.84366516  0.62676762  1
  Sr  Sr6  1  0.33445820  0.16914151  0.11572999  1
  Sr  Sr7  1  0.36834277  0.12950166  0.60698243  1
  Sr  Sr8  1  0.38036167  0.50319872  0.07733007  1
  Sr  Sr9  1  0.33112015  0.51192177  0.62559514  1
  Sr  Sr10  1  0.34151654  0.81453212  0.14456897  1
  Sr  Sr11  1  0.36967997  0.83744059  0.60498825  1
  Sr  Sr12  1  0.71666572  0.16802742  0.06597260  1
  Sr  Sr13  1  0.64980070  0.18251207  0.62945846  1
  Sr  Sr14  1  0.66896825  0.48529918  0.14897513  1
  Sr  Sr15  1  0.68631497  0.50551718  0.61963135  1
  Sr  Sr16  1  0.66519241  0.83050213  0.12125366  1
  Sr  Sr17  1  0.69714470  0.79848333  0.61771895  1
  Sr  Sr18  1  0.15821437  0.01608373  0.10563716  1
  Sr  Sr19  1  0.13763691  -0.00397516  0.64181887  1
  Sr  Sr20  1  0.11527598  0.33058527  0.15878554  1
  Sr  Sr21  1  0.18952397  0.32277123  0.61733799  1
  Sr  Sr22  1  0.16732452  0.67946577  0.13529320  1
  Sr  Sr23  1  0.13120877  0.69997414  0.63708655  1
  Sr  Sr24  1  0.45599627  0.00279098  0.17145406  1
  Sr  Sr25  1  0.51958076  -0.00795789  0.62020318  1
  Sr  Sr26  1  0.49416566  0.33910970  0.14061197  1
  Sr  Sr27  1  0.46664197  0.36675519  0.62201179  1
  Sr  Sr28  1  0.49035398  0.68200966  0.10964624  1
  Sr  Sr29  1  0.46776867  0.66620248  0.64219842  1
  Sr  Sr30  1  0.83460832  0.01003921  0.13224809  1
  Sr  Sr31  1  0.79430916  0.03840123  0.63280123  1
  Sr  Sr32  1  0.82336091  0.35201304  0.08155940  1
  Sr  Sr33  1  0.80404121  0.33329267  0.64472164  1
  Sr  Sr34  1  0.78383696  0.66844441  0.17252319  1
  Sr  Sr35  1  0.85185419  0.67031330  0.62859543  1
  Sr  Sr36  1  0.00724458  0.16932832  0.35984374  1
  Sr  Sr37  1  0.05255310  0.15389910  0.83930580  1
  Sr  Sr38  1  0.03699366  0.48333433  0.34173116  1
  Sr  Sr39  1  0.02275555  0.47982373  0.90377207  1
  Sr  Sr40  1  0.00288681  0.81959074  0.39638936  1
  Sr  Sr41  1  0.00235455  0.83213110  0.85288818  1
  Sr  Sr42  1  0.38767561  0.16505008  0.32324917  1
  Sr  Sr43  1  0.34018444  0.14893510  0.90267637  1
  Sr  Sr44  1  0.33252415  0.48346182  0.39520115  1
  Sr  Sr45  1  0.33959781  0.49944918  0.85340095  1
  Sr  Sr46  1  0.34204656  0.82482269  0.36211515  1
  Sr  Sr47  1  0.38026538  0.82830023  0.84656470  1
  Sr  Sr48  1  0.68140577  0.14891211  0.39522314  1
  Sr  Sr49  1  0.66529392  0.15711803  0.85117733  1
  Sr  Sr50  1  0.69288159  0.50188152  0.37085989  1
  Sr  Sr51  1  0.70470019  0.49444515  0.85395770  1
  Sr  Sr52  1  0.72153579  0.82751651  0.33352352  1
  Sr  Sr53  1  0.67484203  0.82211505  0.90516287  1
  Sr  Sr54  1  0.11345644  0.00530776  0.40372756  1
  Sr  Sr55  1  0.15400366  0.00043566  0.88691037  1
  Sr  Sr56  1  0.16868125  0.33173069  0.38831349  1
  Sr  Sr57  1  0.17551646  0.35026728  0.84636149  1
  Sr  Sr58  1  0.15186361  0.67772304  0.34996154  1
  Sr  Sr59  1  0.11886856  0.67524171  0.92242299  1
  Sr  Sr60  1  0.49656503  -0.00069244  0.39288843  1
  Sr  Sr61  1  0.49343589  0.01420874  0.85315740  1
  Sr  Sr62  1  0.48888673  0.35535099  0.35153587  1
  Sr  Sr63  1  0.44583956  0.33937104  0.92571831  1
  Sr  Sr64  1  0.44724893  0.66800145  0.40803249  1
  Sr  Sr65  1  0.48688715  0.67059641  0.89155216  1
  Sr  Sr66  1  0.82969190  0.01838006  0.34782701  1
  Sr  Sr67  1  0.78667940  0.00438499  0.91652293  1
  Sr  Sr68  1  0.79664526  0.33732196  0.40033523  1
  Sr  Sr69  1  0.80312488  0.32585290  0.87600988  1
  Sr  Sr70  1  0.83637077  0.66921883  0.39746252  1
  Sr  Sr71  1  0.81939084  0.69399107  0.85493647  1
  Ta  Ta72  1  0.16622469  0.20228954  0.00539892  1
  Ta  Ta73  1  0.22060986  0.15191684  0.47997345  1
  Ta  Ta74  1  0.20239196  0.50016547  0.01792134  1
  Ta  Ta75  1  0.16519769  0.53537374  0.49854249  1
  Ta  Ta76  1  0.22576871  0.83568400  -0.01779399  1
  Ta  Ta77  1  0.19408539  0.84233566  0.50136090  1
  Ta  Ta78  1  0.52752192  0.16373978  0.02571087  1
  Ta  Ta79  1  0.51111575  0.21157277  0.48777386  1
  Ta  Ta80  1  0.55233322  0.49800144  -0.01565673  1
  Ta  Ta81  1  0.53342475  0.51233973  0.50184146  1
  Ta  Ta82  1  0.49921733  0.87097469  0.01031176  1
  Ta  Ta83  1  0.55469863  0.82061608  0.48682573  1
  Ta  Ta84  1  0.89309853  0.16527731  -0.02490086  1
  Ta  Ta85  1  0.86461350  0.17661023  0.50579940  1
  Ta  Ta86  1  0.83383200  0.54915959  -0.00012921  1
  Ta  Ta87  1  0.89047442  0.49037979  0.50974092  1
  Ta  Ta88  1  0.86288237  0.83594536  0.01500057  1
  Ta  Ta89  1  0.83696943  0.87484365  0.50575461  1
  Ta  Ta90  1  0.19588896  0.15733900  0.26782066  1
  Ta  Ta91  1  0.22330668  0.15561623  0.74443144  1
  Ta  Ta92  1  0.21917007  0.49449409  0.22368492  1
  Ta  Ta93  1  0.16968581  0.55136899  0.76813999  1
  Ta  Ta94  1  0.16919943  0.87007640  0.24628533  1
  Ta  Ta95  1  0.20595494  0.83680051  0.77827860  1
  Ta  Ta96  1  0.56723038  0.16447200  0.22047014  1
  Ta  Ta97  1  0.48611375  0.21025466  0.76208381  1
  Ta  Ta98  1  0.49875845  0.53507761  0.24819318  1
  Ta  Ta99  1  0.52896930  0.50609443  0.76971361  1
  Ta  Ta100  1  0.53235200  0.81909623  0.28135770  1
  Ta  Ta101  1  0.55019695  0.82566437  0.74834509  1
  Ta  Ta102  1  0.83159943  0.20634627  0.23494323  1
  Ta  Ta103  1  0.87131590  0.16478779  0.77857959  1
  Ta  Ta104  1  0.86102716  0.48907692  0.25149860  1
  Ta  Ta105  1  0.88271106  0.49661783  0.77779912  1
  Ta  Ta106  1  0.89295691  0.82478078  0.21824054  1
  Ta  Ta107  1  0.82701826  0.87718219  0.75338828  1
  Ta  Ta108  1  -0.00355017  -0.03918306  0.23888610  1
  Ta  Ta109  1  -0.05163605  0.00937383  0.75335519  1
  Ta  Ta110  1  -0.06512770  0.33860221  0.24132387  1
  Ta  Ta111  1  -0.03785742  0.31141505  0.77546246  1
  Ta  Ta112  1  -0.02727748  0.67487970  0.22723864  1
  Ta  Ta113  1  -0.00895550  0.62836683  0.76893054  1
  Ta  Ta114  1  0.27554146  0.00185024  0.27677335  1
  Ta  Ta115  1  0.30444244  -0.01040343  0.74747807  1
  Ta  Ta116  1  0.30361740  0.34704784  0.22289235  1
  Ta  Ta117  1  0.33778377  0.29035369  0.75202501  1
  Ta  Ta118  1  0.32816017  0.62615279  0.23966006  1
  Ta  Ta119  1  0.28338744  0.67744141  0.75883279  1
  Ta  Ta120  1  0.64524443  0.01360699  0.21960819  1
  Ta  Ta121  1  0.66433538  -0.04204449  0.75560868  1
  Ta  Ta122  1  0.67692249  0.29457721  0.23591450  1
  Ta  Ta123  1  0.59548757  0.34287513  0.77286976  1
  Ta  Ta124  1  0.60833587  0.66677915  0.27500683  1
  Ta  Ta125  1  0.63210352  0.66015501  0.75157781  1
  Ta  Ta126  1  -0.02972324  0.00287230  -0.02249596  1
  Ta  Ta127  1  -0.05291943  0.01179512  0.50642341  1
  Ta  Ta128  1  -0.00638436  0.29292578  -0.02151966  1
  Ta  Ta129  1  -0.03931736  0.33002083  0.50060263  1
  Ta  Ta130  1  -0.06068118  0.68283965  0.03182249  1
  Ta  Ta131  1  0.00838443  0.61578030  0.49585574  1
  Ta  Ta132  1  0.33718323  -0.03323507  0.00558131  1
  Ta  Ta133  1  0.28651949  -0.01150010  0.47476955  1
  Ta  Ta134  1  0.27336525  0.34440610  0.02602791  1
  Ta  Ta135  1  0.34131263  0.28701681  0.47557347  1
  Ta  Ta136  1  0.30149089  0.67071199  -0.02077841  1
  Ta  Ta137  1  0.27713123  0.67338974  0.50368271  1
  Ta  Ta138  1  0.60793582  0.00922222  0.02558430  1
  Ta  Ta139  1  0.67725269  -0.04462160  0.48269762  1
  Ta  Ta140  1  0.62465581  0.33299526  -0.02117497  1
  Ta  Ta141  1  0.61970618  0.34242117  0.49754770  1
  Ta  Ta142  1  0.66335694  0.63576284  0.01109151  1
  Ta  Ta143  1  0.62319069  0.66409843  0.47587583  1
  N  N144  1  0.01744233  -0.00705259  0.84831932  1
  N  N145  1  0.32103870  0.67379017  0.62344369  1
  N  N146  1  0.80678029  0.16637273  0.89080462  1
  N  N147  1  0.51780690  0.84050948  0.88733060  1
  N  N148  1  0.83432654  0.84565784  0.88960887  1
  N  N149  1  0.16775274  0.50703142  0.89557307  1
  N  N150  1  0.18748626  0.84181753  0.12125342  1
  N  N151  1  0.84244468  0.83010286  0.62680614  1
  N  N152  1  0.16734905  0.17082710  0.14088663  1
  N  N153  1  0.50718260  0.51304750  0.63161446  1
  N  N154  1  -0.02344981  -0.00171961  0.36507298  1
  N  N155  1  0.52037321  0.82957881  0.61991450  1
  N  N156  1  0.66959738  0.31588265  0.86007608  1
  N  N157  1  0.00220724  -0.00265661  0.10473060  1
  N  N158  1  0.33788818  0.32426274  0.34984501  1
  N  N159  1  0.35982663  0.33261302  0.10472603  1
  N  N160  1  0.19046197  0.15914619  0.61727456  1
  N  N161  1  0.51681844  0.50495072  0.12385681  1
  N  N162  1  0.85071791  0.47333554  0.90610269  1
  N  N163  1  0.64519834  0.66247822  0.13807719  1
  N  N164  1  0.47548611  0.16977286  0.14376628  1
  N  N165  1  0.47692143  0.84018886  0.39702676  1
  N  N166  1  0.35293201  0.66190539  0.85399543  1
  N  N167  1  0.47573611  0.50702531  0.89524941  1
  N  N168  1  0.14400796  0.17268265  0.39376015  1
  N  N169  1  0.14454665  0.83640638  0.89336168  1
  N  N170  1  0.30925287  0.66401147  0.36566436  1
  N  N171  1  -0.00529150  0.00781728  0.62308486  1
  N  N172  1  0.85264080  0.17094029  0.11224670  1
  N  N173  1  0.02720181  0.66684052  0.11069045  1
  N  N174  1  0.18916492  0.16664919  0.88032637  1
  N  N175  1  0.33432985  0.66390358  0.10575385  1
  N  N176  1  0.69717872  0.00001322  0.10146101  1
  O  O177  1  -0.02421406  0.33462676  0.10749243  1
  O  O178  1  0.69525046  0.66205562  0.36232064  1
  O  O179  1  0.86141483  0.50391429  0.37970081  1
  O  O180  1  0.66864453  0.66546639  0.87456259  1
  O  O181  1  0.84940171  0.18106203  0.63773342  1
  O  O182  1  0.31675091  -0.00906905  0.13675234  1
  O  O183  1  0.63585657  0.65633442  0.61566921  1
  O  O184  1  0.48772114  0.17206071  0.89281774  1
  O  O185  1  0.00094727  0.62667453  0.62832751  1
  O  O186  1  0.67920646  -0.01231511  0.35073079  1
  O  O187  1  0.33653492  0.29561577  0.61834778  1
  O  O188  1  0.13874133  0.52207562  0.13834335  1
  O  O189  1  -0.00081159  0.64417495  0.36243617  1
  O  O190  1  0.47460329  0.50543268  0.38793601  1
  O  O191  1  0.64459308  -0.00656730  0.88475415  1
  O  O192  1  0.66675427  -0.03707342  0.61434235  1
  O  O193  1  0.18138805  0.50503111  0.36634007  1
  O  O194  1  0.67493937  0.33186994  0.10733312  1
  O  O195  1  0.83530057  0.17566878  0.37551300  1
  O  O196  1  0.14940891  0.83058655  0.38069645  1
  O  O197  1  0.85827491  0.82655362  0.37566316  1
  O  O198  1  0.50009597  0.20234160  0.62804595  1
  O  O199  1  0.80264280  0.84070594  0.14059856  1
  O  O200  1  -0.03649791  0.32203078  0.63473409  1
  O  O201  1  0.87543743  0.48629408  0.63966163  1
  O  O202  1  0.35930110  -0.01314999  0.36364924  1
  O  O203  1  -0.02390852  0.33330242  0.36858955  1
  O  O204  1  0.51092280  0.83613340  0.14812028  1
  O  O205  1  0.30213207  -0.01311640  0.61509970  1
  O  O206  1  0.52807305  0.17951953  0.35913424  1
  O  O207  1  0.65454494  0.34124711  0.36179349  1
  O  O208  1  0.16734048  0.52432654  0.63243936  1
  O  O209  1  0.19078838  0.84246280  0.63522030  1
  O  O210  1  0.04289241  0.33436505  0.86088622  1
  O  O211  1  -0.02061404  0.67310998  0.89226855  1
  O  O212  1  0.62614443  0.34105665  0.63128011  1
  O  O213  1  0.31303858  0.32521027  0.88353302  1
  O  O214  1  0.82660108  0.50367073  0.12387819  1
  O  O215  1  0.34572764  -0.00843495  0.87515598  1
