# generated using pymatgen
data_Sr24Ta24N11O13
_symmetry_space_group_name_H-M   'P 1'
_cell_length_a   16.53886858
_cell_length_b   17.32676000
_cell_length_c   15.51971269
_cell_angle_alpha   90.38044339
_cell_angle_beta   89.71576334
_cell_angle_gamma   89.60992899
_symmetry_Int_Tables_number   1
_chemical_formula_structural   Sr24Ta24N11O13
_chemical_formula_sum   'Sr72 Ta72 N33 O39'
_cell_volume   4447.14973352
_cell_formula_units_Z   3
loop_
 _symmetry_equiv_pos_site_id
 _symmetry_equiv_pos_as_xyz
  1  'x, y, z'
loop_
 _atom_site_type_symbol
 _atom_site_label
 _atom_site_symmetry_multiplicity
 _atom_site_fract_x
 _atom_site_fract_y
 _atom_site_fract_z
 _atom_site_occupancy
  Sr  Sr0  1  -0.00162804  0.13735661  0.07758949  1
  Sr  Sr1  1  -0.00175366  0.17017257  0.63303665  1
  Sr  Sr2  1  0.00111239  0.50282121  0.11128659  1
  Sr  Sr3  1  0.00017065  0.48068967  0.65869501  1
  Sr  Sr4  1  -0.00129841  0.83769766  0.15570483  1
  Sr  Sr5  1  0.00013718  0.81435496  0.61636721  1
  Sr  Sr6  1  0.31661879  0.15690643  0.15002175  1
  Sr  Sr7  1  0.33898175  0.14997030  0.62847763  1
  Sr  Sr8  1  0.33666509  0.46500289  0.07400154  1
  Sr  Sr9  1  0.32687031  0.49160772  0.62433184  1
  Sr  Sr10  1  0.32838145  0.81035684  0.11539592  1
  Sr  Sr11  1  0.32966030  0.81531272  0.61817758  1
  Sr  Sr12  1  0.67021556  0.16390694  0.12445641  1
  Sr  Sr13  1  0.64909150  0.11817139  0.60553556  1
  Sr  Sr14  1  0.64513093  0.48727576  0.16179843  1
  Sr  Sr15  1  0.67989689  0.48775279  0.60115252  1
  Sr  Sr16  1  0.66628234  0.79270223  0.10105472  1
  Sr  Sr17  1  0.66453619  0.82335023  0.65169613  1
  Sr  Sr18  1  0.16418141  -0.00097881  0.11765992  1
  Sr  Sr19  1  0.16476467  0.03841853  0.67328209  1
  Sr  Sr20  1  0.16077820  0.34993859  0.12682272  1
  Sr  Sr21  1  0.17729097  0.34439691  0.60360583  1
  Sr  Sr22  1  0.15109579  0.67431961  0.16499945  1
  Sr  Sr23  1  0.17646243  0.67669752  0.61203693  1
  Sr  Sr24  1  0.50613790  0.04567570  0.16304723  1
  Sr  Sr25  1  0.49040062  0.00251512  0.61551206  1
  Sr  Sr26  1  0.50718245  0.34136375  0.10268141  1
  Sr  Sr27  1  0.50115803  0.36257070  0.63095148  1
  Sr  Sr28  1  0.49964898  0.66624801  0.11823731  1
  Sr  Sr29  1  0.50406975  0.69574622  0.65446671  1
  Sr  Sr30  1  0.83239176  0.00656777  0.13493038  1
  Sr  Sr31  1  0.85188759  0.01493255  0.60630130  1
  Sr  Sr32  1  0.83250711  0.35735554  0.15304931  1
  Sr  Sr33  1  0.83865014  0.33855829  0.62332978  1
  Sr  Sr34  1  0.84221640  0.66827317  0.07710117  1
  Sr  Sr35  1  0.82974345  0.68822639  0.63245261  1
  Sr  Sr36  1  -0.00788018  0.18237862  0.42107962  1
  Sr  Sr37  1  -0.00437091  0.15943538  0.85851836  1
  Sr  Sr38  1  0.02487828  0.48793865  0.32088679  1
  Sr  Sr39  1  -0.00997781  0.49106992  0.89199519  1
  Sr  Sr40  1  0.00037404  0.83797461  0.38225695  1
  Sr  Sr41  1  -0.00343429  0.80513689  0.85070264  1
  Sr  Sr42  1  0.33237895  0.15098499  0.36577107  1
  Sr  Sr43  1  0.33335399  0.13255692  0.85367223  1
  Sr  Sr44  1  0.32109427  0.48924417  0.41445392  1
  Sr  Sr45  1  0.33597939  0.48623278  0.86292967  1
  Sr  Sr46  1  0.33975686  0.81841508  0.38718327  1
  Sr  Sr47  1  0.32430893  0.82137068  0.89578690  1
  Sr  Sr48  1  0.66635588  0.12946539  0.35327843  1
  Sr  Sr49  1  0.65396218  0.15824506  0.89974699  1
  Sr  Sr50  1  0.67407691  0.50024925  0.37869172  1
  Sr  Sr51  1  0.66139737  0.45672381  0.83828806  1
  Sr  Sr52  1  0.66110508  0.80895515  0.35822868  1
  Sr  Sr53  1  0.66449032  0.82379958  0.87583217  1
  Sr  Sr54  1  0.16961842  0.01350044  0.34898778  1
  Sr  Sr55  1  0.17383071  0.00397920  0.89670948  1
  Sr  Sr56  1  0.17325770  0.32586749  0.37203546  1
  Sr  Sr57  1  0.16583018  0.37030837  0.89735782  1
  Sr  Sr58  1  0.16907332  0.68543280  0.38782893  1
  Sr  Sr59  1  0.17411965  0.69095408  0.84749713  1
  Sr  Sr60  1  0.49726029  0.00639474  0.38994438  1
  Sr  Sr61  1  0.51385833  0.02162408  0.85567429  1
  Sr  Sr62  1  0.50643027  0.37420742  0.39585444  1
  Sr  Sr63  1  0.49947468  0.33700677  0.87971688  1
  Sr  Sr64  1  0.51274958  0.67753356  0.32768735  1
  Sr  Sr65  1  0.49670447  0.69270018  0.89037910  1
  Sr  Sr66  1  0.83782652  0.00494356  0.37097605  1
  Sr  Sr67  1  0.83182268  0.03794481  0.90340196  1
  Sr  Sr68  1  0.83008509  0.34027764  0.37605279  1
  Sr  Sr69  1  0.84307225  0.34536277  0.84159627  1
  Sr  Sr70  1  0.82370077  0.67018941  0.41674259  1
  Sr  Sr71  1  0.82937918  0.67755397  0.87054223  1
  Ta  Ta72  1  0.17327402  0.19181334  -0.00904146  1
  Ta  Ta73  1  0.17637356  0.14736215  0.50169567  1
  Ta  Ta74  1  0.16861406  0.55360272  0.00034894  1
  Ta  Ta75  1  0.12509203  0.50665215  0.49938847  1
  Ta  Ta76  1  0.13498700  0.82543815  -0.00209152  1
  Ta  Ta77  1  0.16572435  0.88667647  0.51387349  1
  Ta  Ta78  1  0.46849290  0.16766496  0.00329918  1
  Ta  Ta79  1  0.49839785  0.19792464  0.49298928  1
  Ta  Ta80  1  0.52189727  0.51428834  -0.00202342  1
  Ta  Ta81  1  0.50368334  0.55356241  0.48856702  1
  Ta  Ta82  1  0.50326306  0.88963771  0.02006191  1
  Ta  Ta83  1  0.51704900  0.82007342  0.49258328  1
  Ta  Ta84  1  0.83177918  0.21997210  -0.00062552  1
  Ta  Ta85  1  0.80243868  0.18360922  0.50117725  1
  Ta  Ta86  1  0.79061452  0.48556405  -0.00523310  1
  Ta  Ta87  1  0.88924459  0.50042189  0.49472575  1
  Ta  Ta88  1  0.84847040  0.86130046  -0.01160117  1
  Ta  Ta89  1  0.80826358  0.84931769  0.50205498  1
  Ta  Ta90  1  0.11769442  0.17329904  0.25088493  1
  Ta  Ta91  1  0.17259001  0.21750979  0.75234162  1
  Ta  Ta92  1  0.22439113  0.50308519  0.23983715  1
  Ta  Ta93  1  0.16168767  0.52816562  0.75070551  1
  Ta  Ta94  1  0.18683341  0.85016118  0.26174728  1
  Ta  Ta95  1  0.16662631  0.86596694  0.74521522  1
  Ta  Ta96  1  0.49930159  0.22073248  0.26137544  1
  Ta  Ta97  1  0.50702877  0.19389692  0.74201912  1
  Ta  Ta98  1  0.44388372  0.50135874  0.24653438  1
  Ta  Ta99  1  0.50384344  0.53536824  0.74440972  1
  Ta  Ta100  1  0.49372390  0.86625000  0.24052892  1
  Ta  Ta101  1  0.48064562  0.86014682  0.75958002  1
  Ta  Ta102  1  0.87310248  0.17521784  0.25286796  1
  Ta  Ta103  1  0.79525667  0.16651100  0.73843512  1
  Ta  Ta104  1  0.83696937  0.53839326  0.24578019  1
  Ta  Ta105  1  0.82879540  0.52951881  0.75011641  1
  Ta  Ta106  1  0.82228391  0.80303661  0.24432348  1
  Ta  Ta107  1  0.83782460  0.88376026  0.76334593  1
  Ta  Ta108  1  0.00135642  0.04678279  0.25289981  1
  Ta  Ta109  1  -0.00789615  -0.02843023  0.76598103  1
  Ta  Ta110  1  -0.00121051  0.29197806  0.24756443  1
  Ta  Ta111  1  0.03432833  0.32369065  0.75284431  1
  Ta  Ta112  1  -0.05390862  0.66595631  0.24877058  1
  Ta  Ta113  1  0.00032503  0.63540243  0.75226765  1
  Ta  Ta114  1  0.33786007  -0.03883426  0.24934480  1
  Ta  Ta115  1  0.33588457  -0.04418401  0.75830888  1
  Ta  Ta116  1  0.34944059  0.34686771  0.24668759  1
  Ta  Ta117  1  0.32482200  0.30420376  0.76300222  1
  Ta  Ta118  1  0.33043781  0.63133035  0.25073502  1
  Ta  Ta119  1  0.34284043  0.64147807  0.74917960  1
  Ta  Ta120  1  0.66147956  -0.05073948  0.23603740  1
  Ta  Ta121  1  0.69650057  -0.00478834  0.75993666  1
  Ta  Ta122  1  0.65193336  0.31214533  0.26101002  1
  Ta  Ta123  1  0.66436955  0.28075276  0.73050232  1
  Ta  Ta124  1  0.71611506  0.65499999  0.24319505  1
  Ta  Ta125  1  0.66525899  0.62833029  0.75155527  1
  Ta  Ta126  1  -0.00433621  -0.04597973  -0.00966322  1
  Ta  Ta127  1  0.04042191  0.00508513  0.50810714  1
  Ta  Ta128  1  -0.01831012  0.31191838  0.00045746  1
  Ta  Ta129  1  0.00255654  0.37191533  0.49067224  1
  Ta  Ta130  1  0.03296026  0.67919746  0.00494827  1
  Ta  Ta131  1  0.00239416  0.62287114  0.49549121  1
  Ta  Ta132  1  0.37365119  -0.00258899  0.00641804  1
  Ta  Ta133  1  0.29553644  -0.00727799  0.50701976  1
  Ta  Ta134  1  0.32464355  0.28112982  -0.01049955  1
  Ta  Ta135  1  0.34942659  0.30081502  0.50062757  1
  Ta  Ta136  1  0.31163266  0.64315730  -0.00385769  1
  Ta  Ta137  1  0.38254044  0.66075925  0.50071753  1
  Ta  Ta138  1  0.65467786  -0.02531058  0.01543800  1
  Ta  Ta139  1  0.67356989  -0.04950204  0.49097365  1
  Ta  Ta140  1  0.69747911  0.33333482  -0.00169794  1
  Ta  Ta141  1  0.66199947  0.28741221  0.51265103  1
  Ta  Ta142  1  0.66602995  0.60603495  -0.00333952  1
  Ta  Ta143  1  0.63060499  0.66977039  0.49514997  1
  N  N144  1  0.33790827  0.66319161  0.61801012  1
  N  N145  1  0.67416066  0.64326436  0.12181208  1
  N  N146  1  0.82436481  0.82610122  0.87258056  1
  N  N147  1  0.15776638  0.17149360  0.37412009  1
  N  N148  1  0.49586492  0.17366839  0.87202494  1
  N  N149  1  -0.00551577  0.67001130  0.12772781  1
  N  N150  1  0.49223447  0.18811284  0.13022028  1
  N  N151  1  0.67140236  0.65579823  0.37619475  1
  N  N152  1  0.00152048  0.33258230  0.87605531  1
  N  N153  1  0.16523928  0.51386429  0.88169491  1
  N  N154  1  0.66831405  -0.02424846  0.36637736  1
  N  N155  1  0.16568460  0.84240874  0.38408378  1
  N  N156  1  0.33880734  -0.01452699  0.88785288  1
  N  N157  1  0.16203628  0.83910744  0.87612276  1
  N  N158  1  0.00350359  0.33759515  0.36705560  1
  N  N159  1  0.49168214  0.50378020  0.12053387  1
  N  N160  1  0.33821555  0.66926269  0.87766478  1
  N  N161  1  0.00845249  0.01178839  0.88204398  1
  N  N162  1  0.16206776  0.82725586  0.62284170  1
  N  N163  1  0.49611626  0.51857376  0.36085166  1
  N  N164  1  0.49503098  0.15779132  0.61689745  1
  N  N165  1  0.17237247  0.50686513  0.12753335  1
  N  N166  1  0.83424325  0.17186129  0.37435798  1
  N  N167  1  0.82643709  0.49799122  0.87239887  1
  N  N168  1  0.84348204  0.16738742  0.62447646  1
  N  N169  1  0.49568292  0.15818138  0.36561917  1
  N  N170  1  0.67241913  -0.00380100  0.88369554  1
  N  N171  1  0.16583285  0.50619505  0.61748047  1
  N  N172  1  0.16648067  0.18399776  0.62742622  1
  N  N173  1  0.49803295  0.83783366  0.36979349  1
  N  N174  1  0.66369302  0.34183220  0.62317889  1
  N  N175  1  0.67367903  0.01674948  0.13728306  1
  N  N176  1  0.33805984  0.33935347  0.88350618  1
  O  O177  1  0.66723516  -0.02633583  0.62985382  1
  O  O178  1  0.01400835  0.01314682  0.37971995  1
  O  O179  1  0.16641874  0.84079654  0.12962336  1
  O  O180  1  0.82633069  0.84791045  0.63246616  1
  O  O181  1  0.66343018  0.33400463  0.38607791  1
  O  O182  1  0.84011481  0.51532535  0.37521198  1
  O  O183  1  0.82510185  0.82351398  0.37728799  1
  O  O184  1  0.00222734  -0.00267281  0.12868067  1
  O  O185  1  -0.00722923  0.65299568  0.88134929  1
  O  O186  1  0.50039643  0.84553714  0.63065377  1
  O  O187  1  0.83207228  0.82162131  0.11721142  1
  O  O188  1  0.67596523  0.31462654  0.86898046  1
  O  O189  1  0.83767240  0.50863773  0.11537580  1
  O  O190  1  0.01279643  0.00845739  0.63561585  1
  O  O191  1  0.50805455  0.51485038  0.61822388  1
  O  O192  1  -0.00469771  0.64925831  0.36885499  1
  O  O193  1  0.17392379  0.50071066  0.36692022  1
  O  O194  1  -0.00477164  0.34647031  0.12568908  1
  O  O195  1  0.16177037  0.15743551  0.86936947  1
  O  O196  1  0.48943328  0.81385560  0.11611892  1
  O  O197  1  0.01253294  0.33520466  0.62183860  1
  O  O198  1  0.66675038  0.65944803  0.87518477  1
  O  O199  1  0.83334007  0.19448071  0.12606538  1
  O  O200  1  0.33751332  0.66036524  0.12656498  1
  O  O201  1  0.33760485  0.30731561  0.62637939  1
  O  O202  1  0.15717438  0.18241295  0.11804722  1
  O  O203  1  0.82750948  0.19184927  0.86917137  1
  O  O204  1  0.49782898  0.50684475  0.86767009  1
  O  O205  1  0.67317732  0.32357631  0.13385659  1
  O  O206  1  0.33889170  0.33559116  0.37583725  1
  O  O207  1  0.32863813  0.65253197  0.38133265  1
  O  O208  1  0.33362032  0.32080749  0.12126495  1
  O  O209  1  -0.00354216  0.64888509  0.62551753  1
  O  O210  1  0.84335630  0.50545172  0.61955049  1
  O  O211  1  0.50032409  0.85302638  0.88643880  1
  O  O212  1  0.32727700  -0.01718787  0.38146388  1
  O  O213  1  0.31768508  -0.01541282  0.12683268  1
  O  O214  1  0.32007480  -0.00184601  0.63512192  1
  O  O215  1  0.67157772  0.64604918  0.62189086  1
