# generated using pymatgen
data_Sr24Ta24N11O13
_symmetry_space_group_name_H-M   'P 1'
_cell_length_a   16.94214534
_cell_length_b   16.81238765
_cell_length_c   15.77190645
_cell_angle_alpha   90.03657452
_cell_angle_beta   89.83261125
_cell_angle_gamma   89.75415978
_symmetry_Int_Tables_number   1
_chemical_formula_structural   Sr24Ta24N11O13
_chemical_formula_sum   'Sr72 Ta72 N33 O39'
_cell_volume   4492.37547658
_cell_formula_units_Z   3
loop_
 _symmetry_equiv_pos_site_id
 _symmetry_equiv_pos_as_xyz
  1  'x, y, z'
loop_
 _atom_site_type_symbol
 _atom_site_label
 _atom_site_symmetry_multiplicity
 _atom_site_fract_x
 _atom_site_fract_y
 _atom_site_fract_z
 _atom_site_occupancy
  Sr  Sr0  1  0.01938120  0.17211402  0.14012011  1
  Sr  Sr1  1  0.00900557  0.17342271  0.62914531  1
  Sr  Sr2  1  0.01068855  0.51459376  0.11592770  1
  Sr  Sr3  1  0.01264096  0.52508233  0.64593965  1
  Sr  Sr4  1  -0.00166411  0.84253206  0.10288623  1
  Sr  Sr5  1  0.00979398  0.84044649  0.59448049  1
  Sr  Sr6  1  0.35664140  0.17407600  0.15437810  1
  Sr  Sr7  1  0.34966265  0.15856019  0.60861815  1
  Sr  Sr8  1  0.35336301  0.49018272  0.09428775  1
  Sr  Sr9  1  0.33989010  0.50312511  0.62193272  1
  Sr  Sr10  1  0.34676311  0.82942743  0.11463012  1
  Sr  Sr11  1  0.31782808  0.83104583  0.66769868  1
  Sr  Sr12  1  0.67091128  0.17152370  0.10106118  1
  Sr  Sr13  1  0.69001023  0.18516726  0.62330972  1
  Sr  Sr14  1  0.67967722  0.52212726  0.14431211  1
  Sr  Sr15  1  0.68323838  0.50588995  0.62725757  1
  Sr  Sr16  1  0.67934861  0.85365917  0.16000594  1
  Sr  Sr17  1  0.64944367  0.83610784  0.61600366  1
  Sr  Sr18  1  0.14880520  -0.00554363  0.10901858  1
  Sr  Sr19  1  0.15215071  0.00760464  0.61474489  1
  Sr  Sr20  1  0.15431377  0.34385125  0.12124019  1
  Sr  Sr21  1  0.13831714  0.32777998  0.64005685  1
  Sr  Sr22  1  0.17326157  0.66954163  0.15981311  1
  Sr  Sr23  1  0.16207450  0.66241048  0.61112887  1
  Sr  Sr24  1  0.48782318  -0.01158941  0.15059448  1
  Sr  Sr25  1  0.48340190  -0.01018715  0.62696583  1
  Sr  Sr26  1  0.48793839  0.31825635  0.10531416  1
  Sr  Sr27  1  0.47123145  0.33048517  0.63822322  1
  Sr  Sr28  1  0.49523451  0.65389398  0.12380381  1
  Sr  Sr29  1  0.51205467  0.65794625  0.58574194  1
  Sr  Sr30  1  0.81658367  -0.01125339  0.10705574  1
  Sr  Sr31  1  0.81282475  -0.02624664  0.62537258  1
  Sr  Sr32  1  0.80738895  0.31219036  0.14793422  1
  Sr  Sr33  1  0.82750627  0.33017334  0.60996230  1
  Sr  Sr34  1  0.84922631  0.65710250  0.11538376  1
  Sr  Sr35  1  0.82566590  0.65944268  0.66624056  1
  Sr  Sr36  1  0.00327331  0.18140268  0.36995061  1
  Sr  Sr37  1  0.02106017  0.16876542  0.85588881  1
  Sr  Sr38  1  0.02172792  0.52643809  0.35488553  1
  Sr  Sr39  1  0.00774068  0.50709907  0.88202518  1
  Sr  Sr40  1  0.00563518  0.84248701  0.39247237  1
  Sr  Sr41  1  -0.00581470  0.84146930  0.90507206  1
  Sr  Sr42  1  0.34656249  0.15924073  0.38140928  1
  Sr  Sr43  1  0.36310254  0.16970812  0.85289798  1
  Sr  Sr44  1  0.34335328  0.50380747  0.40793822  1
  Sr  Sr45  1  0.35004047  0.49503223  0.87537567  1
  Sr  Sr46  1  0.32736385  0.82258260  0.33189862  1
  Sr  Sr47  1  0.33703821  0.83751279  0.88473796  1
  Sr  Sr48  1  0.69144862  0.18701637  0.38007460  1
  Sr  Sr49  1  0.67075648  0.17681143  0.89463911  1
  Sr  Sr50  1  0.67512857  0.50900282  0.36907318  1
  Sr  Sr51  1  0.68560691  0.52677013  0.86974979  1
  Sr  Sr52  1  0.64968675  0.84266398  0.39373916  1
  Sr  Sr53  1  0.67903622  0.84292300  0.83728466  1
  Sr  Sr54  1  0.14672720  0.00334115  0.39024624  1
  Sr  Sr55  1  0.15451281  -0.00480572  0.88672653  1
  Sr  Sr56  1  0.15076661  0.33235792  0.34734002  1
  Sr  Sr57  1  0.14050274  0.33680461  0.89036644  1
  Sr  Sr58  1  0.16680179  0.66340583  0.38458171  1
  Sr  Sr59  1  0.19131297  0.66520728  0.82567640  1
  Sr  Sr60  1  0.48312259  -0.00193748  0.37441385  1
  Sr  Sr61  1  0.48381690  -0.01693605  0.85565427  1
  Sr  Sr62  1  0.46621137  0.32177369  0.38700919  1
  Sr  Sr63  1  0.48838181  0.33111720  0.87618768  1
  Sr  Sr64  1  0.50106822  0.64837183  0.37785158  1
  Sr  Sr65  1  0.49188606  0.66190808  0.91661480  1
  Sr  Sr66  1  0.81329064  -0.03125404  0.38351349  1
  Sr  Sr67  1  0.81859843  -0.01063758  0.87862605  1
  Sr  Sr68  1  0.82447754  0.33715823  0.38746674  1
  Sr  Sr69  1  0.81269128  0.31424625  0.86141790  1
  Sr  Sr70  1  0.83110843  0.65748619  0.34148409  1
  Sr  Sr71  1  0.85813453  0.65559184  0.88734669  1
  Ta  Ta72  1  0.20993224  0.16689687  -0.00232123  1
  Ta  Ta73  1  0.17635835  0.18960412  0.50201144  1
  Ta  Ta74  1  0.18037449  0.53573016  -0.00158440  1
  Ta  Ta75  1  0.16035148  0.46989907  0.49904368  1
  Ta  Ta76  1  0.17386418  0.79655819  -0.00591915  1
  Ta  Ta77  1  0.20656706  0.83387366  0.50305664  1
  Ta  Ta78  1  0.49498062  0.12876865  0.00305424  1
  Ta  Ta79  1  0.53474220  0.16648654  0.49669093  1
  Ta  Ta80  1  0.54173663  0.48427236  0.00353705  1
  Ta  Ta81  1  0.52568052  0.47366138  0.49861383  1
  Ta  Ta82  1  0.54603878  0.83798019  0.00458204  1
  Ta  Ta83  1  0.44300661  0.82803404  0.49990549  1
  Ta  Ta84  1  0.86644605  0.16438052  -0.00001796  1
  Ta  Ta85  1  0.85041272  0.12965162  0.49980723  1
  Ta  Ta86  1  0.82946745  0.45711501  0.00353221  1
  Ta  Ta87  1  0.85742028  0.52256589  0.50109869  1
  Ta  Ta88  1  0.80081280  0.81955573  -0.00278612  1
  Ta  Ta89  1  0.83237388  0.79209776  0.50186352  1
  Ta  Ta90  1  0.18885926  0.14787001  0.25000300  1
  Ta  Ta91  1  0.20039080  0.16681990  0.74678789  1
  Ta  Ta92  1  0.21239078  0.50064270  0.25408414  1
  Ta  Ta93  1  0.18496788  0.47878936  0.74506367  1
  Ta  Ta94  1  0.14669660  0.84555409  0.24912383  1
  Ta  Ta95  1  0.13151959  0.84522669  0.74602619  1
  Ta  Ta96  1  0.53843042  0.17254147  0.25198313  1
  Ta  Ta97  1  0.53734785  0.16261019  0.75372093  1
  Ta  Ta98  1  0.48948685  0.47336414  0.24965445  1
  Ta  Ta99  1  0.51592271  0.52373155  0.75646878  1
  Ta  Ta100  1  0.51107341  0.80589087  0.24965694  1
  Ta  Ta101  1  0.49864972  0.79187433  0.75118211  1
  Ta  Ta102  1  0.83682069  0.12546812  0.24803858  1
  Ta  Ta103  1  0.84085884  0.14063007  0.75021860  1
  Ta  Ta104  1  0.85801872  0.47909266  0.24290756  1
  Ta  Ta105  1  0.84788399  0.47426571  0.75906249  1
  Ta  Ta106  1  0.86475266  0.82901413  0.24242945  1
  Ta  Ta107  1  0.87635344  0.83022120  0.75430607  1
  Ta  Ta108  1  -0.02737883  -0.01025939  0.24309704  1
  Ta  Ta109  1  -0.01502111  -0.02164898  0.75416586  1
  Ta  Ta110  1  -0.02610142  0.35749958  0.24454162  1
  Ta  Ta111  1  -0.02847524  0.35060674  0.75633642  1
  Ta  Ta112  1  0.00331099  0.70678865  0.25200861  1
  Ta  Ta113  1  0.00811978  0.70855420  0.74947886  1
  Ta  Ta114  1  0.29236397  0.00274211  0.25258305  1
  Ta  Ta115  1  0.30059715  0.01348021  0.74892838  1
  Ta  Ta116  1  0.32566552  0.36165663  0.25117066  1
  Ta  Ta117  1  0.29517600  0.33127246  0.74445187  1
  Ta  Ta118  1  0.34117762  0.63124944  0.24897676  1
  Ta  Ta119  1  0.38453587  0.66091829  0.75309547  1
  Ta  Ta120  1  0.66640441  0.03835263  0.24652923  1
  Ta  Ta121  1  0.65725308  0.03480933  0.75208493  1
  Ta  Ta122  1  0.62550796  0.33593521  0.25106342  1
  Ta  Ta123  1  0.64406133  0.34463163  0.75286343  1
  Ta  Ta124  1  0.65206646  0.69146891  0.25767932  1
  Ta  Ta125  1  0.62145930  0.67259896  0.74647323  1
  Ta  Ta126  1  -0.02368258  0.03339791  -0.00185321  1
  Ta  Ta127  1  -0.02981906  0.02209309  0.49995221  1
  Ta  Ta128  1  -0.04613801  0.32088859  -0.00093006  1
  Ta  Ta129  1  0.00091809  0.37663513  0.49898260  1
  Ta  Ta130  1  0.06153678  0.67186777  -0.01014824  1
  Ta  Ta131  1  -0.03709484  0.66631683  0.50208443  1
  Ta  Ta132  1  0.33076579  0.03179048  -0.00219945  1
  Ta  Ta133  1  0.32056168  -0.04162207  0.50049689  1
  Ta  Ta134  1  0.31273455  0.30508933  0.00124390  1
  Ta  Ta135  1  0.28434256  0.32862050  0.49920682  1
  Ta  Ta136  1  0.29797725  0.66362306  -0.00014707  1
  Ta  Ta137  1  0.33290379  0.70201654  0.49726037  1
  Ta  Ta138  1  0.63216772  -0.01509236  0.00358275  1
  Ta  Ta139  1  0.65110833  0.03256393  0.49872818  1
  Ta  Ta140  1  0.66521227  0.37055926  0.00275780  1
  Ta  Ta141  1  0.62791057  0.34072726  0.50017134  1
  Ta  Ta142  1  0.67128162  0.70544396  0.00134436  1
  Ta  Ta143  1  0.70599016  0.66877237  0.50316174  1
  N  N144  1  0.83977571  0.82879232  0.12204335  1
  N  N145  1  0.33346951  0.66673087  0.37642193  1
  N  N146  1  0.34221625  0.66328019  0.87200457  1
  N  N147  1  0.16469598  0.83408938  0.62660033  1
  N  N148  1  -0.01295283  0.32874415  0.87708967  1
  N  N149  1  0.66732305  0.67355538  0.37954906  1
  N  N150  1  0.66547634  0.67074961  0.62718002  1
  N  N151  1  0.31654431  -0.00801576  0.37214778  1
  N  N152  1  0.31614671  0.33126780  0.37343380  1
  N  N153  1  0.83614788  0.82757896  0.87374767  1
  N  N154  1  0.83886695  0.49723838  0.87943014  1
  N  N155  1  0.33329426  0.66054274  0.12406109  1
  N  N156  1  -0.00716471  -0.00062969  0.87539117  1
  N  N157  1  0.50572509  0.49457148  0.37726341  1
  N  N158  1  0.17293223  0.50295298  0.62646822  1
  N  N159  1  0.51103596  0.50421627  0.87799850  1
  N  N160  1  -0.00744610  0.00074974  0.12293000  1
  N  N161  1  0.83872272  0.49971646  0.12134290  1
  N  N162  1  0.65816702  0.00696789  0.12699098  1
  N  N163  1  0.51368905  0.16022104  0.87744105  1
  N  N164  1  0.50994356  0.82603418  0.12592829  1
  N  N165  1  0.50467496  0.16569935  0.37744311  1
  N  N166  1  0.32418845  0.32896933  0.12180935  1
  N  N167  1  0.00086931  0.67814986  0.62033553  1
  N  N168  1  -0.00177718  0.68298190  0.37242432  1
  N  N169  1  0.17831514  0.50031297  0.37514956  1
  N  N170  1  0.16973045  0.16555243  0.62286908  1
  N  N171  1  0.32722515  0.00010711  0.87737037  1
  N  N172  1  0.50882166  0.15935570  0.12489697  1
  N  N173  1  0.50946718  0.49675492  0.12532284  1
  N  N174  1  0.02157643  0.66895431  0.87013178  1
  N  N175  1  0.32218477  -0.00695441  0.62629226  1
  N  N176  1  0.32093957  0.33121081  0.62455480  1
  O  O177  1  0.84073100  0.15776088  0.87230345  1
  O  O178  1  0.66089957  0.68537352  0.87264993  1
  O  O179  1  0.18093182  0.16917066  0.87686378  1
  O  O180  1  0.50847117  0.81872758  0.87776734  1
  O  O181  1  0.01992985  0.67703459  0.11627411  1
  O  O182  1  0.84595643  0.15552618  0.62694817  1
  O  O183  1  0.65357170  0.33800110  0.12908979  1
  O  O184  1  0.35159783  0.66259967  0.62669097  1
  O  O185  1  0.83823975  0.81526972  0.37661669  1
  O  O186  1  -0.01299617  0.00514768  0.37578828  1
  O  O187  1  0.18729311  0.16312213  0.12651263  1
  O  O188  1  0.32862453  0.32983729  0.87431858  1
  O  O189  1  0.84171440  0.13811424  0.37006337  1
  O  O190  1  0.16757258  0.16013200  0.37410711  1
  O  O191  1  0.83719458  0.81705411  0.62941824  1
  O  O192  1  0.48641897  0.82364084  0.37999229  1
  O  O193  1  0.84098474  0.15734544  0.12689118  1
  O  O194  1  0.17875883  0.50955835  0.87453266  1
  O  O195  1  0.64929817  0.33976695  0.37175851  1
  O  O196  1  -0.01475102  0.35736759  0.62080175  1
  O  O197  1  0.84864799  0.50382847  0.37629555  1
  O  O198  1  -0.01043216  0.33198327  0.12308827  1
  O  O199  1  0.16300404  0.82591263  0.12591543  1
  O  O200  1  0.65732408  0.34385725  0.87508558  1
  O  O201  1  0.65963098  0.01010178  0.37539192  1
  O  O202  1  0.17699156  0.51166469  0.12425143  1
  O  O203  1  0.31911705  -0.00567863  0.12044799  1
  O  O204  1  -0.01270515  0.00406092  0.62254494  1
  O  O205  1  0.65554397  0.00934131  0.87457290  1
  O  O206  1  0.66993795  0.68348260  0.12462285  1
  O  O207  1  0.51137405  0.50353269  0.62155870  1
  O  O208  1  0.17722412  0.82151583  0.86777191  1
  O  O209  1  0.50846952  0.17367011  0.62844422  1
  O  O210  1  -0.01056793  0.35807073  0.37535919  1
  O  O211  1  0.16444610  0.84197788  0.37489087  1
  O  O212  1  0.48865424  0.81554412  0.62249978  1
  O  O213  1  0.64726017  0.33799586  0.62869279  1
  O  O214  1  0.84394149  0.50482933  0.62602049  1
  O  O215  1  0.65989566  0.01934815  0.62275645  1
