# generated using pymatgen
data_Sr24Ta24N11O13
_symmetry_space_group_name_H-M   'P 1'
_cell_length_a   16.78983708
_cell_length_b   16.86489064
_cell_length_c   15.77250175
_cell_angle_alpha   89.59508195
_cell_angle_beta   90.28458296
_cell_angle_gamma   89.98263173
_symmetry_Int_Tables_number   1
_chemical_formula_structural   Sr24Ta24N11O13
_chemical_formula_sum   'Sr72 Ta72 N33 O39'
_cell_volume   4465.95526323
_cell_formula_units_Z   3
loop_
 _symmetry_equiv_pos_site_id
 _symmetry_equiv_pos_as_xyz
  1  'x, y, z'
loop_
 _atom_site_type_symbol
 _atom_site_label
 _atom_site_symmetry_multiplicity
 _atom_site_fract_x
 _atom_site_fract_y
 _atom_site_fract_z
 _atom_site_occupancy
  Sr  Sr0  1  0.00607154  0.14628415  0.13963992  1
  Sr  Sr1  1  -0.01845640  0.15695966  0.58229539  1
  Sr  Sr2  1  -0.00403840  0.50592753  0.11179413  1
  Sr  Sr3  1  -0.00381812  0.46526924  0.65473413  1
  Sr  Sr4  1  -0.00400663  0.81526883  0.15693028  1
  Sr  Sr5  1  0.00104300  0.81972739  0.62677568  1
  Sr  Sr6  1  0.32922821  0.17820088  0.08495731  1
  Sr  Sr7  1  0.32646420  0.15574375  0.63524561  1
  Sr  Sr8  1  0.33576589  0.47999569  0.16377135  1
  Sr  Sr9  1  0.32148092  0.49817087  0.61612114  1
  Sr  Sr10  1  0.33871113  0.83114305  0.12516097  1
  Sr  Sr11  1  0.35825482  0.82268816  0.63618191  1
  Sr  Sr12  1  0.65767325  0.16681237  0.12063622  1
  Sr  Sr13  1  0.67165619  0.14665558  0.66820769  1
  Sr  Sr14  1  0.64191298  0.48222006  0.10710750  1
  Sr  Sr15  1  0.67076811  0.50041326  0.63392682  1
  Sr  Sr16  1  0.67590506  0.81149107  0.12352010  1
  Sr  Sr17  1  0.67119515  0.83596976  0.58904080  1
  Sr  Sr18  1  0.17151419  0.01393857  0.11164984  1
  Sr  Sr19  1  0.15664690  0.02077632  0.62165979  1
  Sr  Sr20  1  0.16116851  0.35053003  0.12988657  1
  Sr  Sr21  1  0.17167864  0.34443920  0.65920232  1
  Sr  Sr22  1  0.18073012  0.68479545  0.11364147  1
  Sr  Sr23  1  0.16391442  0.67688516  0.60377463  1
  Sr  Sr24  1  0.49981750  -0.00068266  0.16098703  1
  Sr  Sr25  1  0.49823489  -0.01400524  0.61145605  1
  Sr  Sr26  1  0.50101862  0.32073073  0.13192378  1
  Sr  Sr27  1  0.47760585  0.33710892  0.56851413  1
  Sr  Sr28  1  0.50028335  0.67852444  0.11176825  1
  Sr  Sr29  1  0.49976800  0.64717705  0.67608462  1
  Sr  Sr30  1  0.83076267  0.02487654  0.11009604  1
  Sr  Sr31  1  0.83357468  0.00980690  0.63886961  1
  Sr  Sr32  1  0.84602638  0.36302188  0.11024829  1
  Sr  Sr33  1  0.82762657  0.33476174  0.62632601  1
  Sr  Sr34  1  0.84404581  0.67028364  0.14093967  1
  Sr  Sr35  1  0.82930960  0.69292986  0.60064973  1
  Sr  Sr36  1  0.01074882  0.16323440  0.36907625  1
  Sr  Sr37  1  -0.00873022  0.13431040  0.91316015  1
  Sr  Sr38  1  -0.01043315  0.48165663  0.34835945  1
  Sr  Sr39  1  0.00849323  0.49566039  0.89386818  1
  Sr  Sr40  1  0.00612522  0.80121936  0.38731980  1
  Sr  Sr41  1  -0.00211930  0.83434364  0.83153087  1
  Sr  Sr42  1  0.34864266  0.15895866  0.42024990  1
  Sr  Sr43  1  0.31703164  0.16871666  0.86684024  1
  Sr  Sr44  1  0.33486103  0.48908153  0.38125618  1
  Sr  Sr45  1  0.33383005  0.49625637  0.83656765  1
  Sr  Sr46  1  0.34083580  0.83277251  0.36144466  1
  Sr  Sr47  1  0.33591435  0.81907927  0.89727092  1
  Sr  Sr48  1  0.65221199  0.15704687  0.33264222  1
  Sr  Sr49  1  0.67158930  0.16446496  0.87693031  1
  Sr  Sr50  1  0.66463360  0.47537384  0.40888749  1
  Sr  Sr51  1  0.64526796  0.49723313  0.86390712  1
  Sr  Sr52  1  0.67322820  0.82349515  0.37932367  1
  Sr  Sr53  1  0.68007188  0.82808057  0.91133354  1
  Sr  Sr54  1  0.16104383  0.02440098  0.37919870  1
  Sr  Sr55  1  0.16604183  0.00685405  0.88607922  1
  Sr  Sr56  1  0.15733407  0.34711895  0.34182041  1
  Sr  Sr57  1  0.16866711  0.34761260  0.86781929  1
  Sr  Sr58  1  0.18694141  0.67646128  0.39056503  1
  Sr  Sr59  1  0.16320841  0.67822331  0.89148945  1
  Sr  Sr60  1  0.50539369  -0.01118444  0.38680970  1
  Sr  Sr61  1  0.49315342  0.01632643  0.82619250  1
  Sr  Sr62  1  0.50258149  0.33826180  0.36166983  1
  Sr  Sr63  1  0.50499349  0.31284244  0.91745278  1
  Sr  Sr64  1  0.50173940  0.67451795  0.34375913  1
  Sr  Sr65  1  0.50004651  0.68117166  0.88776082  1
  Sr  Sr66  1  0.83731591  0.03263810  0.36271315  1
  Sr  Sr67  1  0.82576675  0.00607367  0.87942325  1
  Sr  Sr68  1  0.84088724  0.34099886  0.40774368  1
  Sr  Sr69  1  0.83181681  0.35856431  0.84821209  1
  Sr  Sr70  1  0.82849252  0.67684856  0.37064898  1
  Sr  Sr71  1  0.84388330  0.68619741  0.88149246  1
  Ta  Ta72  1  0.14891578  0.19840933  -0.00150054  1
  Ta  Ta73  1  0.16698992  0.20730239  0.49840306  1
  Ta  Ta74  1  0.20682704  0.50559826  -0.00468860  1
  Ta  Ta75  1  0.14101581  0.48470899  0.50482560  1
  Ta  Ta76  1  0.12339402  0.84120121  -0.00225319  1
  Ta  Ta77  1  0.17683423  0.86276757  0.50458171  1
  Ta  Ta78  1  0.49686703  0.12062713  0.00139304  1
  Ta  Ta79  1  0.54855245  0.15990128  0.50138927  1
  Ta  Ta80  1  0.46001495  0.49363557  -0.00156343  1
  Ta  Ta81  1  0.49604519  0.54006777  0.50187259  1
  Ta  Ta82  1  0.50346771  0.87958706  -0.00566179  1
  Ta  Ta83  1  0.50088180  0.78516910  0.50742122  1
  Ta  Ta84  1  0.83418246  0.21137235  -0.00697917  1
  Ta  Ta85  1  0.78606287  0.16800923  0.50568412  1
  Ta  Ta86  1  0.80377098  0.52241004  0.00111458  1
  Ta  Ta87  1  0.85627326  0.51954421  0.50234822  1
  Ta  Ta88  1  0.87321746  0.84007359  -0.00357800  1
  Ta  Ta89  1  0.84700112  0.87687806  0.50124139  1
  Ta  Ta90  1  0.21402820  0.17298418  0.25477860  1
  Ta  Ta91  1  0.12227995  0.16782663  0.75356441  1
  Ta  Ta92  1  0.16474533  0.53499280  0.24933840  1
  Ta  Ta93  1  0.15963824  0.54041526  0.75035756  1
  Ta  Ta94  1  0.15992549  0.86039745  0.24998187  1
  Ta  Ta95  1  0.19151425  0.83948626  0.75497914  1
  Ta  Ta96  1  0.45214575  0.16058931  0.24819909  1
  Ta  Ta97  1  0.49682491  0.21908985  0.74335895  1
  Ta  Ta98  1  0.51466242  0.51370987  0.25660073  1
  Ta  Ta99  1  0.49519126  0.43226598  0.74399894  1
  Ta  Ta100  1  0.52008709  0.83663781  0.24499319  1
  Ta  Ta101  1  0.54601662  0.83127062  0.75289604  1
  Ta  Ta102  1  0.83200045  0.21051517  0.24851284  1
  Ta  Ta103  1  0.86775544  0.17277137  0.75153618  1
  Ta  Ta104  1  0.79814381  0.49813780  0.24833985  1
  Ta  Ta105  1  0.84010686  0.54851516  0.75131603  1
  Ta  Ta106  1  0.83112987  0.87124481  0.24827636  1
  Ta  Ta107  1  0.80189487  0.83809553  0.74871956  1
  Ta  Ta108  1  0.00134444  -0.02888510  0.24733952  1
  Ta  Ta109  1  0.00057224  0.02778243  0.75061532  1
  Ta  Ta110  1  -0.02814524  0.31475875  0.25230636  1
  Ta  Ta111  1  -0.00195462  0.28055474  0.74822390  1
  Ta  Ta112  1  0.03427713  0.64772404  0.24698323  1
  Ta  Ta113  1  0.00036050  0.64215625  0.75357482  1
  Ta  Ta114  1  0.32541559  0.03133698  0.25153831  1
  Ta  Ta115  1  0.30965419  -0.02792602  0.74865829  1
  Ta  Ta116  1  0.33223246  0.29305458  0.25553194  1
  Ta  Ta117  1  0.36482082  0.32608685  0.74173101  1
  Ta  Ta118  1  0.33213890  0.65173318  0.24383379  1
  Ta  Ta119  1  0.30060828  0.67136716  0.75559607  1
  Ta  Ta120  1  0.67641681  -0.02857320  0.25139396  1
  Ta  Ta121  1  0.66611539  -0.04363984  0.74582427  1
  Ta  Ta122  1  0.70106076  0.34153428  0.25377348  1
  Ta  Ta123  1  0.62779245  0.32786422  0.74505680  1
  Ta  Ta124  1  0.66346960  0.62015294  0.25486237  1
  Ta  Ta125  1  0.68534226  0.69379652  0.74626142  1
  Ta  Ta126  1  -0.00170473  -0.04744830  -0.00015887  1
  Ta  Ta127  1  -0.00437971  -0.02929879  0.50174989  1
  Ta  Ta128  1  0.00225306  0.30482050  -0.00488563  1
  Ta  Ta129  1  0.03355271  0.33563002  0.50227854  1
  Ta  Ta130  1  0.00110626  0.70131995  -0.00002421  1
  Ta  Ta131  1  -0.00171602  0.60966262  0.50283608  1
  Ta  Ta132  1  0.37659936  0.00238482  -0.00247835  1
  Ta  Ta133  1  0.31278919  -0.02723589  0.50711580  1
  Ta  Ta134  1  0.32642002  0.36565701  0.00358425  1
  Ta  Ta135  1  0.28492674  0.33057800  0.49534345  1
  Ta  Ta136  1  0.33822015  0.61705911  -0.00237992  1
  Ta  Ta137  1  0.37502702  0.66486381  0.50366522  1
  Ta  Ta138  1  0.62423639  0.00297024  -0.00305648  1
  Ta  Ta139  1  0.67857212  0.02564637  0.49890522  1
  Ta  Ta140  1  0.69472363  0.33152470  -0.00873283  1
  Ta  Ta141  1  0.66277528  0.28412087  0.49796461  1
  Ta  Ta142  1  0.68549353  0.64192310  0.00086681  1
  Ta  Ta143  1  0.62566105  0.65525514  0.50674387  1
  N  N144  1  0.33146098  0.33071027  0.37994673  1
  N  N145  1  0.67014079  0.32315196  0.37181226  1
  N  N146  1  -0.00290935  -0.01175735  0.86799753  1
  N  N147  1  -0.00004879  0.31431309  0.62127382  1
  N  N148  1  -0.00094595  -0.00817866  0.12724094  1
  N  N149  1  0.17013123  0.50576462  0.87535745  1
  N  N150  1  0.33248448  0.33140097  0.12316091  1
  N  N151  1  0.17501758  0.17933315  0.37487811  1
  N  N152  1  0.66812388  -0.00543289  0.37128826  1
  N  N153  1  0.32911977  0.33098778  0.62095897  1
  N  N154  1  0.83549811  0.84856557  0.62172014  1
  N  N155  1  0.16364329  0.83741933  0.87474537  1
  N  N156  1  0.00173878  -0.00758130  0.62303159  1
  N  N157  1  0.83088548  0.17804680  0.87466275  1
  N  N158  1  0.66500068  0.66494574  0.62666249  1
  N  N159  1  0.66378825  -0.00752694  0.62531001  1
  N  N160  1  0.48834957  0.15727863  0.12793620  1
  N  N161  1  0.01103406  0.66206719  0.12502201  1
  N  N162  1  0.33889194  0.66083862  0.87031801  1
  N  N163  1  0.66650117  0.33531799  0.87136198  1
  N  N164  1  0.50633227  0.83687944  0.12464558  1
  N  N165  1  0.83753057  0.84297722  0.87426674  1
  N  N166  1  0.00338726  0.66530450  0.87576718  1
  N  N167  1  0.49892297  0.50069163  0.37722016  1
  N  N168  1  -0.00335435  0.32393657  0.37278388  1
  N  N169  1  0.82445515  0.17479910  0.62576743  1
  N  N170  1  0.34076017  0.65795057  0.12380465  1
  N  N171  1  0.16047921  0.50366374  0.62595547  1
  N  N172  1  0.50860422  0.83732701  0.87787972  1
  N  N173  1  0.82467762  0.51232698  0.12804197  1
  N  N174  1  0.51170842  0.81744739  0.62850153  1
  N  N175  1  0.15927719  0.17330894  0.87788879  1
  N  N176  1  0.33521039  -0.00440644  0.62719254  1
  O  O177  1  0.83526160  0.52174920  0.87382968  1
  O  O178  1  0.49740260  0.16988020  0.86435904  1
  O  O179  1  0.48686674  0.50073217  0.12344920  1
  O  O180  1  0.83301107  0.50767919  0.37887289  1
  O  O181  1  0.83159178  0.85291648  0.37263306  1
  O  O182  1  0.49511295  0.48514280  0.61769084  1
  O  O183  1  0.67537239  0.66759495  0.87839814  1
  O  O184  1  0.33876509  0.00991650  0.12665593  1
  O  O185  1  0.16408339  0.17587315  0.63237265  1
  O  O186  1  0.66631910  0.64309433  0.38082075  1
  O  O187  1  0.82135989  0.18575081  0.37458309  1
  O  O188  1  0.17205817  0.51295666  0.12295178  1
  O  O189  1  0.00598567  0.65635820  0.61775673  1
  O  O190  1  0.83156537  0.85023769  0.12248165  1
  O  O191  1  0.01121653  0.64365892  0.37969032  1
  O  O192  1  0.00641583  0.00675378  0.37690092  1
  O  O193  1  0.34757736  0.66417774  0.37914451  1
  O  O194  1  0.34707408  0.66452062  0.63196388  1
  O  O195  1  0.50799224  0.17736011  0.62189091  1
  O  O196  1  0.17166226  0.85174835  0.37342081  1
  O  O197  1  0.64731801  0.00149751  0.87071173  1
  O  O198  1  0.48493348  0.46679550  0.87597654  1
  O  O199  1  0.65439882  -0.00098469  0.12097659  1
  O  O200  1  0.34156798  -0.00530161  0.86919045  1
  O  O201  1  0.16164489  0.83857306  0.62458871  1
  O  O202  1  0.32079839  0.00607717  0.37714920  1
  O  O203  1  0.66773284  0.32536793  0.62288718  1
  O  O204  1  0.16602467  0.84935596  0.12456473  1
  O  O205  1  0.83075910  0.18851924  0.12518028  1
  O  O206  1  0.16220106  0.51080664  0.37351150  1
  O  O207  1  0.33019803  0.32834230  0.87845868  1
  O  O208  1  0.00260902  0.33170569  0.87275421  1
  O  O209  1  0.50254740  0.15180382  0.37842202  1
  O  O210  1  0.66693636  0.64322902  0.13043286  1
  O  O211  1  0.51339423  0.82675297  0.38113103  1
  O  O212  1  0.83070241  0.53111052  0.62909445  1
  O  O213  1  0.17311711  0.17711160  0.12474805  1
  O  O214  1  -0.00007242  0.32014581  0.12228090  1
  O  O215  1  0.67506675  0.33284530  0.12288890  1
