# generated using pymatgen
data_Sr24Ta24N11O13
_symmetry_space_group_name_H-M   'P 1'
_cell_length_a   16.61452906
_cell_length_b   17.14025436
_cell_length_c   15.67785827
_cell_angle_alpha   89.85767198
_cell_angle_beta   90.01356295
_cell_angle_gamma   89.76976550
_symmetry_Int_Tables_number   1
_chemical_formula_structural   Sr24Ta24N11O13
_chemical_formula_sum   'Sr72 Ta72 N33 O39'
_cell_volume   4464.64747003
_cell_formula_units_Z   3
loop_
 _symmetry_equiv_pos_site_id
 _symmetry_equiv_pos_as_xyz
  1  'x, y, z'
loop_
 _atom_site_type_symbol
 _atom_site_label
 _atom_site_symmetry_multiplicity
 _atom_site_fract_x
 _atom_site_fract_y
 _atom_site_fract_z
 _atom_site_occupancy
  Sr  Sr0  1  0.00327657  0.19207220  0.09861523  1
  Sr  Sr1  1  0.01055176  0.17924147  0.61171850  1
  Sr  Sr2  1  0.00773671  0.50817045  0.16119296  1
  Sr  Sr3  1  -0.01198226  0.51517371  0.61497061  1
  Sr  Sr4  1  0.00208629  0.83298868  0.11265167  1
  Sr  Sr5  1  0.00825997  0.86086211  0.64565139  1
  Sr  Sr6  1  0.33477198  0.16678232  0.11210278  1
  Sr  Sr7  1  0.33877589  0.19644910  0.65010394  1
  Sr  Sr8  1  0.34332893  0.53351236  0.10448638  1
  Sr  Sr9  1  0.34426488  0.51157129  0.60698855  1
  Sr  Sr10  1  0.34582290  0.83907473  0.15346857  1
  Sr  Sr11  1  0.33000479  0.84858437  0.62289751  1
  Sr  Sr12  1  0.67784686  0.18038940  0.16136180  1
  Sr  Sr13  1  0.65766486  0.19691816  0.61817092  1
  Sr  Sr14  1  0.66947859  0.50904190  0.11533664  1
  Sr  Sr15  1  0.67048555  0.53505477  0.64744922  1
  Sr  Sr16  1  0.67416365  0.86653134  0.10666354  1
  Sr  Sr17  1  0.67882914  0.84965556  0.60548809  1
  Sr  Sr18  1  0.16779238  -0.03269917  0.15443245  1
  Sr  Sr19  1  0.16473204  -0.00509424  0.60835949  1
  Sr  Sr20  1  0.16692591  0.30845106  0.12107022  1
  Sr  Sr21  1  0.16168921  0.31742506  0.65881635  1
  Sr  Sr22  1  0.14945360  0.65283108  0.10941970  1
  Sr  Sr23  1  0.15499085  0.64006639  0.60637764  1
  Sr  Sr24  1  0.48697313  -0.01096470  0.09690381  1
  Sr  Sr25  1  0.49312821  -0.02563387  0.61804492  1
  Sr  Sr26  1  0.49447741  0.29518393  0.15213456  1
  Sr  Sr27  1  0.49105622  0.33580826  0.60863008  1
  Sr  Sr28  1  0.50514333  0.65504121  0.12401847  1
  Sr  Sr29  1  0.48013330  0.65406837  0.65460530  1
  Sr  Sr30  1  0.84324680  -0.01901770  0.12090236  1
  Sr  Sr31  1  0.82600464  -0.01790464  0.65182046  1
  Sr  Sr32  1  0.82147565  0.32392794  0.10790331  1
  Sr  Sr33  1  0.82955571  0.31507246  0.61366446  1
  Sr  Sr34  1  0.83162062  0.63560375  0.15803819  1
  Sr  Sr35  1  0.83497791  0.65873193  0.60969135  1
  Sr  Sr36  1  0.01176391  0.17760481  0.40116474  1
  Sr  Sr37  1  0.00256370  0.19287764  0.88423396  1
  Sr  Sr38  1  -0.00475241  0.50861562  0.37881804  1
  Sr  Sr39  1  0.00975529  0.51386117  0.85001656  1
  Sr  Sr40  1  0.00613511  0.87176765  0.34589138  1
  Sr  Sr41  1  0.00287003  0.83224316  0.88849498  1
  Sr  Sr42  1  0.33055969  0.19422752  0.34263461  1
  Sr  Sr43  1  0.33468219  0.17544226  0.89019801  1
  Sr  Sr44  1  0.34661324  0.50793209  0.39474590  1
  Sr  Sr45  1  0.34500598  0.52402121  0.88858346  1
  Sr  Sr46  1  0.33495770  0.84505221  0.37380787  1
  Sr  Sr47  1  0.34638477  0.84122194  0.84125990  1
  Sr  Sr48  1  0.66375002  0.18002368  0.37330897  1
  Sr  Sr49  1  0.67615462  0.18962772  0.84864845  1
  Sr  Sr50  1  0.66487098  0.54276277  0.34388924  1
  Sr  Sr51  1  0.66724904  0.50946114  0.88900329  1
  Sr  Sr52  1  0.67606633  0.85221517  0.39690131  1
  Sr  Sr53  1  0.67117176  0.86550701  0.88562199  1
  Sr  Sr54  1  0.17062360  -0.00410576  0.38795699  1
  Sr  Sr55  1  0.16500784  -0.03709260  0.84649988  1
  Sr  Sr56  1  0.16116619  0.32000772  0.33932425  1
  Sr  Sr57  1  0.16933725  0.31584277  0.87962902  1
  Sr  Sr58  1  0.15891056  0.62839935  0.39384262  1
  Sr  Sr59  1  0.15427341  0.65238913  0.89794618  1
  Sr  Sr60  1  0.49362662  -0.02960231  0.40252033  1
  Sr  Sr61  1  0.48909648  -0.01610072  0.88582540  1
  Sr  Sr62  1  0.49133387  0.32291718  0.38492009  1
  Sr  Sr63  1  0.48980278  0.30459108  0.85906776  1
  Sr  Sr64  1  0.48256050  0.66100544  0.34323326  1
  Sr  Sr65  1  0.50265815  0.65467340  0.87496418  1
  Sr  Sr66  1  0.81642425  -0.00701302  0.34143683  1
  Sr  Sr67  1  0.84378606  -0.02022119  0.88121864  1
  Sr  Sr68  1  0.82721459  0.30154045  0.39820545  1
  Sr  Sr69  1  0.82466395  0.32531962  0.89152519  1
  Sr  Sr70  1  0.83045368  0.65987197  0.38788653  1
  Sr  Sr71  1  0.83154726  0.63626175  0.85119128  1
  Ta  Ta72  1  0.16660519  0.11075767  0.00162267  1
  Ta  Ta73  1  0.19767437  0.18113445  0.49853818  1
  Ta  Ta74  1  0.16427443  0.47234202  0.00359312  1
  Ta  Ta75  1  0.16757325  0.44563282  0.49693263  1
  Ta  Ta76  1  0.20064738  0.82658990  0.00233889  1
  Ta  Ta77  1  0.15959795  0.80329151  0.48488344  1
  Ta  Ta78  1  0.54379895  0.16401896  0.00571319  1
  Ta  Ta79  1  0.48787909  0.14299062  0.49697775  1
  Ta  Ta80  1  0.50278794  0.44374515  0.01104384  1
  Ta  Ta81  1  0.53314601  0.51822033  0.50042396  1
  Ta  Ta82  1  0.49033629  0.80804607  -0.00503226  1
  Ta  Ta83  1  0.49916080  0.78470177  0.50189782  1
  Ta  Ta84  1  0.81548554  0.14296688  0.00247407  1
  Ta  Ta85  1  0.82673252  0.11683084  0.49698607  1
  Ta  Ta86  1  0.86260865  0.49842849  0.00479926  1
  Ta  Ta87  1  0.80569655  0.47813376  0.49067140  1
  Ta  Ta88  1  0.83019723  0.77782281  0.00315827  1
  Ta  Ta89  1  0.86982002  0.84483500  0.49942982  1
  Ta  Ta90  1  0.15168837  0.13862570  0.24709711  1
  Ta  Ta91  1  0.16634836  0.13573653  0.74889989  1
  Ta  Ta92  1  0.20397987  0.49489188  0.25129579  1
  Ta  Ta93  1  0.19311804  0.49671190  0.74902948  1
  Ta  Ta94  1  0.16707004  0.78387196  0.26305386  1
  Ta  Ta95  1  0.16452779  0.78428716  0.74606775  1
  Ta  Ta96  1  0.49684750  0.11419386  0.25091376  1
  Ta  Ta97  1  0.50170053  0.12687744  0.75133279  1
  Ta  Ta98  1  0.49558898  0.46984679  0.24044426  1
  Ta  Ta99  1  0.50335877  0.47165034  0.74993446  1
  Ta  Ta100  1  0.53222077  0.83959911  0.25433920  1
  Ta  Ta101  1  0.53514862  0.82210339  0.74534895  1
  Ta  Ta102  1  0.87293900  0.16602395  0.25432730  1
  Ta  Ta103  1  0.85342347  0.15244015  0.74650717  1
  Ta  Ta104  1  0.82694029  0.45105803  0.26553013  1
  Ta  Ta105  1  0.82988412  0.46057724  0.74227810  1
  Ta  Ta106  1  0.82785545  0.80633430  0.24449183  1
  Ta  Ta107  1  0.83209812  0.80303671  0.74762698  1
  Ta  Ta108  1  0.00243214  0.04889141  0.24910509  1
  Ta  Ta109  1  0.00145082  0.04344230  0.74643039  1
  Ta  Ta110  1  -0.03125324  0.32652939  0.24733800  1
  Ta  Ta111  1  -0.02510373  0.34612227  0.75591797  1
  Ta  Ta112  1  0.00368850  0.69574348  0.25925984  1
  Ta  Ta113  1  0.00473262  0.69122658  0.75072276  1
  Ta  Ta114  1  0.34626662  0.01856331  0.24960165  1
  Ta  Ta115  1  0.33475424  0.03114958  0.74870349  1
  Ta  Ta116  1  0.33503368  0.37872514  0.23408009  1
  Ta  Ta117  1  0.33288516  0.37691694  0.75549275  1
  Ta  Ta118  1  0.29697346  0.66241588  0.25390380  1
  Ta  Ta119  1  0.29302777  0.66600946  0.74941857  1
  Ta  Ta120  1  0.62601925  0.00185156  0.25305073  1
  Ta  Ta121  1  0.64570511  0.02212841  0.74976941  1
  Ta  Ta122  1  0.66651630  0.36627073  0.26554853  1
  Ta  Ta123  1  0.66124860  0.36814247  0.74610743  1
  Ta  Ta124  1  0.66892757  0.72152444  0.24943474  1
  Ta  Ta125  1  0.67190536  0.71190764  0.74786489  1
  Ta  Ta126  1  0.02064310  0.01899953  -0.00258603  1
  Ta  Ta127  1  -0.03767087  0.00141877  0.50176067  1
  Ta  Ta128  1  0.00308039  0.38266195  0.00297973  1
  Ta  Ta129  1  0.02703439  0.35159253  0.50065845  1
  Ta  Ta130  1  -0.03412979  0.65168788  0.00622666  1
  Ta  Ta131  1  0.00052646  0.72019601  0.48627249  1
  Ta  Ta132  1  0.30078665  -0.01789456  -0.00291796  1
  Ta  Ta133  1  0.33630962  0.05347940  0.50493535  1
  Ta  Ta134  1  0.33706365  0.36185691  0.00653936  1
  Ta  Ta135  1  0.29994570  0.33334569  0.50363680  1
  Ta  Ta136  1  0.33355604  0.71253817  -0.00552917  1
  Ta  Ta137  1  0.33339349  0.69217908  0.50042915  1
  Ta  Ta138  1  0.67545372  0.04945971  0.00432398  1
  Ta  Ta139  1  0.67150263  0.03266148  0.49762616  1
  Ta  Ta140  1  0.63571094  0.32795824  0.00558294  1
  Ta  Ta141  1  0.66311670  0.39156653  0.48843002  1
  Ta  Ta142  1  0.68104007  0.69768157  -0.00040585  1
  Ta  Ta143  1  0.62623297  0.67264995  0.50094264  1
  N  N144  1  -0.00622158  0.66939566  0.87241462  1
  N  N145  1  0.17173575  0.15273315  0.11806678  1
  N  N146  1  0.32975022  -0.00109718  0.87421606  1
  N  N147  1  0.84000745  0.82438495  0.12291206  1
  N  N148  1  0.65308775  0.33003827  0.38291957  1
  N  N149  1  0.32365834  0.66723011  0.62556030  1
  N  N150  1  0.83975308  0.82720689  0.62530784  1
  N  N151  1  -0.00394685  0.01369829  0.62307089  1
  N  N152  1  0.17034946  0.16579327  0.37400349  1
  N  N153  1  0.83588063  0.51088252  0.36920051  1
  N  N154  1  0.33125062  -0.00346406  0.12937513  1
  N  N155  1  0.65928610  0.00710948  0.37575955  1
  N  N156  1  0.33059918  0.00714285  0.61816383  1
  N  N157  1  0.50468492  0.82652720  0.87294556  1
  N  N158  1  -0.00641082  0.34293509  0.12720774  1
  N  N159  1  0.50511276  0.49874490  0.62313697  1
  N  N160  1  0.33091204  0.67626703  0.87635467  1
  N  N161  1  0.16982671  0.16122697  0.62898320  1
  N  N162  1  0.83661430  0.15167065  0.37351217  1
  N  N163  1  -0.01008755  0.66064271  0.38250744  1
  N  N164  1  -0.00805370  0.66521678  0.13052233  1
  N  N165  1  0.50419548  0.82288955  0.37323800  1
  N  N166  1  0.32722119  0.66088629  0.37371862  1
  N  N167  1  0.17412452  0.47950509  0.37239194  1
  N  N168  1  -0.00431374  0.34664181  0.87642778  1
  N  N169  1  0.49785235  0.82322831  0.62303073  1
  N  N170  1  0.50983628  0.50239345  0.12210922  1
  N  N171  1  0.17316349  0.84429221  0.36773358  1
  N  N172  1  0.33052764  0.33907831  0.87791040  1
  N  N173  1  0.83121932  0.48705170  0.62069881  1
  N  N174  1  0.32511184  0.34532329  0.62603613  1
  N  N175  1  0.32769246  0.31989185  0.12893738  1
  N  N176  1  0.50814647  0.14736954  0.12426378  1
  O  O177  1  0.65717360  0.35480468  0.61897465  1
  O  O178  1  0.67328141  0.02268860  0.13226461  1
  O  O179  1  0.18341515  0.81834436  0.13123609  1
  O  O180  1  0.49739622  0.16567143  0.37199524  1
  O  O181  1  0.33050717  0.00226335  0.38594296  1
  O  O182  1  0.66788800  0.02965405  0.87320558  1
  O  O183  1  0.50149608  0.14882474  0.62200922  1
  O  O184  1  0.66704039  0.69365291  0.37707830  1
  O  O185  1  0.66945352  0.68974202  0.87560429  1
  O  O186  1  0.50269358  0.50771826  0.36971419  1
  O  O187  1  0.00562899  0.33604868  0.37535324  1
  O  O188  1  0.17464793  0.49152792  0.87366759  1
  O  O189  1  0.65654090  0.34147939  0.87359092  1
  O  O190  1  0.00461381  0.00660374  0.87274800  1
  O  O191  1  -0.00455120  0.67992906  0.61214825  1
  O  O192  1  0.33015757  0.34174069  0.36264484  1
  O  O193  1  0.00231970  0.02252636  0.37901984  1
  O  O194  1  0.66292004  0.69528471  0.12717247  1
  O  O195  1  0.50401554  0.83248921  0.12267383  1
  O  O196  1  0.33545238  0.67945858  0.12889806  1
  O  O197  1  0.00421119  0.34742001  0.62417230  1
  O  O198  1  0.17465567  0.16209521  0.88381014  1
  O  O199  1  0.83766642  0.48713403  0.87924140  1
  O  O200  1  0.84079585  0.81971190  0.88213749  1
  O  O201  1  0.16247825  0.80059113  0.62010626  1
  O  O202  1  0.50565833  0.47968352  0.88554675  1
  O  O203  1  0.17184682  0.81261496  0.87791522  1
  O  O204  1  0.84162199  0.48510503  0.13249164  1
  O  O205  1  0.83318793  0.14806108  0.87092621  1
  O  O206  1  0.83395058  0.15621135  0.12668881  1
  O  O207  1  0.65871920  0.33373392  0.13223627  1
  O  O208  1  0.65680337  0.00599069  0.62621503  1
  O  O209  1  0.16392577  0.49257418  0.12667797  1
  O  O210  1  0.17659595  0.49093784  0.62276834  1
  O  O211  1  0.67375624  0.68950041  0.61756431  1
  O  O212  1  0.83312555  0.83889827  0.37610274  1
  O  O213  1  -0.00054221  0.02339496  0.12090031  1
  O  O214  1  0.83780364  0.15954181  0.62201966  1
  O  O215  1  0.50448341  0.14743483  0.87970549  1
