# generated using pymatgen
data_Sr24Ta24N11O13
_symmetry_space_group_name_H-M   'P 1'
_cell_length_a   17.01677855
_cell_length_b   16.69818073
_cell_length_c   15.49802959
_cell_angle_alpha   90.19253327
_cell_angle_beta   91.05130138
_cell_angle_gamma   90.60581238
_symmetry_Int_Tables_number   1
_chemical_formula_structural   Sr24Ta24N11O13
_chemical_formula_sum   'Sr72 Ta72 N33 O39'
_cell_volume   4402.73814750
_cell_formula_units_Z   3
loop_
 _symmetry_equiv_pos_site_id
 _symmetry_equiv_pos_as_xyz
  1  'x, y, z'
loop_
 _atom_site_type_symbol
 _atom_site_label
 _atom_site_symmetry_multiplicity
 _atom_site_fract_x
 _atom_site_fract_y
 _atom_site_fract_z
 _atom_site_occupancy
  Sr  Sr0  1  -0.00735628  0.15179649  0.17191203  1
  Sr  Sr1  1  -0.06010992  0.16978165  0.58779280  1
  Sr  Sr2  1  0.00559429  0.50886656  0.13623541  1
  Sr  Sr3  1  -0.01424663  0.49518655  0.59478098  1
  Sr  Sr4  1  -0.00980973  0.84376144  0.07798332  1
  Sr  Sr5  1  0.01251825  0.82904698  0.63593541  1
  Sr  Sr6  1  0.26315943  0.16783737  0.05047911  1
  Sr  Sr7  1  0.35638640  0.18306014  0.62535599  1
  Sr  Sr8  1  0.32472276  0.48170181  0.12492717  1
  Sr  Sr9  1  0.34040892  0.52991517  0.69478159  1
  Sr  Sr10  1  0.32945765  0.84663903  0.13327174  1
  Sr  Sr11  1  0.33605012  0.80655861  0.57164702  1
  Sr  Sr12  1  0.66117992  0.15339581  0.09148942  1
  Sr  Sr13  1  0.65499887  0.17887049  0.63744101  1
  Sr  Sr14  1  0.65157349  0.49966917  0.13687287  1
  Sr  Sr15  1  0.65355984  0.48254497  0.58592583  1
  Sr  Sr16  1  0.68087337  0.83398258  0.17286860  1
  Sr  Sr17  1  0.64963299  0.83768796  0.60996479  1
  Sr  Sr18  1  0.15749675  -0.01387135  0.10516230  1
  Sr  Sr19  1  0.18397221  0.01539044  0.65317488  1
  Sr  Sr20  1  0.16135198  0.35250786  0.08768903  1
  Sr  Sr21  1  0.22835208  0.34115135  0.67545610  1
  Sr  Sr22  1  0.18484626  0.66473165  0.17439222  1
  Sr  Sr23  1  0.15146591  0.67497770  0.61184278  1
  Sr  Sr24  1  0.52204576  -0.00812025  0.11514194  1
  Sr  Sr25  1  0.51011589  0.02924198  0.66444781  1
  Sr  Sr26  1  0.51970365  0.33320142  0.15837948  1
  Sr  Sr27  1  0.52276365  0.32482731  0.62702665  1
  Sr  Sr28  1  0.48164412  0.65488200  0.07928211  1
  Sr  Sr29  1  0.51392791  0.66404271  0.64148339  1
  Sr  Sr30  1  0.83927612  0.00817735  0.12759420  1
  Sr  Sr31  1  0.81509729  -0.02034204  0.56475458  1
  Sr  Sr32  1  0.88693060  0.31839510  0.17898858  1
  Sr  Sr33  1  0.81267255  0.34497490  0.60963421  1
  Sr  Sr34  1  0.84027267  0.64825339  0.11639502  1
  Sr  Sr35  1  0.82751230  0.69743363  0.67651002  1
  Sr  Sr36  1  0.01127619  0.16728416  0.37840910  1
  Sr  Sr37  1  -0.02885615  0.17156127  0.82842277  1
  Sr  Sr38  1  0.00556894  0.52053491  0.37259182  1
  Sr  Sr39  1  -0.00350130  0.48454304  0.89405817  1
  Sr  Sr40  1  0.00088049  0.83646278  0.41420423  1
  Sr  Sr41  1  0.00509073  0.82333001  0.85831308  1
  Sr  Sr42  1  0.32270731  0.17689876  0.39823892  1
  Sr  Sr43  1  0.27192698  0.16705902  0.82956505  1
  Sr  Sr44  1  0.33259720  0.48368707  0.34559855  1
  Sr  Sr45  1  0.31024693  0.49315797  0.88980511  1
  Sr  Sr46  1  0.31646530  0.83327353  0.35496607  1
  Sr  Sr47  1  0.35286469  0.84054000  0.92122323  1
  Sr  Sr48  1  0.60059874  0.16560521  0.31065740  1
  Sr  Sr49  1  0.67510476  0.14937498  0.87003031  1
  Sr  Sr50  1  0.64987388  0.48678554  0.37119669  1
  Sr  Sr51  1  0.67969453  0.51993669  0.93965948  1
  Sr  Sr52  1  0.66525334  0.84076129  0.38387628  1
  Sr  Sr53  1  0.65934562  0.81038217  0.82482064  1
  Sr  Sr54  1  0.17267646  0.01892634  0.35511369  1
  Sr  Sr55  1  0.15204907  -0.01300994  0.87666738  1
  Sr  Sr56  1  0.21101229  0.33156753  0.39817597  1
  Sr  Sr57  1  0.16054580  0.33818513  0.88079725  1
  Sr  Sr58  1  0.16489992  0.67553832  0.39213932  1
  Sr  Sr59  1  0.16672896  0.66634416  0.83307575  1
  Sr  Sr60  1  0.48366760  -0.02085852  0.31154296  1
  Sr  Sr61  1  0.52212547  -0.00381282  0.87559285  1
  Sr  Sr62  1  0.48395094  0.32245718  0.38069902  1
  Sr  Sr63  1  0.57457277  0.32059486  0.93320162  1
  Sr  Sr64  1  0.50134055  0.69749724  0.43078766  1
  Sr  Sr65  1  0.49373465  0.66822566  0.86820848  1
  Sr  Sr66  1  0.86111221  -0.00454079  0.37078971  1
  Sr  Sr67  1  0.83099748  0.00645841  0.90867254  1
  Sr  Sr68  1  0.89752823  0.33827830  0.40793411  1
  Sr  Sr69  1  0.83583526  0.30971925  0.83053720  1
  Sr  Sr70  1  0.80533965  0.66443452  0.32866348  1
  Sr  Sr71  1  0.84849927  0.65748638  0.89665007  1
  Ta  Ta72  1  0.08351787  0.17659588  -0.01241143  1
  Ta  Ta73  1  0.15222996  0.16958953  0.52511200  1
  Ta  Ta74  1  0.16239975  0.54613123  0.00049690  1
  Ta  Ta75  1  0.19284373  0.48863370  0.52548137  1
  Ta  Ta76  1  0.17018187  0.78981066  -0.00076195  1
  Ta  Ta77  1  0.17176824  0.88039602  0.50026613  1
  Ta  Ta78  1  0.46203574  0.16715149  0.02968559  1
  Ta  Ta79  1  0.48427003  0.09616815  0.46843116  1
  Ta  Ta80  1  0.47815264  0.46874274  -0.00359159  1
  Ta  Ta81  1  0.46911983  0.50398602  0.50863369  1
  Ta  Ta82  1  0.54320271  0.82778404  -0.00273421  1
  Ta  Ta83  1  0.48763105  0.90264534  0.49972582  1
  Ta  Ta84  1  0.86766137  0.18875849  0.00969167  1
  Ta  Ta85  1  0.76640693  0.15303766  0.45874430  1
  Ta  Ta86  1  0.85261210  0.44323087  0.01184928  1
  Ta  Ta87  1  0.82203685  0.55824441  0.50631282  1
  Ta  Ta88  1  0.79388213  0.82698491  -0.00348434  1
  Ta  Ta89  1  0.82703729  0.78303031  0.49190123  1
  Ta  Ta90  1  0.17650603  0.19005511  0.24104126  1
  Ta  Ta91  1  0.11057807  0.19710142  0.70564104  1
  Ta  Ta92  1  0.15849079  0.47670109  0.25655039  1
  Ta  Ta93  1  0.12596563  0.49297653  0.74600271  1
  Ta  Ta94  1  0.12506817  0.83835539  0.24910577  1
  Ta  Ta95  1  0.21147388  0.83591572  0.74869657  1
  Ta  Ta96  1  0.43032414  0.15662743  0.21944987  1
  Ta  Ta97  1  0.47155095  0.18574861  0.84032241  1
  Ta  Ta98  1  0.49253840  0.53949820  0.25059613  1
  Ta  Ta99  1  0.52989338  0.48565941  0.77982444  1
  Ta  Ta100  1  0.49563768  0.78850632  0.24154291  1
  Ta  Ta101  1  0.46633868  0.83783857  0.74281188  1
  Ta  Ta102  1  0.79270443  0.17273504  0.27339502  1
  Ta  Ta103  1  0.81675471  0.09755690  0.72964218  1
  Ta  Ta104  1  0.81792995  0.47465446  0.26040584  1
  Ta  Ta105  1  0.82260076  0.50657586  0.75672793  1
  Ta  Ta106  1  0.87576700  0.83385911  0.25135356  1
  Ta  Ta107  1  0.83155883  0.89021637  0.74571566  1
  Ta  Ta108  1  0.00746063  -0.03803662  0.24844253  1
  Ta  Ta109  1  -0.04168984  0.00208549  0.73652990  1
  Ta  Ta110  1  0.06296247  0.33647135  0.26503301  1
  Ta  Ta111  1  0.02068699  0.34464526  0.72347923  1
  Ta  Ta112  1  -0.00375986  0.70811668  0.25391648  1
  Ta  Ta113  1  -0.00752763  0.62507864  0.74811099  1
  Ta  Ta114  1  0.31056790  0.05300892  0.22487658  1
  Ta  Ta115  1  0.34193946  -0.05584274  0.74115867  1
  Ta  Ta116  1  0.31998308  0.28182447  0.20153664  1
  Ta  Ta117  1  0.40473524  0.34549197  0.79084985  1
  Ta  Ta118  1  0.37791896  0.66178521  0.26135555  1
  Ta  Ta119  1  0.33640534  0.72586873  0.75165074  1
  Ta  Ta120  1  0.69644085  0.01823515  0.25870454  1
  Ta  Ta121  1  0.69597176  -0.00921943  0.73952306  1
  Ta  Ta122  1  0.70980483  0.32663774  0.22729054  1
  Ta  Ta123  1  0.67789478  0.41184054  0.77294869  1
  Ta  Ta124  1  0.60744029  0.66464798  0.25424454  1
  Ta  Ta125  1  0.67739623  0.60128093  0.75427737  1
  Ta  Ta126  1  -0.00425416  0.04257515  -0.00154818  1
  Ta  Ta127  1  0.04328314  0.01190695  0.50069682  1
  Ta  Ta128  1  -0.02332326  0.30902790  -0.00374116  1
  Ta  Ta129  1  0.06901753  0.32124412  0.54190563  1
  Ta  Ta130  1  0.04021620  0.66474977  -0.00174444  1
  Ta  Ta131  1  -0.05040557  0.66977560  0.50141558  1
  Ta  Ta132  1  0.36119562  0.03018545  -0.01346225  1
  Ta  Ta133  1  0.34520299  -0.00264903  0.49150485  1
  Ta  Ta134  1  0.37297358  0.31453156  -0.02507535  1
  Ta  Ta135  1  0.35190441  0.40668956  0.54448944  1
  Ta  Ta136  1  0.29106267  0.66588316  0.00144253  1
  Ta  Ta137  1  0.33477104  0.60832017  0.50180336  1
  Ta  Ta138  1  0.67506107  -0.05588910  -0.00156801  1
  Ta  Ta139  1  0.63331126  0.02469683  0.48292934  1
  Ta  Ta140  1  0.74904858  0.32387629  0.02241936  1
  Ta  Ta141  1  0.70367714  0.29496520  0.40823338  1
  Ta  Ta142  1  0.66740680  0.71492162  0.00727937  1
  Ta  Ta143  1  0.69780483  0.66419663  0.51057100  1
  N  N144  1  0.33861531  0.65687120  0.38525171  1
  N  N145  1  0.52633094  0.52301336  0.90266233  1
  N  N146  1  0.15589409  0.50103384  0.87978837  1
  N  N147  1  0.17204263  0.83785703  0.61921100  1
  N  N148  1  0.16287214  0.82995649  0.12575784  1
  N  N149  1  0.16580863  0.50609387  0.13442177  1
  N  N150  1  0.67427644  -0.01707385  0.87747594  1
  N  N151  1  0.46361316  0.14509230  0.35318904  1
  N  N152  1  0.00064435  0.66361010  0.87605410  1
  N  N153  1  -0.01202645  0.66954724  0.63241538  1
  N  N154  1  0.49248758  0.49816343  0.12733520  1
  N  N155  1  0.54521998  0.16121041  0.94401400  1
  N  N156  1  0.30858514  0.33218270  0.85844029  1
  N  N157  1  0.63467961  -0.01399182  0.35441523  1
  N  N158  1  0.37631855  0.35945209  0.66552210  1
  N  N159  1  0.65861543  0.00013553  0.61179414  1
  N  N160  1  -0.00195926  0.00101556  0.11832141  1
  N  N161  1  -0.00701872  0.67407780  0.37342799  1
  N  N162  1  0.66277801  0.33257714  0.10452814  1
  N  N163  1  0.67867321  -0.01048188  0.13382488  1
  N  N164  1  0.30856333  0.32327130  0.07746464  1
  N  N165  1  0.17269773  0.83198036  0.87633490  1
  N  N166  1  0.62396139  0.32603438  0.31232368  1
  N  N167  1  0.20818080  0.17251818  0.64237800  1
  N  N168  1  0.52324266  0.15986720  0.14664769  1
  N  N169  1  0.50714438  0.83217096  0.86848203  1
  N  N170  1  0.49847570  0.82531636  0.12137495  1
  N  N171  1  0.16592646  0.83877066  0.37780272  1
  N  N172  1  0.18889540  0.52230382  0.64951014  1
  N  N173  1  0.49767943  0.85186973  0.61136185  1
  N  N174  1  0.01460683  0.00660584  0.37635696  1
  N  N175  1  0.83163086  0.82364313  0.37024101  1
  N  N176  1  0.66779971  0.64838350  0.63827165  1
  O  O177  1  0.34490037  0.33864717  0.30738246  1
  O  O178  1  0.17243759  0.17706862  0.37736259  1
  O  O179  1  -0.01177996  0.33025725  0.85314288  1
  O  O180  1  0.33643571  0.66515303  0.62367331  1
  O  O181  1  0.51125595  0.50667659  0.63451327  1
  O  O182  1  0.54471705  0.16729501  0.74685721  1
  O  O183  1  0.67155808  0.34388198  0.66936461  1
  O  O184  1  0.82800457  0.15253627  0.85810109  1
  O  O185  1  0.84549929  0.16720523  0.14029467  1
  O  O186  1  -0.00623064  0.66814435  0.12013190  1
  O  O187  1  0.13132320  0.18069800  0.11477474  1
  O  O188  1  0.86493210  0.15214564  0.38518964  1
  O  O189  1  0.79677244  0.13366155  0.59852332  1
  O  O190  1  0.82913126  0.50663002  0.62486294  1
  O  O191  1  0.64989050  0.66464397  0.37936614  1
  O  O192  1  0.81196706  0.50825342  0.38084481  1
  O  O193  1  0.02295419  0.33009720  0.13792567  1
  O  O194  1  0.33436354  0.68883817  0.88001795  1
  O  O195  1  0.49838751  0.49482024  0.38168481  1
  O  O196  1  0.83640649  0.83117099  0.12168068  1
  O  O197  1  0.82841475  0.83948318  0.62218330  1
  O  O198  1  -0.01669662  0.01182600  0.86466820  1
  O  O199  1  -0.02040051  0.00407801  0.60730084  1
  O  O200  1  0.85420584  0.48133055  0.13892030  1
  O  O201  1  0.30861229  0.00320190  0.10186790  1
  O  O202  1  0.33210967  0.66330324  0.12701354  1
  O  O203  1  0.67347793  0.65977708  0.87507723  1
  O  O204  1  -0.03762589  0.33817529  0.59629077  1
  O  O205  1  0.33635531  -0.00502035  0.62343690  1
  O  O206  1  0.34899288  -0.01064264  0.86850640  1
  O  O207  1  0.12062470  0.18401794  0.84520487  1
  O  O208  1  0.32092234  0.01475675  0.35150202  1
  O  O209  1  0.84445027  0.49126588  0.89009978  1
  O  O210  1  0.17463315  0.48962541  0.38984055  1
  O  O211  1  0.05379212  0.32731244  0.39666022  1
  O  O212  1  0.70839674  0.36208207  0.89364859  1
  O  O213  1  0.49527984  0.84279200  0.37890888  1
  O  O214  1  0.82955935  0.84705212  0.87007245  1
  O  O215  1  0.65366120  0.67542179  0.13114095  1
