# generated using pymatgen
data_Sr24Ta24N11O13
_symmetry_space_group_name_H-M   'P 1'
_cell_length_a   16.93020610
_cell_length_b   16.82056332
_cell_length_c   15.75419159
_cell_angle_alpha   89.85172558
_cell_angle_beta   89.94008373
_cell_angle_gamma   90.13749215
_symmetry_Int_Tables_number   1
_chemical_formula_structural   Sr24Ta24N11O13
_chemical_formula_sum   'Sr72 Ta72 N33 O39'
_cell_volume   4486.37899748
_cell_formula_units_Z   3
loop_
 _symmetry_equiv_pos_site_id
 _symmetry_equiv_pos_as_xyz
  1  'x, y, z'
loop_
 _atom_site_type_symbol
 _atom_site_label
 _atom_site_symmetry_multiplicity
 _atom_site_fract_x
 _atom_site_fract_y
 _atom_site_fract_z
 _atom_site_occupancy
  Sr  Sr0  1  0.00033850  0.16051791  0.12861000  1
  Sr  Sr1  1  0.01918174  0.15198649  0.60271007  1
  Sr  Sr2  1  0.02094180  0.50019075  0.13430600  1
  Sr  Sr3  1  0.00814777  0.49464783  0.63110500  1
  Sr  Sr4  1  0.02863157  0.81769351  0.10082617  1
  Sr  Sr5  1  0.01751579  0.81944398  0.63598349  1
  Sr  Sr6  1  0.35071870  0.16465833  0.12736897  1
  Sr  Sr7  1  0.36263287  0.16967941  0.59344517  1
  Sr  Sr8  1  0.33900022  0.49853449  0.09950295  1
  Sr  Sr9  1  0.34945143  0.47738422  0.65645419  1
  Sr  Sr10  1  0.34642337  0.82927853  0.16554347  1
  Sr  Sr11  1  0.34048195  0.82861609  0.61334969  1
  Sr  Sr12  1  0.68755859  0.16054563  0.14629173  1
  Sr  Sr13  1  0.67880856  0.16619596  0.64332020  1
  Sr  Sr14  1  0.67223239  0.48798661  0.13603956  1
  Sr  Sr15  1  0.67106879  0.49049319  0.58431178  1
  Sr  Sr16  1  0.67092265  0.84543287  0.10590225  1
  Sr  Sr17  1  0.69308101  0.82634913  0.62878262  1
  Sr  Sr18  1  0.14967652  0.01797483  0.09995738  1
  Sr  Sr19  1  0.15742938  -0.00801467  0.66032507  1
  Sr  Sr20  1  0.14113492  0.33168647  0.15710796  1
  Sr  Sr21  1  0.14927219  0.33604560  0.62174190  1
  Sr  Sr22  1  0.16643696  0.66292702  0.13273623  1
  Sr  Sr23  1  0.15787130  0.66996303  0.58077277  1
  Sr  Sr24  1  0.48040100  -0.00182799  0.12493176  1
  Sr  Sr25  1  0.46944805  -0.00319418  0.61205539  1
  Sr  Sr26  1  0.48421640  0.34303065  0.12416093  1
  Sr  Sr27  1  0.50179411  0.33733085  0.61898017  1
  Sr  Sr28  1  0.48075000  0.68305107  0.13880506  1
  Sr  Sr29  1  0.48662510  0.68038436  0.63823919  1
  Sr  Sr30  1  0.82543797  0.00450166  0.15235966  1
  Sr  Sr31  1  0.82009534  0.00838928  0.60637067  1
  Sr  Sr32  1  0.83225190  0.34236793  0.09556251  1
  Sr  Sr33  1  0.82072517  0.34313440  0.64621677  1
  Sr  Sr34  1  0.79957798  0.67564285  0.11404108  1
  Sr  Sr35  1  0.83488413  0.67019998  0.64017215  1
  Sr  Sr36  1  0.00187821  0.16746190  0.37027894  1
  Sr  Sr37  1  0.00530970  0.16100122  0.89905054  1
  Sr  Sr38  1  0.02479073  0.49990032  0.37571887  1
  Sr  Sr39  1  -0.00453996  0.48886671  0.85171865  1
  Sr  Sr40  1  0.02550736  0.80642664  0.37939790  1
  Sr  Sr41  1  0.02208897  0.82491928  0.87708824  1
  Sr  Sr42  1  0.35702438  0.16875717  0.37012023  1
  Sr  Sr43  1  0.35197612  0.15894020  0.92175691  1
  Sr  Sr44  1  0.35441108  0.47588873  0.37077351  1
  Sr  Sr45  1  0.33955830  0.49445461  0.87365412  1
  Sr  Sr46  1  0.33465283  0.83330862  0.38420169  1
  Sr  Sr47  1  0.34619935  0.84957421  0.83516560  1
  Sr  Sr48  1  0.69027645  0.15106818  0.37226033  1
  Sr  Sr49  1  0.67681747  0.17481700  0.84452065  1
  Sr  Sr50  1  0.66060333  0.49558219  0.36888361  1
  Sr  Sr51  1  0.67345892  0.48649245  0.91717582  1
  Sr  Sr52  1  0.70303897  0.84157502  0.37223104  1
  Sr  Sr53  1  0.68212199  0.82673101  0.87569810  1
  Sr  Sr54  1  0.14118543  0.01974503  0.37319617  1
  Sr  Sr55  1  0.16074072  0.00432511  0.88053175  1
  Sr  Sr56  1  0.14556410  0.33298453  0.38186972  1
  Sr  Sr57  1  0.16271520  0.34764904  0.83396223  1
  Sr  Sr58  1  0.16374825  0.66041880  0.36559654  1
  Sr  Sr59  1  0.16186752  0.64979703  0.91717058  1
  Sr  Sr60  1  0.46697527  -0.00020843  0.37485238  1
  Sr  Sr61  1  0.48851891  0.00112797  0.89288937  1
  Sr  Sr62  1  0.49609985  0.33109178  0.38208686  1
  Sr  Sr63  1  0.48739062  0.33978926  0.88655990  1
  Sr  Sr64  1  0.47748505  0.68644666  0.37545051  1
  Sr  Sr65  1  0.47764235  0.67717598  0.84653314  1
  Sr  Sr66  1  0.84242653  0.01054477  0.37624523  1
  Sr  Sr67  1  0.80402623  0.00394889  0.86258729  1
  Sr  Sr68  1  0.80990744  0.35944840  0.36713133  1
  Sr  Sr69  1  0.83520254  0.33328136  0.87933107  1
  Sr  Sr70  1  0.80730836  0.66534513  0.38337095  1
  Sr  Sr71  1  0.83686293  0.67800248  0.85990940  1
  Ta  Ta72  1  0.16988999  0.21297551  0.00115734  1
  Ta  Ta73  1  0.19613690  0.16701017  0.50085640  1
  Ta  Ta74  1  0.16296259  0.46172013  -0.00660119  1
  Ta  Ta75  1  0.21005965  0.49330561  0.50405198  1
  Ta  Ta76  1  0.21595304  0.83184030  -0.00210884  1
  Ta  Ta77  1  0.16771870  0.87064413  0.50777803  1
  Ta  Ta78  1  0.54755765  0.16840131  0.00246210  1
  Ta  Ta79  1  0.54551473  0.15726408  0.49889962  1
  Ta  Ta80  1  0.50659821  0.54404434  -0.00643745  1
  Ta  Ta81  1  0.49201876  0.53113731  0.50799499  1
  Ta  Ta82  1  0.48336637  0.82217463  0.00410774  1
  Ta  Ta83  1  0.53764428  0.83795441  0.49449393  1
  Ta  Ta84  1  0.81572374  0.14912456  -0.00115970  1
  Ta  Ta85  1  0.83604681  0.20613469  0.50156401  1
  Ta  Ta86  1  0.85993415  0.51994037  -0.00621420  1
  Ta  Ta87  1  0.85916660  0.50139364  0.50849698  1
  Ta  Ta88  1  0.85876038  0.85177124  -0.00605540  1
  Ta  Ta89  1  0.87433225  0.83107279  0.50486030  1
  Ta  Ta90  1  0.19449980  0.16768929  0.24481655  1
  Ta  Ta91  1  0.20385500  0.16922292  0.75519238  1
  Ta  Ta92  1  0.20554945  0.49373452  0.25392078  1
  Ta  Ta93  1  0.17237844  0.53676706  0.74496582  1
  Ta  Ta94  1  0.16880179  0.86558067  0.24790627  1
  Ta  Ta95  1  0.17782699  0.78591822  0.74792850  1
  Ta  Ta96  1  0.53165301  0.16452847  0.25493047  1
  Ta  Ta97  1  0.48553722  0.15879422  0.75784427  1
  Ta  Ta98  1  0.49906217  0.52816259  0.24725761  1
  Ta  Ta99  1  0.54375922  0.50176181  0.75244982  1
  Ta  Ta100  1  0.53603691  0.84258546  0.25733317  1
  Ta  Ta101  1  0.52824155  0.85917731  0.74144263  1
  Ta  Ta102  1  0.84292395  0.20847161  0.24315923  1
  Ta  Ta103  1  0.87230475  0.16248658  0.75282771  1
  Ta  Ta104  1  0.85751940  0.51510141  0.24659904  1
  Ta  Ta105  1  0.78778334  0.50616820  0.75311813  1
  Ta  Ta106  1  0.87807594  0.82194635  0.24595486  1
  Ta  Ta107  1  0.86515656  0.86220163  0.74988134  1
  Ta  Ta108  1  0.00362493  -0.04540125  0.24163307  1
  Ta  Ta109  1  -0.02756142  0.00450761  0.75387806  1
  Ta  Ta110  1  -0.03943497  0.33864587  0.24218102  1
  Ta  Ta111  1  -0.01315925  0.29454934  0.75165461  1
  Ta  Ta112  1  -0.03477407  0.66227763  0.25080185  1
  Ta  Ta113  1  0.03938566  0.66169557  0.74980884  1
  Ta  Ta114  1  0.28949238  0.00560644  0.24773176  1
  Ta  Ta115  1  0.33160525  0.04909895  0.75970813  1
  Ta  Ta116  1  0.30603886  0.32946105  0.24574414  1
  Ta  Ta117  1  0.33509567  0.28004975  0.75935413  1
  Ta  Ta118  1  0.32899920  0.62854291  0.24601137  1
  Ta  Ta119  1  0.28602870  0.66063490  0.74987681  1
  Ta  Ta120  1  0.63188910  -0.00278546  0.25227443  1
  Ta  Ta121  1  0.63095397  -0.00785575  0.74760052  1
  Ta  Ta122  1  0.65463798  0.31040538  0.25682771  1
  Ta  Ta123  1  0.65652624  0.36770193  0.74834574  1
  Ta  Ta124  1  0.63285561  0.67190812  0.24977870  1
  Ta  Ta125  1  0.65892834  0.62368204  0.75120422  1
  Ta  Ta126  1  -0.04511370  -0.01017727  0.00148792  1
  Ta  Ta127  1  0.00127865  -0.03619992  0.50270665  1
  Ta  Ta128  1  0.02656032  0.33931346  -0.00319136  1
  Ta  Ta129  1  -0.04103228  0.33531289  0.49953160  1
  Ta  Ta130  1  -0.02374550  0.64651141  -0.00484359  1
  Ta  Ta131  1  -0.02941504  0.65609290  0.50242941  1
  Ta  Ta132  1  0.32347189  -0.03938823  0.00408390  1
  Ta  Ta133  1  0.28685312  0.00822110  0.49775143  1
  Ta  Ta134  1  0.28904693  0.33136654  0.00111981  1
  Ta  Ta135  1  0.30852808  0.33235793  0.49937211  1
  Ta  Ta136  1  0.34008323  0.70068979  0.00226099  1
  Ta  Ta137  1  0.33503251  0.62438075  0.50379223  1
  Ta  Ta138  1  0.66074481  0.03330198  0.00102943  1
  Ta  Ta139  1  0.63394732  -0.00217697  0.50105480  1
  Ta  Ta140  1  0.65966787  0.29657599  0.00175850  1
  Ta  Ta141  1  0.67139816  0.30098824  0.50157639  1
  Ta  Ta142  1  0.61970622  0.66861902  -0.00559501  1
  Ta  Ta143  1  0.63024927  0.67296230  0.50286958  1
  N  N144  1  0.32558324  0.66452017  0.12268278  1
  N  N145  1  0.83857451  0.16621858  0.87322007  1
  N  N146  1  0.32605355  0.32354420  0.37946278  1
  N  N147  1  0.50324563  0.83805870  0.12461559  1
  N  N148  1  0.17128376  0.49638925  0.62608224  1
  N  N149  1  0.50869454  0.16762595  0.87742764  1
  N  N150  1  0.50007453  0.50926907  0.87515819  1
  N  N151  1  0.16695062  0.49765069  0.87596727  1
  N  N152  1  0.66116938  0.33370537  0.62829036  1
  N  N153  1  0.50517569  0.50610793  0.62631280  1
  N  N154  1  0.00407435  0.66300954  0.87660655  1
  N  N155  1  0.84062439  0.83312502  0.87205466  1
  N  N156  1  0.32914190  0.00444224  0.87662127  1
  N  N157  1  0.18078434  0.49658788  0.37482712  1
  N  N158  1  0.17093625  0.17386598  0.12438816  1
  N  N159  1  0.00411387  0.65900247  0.62515833  1
  N  N160  1  -0.00731837  -0.00978781  0.12315147  1
  N  N161  1  0.33004600  0.33250100  0.12119665  1
  N  N162  1  0.50406549  0.83726065  0.62075834  1
  N  N163  1  0.82922458  0.50329630  0.87339149  1
  N  N164  1  0.49145744  0.84060869  0.37361737  1
  N  N165  1  -0.01222936  0.33674283  0.11861213  1
  N  N166  1  -0.00384079  0.32331402  0.86992457  1
  N  N167  1  -0.00576546  0.65641917  0.37144170  1
  N  N168  1  0.31414558  0.00104136  0.37836909  1
  N  N169  1  0.65702490  0.33526692  0.37714282  1
  N  N170  1  0.32894983  0.32635568  0.87248330  1
  N  N171  1  0.32434358  -0.00261878  0.12430956  1
  N  N172  1  0.84082812  0.17434896  0.12402749  1
  N  N173  1  0.83143448  0.50205503  0.62770243  1
  N  N174  1  0.51079937  0.16610045  0.37775436  1
  N  N175  1  0.84739151  0.83357163  0.62482980  1
  N  N176  1  0.17798225  0.83147931  0.62662195  1
  O  O177  1  -0.01236535  0.32477318  0.62253787  1
  O  O178  1  0.32825405  0.64349968  0.37886628  1
  O  O179  1  0.50521975  0.51586889  0.37224214  1
  O  O180  1  0.84737680  0.51053098  0.37198267  1
  O  O181  1  0.65721057  -0.00326128  0.62236608  1
  O  O182  1  0.85941945  0.82204107  0.12267279  1
  O  O183  1  0.64782809  0.01293265  0.87098558  1
  O  O184  1  0.32515169  0.66707197  0.87720081  1
  O  O185  1  -0.02264125  0.34105035  0.37564810  1
  O  O186  1  0.17609764  0.16669618  0.88113595  1
  O  O187  1  0.84176368  0.18622866  0.37601878  1
  O  O188  1  0.65514236  0.00547133  0.12332576  1
  O  O189  1  0.64649172  0.66353507  0.37447243  1
  O  O190  1  0.33149993  0.65217000  0.62935272  1
  O  O191  1  0.51415817  0.16491205  0.62486676  1
  O  O192  1  -0.00442845  -0.02505504  0.37460435  1
  O  O193  1  0.31930825  0.01775070  0.63263208  1
  O  O194  1  0.18455915  0.83505351  0.12643216  1
  O  O195  1  0.50022526  0.50988672  0.12197871  1
  O  O196  1  0.66178404  0.32599035  0.87641622  1
  O  O197  1  0.19384412  0.82594603  0.87211447  1
  O  O198  1  -0.00470629  0.00556095  0.87795397  1
  O  O199  1  0.85761279  0.82576903  0.37088548  1
  O  O200  1  0.17293962  0.17502025  0.37826736  1
  O  O201  1  0.64015481  0.67138241  0.87051232  1
  O  O202  1  -0.00407089  -0.00318797  0.62450601  1
  O  O203  1  0.00745398  0.66189035  0.12366807  1
  O  O204  1  0.65361089  -0.00505618  0.37352453  1
  O  O205  1  0.18454617  0.17006339  0.63057649  1
  O  O206  1  0.64198372  0.67618118  0.12359776  1
  O  O207  1  0.83348900  0.17784115  0.62578959  1
  O  O208  1  0.33111532  0.32059523  0.63394541  1
  O  O209  1  0.66397056  0.32499922  0.12356165  1
  O  O210  1  0.17281019  0.85289950  0.37440126  1
  O  O211  1  0.49856572  0.83447504  0.86587576  1
  O  O212  1  0.83422121  0.51234604  0.12303795  1
  O  O213  1  0.17603607  0.49612699  0.12033488  1
  O  O214  1  0.50705701  0.16445778  0.12420702  1
  O  O215  1  0.64753906  0.66487237  0.62664712  1
