# generated using pymatgen
data_Sr24Ta24N11O13
_symmetry_space_group_name_H-M   'P 1'
_cell_length_a   16.63854067
_cell_length_b   16.94990777
_cell_length_c   15.72332017
_cell_angle_alpha   89.66798035
_cell_angle_beta   90.05309909
_cell_angle_gamma   89.93849688
_symmetry_Int_Tables_number   1
_chemical_formula_structural   Sr24Ta24N11O13
_chemical_formula_sum   'Sr72 Ta72 N33 O39'
_cell_volume   4434.23901558
_cell_formula_units_Z   3
loop_
 _symmetry_equiv_pos_site_id
 _symmetry_equiv_pos_as_xyz
  1  'x, y, z'
loop_
 _atom_site_type_symbol
 _atom_site_label
 _atom_site_symmetry_multiplicity
 _atom_site_fract_x
 _atom_site_fract_y
 _atom_site_fract_z
 _atom_site_occupancy
  Sr  Sr0  1  -0.02100495  0.15437886  0.10712851  1
  Sr  Sr1  1  0.01205682  0.15835181  0.59158701  1
  Sr  Sr2  1  0.00687768  0.48349657  0.16053510  1
  Sr  Sr3  1  -0.00307448  0.49018120  0.62545639  1
  Sr  Sr4  1  -0.00138304  0.80798714  0.11888309  1
  Sr  Sr5  1  -0.00333921  0.82073388  0.63334385  1
  Sr  Sr6  1  0.35732995  0.17118248  0.10917313  1
  Sr  Sr7  1  0.32330906  0.16215532  0.66862299  1
  Sr  Sr8  1  0.32215518  0.49983964  0.08429747  1
  Sr  Sr9  1  0.33813900  0.49408236  0.63753652  1
  Sr  Sr10  1  0.32797617  0.81274274  0.14879905  1
  Sr  Sr11  1  0.33938745  0.84298842  0.59972365  1
  Sr  Sr12  1  0.67272985  0.14359800  0.16165418  1
  Sr  Sr13  1  0.66234962  0.17116368  0.61558575  1
  Sr  Sr14  1  0.67035497  0.49100015  0.13137561  1
  Sr  Sr15  1  0.65948652  0.49135554  0.59529993  1
  Sr  Sr16  1  0.66845244  0.83306963  0.11916428  1
  Sr  Sr17  1  0.67641710  0.79343981  0.65267000  1
  Sr  Sr18  1  0.17630698  0.04180437  0.11061384  1
  Sr  Sr19  1  0.16828027  0.00907668  0.63575275  1
  Sr  Sr20  1  0.16120235  0.34296089  0.15480023  1
  Sr  Sr21  1  0.17212512  0.35057206  0.61598536  1
  Sr  Sr22  1  0.15833797  0.66655094  0.13290024  1
  Sr  Sr23  1  0.17416972  0.70385983  0.59337719  1
  Sr  Sr24  1  0.50451343  -0.01105059  0.08799688  1
  Sr  Sr25  1  0.50281377  0.02879777  0.63589381  1
  Sr  Sr26  1  0.50487093  0.33661921  0.13302291  1
  Sr  Sr27  1  0.50752451  0.35062775  0.58280727  1
  Sr  Sr28  1  0.51124634  0.67941054  0.15987636  1
  Sr  Sr29  1  0.49089006  0.67449069  0.64258065  1
  Sr  Sr30  1  0.83385697  -0.00892025  0.15053951  1
  Sr  Sr31  1  0.82789555  0.02298049  0.60364802  1
  Sr  Sr32  1  0.83997657  0.33756350  0.11090228  1
  Sr  Sr33  1  0.82506966  0.33202029  0.66799839  1
  Sr  Sr34  1  0.82138584  0.67463458  0.07785474  1
  Sr  Sr35  1  0.84370906  0.66579694  0.63341276  1
  Sr  Sr36  1  -0.00341739  0.14649737  0.39174209  1
  Sr  Sr37  1  -0.00309871  0.16162255  0.90592855  1
  Sr  Sr38  1  0.00852972  0.49261731  0.37407997  1
  Sr  Sr39  1  -0.00832965  0.48678382  0.83773231  1
  Sr  Sr40  1  -0.00755309  0.81693596  0.36725277  1
  Sr  Sr41  1  0.00541748  0.81686752  0.87219977  1
  Sr  Sr42  1  0.32299801  0.17895141  0.32710116  1
  Sr  Sr43  1  0.33116589  0.16770952  0.88175090  1
  Sr  Sr44  1  0.33341785  0.46998198  0.42080513  1
  Sr  Sr45  1  0.33868906  0.50383366  0.86678269  1
  Sr  Sr46  1  0.32987596  0.84403881  0.38104308  1
  Sr  Sr47  1  0.33571320  0.82193261  0.87426795  1
  Sr  Sr48  1  0.65997804  0.14300781  0.39566287  1
  Sr  Sr49  1  0.68165639  0.16063607  0.82745713  1
  Sr  Sr50  1  0.64770659  0.49843561  0.36487009  1
  Sr  Sr51  1  0.66960399  0.47453677  0.91488257  1
  Sr  Sr52  1  0.67237886  0.81759312  0.35781028  1
  Sr  Sr53  1  0.66861059  0.81998109  0.88397735  1
  Sr  Sr54  1  0.18850033  0.01968605  0.36290322  1
  Sr  Sr55  1  0.16695317  0.02027529  0.87046327  1
  Sr  Sr56  1  0.15368347  0.33639008  0.38601883  1
  Sr  Sr57  1  0.17438865  0.35740515  0.83287534  1
  Sr  Sr58  1  0.16464051  0.69484645  0.35469380  1
  Sr  Sr59  1  0.17452938  0.68233872  0.91852096  1
  Sr  Sr60  1  0.49977102  -0.00164859  0.42107539  1
  Sr  Sr61  1  0.50363050  0.01615426  0.87348880  1
  Sr  Sr62  1  0.50324858  0.31714991  0.36302283  1
  Sr  Sr63  1  0.48866219  0.34627485  0.91696908  1
  Sr  Sr64  1  0.49544245  0.68773366  0.35962673  1
  Sr  Sr65  1  0.49513858  0.67128760  0.84094566  1
  Sr  Sr66  1  0.82358872  -0.00405642  0.36352934  1
  Sr  Sr67  1  0.83657779  0.01368069  0.88093944  1
  Sr  Sr68  1  0.83683526  0.37373674  0.32638924  1
  Sr  Sr69  1  0.83914661  0.32615678  0.88375256  1
  Sr  Sr70  1  0.82982648  0.66477360  0.41726715  1
  Sr  Sr71  1  0.84532069  0.68004931  0.86047743  1
  Ta  Ta72  1  0.16311842  0.22346807  -0.00570563  1
  Ta  Ta73  1  0.20490971  0.17258918  0.49738864  1
  Ta  Ta74  1  0.13612621  0.48087727  -0.00277258  1
  Ta  Ta75  1  0.16856236  0.54059981  0.50043596  1
  Ta  Ta76  1  0.16830732  0.86897300  0.01245016  1
  Ta  Ta77  1  0.14447588  0.87177916  0.49043124  1
  Ta  Ta78  1  0.55521002  0.16524230  -0.00423676  1
  Ta  Ta79  1  0.45255084  0.17423689  0.50514208  1
  Ta  Ta80  1  0.49892314  0.54178581  0.00020519  1
  Ta  Ta81  1  0.49034287  0.54601170  0.50085070  1
  Ta  Ta82  1  0.48995820  0.80423196  -0.00122239  1
  Ta  Ta83  1  0.53345993  0.82467917  0.50362598  1
  Ta  Ta84  1  0.78553293  0.16224767  0.00293560  1
  Ta  Ta85  1  0.83197434  0.20624423  0.49995809  1
  Ta  Ta86  1  0.87229810  0.49907018  0.00588656  1
  Ta  Ta87  1  0.83170731  0.47327976  0.49996922  1
  Ta  Ta88  1  0.84287063  0.86256467  -0.00109583  1
  Ta  Ta89  1  0.82840381  0.84937628  0.50208207  1
  Ta  Ta90  1  0.12538640  0.17451674  0.25286404  1
  Ta  Ta91  1  0.12737004  0.17999412  0.75227182  1
  Ta  Ta92  1  0.21336568  0.50746665  0.25515884  1
  Ta  Ta93  1  0.17199164  0.55245209  0.75071255  1
  Ta  Ta94  1  0.15117834  0.87413891  0.23811909  1
  Ta  Ta95  1  0.17958223  0.83048597  0.74504182  1
  Ta  Ta96  1  0.50464333  0.12208066  0.25304430  1
  Ta  Ta97  1  0.50408115  0.22336657  0.74549168  1
  Ta  Ta98  1  0.45456044  0.50343206  0.24949239  1
  Ta  Ta99  1  0.52364083  0.47782547  0.75733550  1
  Ta  Ta100  1  0.50039782  0.87549819  0.25878560  1
  Ta  Ta101  1  0.50269235  0.86523351  0.75394595  1
  Ta  Ta102  1  0.83778636  0.18954739  0.25948259  1
  Ta  Ta103  1  0.88060690  0.15837879  0.74406957  1
  Ta  Ta104  1  0.83128726  0.55062768  0.24310734  1
  Ta  Ta105  1  0.79487150  0.50095184  0.75770227  1
  Ta  Ta106  1  0.83365337  0.79095729  0.24810803  1
  Ta  Ta107  1  0.83314862  0.87282475  0.74713448  1
  Ta  Ta108  1  0.02516605  -0.00308645  0.24369636  1
  Ta  Ta109  1  -0.01170776  0.01188075  0.74775588  1
  Ta  Ta110  1  -0.00885889  0.28854740  0.25653226  1
  Ta  Ta111  1  0.00166037  0.29307633  0.74814731  1
  Ta  Ta112  1  -0.03851490  0.65731654  0.24674528  1
  Ta  Ta113  1  0.04710425  0.66134865  0.75008406  1
  Ta  Ta114  1  0.37986560  -0.00023650  0.25612085  1
  Ta  Ta115  1  0.33955991  -0.02822932  0.74651431  1
  Ta  Ta116  1  0.33159848  0.37294833  0.25303789  1
  Ta  Ta117  1  0.37530488  0.33446963  0.74609260  1
  Ta  Ta118  1  0.33080187  0.61839429  0.24950705  1
  Ta  Ta119  1  0.29125644  0.67296180  0.75323240  1
  Ta  Ta120  1  0.62598551  -0.01415965  0.25813227  1
  Ta  Ta121  1  0.67135875  -0.02882789  0.74720248  1
  Ta  Ta122  1  0.68200911  0.30150143  0.25499203  1
  Ta  Ta123  1  0.63574603  0.35175338  0.75035688  1
  Ta  Ta124  1  0.70299274  0.65977516  0.24819246  1
  Ta  Ta125  1  0.67046728  0.61015703  0.75214472  1
  Ta  Ta126  1  0.00569388  -0.03083075  0.00497194  1
  Ta  Ta127  1  -0.00175730  -0.03139378  0.49369532  1
  Ta  Ta128  1  0.02508597  0.35419008  -0.00765222  1
  Ta  Ta129  1  -0.05744026  0.33337775  0.49500762  1
  Ta  Ta130  1  0.00120133  0.61492283  -0.00090729  1
  Ta  Ta131  1  0.01840026  0.64797186  0.49922138  1
  Ta  Ta132  1  0.32406151  -0.03387832  0.00493802  1
  Ta  Ta133  1  0.32827810  0.04313603  0.50137299  1
  Ta  Ta134  1  0.29083541  0.33426562  -0.00846535  1
  Ta  Ta135  1  0.33172463  0.28831582  0.50203672  1
  Ta  Ta136  1  0.37570312  0.67131154  -0.00215765  1
  Ta  Ta137  1  0.34148593  0.64863359  0.49848152  1
  Ta  Ta138  1  0.68285769  0.01786432  0.00601914  1
  Ta  Ta139  1  0.66951878  -0.05435719  0.50452569  1
  Ta  Ta140  1  0.66968116  0.28331548  -0.00016672  1
  Ta  Ta141  1  0.72680005  0.33313754  0.49530877  1
  Ta  Ta142  1  0.62718964  0.65839322  0.00157481  1
  Ta  Ta143  1  0.63863550  0.66513442  0.49830016  1
  N  N144  1  0.33603591  0.00120136  0.62759178  1
  N  N145  1  0.49933640  0.83887899  0.38596994  1
  N  N146  1  0.83397702  0.82202449  0.37543442  1
  N  N147  1  0.66549570  0.65611060  0.37694859  1
  N  N148  1  0.00360563  0.66221142  0.62716688  1
  N  N149  1  0.00111704  0.33167113  0.87164910  1
  N  N150  1  0.83335231  0.50111906  0.12154447  1
  N  N151  1  -0.01187591  0.32872641  0.37780851  1
  N  N152  1  0.83825804  0.17405233  0.62896647  1
  N  N153  1  0.16381911  0.17760460  0.37158609  1
  N  N154  1  0.16901844  0.81945041  0.12721105  1
  N  N155  1  0.00114552  0.65061539  0.12011848  1
  N  N156  1  0.66451472  -0.01459788  0.38746899  1
  N  N157  1  -0.00645490  0.00430048  0.12213388  1
  N  N158  1  -0.00428805  0.65836491  0.37182561  1
  N  N159  1  0.83183924  0.82997430  0.12246228  1
  N  N160  1  0.16226331  0.18344013  0.87220303  1
  N  N161  1  0.66428671  0.64311718  0.63072741  1
  N  N162  1  0.16788278  0.85223902  0.62433851  1
  N  N163  1  0.83678195  0.82546567  0.63122307  1
  N  N164  1  0.66221045  0.66148368  0.12048284  1
  N  N165  1  0.49788298  0.18460194  0.62523214  1
  N  N166  1  0.83873410  0.83776695  0.87148422  1
  N  N167  1  0.50466818  0.83710038  0.87621249  1
  N  N168  1  0.34423654  0.00998944  0.37808678  1
  N  N169  1  0.50147232  0.50208901  0.87854094  1
  N  N170  1  0.33120351  0.33916077  0.87489846  1
  N  N171  1  0.66429287  -0.00649456  0.12615720  1
  N  N172  1  0.00895732  0.65501235  0.87319674  1
  N  N173  1  0.33626214  0.33278717  0.62740319  1
  N  N174  1  0.16709069  0.85184166  0.36750159  1
  N  N175  1  0.33087562  0.32787088  0.36833158  1
  N  N176  1  0.33271516  0.66640639  0.87272967  1
  O  O177  1  0.50130661  0.82500506  0.63336333  1
  O  O178  1  0.49901647  0.51610004  0.62661750  1
  O  O179  1  0.32906912  -0.01837871  0.88084352  1
  O  O180  1  0.47803069  0.49806936  0.12264236  1
  O  O181  1  0.53118094  0.17704957  0.86934945  1
  O  O182  1  0.48293275  0.52021644  0.37151395  1
  O  O183  1  0.17783005  0.52321251  0.62367781  1
  O  O184  1  0.82574920  0.17580979  0.13044879  1
  O  O185  1  0.52105856  0.14427471  0.11888715  1
  O  O186  1  0.31846992  0.34875276  0.12211147  1
  O  O187  1  0.66648842  0.00231253  0.62443477  1
  O  O188  1  -0.00049041  0.33129349  0.13334012  1
  O  O189  1  0.49466338  0.15526270  0.37675864  1
  O  O190  1  0.67063542  -0.01013200  0.87262088  1
  O  O191  1  -0.01445091  -0.01162265  0.36957007  1
  O  O192  1  0.81702833  0.48893076  0.62748683  1
  O  O193  1  0.33547026  0.65544496  0.11891532  1
  O  O194  1  0.16682295  0.51344872  0.87877425  1
  O  O195  1  0.49794762  0.83588528  0.12521969  1
  O  O196  1  0.82264103  0.48941961  0.88218467  1
  O  O197  1  0.16519203  0.17540992  0.62366874  1
  O  O198  1  0.67805081  0.32368628  0.37870210  1
  O  O199  1  0.14746640  0.19047579  0.12104019  1
  O  O200  1  0.66914650  0.32030255  0.87005341  1
  O  O201  1  0.67632734  0.33781607  0.62456986  1
  O  O202  1  0.65337688  0.65608913  0.87113901  1
  O  O203  1  -0.01900148  0.33124913  0.62434982  1
  O  O204  1  0.16732191  0.84015178  0.88419525  1
  O  O205  1  0.83421046  0.15401144  0.38022529  1
  O  O206  1  0.17045252  0.51996978  0.37411723  1
  O  O207  1  0.00409416  -0.00186302  0.87272690  1
  O  O208  1  -0.00562920  -0.00593716  0.62308023  1
  O  O209  1  0.16961285  0.49592013  0.12433902  1
  O  O210  1  0.34510830  -0.01412230  0.12617934  1
  O  O211  1  0.83316231  0.51118249  0.37768219  1
  O  O212  1  0.66824637  0.30475778  0.13132057  1
  O  O213  1  0.83035665  0.16605709  0.86821221  1
  O  O214  1  0.33533856  0.65876432  0.37401630  1
  O  O215  1  0.33070353  0.66626100  0.62509187  1
