# generated using pymatgen
data_Sr24Ta24N11O13
_symmetry_space_group_name_H-M   'P 1'
_cell_length_a   16.93953781
_cell_length_b   16.68369163
_cell_length_c   15.64511427
_cell_angle_alpha   90.21955625
_cell_angle_beta   89.75493678
_cell_angle_gamma   90.44557409
_symmetry_Int_Tables_number   1
_chemical_formula_structural   Sr24Ta24N11O13
_chemical_formula_sum   'Sr72 Ta72 N33 O39'
_cell_volume   4421.32267295
_cell_formula_units_Z   3
loop_
 _symmetry_equiv_pos_site_id
 _symmetry_equiv_pos_as_xyz
  1  'x, y, z'
loop_
 _atom_site_type_symbol
 _atom_site_label
 _atom_site_symmetry_multiplicity
 _atom_site_fract_x
 _atom_site_fract_y
 _atom_site_fract_z
 _atom_site_occupancy
  Sr  Sr0  1  0.00151732  0.16785159  0.08723956  1
  Sr  Sr1  1  0.01090888  0.16734717  0.63471340  1
  Sr  Sr2  1  -0.02570950  0.49257481  0.14591696  1
  Sr  Sr3  1  -0.00655007  0.51225875  0.61202907  1
  Sr  Sr4  1  -0.02185907  0.82867464  0.11999580  1
  Sr  Sr5  1  -0.00374959  0.82767968  0.66553183  1
  Sr  Sr6  1  0.31045891  0.16050873  0.14975789  1
  Sr  Sr7  1  0.34591852  0.17153437  0.58468961  1
  Sr  Sr8  1  0.30492877  0.49544744  0.12079325  1
  Sr  Sr9  1  0.32079735  0.50223678  0.65313316  1
  Sr  Sr10  1  0.32332730  0.83096648  0.09398424  1
  Sr  Sr11  1  0.30734445  0.85039250  0.61729488  1
  Sr  Sr12  1  0.67487587  0.15264406  0.11593298  1
  Sr  Sr13  1  0.65886013  0.18297460  0.67809280  1
  Sr  Sr14  1  0.65383479  0.51211714  0.12095884  1
  Sr  Sr15  1  0.65337915  0.48662102  0.58118899  1
  Sr  Sr16  1  0.62779661  0.82952025  0.16200337  1
  Sr  Sr17  1  0.67499666  0.84440387  0.61413259  1
  Sr  Sr18  1  0.17361886  -0.01959157  0.15809765  1
  Sr  Sr19  1  0.16353701  0.01323678  0.61137428  1
  Sr  Sr20  1  0.16221182  0.32367433  0.10963030  1
  Sr  Sr21  1  0.18155465  0.33296731  0.65897035  1
  Sr  Sr22  1  0.18868957  0.65803253  0.10137255  1
  Sr  Sr23  1  0.17862829  0.64369442  0.60869055  1
  Sr  Sr24  1  0.50178696  -0.00035803  0.12342409  1
  Sr  Sr25  1  0.52703696  -0.00069378  0.64949704  1
  Sr  Sr26  1  0.53799728  0.33481594  0.07705617  1
  Sr  Sr27  1  0.49998040  0.33035039  0.62870125  1
  Sr  Sr28  1  0.50683482  0.65595432  0.15443276  1
  Sr  Sr29  1  0.51328906  0.67817646  0.61851505  1
  Sr  Sr30  1  0.84589507  0.00914672  0.11811340  1
  Sr  Sr31  1  0.83630794  0.00234091  0.59242196  1
  Sr  Sr32  1  0.82500553  0.33312292  0.16661498  1
  Sr  Sr33  1  0.84042818  0.33997351  0.61646795  1
  Sr  Sr34  1  0.84206648  0.65881203  0.10146482  1
  Sr  Sr35  1  0.85089309  0.68187097  0.66491250  1
  Sr  Sr36  1  -0.00778010  0.15558780  0.42209867  1
  Sr  Sr37  1  0.01206212  0.17089961  0.86641728  1
  Sr  Sr38  1  -0.00497070  0.50147091  0.38149660  1
  Sr  Sr39  1  -0.04257133  0.50673666  0.85879122  1
  Sr  Sr40  1  -0.00716650  0.84205128  0.33575662  1
  Sr  Sr41  1  -0.02753452  0.83079448  0.88582980  1
  Sr  Sr42  1  0.33266747  0.16956540  0.36578102  1
  Sr  Sr43  1  0.31874429  0.17428114  0.90743153  1
  Sr  Sr44  1  0.32127246  0.50584879  0.34516760  1
  Sr  Sr45  1  0.32150681  0.48391236  0.86751706  1
  Sr  Sr46  1  0.29869669  0.82545210  0.40837585  1
  Sr  Sr47  1  0.32205503  0.84955603  0.88480995  1
  Sr  Sr48  1  0.68886373  0.16925470  0.33282095  1
  Sr  Sr49  1  0.65846612  0.16043918  0.88955784  1
  Sr  Sr50  1  0.64352245  0.49784649  0.37712602  1
  Sr  Sr51  1  0.65255270  0.51039119  0.91367030  1
  Sr  Sr52  1  0.66109761  0.84730237  0.39498085  1
  Sr  Sr53  1  0.64354673  0.82575432  0.83224453  1
  Sr  Sr54  1  0.17475497  0.01114419  0.38696527  1
  Sr  Sr55  1  0.15790342  -0.01718613  0.83267668  1
  Sr  Sr56  1  0.18864361  0.33655934  0.32834337  1
  Sr  Sr57  1  0.16930908  0.32447072  0.88974664  1
  Sr  Sr58  1  0.17167166  0.64685827  0.40010444  1
  Sr  Sr59  1  0.20220107  0.64901220  0.89163591  1
  Sr  Sr60  1  0.52857890  0.02024579  0.34324765  1
  Sr  Sr61  1  0.50772518  -0.00291059  0.87854749  1
  Sr  Sr62  1  0.49345132  0.32722692  0.41295412  1
  Sr  Sr63  1  0.51354592  0.32904461  0.86699458  1
  Sr  Sr64  1  0.52407243  0.67316566  0.37785095  1
  Sr  Sr65  1  0.50712159  0.66643841  0.85702429  1
  Sr  Sr66  1  0.84023707  0.00264520  0.38163835  1
  Sr  Sr67  1  0.84210749  0.01606136  0.91597986  1
  Sr  Sr68  1  0.84160861  0.34061419  0.38717101  1
  Sr  Sr69  1  0.83855707  0.31949091  0.82994564  1
  Sr  Sr70  1  0.86556900  0.67920503  0.34299091  1
  Sr  Sr71  1  0.82636317  0.66916439  0.88073005  1
  Ta  Ta72  1  0.16876795  0.11004854  0.00429895  1
  Ta  Ta73  1  0.17210140  0.21338229  0.49436082  1
  Ta  Ta74  1  0.10965415  0.49506209  -0.00879582  1
  Ta  Ta75  1  0.16925180  0.45714247  0.49976109  1
  Ta  Ta76  1  0.14052357  0.83808747  -0.00332148  1
  Ta  Ta77  1  0.10907084  0.82126285  0.50243388  1
  Ta  Ta78  1  0.47084056  0.16458165  0.00405426  1
  Ta  Ta79  1  0.53434724  0.15322405  0.50335306  1
  Ta  Ta80  1  0.46839755  0.50782476  0.00134579  1
  Ta  Ta81  1  0.45095191  0.50443740  0.49786026  1
  Ta  Ta82  1  0.50828324  0.81539732  0.00145661  1
  Ta  Ta83  1  0.47544177  0.85431426  0.49244816  1
  Ta  Ta84  1  0.83538935  0.21023704  -0.00076928  1
  Ta  Ta85  1  0.80101964  0.17472406  0.50617389  1
  Ta  Ta86  1  0.82694603  0.45790810  0.00209893  1
  Ta  Ta87  1  0.82630114  0.54843700  0.49914651  1
  Ta  Ta88  1  0.77294922  0.83228228  -0.00110479  1
  Ta  Ta89  1  0.85966728  0.81562277  0.50555229  1
  Ta  Ta90  1  0.12094159  0.16057447  0.25215905  1
  Ta  Ta91  1  0.21675528  0.15911993  0.74210065  1
  Ta  Ta92  1  0.14209886  0.51607653  0.24310953  1
  Ta  Ta93  1  0.13290835  0.49989305  0.75922382  1
  Ta  Ta94  1  0.17212311  0.79724814  0.25029226  1
  Ta  Ta95  1  0.16795130  0.78765589  0.75104757  1
  Ta  Ta96  1  0.50842990  0.22375477  0.24347869  1
  Ta  Ta97  1  0.45492409  0.16368323  0.75856250  1
  Ta  Ta98  1  0.49732481  0.44175915  0.24498267  1
  Ta  Ta99  1  0.52793443  0.50076314  0.74550014  1
  Ta  Ta100  1  0.44918876  0.83325810  0.25288769  1
  Ta  Ta101  1  0.45725114  0.83295753  0.75134549  1
  Ta  Ta102  1  0.87709115  0.16261353  0.25265133  1
  Ta  Ta103  1  0.83948580  0.13491459  0.74897277  1
  Ta  Ta104  1  0.79785961  0.51684059  0.24971665  1
  Ta  Ta105  1  0.78420395  0.50348619  0.74925560  1
  Ta  Ta106  1  0.80419973  0.84139749  0.24539230  1
  Ta  Ta107  1  0.82542204  0.87879732  0.75244881  1
  Ta  Ta108  1  0.00180025  0.03257933  0.25175255  1
  Ta  Ta109  1  -0.03647501  0.00075450  0.75170804  1
  Ta  Ta110  1  0.00423311  0.29709213  0.25301330  1
  Ta  Ta111  1  0.01705510  0.35559982  0.75145060  1
  Ta  Ta112  1  0.04581125  0.66372496  0.24641646  1
  Ta  Ta113  1  0.04425319  0.66037346  0.76756028  1
  Ta  Ta114  1  0.34456906  -0.04045563  0.25581335  1
  Ta  Ta115  1  0.34651655  0.02884131  0.74846656  1
  Ta  Ta116  1  0.37584050  0.33203227  0.23226240  1
  Ta  Ta117  1  0.34303659  0.29694570  0.75911611  1
  Ta  Ta118  1  0.32334961  0.69887691  0.24744193  1
  Ta  Ta119  1  0.33546014  0.69630701  0.74537321  1
  Ta  Ta120  1  0.70185386  -0.01625669  0.24230646  1
  Ta  Ta121  1  0.71194191  0.00377961  0.75573525  1
  Ta  Ta122  1  0.63856876  0.34241160  0.25262111  1
  Ta  Ta123  1  0.66815270  0.37927041  0.75017990  1
  Ta  Ta124  1  0.70011778  0.67111951  0.24651304  1
  Ta  Ta125  1  0.66877233  0.62523308  0.74827212  1
  Ta  Ta126  1  0.04224352  -0.01057540  -0.00418835  1
  Ta  Ta127  1  0.00390200  -0.04703721  0.50796937  1
  Ta  Ta128  1  -0.03156893  0.34982197  -0.00428457  1
  Ta  Ta129  1  0.05039707  0.33512109  0.50024617  1
  Ta  Ta130  1  0.02567861  0.65936488  -0.01072315  1
  Ta  Ta131  1  -0.00761696  0.69493877  0.49701426  1
  Ta  Ta132  1  0.32307907  0.01540636  0.00846585  1
  Ta  Ta133  1  0.39077095  -0.00014643  0.49181509  1
  Ta  Ta134  1  0.36450350  0.33474126  0.01082510  1
  Ta  Ta135  1  0.31598314  0.35645790  0.49881499  1
  Ta  Ta136  1  0.38003189  0.65319493  0.00418827  1
  Ta  Ta137  1  0.35966413  0.64672786  0.50079345  1
  Ta  Ta138  1  0.66414577  -0.04627552  -0.00183936  1
  Ta  Ta139  1  0.66417468  0.05660718  0.50905036  1
  Ta  Ta140  1  0.71417192  0.33250621  -0.00855384  1
  Ta  Ta141  1  0.66619300  0.28244284  0.50708652  1
  Ta  Ta142  1  0.65686504  0.70538577  -0.00020871  1
  Ta  Ta143  1  0.71929390  0.67384831  0.50090818  1
  N  N144  1  0.00286216  -0.00199699  0.87647992  1
  N  N145  1  0.16930393  0.48586554  0.88511397  1
  N  N146  1  -0.01681704  0.67157974  0.87177157  1
  N  N147  1  0.67162617  0.67099944  0.12245367  1
  N  N148  1  0.83935737  0.17802156  0.63221163  1
  N  N149  1  0.48108608  0.83641533  0.87413632  1
  N  N150  1  0.16155889  0.49105338  0.62930463  1
  N  N151  1  0.31463467  0.32997773  0.12462244  1
  N  N152  1  0.66311628  0.33259933  0.62045536  1
  N  N153  1  0.33473800  0.67373506  0.62194325  1
  N  N154  1  0.66557622  0.66451380  0.86746067  1
  N  N155  1  0.34223833  0.66590823  0.12728645  1
  N  N156  1  0.33872724  0.32943546  0.87952033  1
  N  N157  1  0.66729758  -0.00301430  0.12437438  1
  N  N158  1  -0.00636414  0.33484135  0.87127371  1
  N  N159  1  0.15829945  0.14870676  0.12304866  1
  N  N160  1  0.81536918  0.49697648  0.12745131  1
  N  N161  1  0.16270511  0.49153042  0.37065049  1
  N  N162  1  0.18504410  0.17195989  0.62167979  1
  N  N163  1  0.01284568  0.67118384  0.37375732  1
  N  N164  1  0.84103460  0.16956520  0.88081388  1
  N  N165  1  0.14762979  0.48842381  0.11675766  1
  N  N166  1  0.84250070  0.17219616  0.12886436  1
  N  N167  1  0.83998340  0.17138651  0.38010653  1
  N  N168  1  0.00361225  -0.00635022  0.62575675  1
  N  N169  1  0.47882792  0.83143261  0.12761522  1
  N  N170  1  0.66945465  -0.00246419  0.87995259  1
  N  N171  1  0.33171724  -0.00703293  0.13320812  1
  N  N172  1  0.67259179  0.33814259  0.87003942  1
  N  N173  1  0.67685301  0.01657184  0.62710124  1
  N  N174  1  0.83518057  0.83890006  0.62558708  1
  N  N175  1  0.49501374  0.16452561  0.88310972  1
  N  N176  1  0.16602218  0.17094134  0.37450173  1
  O  O177  1  0.34942053  0.67371857  0.88023800  1
  O  O178  1  0.82256318  0.83229313  0.11782120  1
  O  O179  1  0.46915384  0.84129236  0.61673702  1
  O  O180  1  0.80820620  0.50555394  0.88381705  1
  O  O181  1  0.15742288  0.80267903  0.62273235  1
  O  O182  1  0.51579395  0.17809381  0.12495377  1
  O  O183  1  0.68779049  0.68404045  0.38040054  1
  O  O184  1  0.00627265  0.33665508  0.62154524  1
  O  O185  1  0.33441555  0.00716571  0.87268591  1
  O  O186  1  0.49991692  0.50165834  0.86922436  1
  O  O187  1  0.01191572  0.67241447  0.11993758  1
  O  O188  1  0.51582338  0.17830839  0.36470344  1
  O  O189  1  0.00316735  0.00756768  0.12368392  1
  O  O190  1  0.33828051  0.34194151  0.37042688  1
  O  O191  1  0.50018502  0.16257561  0.63499464  1
  O  O192  1  0.15070624  0.81724412  0.37638815  1
  O  O193  1  0.15766745  0.82211188  0.12549694  1
  O  O194  1  0.83620729  0.52437288  0.37436344  1
  O  O195  1  0.48432147  0.48046762  0.37483708  1
  O  O196  1  0.37631213  0.02188792  0.36705188  1
  O  O197  1  0.00235791  0.66670222  0.64167625  1
  O  O198  1  0.33447568  0.33504327  0.62581447  1
  O  O199  1  0.49451870  0.49540359  0.12953317  1
  O  O200  1  -0.00795180  0.32432666  0.12972464  1
  O  O201  1  0.68038798  0.01562536  0.36943683  1
  O  O202  1  0.16334128  0.82617052  0.87436192  1
  O  O203  1  0.50041156  0.49714010  0.62039459  1
  O  O204  1  0.67551376  0.33770056  0.12749681  1
  O  O205  1  0.33050123  0.66867101  0.37622494  1
  O  O206  1  0.81780047  0.51863770  0.62201936  1
  O  O207  1  -0.00059472  -0.00029920  0.37807606  1
  O  O208  1  0.64862274  0.33226408  0.38391524  1
  O  O209  1  0.81524414  0.83094169  0.87273413  1
  O  O210  1  0.00277042  0.31983801  0.37930610  1
  O  O211  1  0.50789535  0.82927397  0.37084785  1
  O  O212  1  0.36665692  0.01236216  0.61567992  1
  O  O213  1  0.17321719  0.13878345  0.86535666  1
  O  O214  1  0.83186521  0.83514940  0.37047031  1
  O  O215  1  0.69573659  0.67848706  0.62805047  1
