# generated using pymatgen
data_Sr24Ta24N11O13
_symmetry_space_group_name_H-M   'P 1'
_cell_length_a   16.00239043
_cell_length_b   20.01598814
_cell_length_c   13.38341644
_cell_angle_alpha   84.77815121
_cell_angle_beta   90.51171083
_cell_angle_gamma   90.76160355
_symmetry_Int_Tables_number   1
_chemical_formula_structural   Sr24Ta24N11O13
_chemical_formula_sum   'Sr72 Ta72 N33 O39'
_cell_volume   4268.46071434
_cell_formula_units_Z   3
loop_
 _symmetry_equiv_pos_site_id
 _symmetry_equiv_pos_as_xyz
  1  'x, y, z'
loop_
 _atom_site_type_symbol
 _atom_site_label
 _atom_site_symmetry_multiplicity
 _atom_site_fract_x
 _atom_site_fract_y
 _atom_site_fract_z
 _atom_site_occupancy
  Sr  Sr0  1  -0.00691469  0.20535936  0.09506432  1
  Sr  Sr1  1  -0.00017149  0.20879384  0.58696023  1
  Sr  Sr2  1  0.00070212  0.55440238  0.16733068  1
  Sr  Sr3  1  -0.00133333  0.53873036  0.68307866  1
  Sr  Sr4  1  -0.00544213  0.83529989  0.05906567  1
  Sr  Sr5  1  -0.00162985  0.86756744  0.54958952  1
  Sr  Sr6  1  0.33476638  0.19991941  0.09931122  1
  Sr  Sr7  1  0.33791293  0.20807886  0.59430954  1
  Sr  Sr8  1  0.33066137  0.55055906  0.16081846  1
  Sr  Sr9  1  0.33570194  0.54367923  0.66798696  1
  Sr  Sr10  1  0.32247467  0.84299516  0.06238708  1
  Sr  Sr11  1  0.35061953  0.86105362  0.56060685  1
  Sr  Sr12  1  0.66758498  0.19864034  0.09772148  1
  Sr  Sr13  1  0.66303587  0.19536894  0.60120537  1
  Sr  Sr14  1  0.67111849  0.54635318  0.16646570  1
  Sr  Sr15  1  0.66301470  0.54853261  0.66865382  1
  Sr  Sr16  1  0.67997066  0.86859966  0.05612939  1
  Sr  Sr17  1  0.65081617  0.84676806  0.55219197  1
  Sr  Sr18  1  0.17215486  -0.03485440  0.13914804  1
  Sr  Sr19  1  0.17697289  -0.04161494  0.63616753  1
  Sr  Sr20  1  0.16508246  0.29202860  0.20201980  1
  Sr  Sr21  1  0.16534823  0.29167143  0.69863501  1
  Sr  Sr22  1  0.16965231  0.65722174  0.08654965  1
  Sr  Sr23  1  0.16342159  0.63268861  0.58819463  1
  Sr  Sr24  1  0.49481475  -0.03401491  0.14732844  1
  Sr  Sr25  1  0.51195535  -0.02757739  0.64860618  1
  Sr  Sr26  1  0.49989387  0.28743971  0.19436107  1
  Sr  Sr27  1  0.49989004  0.28975916  0.69392010  1
  Sr  Sr28  1  0.49939481  0.64362181  0.08386021  1
  Sr  Sr29  1  0.49660586  0.65698964  0.58453373  1
  Sr  Sr30  1  0.83806634  -0.02630641  0.14708466  1
  Sr  Sr31  1  0.81077853  -0.03876044  0.63788146  1
  Sr  Sr32  1  0.83237966  0.28855643  0.19849425  1
  Sr  Sr33  1  0.83420502  0.28934049  0.70146530  1
  Sr  Sr34  1  0.83331958  0.65518670  0.08741523  1
  Sr  Sr35  1  0.83332547  0.63867268  0.58981701  1
  Sr  Sr36  1  0.00054636  0.21453774  0.34560534  1
  Sr  Sr37  1  0.00919789  0.18242732  0.84150628  1
  Sr  Sr38  1  0.00097395  0.52510456  0.43118330  1
  Sr  Sr39  1  -0.00063381  0.51080291  0.92939888  1
  Sr  Sr40  1  0.00381361  0.87901352  0.29540207  1
  Sr  Sr41  1  0.00284541  0.87358194  0.79975435  1
  Sr  Sr42  1  0.33477595  0.21631077  0.34911209  1
  Sr  Sr43  1  0.31837585  0.20272417  0.84727344  1
  Sr  Sr44  1  0.33134895  0.51144307  0.41767645  1
  Sr  Sr45  1  0.33350772  0.52164707  0.91773431  1
  Sr  Sr46  1  0.33263475  0.87766763  0.30698433  1
  Sr  Sr47  1  0.32935425  0.87859008  0.80892659  1
  Sr  Sr48  1  0.66349133  0.20886332  0.34756767  1
  Sr  Sr49  1  0.66822695  0.20876095  0.84666707  1
  Sr  Sr50  1  0.66614627  0.50624806  0.41986861  1
  Sr  Sr51  1  0.66545319  0.52511694  0.92054978  1
  Sr  Sr52  1  0.66618644  0.87747125  0.30145814  1
  Sr  Sr53  1  0.66886264  0.87589241  0.80612204  1
  Sr  Sr54  1  0.16578492  -0.02933138  0.39269509  1
  Sr  Sr55  1  0.15783685  -0.01236189  0.87690420  1
  Sr  Sr56  1  0.17121698  0.30986191  0.44730826  1
  Sr  Sr57  1  0.15504858  0.30386573  0.95630365  1
  Sr  Sr58  1  0.16767102  0.61790786  0.33995713  1
  Sr  Sr59  1  0.16331448  0.61753794  0.83902144  1
  Sr  Sr60  1  0.49990275  -0.03709697  0.39805383  1
  Sr  Sr61  1  0.50003295  -0.03795723  0.90063074  1
  Sr  Sr62  1  0.50381739  0.32101540  0.43766689  1
  Sr  Sr63  1  0.49618814  0.29392216  0.94331604  1
  Sr  Sr64  1  0.50037138  0.61380566  0.34418104  1
  Sr  Sr65  1  0.50021129  0.62252967  0.83258465  1
  Sr  Sr66  1  0.83537393  -0.03859294  0.40098771  1
  Sr  Sr67  1  0.84914967  -0.02958919  0.88596743  1
  Sr  Sr68  1  0.82721841  0.30621129  0.45010225  1
  Sr  Sr69  1  0.84215926  0.30262199  0.94588398  1
  Sr  Sr70  1  0.83162635  0.61769296  0.34316406  1
  Sr  Sr71  1  0.83513760  0.61810742  0.83684571  1
  Ta  Ta72  1  0.16416426  0.12171167  0.00817898  1
  Ta  Ta73  1  0.16940597  0.12859484  0.46771225  1
  Ta  Ta74  1  0.17221228  0.45374826  0.06298056  1
  Ta  Ta75  1  0.16326833  0.45306485  0.57656479  1
  Ta  Ta76  1  0.16595907  0.78565210  -0.08474174  1
  Ta  Ta77  1  0.16634013  0.78339865  0.45641732  1
  Ta  Ta78  1  0.50203363  0.11772090  -0.01818334  1
  Ta  Ta79  1  0.49204051  0.12505934  0.48775313  1
  Ta  Ta80  1  0.49965511  0.44715858  0.04140145  1
  Ta  Ta81  1  0.49995368  0.45658391  0.57424317  1
  Ta  Ta82  1  0.50477704  0.79166579  -0.05527924  1
  Ta  Ta83  1  0.49447902  0.77974404  0.40400454  1
  Ta  Ta84  1  0.82893965  0.12065234  -0.01820691  1
  Ta  Ta85  1  0.83813026  0.12056485  0.49400259  1
  Ta  Ta86  1  0.82520360  0.44902553  0.06482438  1
  Ta  Ta87  1  0.83758950  0.45435298  0.57450650  1
  Ta  Ta88  1  0.82830743  0.78104720  -0.08601926  1
  Ta  Ta89  1  0.83394776  0.78498060  0.44988952  1
  Ta  Ta90  1  0.16254540  0.12493613  0.23834068  1
  Ta  Ta91  1  0.17100004  0.11964649  0.69322415  1
  Ta  Ta92  1  0.15562661  0.45174410  0.28175218  1
  Ta  Ta93  1  0.16991374  0.44703779  0.79705693  1
  Ta  Ta94  1  0.17306884  0.78054226  0.23812937  1
  Ta  Ta95  1  0.16285169  0.77978510  0.69688595  1
  Ta  Ta96  1  0.49618339  0.11789495  0.26394018  1
  Ta  Ta97  1  0.49608296  0.11821718  0.75074878  1
  Ta  Ta98  1  0.49951162  0.45180871  0.26170754  1
  Ta  Ta99  1  0.50107797  0.44450043  0.79618747  1
  Ta  Ta100  1  0.50694034  0.79138438  0.18933252  1
  Ta  Ta101  1  0.49645873  0.78478341  0.72614357  1
  Ta  Ta102  1  0.83769357  0.11572495  0.26847698  1
  Ta  Ta103  1  0.83019965  0.11932130  0.72733371  1
  Ta  Ta104  1  0.84392739  0.45055949  0.28081722  1
  Ta  Ta105  1  0.82257025  0.44536363  0.79294307  1
  Ta  Ta106  1  0.82642842  0.78214324  0.22799472  1
  Ta  Ta107  1  0.83645955  0.78903157  0.69211219  1
  Ta  Ta108  1  0.00165541  0.05977409  0.25306824  1
  Ta  Ta109  1  -0.00458411  0.04785064  0.70394362  1
  Ta  Ta110  1  -0.00036750  0.38186831  0.31384567  1
  Ta  Ta111  1  -0.00122686  0.37606472  0.80193312  1
  Ta  Ta112  1  0.00027207  0.71399756  0.23770225  1
  Ta  Ta113  1  0.00305165  0.71543470  0.70908475  1
  Ta  Ta114  1  0.33416694  0.05614084  0.27190497  1
  Ta  Ta115  1  0.33995163  0.05008281  0.73441531  1
  Ta  Ta116  1  0.32930091  0.38353402  0.27862597  1
  Ta  Ta117  1  0.33301293  0.37283564  0.80663396  1
  Ta  Ta118  1  0.34618463  0.71370850  0.23327630  1
  Ta  Ta119  1  0.31933596  0.71697795  0.71690320  1
  Ta  Ta120  1  0.66888798  0.04785008  0.25195694  1
  Ta  Ta121  1  0.67025415  0.05267180  0.77761065  1
  Ta  Ta122  1  0.67307046  0.38191632  0.27291234  1
  Ta  Ta123  1  0.66771064  0.37594376  0.81520985  1
  Ta  Ta124  1  0.65772581  0.71883056  0.22380038  1
  Ta  Ta125  1  0.67648790  0.71658007  0.72362616  1
  Ta  Ta126  1  -0.00159832  0.04890166  0.01769654  1
  Ta  Ta127  1  -0.00231348  0.05839548  0.47864881  1
  Ta  Ta128  1  -0.00314635  0.38327082  0.09420655  1
  Ta  Ta129  1  -0.00025007  0.37861572  0.56972811  1
  Ta  Ta130  1  -0.00012154  0.70396243  -0.06358777  1
  Ta  Ta131  1  0.00211101  0.71003349  0.45936221  1
  Ta  Ta132  1  0.33963573  0.04801424  -0.01364733  1
  Ta  Ta133  1  0.33516664  0.05577883  0.49753332  1
  Ta  Ta134  1  0.33438450  0.37223591  0.05567634  1
  Ta  Ta135  1  0.33450369  0.37866373  0.57651647  1
  Ta  Ta136  1  0.33954886  0.71121080  -0.06202949  1
  Ta  Ta137  1  0.31929877  0.71237904  0.45105027  1
  Ta  Ta138  1  0.66886982  0.04676406  0.00647271  1
  Ta  Ta139  1  0.66700290  0.05179048  0.47847206  1
  Ta  Ta140  1  0.66583475  0.37215148  0.05282527  1
  Ta  Ta141  1  0.66768947  0.38025763  0.59423859  1
  Ta  Ta142  1  0.66141020  0.71257549  -0.05856108  1
  Ta  Ta143  1  0.67112855  0.70568203  0.44418720  1
  N  N144  1  0.16891181  0.51835632  0.68333263  1
  N  N145  1  0.50063973  0.50297283  0.91253749  1
  N  N146  1  0.82809044  0.84789178  0.55580180  1
  N  N147  1  0.16881801  0.19138495  0.58414211  1
  N  N148  1  0.66621084  0.64480128  0.83646936  1
  N  N149  1  0.66810878  -0.01726402  0.38739656  1
  N  N150  1  0.66612480  0.30737784  0.18969629  1
  N  N151  1  0.16167868  0.18877043  0.10298701  1
  N  N152  1  0.66921276  0.31061473  0.94753817  1
  N  N153  1  0.50226604  0.85698916  0.81283109  1
  N  N154  1  0.83145786  0.18485468  0.60022561  1
  N  N155  1  0.32848590  0.31303125  0.94654113  1
  N  N156  1  0.33110698  0.66953291  0.58911241  1
  N  N157  1  -0.00027913  0.64128322  0.34430708  1
  N  N158  1  0.83117759  0.51934371  0.67871008  1
  N  N159  1  0.33424260  0.35540045  0.43583304  1
  N  N160  1  -0.00137190  0.69081301  0.08302781  1
  N  N161  1  0.49918950  0.85727570  0.29733766  1
  N  N162  1  0.32592541  -0.00502622  0.87326143  1
  N  N163  1  0.33213864  0.30838570  0.70425814  1
  N  N164  1  -0.00266305  0.65726688  0.59096058  1
  N  N165  1  0.66719225  -0.01293691  0.14294422  1
  N  N166  1  -0.00313971  0.32537215  0.45214241  1
  N  N167  1  0.66598504  0.30813156  0.70312907  1
  N  N168  1  -0.00267284  0.35212716  0.94431889  1
  N  N169  1  0.16543345  0.49804482  0.92813866  1
  N  N170  1  0.66193352  0.67600287  0.58567614  1
  N  N171  1  0.50215226  0.17176724  0.61237957  1
  N  N172  1  0.33446084  0.30951749  0.19160323  1
  N  N173  1  0.33690649  0.68897151  0.08415031  1
  N  N174  1  0.16812993  0.19181870  0.34558969  1
  N  N175  1  -0.00435719  0.31149998  0.20466811  1
  N  N176  1  0.50033609  0.19130622  0.35315200  1
  O  O177  1  -0.00048329  0.62910166  0.83540927  1
  O  O178  1  0.34293063  -0.02415628  0.63831492  1
  O  O179  1  0.83228793  0.16718642  0.10996958  1
  O  O180  1  0.66138222  0.01989454  0.63729079  1
  O  O181  1  0.15954963  0.86375379  0.80536924  1
  O  O182  1  0.83310523  0.78841632  0.06750048  1
  O  O183  1  0.00276726  -0.01469192  0.14832863  1
  O  O184  1  0.00281575  -0.01948173  0.38841440  1
  O  O185  1  0.16738687  0.86259670  0.31683872  1
  O  O186  1  0.83508410  0.52937905  0.14995298  1
  O  O187  1  0.83475412  0.50323772  0.93017427  1
  O  O188  1  0.01694615  -0.02025593  0.60690003  1
  O  O189  1  -0.00090815  0.29881708  0.70571632  1
  O  O190  1  0.66489029  0.37317639  0.43185541  1
  O  O191  1  0.65737977  0.63345263  0.33171783  1
  O  O192  1  0.82815882  0.19615113  0.35314480  1
  O  O193  1  0.00270299  0.03696020  0.86631096  1
  O  O194  1  0.51080200  0.52573262  0.15025067  1
  O  O195  1  0.51270243  0.86207367  0.04675091  1
  O  O196  1  0.16034216  0.13685960  0.84948232  1
  O  O197  1  0.33178552  0.01110337  0.14131990  1
  O  O198  1  0.16425526  0.85114510  0.56490755  1
  O  O199  1  0.50620360  0.45979970  0.41901201  1
  O  O200  1  0.83770568  0.86596987  0.78776339  1
  O  O201  1  0.49754555  0.79837509  0.56805200  1
  O  O202  1  0.49978907  0.52985082  0.67322106  1
  O  O203  1  0.50313142  0.16893092  0.10599413  1
  O  O204  1  0.68238397  -0.02611434  0.90801113  1
  O  O205  1  0.17204605  0.78986292  0.07249535  1
  O  O206  1  0.84338751  0.85914208  0.31474212  1
  O  O207  1  0.84627985  0.18367915  0.84204903  1
  O  O208  1  0.82882714  0.49076778  0.41480085  1
  O  O209  1  0.33426975  0.63232856  0.33512067  1
  O  O210  1  0.49437423  0.19210487  0.84829087  1
  O  O211  1  0.16529069  0.53218503  0.16189416  1
  O  O212  1  0.32651979  0.63685947  0.82744993  1
  O  O213  1  0.16762011  0.49379354  0.41533415  1
  O  O214  1  0.66622093  0.66793856  0.09721573  1
  O  O215  1  0.32962129  -0.02060696  0.40129130  1
