# generated using pymatgen
data_Sr24Ta24N11O13
_symmetry_space_group_name_H-M   'P 1'
_cell_length_a   16.54032961
_cell_length_b   17.05825899
_cell_length_c   15.63307324
_cell_angle_alpha   89.83913981
_cell_angle_beta   90.24167504
_cell_angle_gamma   88.87045782
_symmetry_Int_Tables_number   1
_chemical_formula_structural   Sr24Ta24N11O13
_chemical_formula_sum   'Sr72 Ta72 N33 O39'
_cell_volume   4409.94473964
_cell_formula_units_Z   3
loop_
 _symmetry_equiv_pos_site_id
 _symmetry_equiv_pos_as_xyz
  1  'x, y, z'
loop_
 _atom_site_type_symbol
 _atom_site_label
 _atom_site_symmetry_multiplicity
 _atom_site_fract_x
 _atom_site_fract_y
 _atom_site_fract_z
 _atom_site_occupancy
  Sr  Sr0  1  -0.00418067  0.21626185  0.07850783  1
  Sr  Sr1  1  0.01027124  0.16733694  0.64273291  1
  Sr  Sr2  1  0.01583362  0.51237595  0.12139286  1
  Sr  Sr3  1  0.00829935  0.55275399  0.68455862  1
  Sr  Sr4  1  -0.01181844  0.83647132  0.14362691  1
  Sr  Sr5  1  0.00473525  0.83576334  0.56225477  1
  Sr  Sr6  1  0.33479276  0.20356481  0.13092080  1
  Sr  Sr7  1  0.34283294  0.16212375  0.58314626  1
  Sr  Sr8  1  0.30534547  0.52911689  0.08702190  1
  Sr  Sr9  1  0.33687432  0.49223212  0.64037319  1
  Sr  Sr10  1  0.34608756  0.83238777  0.16138536  1
  Sr  Sr11  1  0.35410130  0.86183714  0.63724968  1
  Sr  Sr12  1  0.67348852  0.17298783  0.13812096  1
  Sr  Sr13  1  0.66924417  0.18564216  0.65216481  1
  Sr  Sr14  1  0.65260436  0.50649344  0.13605999  1
  Sr  Sr15  1  0.68544476  0.50702314  0.59563972  1
  Sr  Sr16  1  0.65073313  0.85434802  0.08346327  1
  Sr  Sr17  1  0.66653747  0.83247947  0.64123753  1
  Sr  Sr18  1  0.16525856  -0.04710351  0.14499830  1
  Sr  Sr19  1  0.14999179  -0.00914831  0.64194525  1
  Sr  Sr20  1  0.14465522  0.34518307  0.14228307  1
  Sr  Sr21  1  0.17491380  0.29629250  0.60273241  1
  Sr  Sr22  1  0.15323674  0.66153843  0.08057321  1
  Sr  Sr23  1  0.18470117  0.66163089  0.64191498  1
  Sr  Sr24  1  0.48951851  -0.00380996  0.09873733  1
  Sr  Sr25  1  0.51572237  0.00590421  0.62537696  1
  Sr  Sr26  1  0.50592332  0.32017158  0.14637531  1
  Sr  Sr27  1  0.50111603  0.32462344  0.65338330  1
  Sr  Sr28  1  0.49552065  0.66725151  0.13893874  1
  Sr  Sr29  1  0.50190824  0.62546628  0.58283464  1
  Sr  Sr30  1  0.82565822  -0.01596633  0.13587667  1
  Sr  Sr31  1  0.82935385  -0.03366545  0.56908032  1
  Sr  Sr32  1  0.81650941  0.36413788  0.04763250  1
  Sr  Sr33  1  0.83386990  0.31267842  0.63214306  1
  Sr  Sr34  1  0.84764084  0.66792680  0.18870018  1
  Sr  Sr35  1  0.82018906  0.65958988  0.63464948  1
  Sr  Sr36  1  0.01044600  0.21957609  0.38460575  1
  Sr  Sr37  1  0.01236130  0.13877429  0.86236674  1
  Sr  Sr38  1  0.00847417  0.48389035  0.35323085  1
  Sr  Sr39  1  0.00827708  0.55801911  0.88416812  1
  Sr  Sr40  1  -0.03350481  0.82183906  0.35395775  1
  Sr  Sr41  1  0.01485877  0.84253148  0.92206224  1
  Sr  Sr42  1  0.32222228  0.18995343  0.36537556  1
  Sr  Sr43  1  0.34288282  0.15526817  0.92353280  1
  Sr  Sr44  1  0.32303594  0.52533571  0.42697189  1
  Sr  Sr45  1  0.33903615  0.50532331  0.85893037  1
  Sr  Sr46  1  0.34994847  0.84192519  0.35863399  1
  Sr  Sr47  1  0.32765668  0.83732788  0.83501309  1
  Sr  Sr48  1  0.67442293  0.18204432  0.34744876  1
  Sr  Sr49  1  0.65946070  0.17442079  0.85100209  1
  Sr  Sr50  1  0.64772098  0.49200543  0.36389663  1
  Sr  Sr51  1  0.67716461  0.50471747  0.90133317  1
  Sr  Sr52  1  0.65516911  0.89452171  0.42566715  1
  Sr  Sr53  1  0.66883680  0.83843691  0.87072237  1
  Sr  Sr54  1  0.13690484  -0.03039785  0.35287140  1
  Sr  Sr55  1  0.15291142  -0.01593222  0.86694931  1
  Sr  Sr56  1  0.16526585  0.34965363  0.37546650  1
  Sr  Sr57  1  0.16618166  0.27782676  0.89622849  1
  Sr  Sr58  1  0.16610505  0.66680879  0.42270631  1
  Sr  Sr59  1  0.19031335  0.66499771  0.86051640  1
  Sr  Sr60  1  0.47842851  0.00462778  0.39911566  1
  Sr  Sr61  1  0.51211219  -0.00857849  0.86427885  1
  Sr  Sr62  1  0.50142906  0.31830282  0.34714491  1
  Sr  Sr63  1  0.49094903  0.32476052  0.85980575  1
  Sr  Sr64  1  0.48957001  0.65209742  0.36468194  1
  Sr  Sr65  1  0.51883639  0.64440329  0.92144111  1
  Sr  Sr66  1  0.83380880  0.00779054  0.35110053  1
  Sr  Sr67  1  0.85079097  -0.03351120  0.90707804  1
  Sr  Sr68  1  0.83541570  0.33281405  0.41529632  1
  Sr  Sr69  1  0.83586184  0.28206588  0.85027477  1
  Sr  Sr70  1  0.81652832  0.62036812  0.38564610  1
  Sr  Sr71  1  0.82011141  0.67934829  0.84163147  1
  Ta  Ta72  1  0.17052320  0.11333319  0.02064705  1
  Ta  Ta73  1  0.16349962  0.11978286  0.49559950  1
  Ta  Ta74  1  0.16089475  0.45181879  -0.06053988  1
  Ta  Ta75  1  0.12700525  0.49730096  0.52422007  1
  Ta  Ta76  1  0.21473470  0.82639016  -0.00541524  1
  Ta  Ta77  1  0.20489989  0.84067926  0.50205427  1
  Ta  Ta78  1  0.52908258  0.17243800  -0.00145287  1
  Ta  Ta79  1  0.52712683  0.18694280  0.50339847  1
  Ta  Ta80  1  0.48957950  0.45910966  0.00484591  1
  Ta  Ta81  1  0.49944417  0.44540030  0.49844552  1
  Ta  Ta82  1  0.46104951  0.82615182  0.00051455  1
  Ta  Ta83  1  0.50169738  0.80543948  0.50160163  1
  Ta  Ta84  1  0.82520792  0.13874091  -0.00565719  1
  Ta  Ta85  1  0.83025552  0.14853350  0.50669812  1
  Ta  Ta86  1  0.84010866  0.55424613  0.01027248  1
  Ta  Ta87  1  0.89198394  0.49273273  0.52709782  1
  Ta  Ta88  1  0.82396009  0.79594636  0.02178014  1
  Ta  Ta89  1  0.81185634  0.78962983  0.48239618  1
  Ta  Ta90  1  0.16384380  0.13759344  0.23187740  1
  Ta  Ta91  1  0.21367855  0.14937889  0.75129610  1
  Ta  Ta92  1  0.18973547  0.53254656  0.27565394  1
  Ta  Ta93  1  0.16409509  0.44247790  0.74321128  1
  Ta  Ta94  1  0.17124456  0.77433493  0.25257344  1
  Ta  Ta95  1  0.12678732  0.82722676  0.74912775  1
  Ta  Ta96  1  0.49333865  0.12723778  0.24442444  1
  Ta  Ta97  1  0.45458370  0.15649329  0.75250578  1
  Ta  Ta98  1  0.44469934  0.49502547  0.25592498  1
  Ta  Ta99  1  0.52910451  0.50742110  0.74696950  1
  Ta  Ta100  1  0.54640110  0.84072142  0.24922572  1
  Ta  Ta101  1  0.50839899  0.77553193  0.75571676  1
  Ta  Ta102  1  0.85266300  0.19892160  0.24212496  1
  Ta  Ta103  1  0.84536217  0.09131444  0.73692434  1
  Ta  Ta104  1  0.83315864  0.46555071  0.25256565  1
  Ta  Ta105  1  0.83833763  0.47158614  0.76477809  1
  Ta  Ta106  1  0.76112538  0.83347048  0.26371491  1
  Ta  Ta107  1  0.84839885  0.84929031  0.73375268  1
  Ta  Ta108  1  -0.00123522  0.07807649  0.23325734  1
  Ta  Ta109  1  -0.02847358  -0.05187044  0.72403784  1
  Ta  Ta110  1  -0.06316675  0.34324653  0.21446626  1
  Ta  Ta111  1  0.00583194  0.37015283  0.76999630  1
  Ta  Ta112  1  0.04856747  0.66271578  0.25454651  1
  Ta  Ta113  1  -0.00727180  0.74006019  0.74379884  1
  Ta  Ta114  1  0.32775832  0.03271888  0.23713744  1
  Ta  Ta115  1  0.33253117  0.03806604  0.74901792  1
  Ta  Ta116  1  0.31754490  0.39915389  0.25023796  1
  Ta  Ta117  1  0.31499701  0.29625462  0.75603288  1
  Ta  Ta118  1  0.30609314  0.65073612  0.25293981  1
  Ta  Ta119  1  0.39481096  0.66327841  0.75327496  1
  Ta  Ta120  1  0.63917036  -0.00454651  0.24193016  1
  Ta  Ta121  1  0.71192685  0.00121042  0.74833751  1
  Ta  Ta122  1  0.72933832  0.34063665  0.23603125  1
  Ta  Ta123  1  0.67506520  0.37655242  0.75670780  1
  Ta  Ta124  1  0.65962686  0.70773568  0.26466005  1
  Ta  Ta125  1  0.62841326  0.65374954  0.74329517  1
  Ta  Ta126  1  0.00956445  0.03544756  0.05078977  1
  Ta  Ta127  1  -0.00160358  0.03884070  0.49115924  1
  Ta  Ta128  1  -0.00186148  0.37741421  -0.03751552  1
  Ta  Ta129  1  0.00891714  0.38731129  0.57305894  1
  Ta  Ta130  1  -0.05389058  0.68384231  0.01461570  1
  Ta  Ta131  1  -0.01506031  0.64466112  0.50713831  1
  Ta  Ta132  1  0.31680007  -0.03735759  -0.00079306  1
  Ta  Ta133  1  0.29176455  -0.00820680  0.49092671  1
  Ta  Ta134  1  0.33537765  0.35885144  -0.00355969  1
  Ta  Ta135  1  0.36053014  0.34159229  0.49879381  1
  Ta  Ta136  1  0.34210606  0.70848324  -0.00104714  1
  Ta  Ta137  1  0.34245906  0.71414283  0.50539414  1
  Ta  Ta138  1  0.67465897  0.03836037  -0.00707275  1
  Ta  Ta139  1  0.67766837  0.07349444  0.50027072  1
  Ta  Ta140  1  0.63478053  0.32478639  -0.00220038  1
  Ta  Ta141  1  0.64484828  0.32297430  0.49757807  1
  Ta  Ta142  1  0.71409770  0.67031308  0.01623944  1
  Ta  Ta143  1  0.65701920  0.70072939  0.49128142  1
  N  N144  1  0.18043113  0.50746403  0.64189357  1
  N  N145  1  0.32908892  -0.01596308  0.12632056  1
  N  N146  1  0.50933230  0.48160173  0.62598159  1
  N  N147  1  0.17702679  0.14387394  0.62084120  1
  N  N148  1  0.50050698  0.16722981  0.62309885  1
  N  N149  1  0.17777794  0.13104590  0.89696019  1
  N  N150  1  0.33570652  0.67816121  0.38726786  1
  N  N151  1  0.67587425  0.33859511  0.12282723  1
  N  N152  1  0.81190958  0.85832530  0.38297991  1
  N  N153  1  0.33146014  0.31608875  0.87973172  1
  N  N154  1  0.49671317  0.16056208  0.87044451  1
  N  N155  1  0.35192942  0.66635467  0.86956662  1
  N  N156  1  0.81464735  0.82810372  0.14736632  1
  N  N157  1  0.33290225  0.67286471  0.13122899  1
  N  N158  1  0.66305869  0.00638564  0.12036156  1
  N  N159  1  -0.01269733  0.31012332  0.66867964  1
  N  N160  1  0.16395357  0.50680497  0.40313081  1
  N  N161  1  -0.00886144  -0.01833428  0.16610788  1
  N  N162  1  0.65590698  0.66806342  0.62077333  1
  N  N163  1  -0.00610281  -0.01146908  0.60115235  1
  N  N164  1  0.48798580  0.49026930  0.37430476  1
  N  N165  1  0.82397957  0.81999568  0.61232670  1
  N  N166  1  0.67644360  -0.00185507  0.86754877  1
  N  N167  1  0.50095828  0.83149613  0.12969247  1
  N  N168  1  0.67092654  0.33662581  0.87298865  1
  N  N169  1  0.17328179  0.52044077  0.83683768  1
  N  N170  1  0.17039577  0.82653872  0.86759308  1
  N  N171  1  -0.00247279  0.69171331  0.62040748  1
  N  N172  1  -0.02164926  0.36502034  0.08565776  1
  N  N173  1  0.84186612  0.15785757  0.63495813  1
  N  N174  1  0.84172994  0.50595472  0.64815800  1
  N  N175  1  0.00050201  0.67078417  0.13850477  1
  N  N176  1  0.49669122  0.16234601  0.12419932  1
  O  O177  1  0.17687618  0.80756187  0.12254153  1
  O  O178  1  -0.02697508  0.70275570  0.88093850  1
  O  O179  1  0.34153310  0.32248350  0.62324974  1
  O  O180  1  0.17431478  0.19699005  0.11675522  1
  O  O181  1  0.18948305  0.82330774  0.37252628  1
  O  O182  1  0.67117437  0.65984822  0.88965867  1
  O  O183  1  0.17547651  0.83715829  0.62529294  1
  O  O184  1  0.34653681  0.66213765  0.62540911  1
  O  O185  1  0.49261283  0.47766110  0.13124092  1
  O  O186  1  0.82137902  0.82534270  0.87730492  1
  O  O187  1  0.00591605  -0.01120866  0.94024695  1
  O  O188  1  0.31127371  -0.00329966  0.36333156  1
  O  O189  1  0.67279806  0.03314416  0.37524490  1
  O  O190  1  0.16651576  0.13307242  0.35814028  1
  O  O191  1  0.03887050  0.34367191  0.28133934  1
  O  O192  1  0.50581894  0.84036087  0.37815333  1
  O  O193  1  0.66189937  0.33840070  0.62610207  1
  O  O194  1  0.83640666  0.52116447  0.13414910  1
  O  O195  1  0.30757829  0.36041765  0.12811115  1
  O  O196  1  0.85780238  0.47842151  0.39682802  1
  O  O197  1  0.15122439  0.52535087  0.03110759  1
  O  O198  1  0.32228471  0.00591239  0.61556695  1
  O  O199  1  0.66903482  0.67245852  0.13663919  1
  O  O200  1  0.32749889  0.34944531  0.37298835  1
  O  O201  1  0.50221029  0.48546904  0.88047749  1
  O  O202  1  0.66921075  0.02807794  0.62055121  1
  O  O203  1  0.00724919  0.66772666  0.37998888  1
  O  O204  1  0.50827720  0.81773375  0.88004890  1
  O  O205  1  0.65271327  0.64366802  0.37579344  1
  O  O206  1  -0.00746002  0.28831508  0.87286080  1
  O  O207  1  0.50666240  0.81644063  0.62990995  1
  O  O208  1  0.67866466  0.33181781  0.37042650  1
  O  O209  1  0.84351377  0.18347676  0.37072919  1
  O  O210  1  -0.00888508  0.04960412  0.35488662  1
  O  O211  1  0.84004860  0.53311110  0.87810501  1
  O  O212  1  0.85297500  0.12832609  0.86750816  1
  O  O213  1  0.32980025  -0.00613938  0.87103453  1
  O  O214  1  0.83324155  0.17495120  0.11200461  1
  O  O215  1  0.49876067  0.16018690  0.37009151  1
