# generated using pymatgen
data_Sr24Ta24N11O13
_symmetry_space_group_name_H-M   'P 1'
_cell_length_a   16.94159296
_cell_length_b   16.68819708
_cell_length_c   15.72583132
_cell_angle_alpha   90.05137739
_cell_angle_beta   89.94844040
_cell_angle_gamma   89.91203410
_symmetry_Int_Tables_number   1
_chemical_formula_structural   Sr24Ta24N11O13
_chemical_formula_sum   'Sr72 Ta72 N33 O39'
_cell_volume   4446.07119966
_cell_formula_units_Z   3
loop_
 _symmetry_equiv_pos_site_id
 _symmetry_equiv_pos_as_xyz
  1  'x, y, z'
loop_
 _atom_site_type_symbol
 _atom_site_label
 _atom_site_symmetry_multiplicity
 _atom_site_fract_x
 _atom_site_fract_y
 _atom_site_fract_z
 _atom_site_occupancy
  Sr  Sr0  1  0.00277980  0.16639857  0.16719648  1
  Sr  Sr1  1  0.02037464  0.17719285  0.62142749  1
  Sr  Sr2  1  0.02090529  0.48302795  0.09997263  1
  Sr  Sr3  1  0.01256331  0.50497547  0.65704697  1
  Sr  Sr4  1  0.01327505  0.83614905  0.13003153  1
  Sr  Sr5  1  -0.00879263  0.82557845  0.58061358  1
  Sr  Sr6  1  0.33795506  0.16133214  0.12665288  1
  Sr  Sr7  1  0.34961540  0.17568132  0.61488393  1
  Sr  Sr8  1  0.34041092  0.51508451  0.14738315  1
  Sr  Sr9  1  0.33927390  0.49920703  0.61307194  1
  Sr  Sr10  1  0.36325123  0.83178855  0.08836320  1
  Sr  Sr11  1  0.32900984  0.83999905  0.63650491  1
  Sr  Sr12  1  0.70038762  0.16520153  0.08791028  1
  Sr  Sr13  1  0.66795659  0.16938237  0.63190888  1
  Sr  Sr14  1  0.67780614  0.48663637  0.13420965  1
  Sr  Sr15  1  0.68890620  0.50735348  0.59576226  1
  Sr  Sr16  1  0.67722305  0.84328227  0.14006733  1
  Sr  Sr17  1  0.68555771  0.83272612  0.65876745  1
  Sr  Sr18  1  0.14008701  0.00417635  0.14939599  1
  Sr  Sr19  1  0.14358200  -0.00924761  0.62661322  1
  Sr  Sr20  1  0.17677629  0.32893380  0.08340990  1
  Sr  Sr21  1  0.16070603  0.34496544  0.62851439  1
  Sr  Sr22  1  0.15739924  0.66028173  0.12788345  1
  Sr  Sr23  1  0.13997233  0.67154364  0.63687374  1
  Sr  Sr24  1  0.49158941  -0.00989410  0.14417673  1
  Sr  Sr25  1  0.47736510  -0.00015748  0.59483347  1
  Sr  Sr26  1  0.48748878  0.32427821  0.13591425  1
  Sr  Sr27  1  0.50269375  0.32469984  0.65815793  1
  Sr  Sr28  1  0.48847989  0.65882235  0.08789063  1
  Sr  Sr29  1  0.47327119  0.67341871  0.63282916  1
  Sr  Sr30  1  0.82147872  -0.01327489  0.09809618  1
  Sr  Sr31  1  0.81570528  0.01516365  0.64623788  1
  Sr  Sr32  1  0.83932850  0.33684688  0.13196110  1
  Sr  Sr33  1  0.80854031  0.33503259  0.58244578  1
  Sr  Sr34  1  0.79501693  0.66486596  0.16512149  1
  Sr  Sr35  1  0.83303142  0.66078578  0.62220449  1
  Sr  Sr36  1  0.02104760  0.17422281  0.38020194  1
  Sr  Sr37  1  0.00868778  0.14829523  0.82907544  1
  Sr  Sr38  1  0.02228970  0.49648711  0.36046925  1
  Sr  Sr39  1  -0.00009867  0.50500249  0.87442722  1
  Sr  Sr40  1  0.01401773  0.83078435  0.37177409  1
  Sr  Sr41  1  0.00147028  0.84738441  0.92424789  1
  Sr  Sr42  1  0.35174233  0.16321839  0.35821462  1
  Sr  Sr43  1  0.33286787  0.18222797  0.90559819  1
  Sr  Sr44  1  0.33224995  0.50474690  0.37867697  1
  Sr  Sr45  1  0.37332942  0.50683715  0.84163770  1
  Sr  Sr46  1  0.36245976  0.83881217  0.40232915  1
  Sr  Sr47  1  0.32520064  0.84185893  0.85844367  1
  Sr  Sr48  1  0.68322000  0.15909839  0.41416355  1
  Sr  Sr49  1  0.67679848  0.17024712  0.86496959  1
  Sr  Sr50  1  0.69156501  0.48631276  0.36589878  1
  Sr  Sr51  1  0.67794495  0.50032356  0.89948748  1
  Sr  Sr52  1  0.67290338  0.84130293  0.33811894  1
  Sr  Sr53  1  0.69090585  0.84426690  0.86827324  1
  Sr  Sr54  1  0.14216387  0.00076702  0.36704483  1
  Sr  Sr55  1  0.15068497  -0.00115642  0.85560116  1
  Sr  Sr56  1  0.18233862  0.33633303  0.42153109  1
  Sr  Sr57  1  0.14646478  0.33584965  0.86443850  1
  Sr  Sr58  1  0.15989866  0.66069722  0.34333203  1
  Sr  Sr59  1  0.12948334  0.66927475  0.89759543  1
  Sr  Sr60  1  0.50048376  0.00438904  0.37204366  1
  Sr  Sr61  1  0.45972792  -0.00606635  0.90711290  1
  Sr  Sr62  1  0.49593083  0.33872469  0.33748491  1
  Sr  Sr63  1  0.50160373  0.31666288  0.86080526  1
  Sr  Sr64  1  0.47948086  0.65609224  0.40990676  1
  Sr  Sr65  1  0.49130191  0.67330530  0.87330439  1
  Sr  Sr66  1  0.81557837  -0.00515545  0.38336312  1
  Sr  Sr67  1  0.82713059  0.01006814  0.87097922  1
  Sr  Sr68  1  0.84312367  0.33183758  0.36096809  1
  Sr  Sr69  1  0.82134490  0.34555432  0.91730133  1
  Sr  Sr70  1  0.82108217  0.66615322  0.38547483  1
  Sr  Sr71  1  0.81830092  0.65312761  0.84008950  1
  Ta  Ta72  1  0.14156090  0.14907328  -0.00477765  1
  Ta  Ta73  1  0.19695069  0.14685306  0.49708000  1
  Ta  Ta74  1  0.21738262  0.50390417  -0.02024136  1
  Ta  Ta75  1  0.15964664  0.52872588  0.50357004  1
  Ta  Ta76  1  0.18985606  0.84509919  0.00854704  1
  Ta  Ta77  1  0.18479390  0.81907223  0.49390442  1
  Ta  Ta78  1  0.52336450  0.15978456  0.00822358  1
  Ta  Ta79  1  0.50611207  0.19901045  0.49176465  1
  Ta  Ta80  1  0.50080579  0.47131150  -0.00467830  1
  Ta  Ta81  1  0.50920735  0.46214824  0.50232713  1
  Ta  Ta82  1  0.54818260  0.83591493  0.00361596  1
  Ta  Ta83  1  0.54840473  0.83288854  0.49920023  1
  Ta  Ta84  1  0.88162034  0.16540256  0.00058025  1
  Ta  Ta85  1  0.86612676  0.15867059  0.50489673  1
  Ta  Ta86  1  0.83962537  0.53853088  0.00574385  1
  Ta  Ta87  1  0.88299814  0.49981988  0.49895258  1
  Ta  Ta88  1  0.82616170  0.78656424  0.00838547  1
  Ta  Ta89  1  0.80009371  0.83715902  0.49731441  1
  Ta  Ta90  1  0.18079737  0.21103493  0.25378894  1
  Ta  Ta91  1  0.20653275  0.17381841  0.75196437  1
  Ta  Ta92  1  0.17508096  0.45796781  0.25302213  1
  Ta  Ta93  1  0.19717687  0.51149871  0.75723979  1
  Ta  Ta94  1  0.22051430  0.83369569  0.23902019  1
  Ta  Ta95  1  0.13488131  0.82450581  0.75984071  1
  Ta  Ta96  1  0.55485973  0.16308879  0.25085054  1
  Ta  Ta97  1  0.49446889  0.12748646  0.75189003  1
  Ta  Ta98  1  0.51091449  0.52778651  0.25103189  1
  Ta  Ta99  1  0.55400769  0.50387821  0.74927375  1
  Ta  Ta100  1  0.49070797  0.79537100  0.24521378  1
  Ta  Ta101  1  0.51631856  0.85727335  0.75340845  1
  Ta  Ta102  1  0.81966130  0.14851557  0.24801493  1
  Ta  Ta103  1  0.83584494  0.21907768  0.74767093  1
  Ta  Ta104  1  0.87389240  0.51048163  0.24840836  1
  Ta  Ta105  1  0.83168340  0.46412777  0.74912914  1
  Ta  Ta106  1  0.86129973  0.83545487  0.25222592  1
  Ta  Ta107  1  0.86707596  0.83314829  0.75502108  1
  Ta  Ta108  1  -0.04738611  -0.00356547  0.25117034  1
  Ta  Ta109  1  -0.01171135  -0.06154734  0.74918642  1
  Ta  Ta110  1  0.05059623  0.33833432  0.25294594  1
  Ta  Ta111  1  -0.04607288  0.33223630  0.74962121  1
  Ta  Ta112  1  -0.02656891  0.66304358  0.24441025  1
  Ta  Ta113  1  -0.01203924  0.72225570  0.76056275  1
  Ta  Ta114  1  0.31452188  -0.02878186  0.24654779  1
  Ta  Ta115  1  0.32887167  0.03530320  0.75509322  1
  Ta  Ta116  1  0.29963638  0.33759347  0.25317496  1
  Ta  Ta117  1  0.31439147  0.33016897  0.74312146  1
  Ta  Ta118  1  0.34590733  0.69681503  0.24331831  1
  Ta  Ta119  1  0.28345292  0.66383267  0.76063161  1
  Ta  Ta120  1  0.67032166  0.03743408  0.24828802  1
  Ta  Ta121  1  0.61012120  0.00192730  0.75390924  1
  Ta  Ta122  1  0.67213920  0.28938543  0.25144215  1
  Ta  Ta123  1  0.68618257  0.35209945  0.75021996  1
  Ta  Ta124  1  0.61240774  0.66013612  0.24810804  1
  Ta  Ta125  1  0.64125357  0.64985245  0.74737931  1
  Ta  Ta126  1  -0.00086395  0.04186916  0.00564718  1
  Ta  Ta127  1  -0.03086594  0.01229152  0.49757788  1
  Ta  Ta128  1  0.00174738  0.27275467  -0.00202410  1
  Ta  Ta129  1  -0.00737939  0.35070388  0.49868654  1
  Ta  Ta130  1  -0.05171473  0.66643043  0.00489826  1
  Ta  Ta131  1  0.00223054  0.63781038  0.49733562  1
  Ta  Ta132  1  0.27746196  0.00051032  0.00080846  1
  Ta  Ta133  1  0.29511328  0.00618942  0.50075458  1
  Ta  Ta134  1  0.34925513  0.37478803  -0.00515804  1
  Ta  Ta135  1  0.37566601  0.33192761  0.49574363  1
  Ta  Ta136  1  0.30528225  0.65669046  -0.00531669  1
  Ta  Ta137  1  0.28556879  0.67657670  0.50107353  1
  Ta  Ta138  1  0.63324802  -0.00176827  0.00292227  1
  Ta  Ta139  1  0.65964322  -0.03613218  0.49922764  1
  Ta  Ta140  1  0.63265779  0.32782749  0.00371833  1
  Ta  Ta141  1  0.62460336  0.33381340  0.49646729  1
  Ta  Ta142  1  0.67442273  0.68366795  0.00473846  1
  Ta  Ta143  1  0.65623439  0.70711712  0.49658177  1
  N  N144  1  0.51298086  0.16663411  0.37190104  1
  N  N145  1  0.51330544  0.82820911  0.12539630  1
  N  N146  1  0.64783123  0.66158879  0.12416395  1
  N  N147  1  0.17953248  0.17103836  0.37602258  1
  N  N148  1  0.83298346  0.82427991  0.12678027  1
  N  N149  1  0.65939624  0.33295940  0.62431551  1
  N  N150  1  0.01567719  0.33450786  0.37869100  1
  N  N151  1  0.83731537  0.17907697  0.62475128  1
  N  N152  1  0.16334037  0.82148347  0.13211818  1
  N  N153  1  0.84484623  0.49934949  0.62482304  1
  N  N154  1  0.65903844  -0.00218702  0.37973378  1
  N  N155  1  0.17129975  0.50336380  0.62666914  1
  N  N156  1  0.66862008  0.32750716  0.37330351  1
  N  N157  1  0.65994603  0.00229538  0.12528026  1
  N  N158  1  0.84613055  0.16524158  0.12929266  1
  N  N159  1  0.83071131  0.82590911  0.37821192  1
  N  N160  1  0.15465997  0.49513392  0.87752440  1
  N  N161  1  -0.01241150  0.00749175  0.12601453  1
  N  N162  1  0.17682681  0.49404686  0.37388210  1
  N  N163  1  0.31203291  0.01051435  0.87639713  1
  N  N164  1  0.52042334  0.49450595  0.87446691  1
  N  N165  1  -0.02197337  0.68018356  0.87896664  1
  N  N166  1  0.84054478  0.49694084  0.12340941  1
  N  N167  1  0.16590990  0.16907346  0.87295860  1
  N  N168  1  0.67171526  0.32518183  0.12403804  1
  N  N169  1  -0.01118232  -0.00058387  0.37684474  1
  N  N170  1  0.15675812  0.83140492  0.88148816  1
  N  N171  1  0.66399715  0.32956913  0.87767537  1
  N  N172  1  0.33908903  0.33813823  0.37333536  1
  N  N173  1  0.33559031  0.33754058  0.62297790  1
  N  N174  1  0.84895415  0.49527057  0.37370910  1
  N  N175  1  0.32876254  0.67038001  0.11800917  1
  N  N176  1  0.83793546  0.50082226  0.87468006  1
  O  O177  1  0.84073255  0.17145299  0.86752375  1
  O  O178  1  0.50357748  0.15061709  0.88275022  1
  O  O179  1  0.17683673  0.17476766  0.62408697  1
  O  O180  1  0.17212692  0.17661121  0.12824555  1
  O  O181  1  0.50335184  0.50494818  0.12664532  1
  O  O182  1  0.17855376  0.48350363  0.10592899  1
  O  O183  1  0.31239779  -0.01109614  0.37055151  1
  O  O184  1  0.65181956  -0.00315794  0.63110438  1
  O  O185  1  0.17796591  0.82494008  0.36696668  1
  O  O186  1  0.00105750  0.33543049  0.63235318  1
  O  O187  1  0.51431936  0.82824143  0.36964479  1
  O  O188  1  0.52135910  0.84059918  0.62962901  1
  O  O189  1  -0.00963132  0.67501936  0.62223417  1
  O  O190  1  -0.00469540  0.31071673  0.87416440  1
  O  O191  1  -0.01418562  -0.02375687  0.62414768  1
  O  O192  1  0.30110985  0.68007983  0.63275726  1
  O  O193  1  0.33400987  0.35617357  0.12114117  1
  O  O194  1  0.50169437  0.15499949  0.62493446  1
  O  O195  1  0.83628922  0.17176480  0.38101027  1
  O  O196  1  -0.00526889  0.66629831  0.37345537  1
  O  O197  1  0.31288300  -0.00245461  0.62749796  1
  O  O198  1  0.51330282  0.48271915  0.62764326  1
  O  O199  1  -0.01055425  -0.00556432  0.86839580  1
  O  O200  1  0.65459771  0.66429465  0.87215955  1
  O  O201  1  0.65178079  0.67759927  0.62428709  1
  O  O202  1  0.84023366  0.83434534  0.88899053  1
  O  O203  1  0.00275246  0.67353136  0.12424589  1
  O  O204  1  0.49707789  0.16499931  0.13087186  1
  O  O205  1  0.33874365  0.68470597  0.86960623  1
  O  O206  1  0.83680319  0.82835313  0.62092161  1
  O  O207  1  0.02230281  0.31686508  0.11875310  1
  O  O208  1  0.50507210  0.50085370  0.37681354  1
  O  O209  1  0.34678720  0.34701498  0.87160818  1
  O  O210  1  0.31761647  0.67492340  0.37706270  1
  O  O211  1  0.66157762  0.00349569  0.87094433  1
  O  O212  1  0.65488277  0.68364957  0.37229450  1
  O  O213  1  0.32088168  0.00188411  0.12156103  1
  O  O214  1  0.16283189  0.83101487  0.61900789  1
  O  O215  1  0.51377251  0.83488229  0.87727109  1
