# generated using pymatgen
data_Sr24Ta24N11O13
_symmetry_space_group_name_H-M   'P 1'
_cell_length_a   17.05818278
_cell_length_b   16.60696396
_cell_length_c   15.57496847
_cell_angle_alpha   90.31654487
_cell_angle_beta   90.20167919
_cell_angle_gamma   90.07880134
_symmetry_Int_Tables_number   1
_chemical_formula_structural   Sr24Ta24N11O13
_chemical_formula_sum   'Sr72 Ta72 N33 O39'
_cell_volume   4412.05016582
_cell_formula_units_Z   3
loop_
 _symmetry_equiv_pos_site_id
 _symmetry_equiv_pos_as_xyz
  1  'x, y, z'
loop_
 _atom_site_type_symbol
 _atom_site_label
 _atom_site_symmetry_multiplicity
 _atom_site_fract_x
 _atom_site_fract_y
 _atom_site_fract_z
 _atom_site_occupancy
  Sr  Sr0  1  0.01348207  0.17122615  0.09221744  1
  Sr  Sr1  1  0.03366219  0.16892530  0.63553755  1
  Sr  Sr2  1  0.01244591  0.49889461  0.12677910  1
  Sr  Sr3  1  0.01341401  0.49672068  0.60157652  1
  Sr  Sr4  1  0.01539872  0.83203961  0.12438688  1
  Sr  Sr5  1  -0.00578934  0.83794414  0.65566235  1
  Sr  Sr6  1  0.32630701  0.15409276  0.13060776  1
  Sr  Sr7  1  0.36296958  0.17179765  0.62731406  1
  Sr  Sr8  1  0.33893448  0.51639545  0.16784459  1
  Sr  Sr9  1  0.35920574  0.49432455  0.62680583  1
  Sr  Sr10  1  0.31992991  0.82462974  0.07568852  1
  Sr  Sr11  1  0.33140920  0.84897735  0.63494273  1
  Sr  Sr12  1  0.74296733  0.18364226  0.20819856  1
  Sr  Sr13  1  0.66295744  0.16147051  0.62537236  1
  Sr  Sr14  1  0.66805390  0.48623909  0.10484068  1
  Sr  Sr15  1  0.68693734  0.51200437  0.67819580  1
  Sr  Sr16  1  0.64138866  0.82721144  0.13540406  1
  Sr  Sr17  1  0.68522792  0.81594250  0.56144206  1
  Sr  Sr18  1  0.15962105  0.01068918  0.15067290  1
  Sr  Sr19  1  0.17627552  -0.00374517  0.61379026  1
  Sr  Sr20  1  0.14644479  0.32738101  0.08013689  1
  Sr  Sr21  1  0.16766444  0.34764272  0.64792853  1
  Sr  Sr22  1  0.15997689  0.65781351  0.13044736  1
  Sr  Sr23  1  0.15517125  0.66528715  0.58905449  1
  Sr  Sr24  1  0.47406564  -0.01820687  0.10028332  1
  Sr  Sr25  1  0.49982077  0.01995345  0.67116439  1
  Sr  Sr26  1  0.46320571  0.32516578  0.14207730  1
  Sr  Sr27  1  0.49965252  0.31474152  0.58699972  1
  Sr  Sr28  1  0.49889998  0.65601681  0.16447195  1
  Sr  Sr29  1  0.49400405  0.68767701  0.60838112  1
  Sr  Sr30  1  0.84073260  -0.01757291  0.12977346  1
  Sr  Sr31  1  0.80701646  0.00860474  0.59399243  1
  Sr  Sr32  1  0.83630189  0.35724844  0.13805442  1
  Sr  Sr33  1  0.80851643  0.32731905  0.64272195  1
  Sr  Sr34  1  0.79533098  0.66167676  0.07684986  1
  Sr  Sr35  1  0.83720585  0.66687402  0.63373659  1
  Sr  Sr36  1  0.03908565  0.15785093  0.41203503  1
  Sr  Sr37  1  0.01102278  0.16935444  0.87205208  1
  Sr  Sr38  1  -0.00714958  0.50305560  0.37507635  1
  Sr  Sr39  1  0.04207036  0.49927360  0.89277646  1
  Sr  Sr40  1  0.00624667  0.84604874  0.33095351  1
  Sr  Sr41  1  0.00111227  0.83063050  0.86344247  1
  Sr  Sr42  1  0.34415374  0.15589059  0.34745589  1
  Sr  Sr43  1  0.36498661  0.18082688  0.91488957  1
  Sr  Sr44  1  0.36847026  0.48986807  0.37814197  1
  Sr  Sr45  1  0.34278698  0.50351294  0.84405754  1
  Sr  Sr46  1  0.31225343  0.83526600  0.41828955  1
  Sr  Sr47  1  0.34436751  0.84083860  0.86016728  1
  Sr  Sr48  1  0.67506979  0.18109104  0.40452671  1
  Sr  Sr49  1  0.67444720  0.13619586  0.84990987  1
  Sr  Sr50  1  0.68217416  0.49586876  0.34980893  1
  Sr  Sr51  1  0.66566810  0.50094124  0.88673689  1
  Sr  Sr52  1  0.65699665  0.83627606  0.35551045  1
  Sr  Sr53  1  0.66865465  0.85820618  0.92225527  1
  Sr  Sr54  1  0.17362152  0.00253637  0.37828352  1
  Sr  Sr55  1  0.13079585  -0.00447767  0.82205163  1
  Sr  Sr56  1  0.13183058  0.33601221  0.41265362  1
  Sr  Sr57  1  0.16897043  0.33754748  0.86524751  1
  Sr  Sr58  1  0.14540666  0.65930029  0.35712307  1
  Sr  Sr59  1  0.16721148  0.68276842  0.91335585  1
  Sr  Sr60  1  0.48264147  -0.00202496  0.33110591  1
  Sr  Sr61  1  0.51290200  0.00137777  0.88919878  1
  Sr  Sr62  1  0.48642557  0.30898873  0.37696466  1
  Sr  Sr63  1  0.51520515  0.34111097  0.93728449  1
  Sr  Sr64  1  0.50455302  0.67354773  0.38261194  1
  Sr  Sr65  1  0.49081780  0.64852734  0.82774417  1
  Sr  Sr66  1  0.82347048  0.00251375  0.36358319  1
  Sr  Sr67  1  0.82205974  0.00047520  0.90209950  1
  Sr  Sr68  1  0.82017692  0.34364825  0.35054283  1
  Sr  Sr69  1  0.80048658  0.33346629  0.86763989  1
  Sr  Sr70  1  0.82236825  0.66199296  0.41113606  1
  Sr  Sr71  1  0.81363965  0.66963266  0.85674197  1
  Ta  Ta72  1  0.17800940  0.12880740  -0.01524281  1
  Ta  Ta73  1  0.21644720  0.17536720  0.50514603  1
  Ta  Ta74  1  0.21689888  0.50271269  0.00236389  1
  Ta  Ta75  1  0.20583823  0.49840529  0.49730582  1
  Ta  Ta76  1  0.15954187  0.88318797  -0.01566180  1
  Ta  Ta77  1  0.12191343  0.83453719  0.49589042  1
  Ta  Ta78  1  0.53901590  0.16387102  0.02582840  1
  Ta  Ta79  1  0.50151617  0.12040772  0.48512551  1
  Ta  Ta80  1  0.47698097  0.52662430  0.00596327  1
  Ta  Ta81  1  0.54503718  0.49645585  0.50796934  1
  Ta  Ta82  1  0.49234113  0.77816528  -0.00835503  1
  Ta  Ta83  1  0.48813308  0.88927531  0.50315316  1
  Ta  Ta84  1  0.83155818  0.18299883  0.00749626  1
  Ta  Ta85  1  0.86112963  0.18297717  0.48330105  1
  Ta  Ta86  1  0.86739355  0.50146113  -0.02517389  1
  Ta  Ta87  1  0.81746930  0.48332806  0.51326609  1
  Ta  Ta88  1  0.86276689  0.81840001  -0.00485570  1
  Ta  Ta89  1  0.87501564  0.83828504  0.49356476  1
  Ta  Ta90  1  0.15764643  0.19920128  0.24140569  1
  Ta  Ta91  1  0.22358084  0.16485074  0.76680895  1
  Ta  Ta92  1  0.16663506  0.45720960  0.24814832  1
  Ta  Ta93  1  0.17261765  0.54334666  0.74765509  1
  Ta  Ta94  1  0.19689670  0.83110226  0.24827828  1
  Ta  Ta95  1  0.16926439  0.79612535  0.74173837  1
  Ta  Ta96  1  0.54998515  0.15862024  0.23152186  1
  Ta  Ta97  1  0.50560160  0.21472818  0.77290132  1
  Ta  Ta98  1  0.52754832  0.47742254  0.24887163  1
  Ta  Ta99  1  0.51047664  0.42760872  0.75595312  1
  Ta  Ta100  1  0.44540797  0.82951862  0.24846767  1
  Ta  Ta101  1  0.53304132  0.83589076  0.75185440  1
  Ta  Ta102  1  0.91080693  0.17782189  0.26872676  1
  Ta  Ta103  1  0.85683371  0.15979205  0.74568872  1
  Ta  Ta104  1  0.83387195  0.54185668  0.23981888  1
  Ta  Ta105  1  0.88291949  0.49717916  0.76199775  1
  Ta  Ta106  1  0.82471601  0.78641433  0.24762752  1
  Ta  Ta107  1  0.80911923  0.85248337  0.73883044  1
  Ta  Ta108  1  -0.00201483  0.03633751  0.25003051  1
  Ta  Ta109  1  -0.05616921  0.01180308  0.74721632  1
  Ta  Ta110  1  0.01561310  0.32026205  0.24548470  1
  Ta  Ta111  1  -0.02667675  0.34073752  0.76028760  1
  Ta  Ta112  1  -0.05364047  0.66723939  0.24753073  1
  Ta  Ta113  1  0.02169204  0.64899453  0.74480864  1
  Ta  Ta114  1  0.32235727  -0.05024515  0.23681788  1
  Ta  Ta115  1  0.32044710  0.02760375  0.77045143  1
  Ta  Ta116  1  0.27494607  0.33494652  0.25671522  1
  Ta  Ta117  1  0.36322799  0.32020702  0.75305222  1
  Ta  Ta118  1  0.32356360  0.71315096  0.24621742  1
  Ta  Ta119  1  0.29467784  0.67417690  0.74519541  1
  Ta  Ta120  1  0.64750621  0.02107911  0.23626266  1
  Ta  Ta121  1  0.66817778  -0.07393238  0.72462417  1
  Ta  Ta122  1  0.63209354  0.32930994  0.24669676  1
  Ta  Ta123  1  0.63154293  0.32287872  0.75929004  1
  Ta  Ta124  1  0.69177863  0.65776134  0.24404068  1
  Ta  Ta125  1  0.66095624  0.72802714  0.74554889  1
  Ta  Ta126  1  0.01561092  -0.00814169  -0.00354031  1
  Ta  Ta127  1  -0.00783211  -0.02628582  0.49785036  1
  Ta  Ta128  1  -0.04075558  0.34164506  -0.01219084  1
  Ta  Ta129  1  -0.04823251  0.32963164  0.49637423  1
  Ta  Ta130  1  -0.02840411  0.66770203  -0.00469050  1
  Ta  Ta131  1  -0.00720352  0.71017109  0.48996576  1
  Ta  Ta132  1  0.28955321  0.00349081  -0.01748337  1
  Ta  Ta133  1  0.35786084  0.01589080  0.51012402  1
  Ta  Ta134  1  0.32521955  0.37732597  0.00508610  1
  Ta  Ta135  1  0.30706973  0.32823332  0.50382060  1
  Ta  Ta136  1  0.35617303  0.64289049  0.00237978  1
  Ta  Ta137  1  0.31463687  0.64689173  0.49012227  1
  Ta  Ta138  1  0.67238455  0.07878133  0.05520647  1
  Ta  Ta139  1  0.61672314  -0.00288781  0.49284703  1
  Ta  Ta140  1  0.67574680  0.26742114  0.02739973  1
  Ta  Ta141  1  0.66945379  0.37334799  0.50002549  1
  Ta  Ta142  1  0.61340292  0.66389926  -0.00424243  1
  Ta  Ta143  1  0.66302628  0.61661837  0.51297068  1
  N  N144  1  0.18223377  0.50337887  0.62187685  1
  N  N145  1  0.36436375  0.00482291  0.88600767  1
  N  N146  1  0.49939687  0.49177337  0.12515847  1
  N  N147  1  -0.01049738  0.67282845  0.36933753  1
  N  N148  1  0.84203625  0.49783846  0.63419080  1
  N  N149  1  0.51796923  0.17592640  0.89397901  1
  N  N150  1  0.82859980  0.17303374  0.36098979  1
  N  N151  1  0.32156670  -0.00919648  0.11706849  1
  N  N152  1  0.16969895  0.16895919  0.11917257  1
  N  N153  1  0.18892904  0.51290081  0.87423313  1
  N  N154  1  0.65803943  -0.01197510  0.61017860  1
  N  N155  1  0.01599656  0.33021993  0.87836449  1
  N  N156  1  -0.02159005  -0.00209903  0.86632774  1
  N  N157  1  0.33606218  0.33608157  0.62723491  1
  N  N158  1  0.16069927  0.83566361  0.36849875  1
  N  N159  1  0.15789752  0.83823469  0.86820687  1
  N  N160  1  -0.00653316  0.33907669  0.11572896  1
  N  N161  1  0.66013679  0.33510938  0.38035877  1
  N  N162  1  0.34188722  0.01040927  0.63537477  1
  N  N163  1  0.51210551  0.15411263  0.36171825  1
  N  N164  1  0.81299579  0.50911217  0.86166347  1
  N  N165  1  0.66825587  0.67266210  0.63267365  1
  N  N166  1  0.32912709  0.67006228  0.12418421  1
  N  N167  1  0.65036307  0.66085141  0.12578227  1
  N  N168  1  -0.01551144  0.34151064  0.37420143  1
  N  N169  1  0.68701881  0.32939423  0.13310195  1
  N  N170  1  0.16155144  0.17778092  0.87109783  1
  N  N171  1  0.17224596  0.49685682  0.12854170  1
  N  N172  1  0.50169842  0.82820420  0.87760760  1
  N  N173  1  0.16016338  0.83502873  0.62072129  1
  N  N174  1  -0.00308756  0.00242703  0.12270537  1
  N  N175  1  0.00398290  0.00016006  0.37754905  1
  N  N176  1  0.83588067  0.83496641  0.61269092  1
  O  O177  1  0.67515082  0.01267744  0.94935452  1
  O  O178  1  0.84132047  0.83259068  0.87076523  1
  O  O179  1  0.49763284  0.48224854  0.87483572  1
  O  O180  1  0.19901356  0.17229529  0.63261124  1
  O  O181  1  0.00170647  0.66161087  0.61815342  1
  O  O182  1  0.65466673  -0.00846475  0.36018886  1
  O  O183  1  0.00749030  0.66633431  0.86986714  1
  O  O184  1  0.31654686  0.66942083  0.61373037  1
  O  O185  1  0.47777776  0.82026208  0.11895257  1
  O  O186  1  0.65876851  0.31151041  0.89906599  1
  O  O187  1  0.83850146  0.51658871  0.11045953  1
  O  O188  1  0.32608927  0.65819864  0.36524440  1
  O  O189  1  0.52298540  0.50653352  0.37692214  1
  O  O190  1  0.32950961  -0.00168439  0.36153037  1
  O  O191  1  0.51153714  0.16746919  0.62419503  1
  O  O192  1  0.83909293  0.81519942  0.12258746  1
  O  O193  1  0.15092225  0.49183515  0.38039289  1
  O  O194  1  0.46697016  0.84635839  0.38227927  1
  O  O195  1  0.83387262  0.51136490  0.37098967  1
  O  O196  1  0.18900319  0.16778383  0.37750723  1
  O  O197  1  0.33750643  0.35028061  0.88063216  1
  O  O198  1  0.65618396  0.32527338  0.62282706  1
  O  O199  1  0.67092794  0.64955086  0.38610778  1
  O  O200  1  0.81623606  0.81611950  0.37324252  1
  O  O201  1  -0.00117071  0.00378148  0.63187517  1
  O  O202  1  0.67330227  -0.02843066  0.12310038  1
  O  O203  1  -0.01460579  0.66689374  0.12053200  1
  O  O204  1  0.31612993  0.34821570  0.12993424  1
  O  O205  1  0.32249894  0.66635676  0.87044935  1
  O  O206  1  0.84789042  0.16913140  0.61796082  1
  O  O207  1  0.16560084  0.83755205  0.10938899  1
  O  O208  1  0.86817668  0.17977758  0.13400817  1
  O  O209  1  -0.01856308  0.33467590  0.62756532  1
  O  O210  1  0.51782818  0.47067866  0.63051710  1
  O  O211  1  0.48425590  0.84850938  0.62513282  1
  O  O212  1  0.47030711  0.14199121  0.13619319  1
  O  O213  1  0.33132703  0.33217098  0.37004896  1
  O  O214  1  0.83509651  0.16919292  0.87963304  1
  O  O215  1  0.65653228  0.67364153  0.87220652  1
