# generated using pymatgen
data_Sr24Ta24N11O13
_symmetry_space_group_name_H-M   'P 1'
_cell_length_a   16.82257910
_cell_length_b   16.82237513
_cell_length_c   15.74486438
_cell_angle_alpha   89.98709842
_cell_angle_beta   89.89986903
_cell_angle_gamma   90.01723795
_symmetry_Int_Tables_number   1
_chemical_formula_structural   Sr24Ta24N11O13
_chemical_formula_sum   'Sr72 Ta72 N33 O39'
_cell_volume   4455.72236529
_cell_formula_units_Z   3
loop_
 _symmetry_equiv_pos_site_id
 _symmetry_equiv_pos_as_xyz
  1  'x, y, z'
loop_
 _atom_site_type_symbol
 _atom_site_label
 _atom_site_symmetry_multiplicity
 _atom_site_fract_x
 _atom_site_fract_y
 _atom_site_fract_z
 _atom_site_occupancy
  Sr  Sr0  1  0.00965784  0.16015346  0.11799971  1
  Sr  Sr1  1  -0.00166877  0.17944666  0.63766040  1
  Sr  Sr2  1  0.00766468  0.51477225  0.11111517  1
  Sr  Sr3  1  0.00824288  0.50088227  0.65924012  1
  Sr  Sr4  1  0.00151788  0.83543603  0.16239968  1
  Sr  Sr5  1  0.00156087  0.82445106  0.61254539  1
  Sr  Sr6  1  0.33928006  0.17051396  0.09054502  1
  Sr  Sr7  1  0.33532788  0.15874215  0.63759026  1
  Sr  Sr8  1  0.35706330  0.49070015  0.14606743  1
  Sr  Sr9  1  0.32757041  0.50950736  0.62378800  1
  Sr  Sr10  1  0.32788307  0.84099168  0.13023484  1
  Sr  Sr11  1  0.33587380  0.83804610  0.58768905  1
  Sr  Sr12  1  0.65454264  0.16703487  0.13821673  1
  Sr  Sr13  1  0.67360338  0.15211675  0.57997945  1
  Sr  Sr14  1  0.69300043  0.51078459  0.12681290  1
  Sr  Sr15  1  0.68128987  0.50265559  0.61078121  1
  Sr  Sr16  1  0.67225874  0.82464430  0.11498934  1
  Sr  Sr17  1  0.64620490  0.83940284  0.66865054  1
  Sr  Sr18  1  0.16508447  0.00659295  0.11558287  1
  Sr  Sr19  1  0.16083165  0.01989897  0.66604341  1
  Sr  Sr20  1  0.15594686  0.34593102  0.14043704  1
  Sr  Sr21  1  0.18119986  0.32464319  0.58249680  1
  Sr  Sr22  1  0.16657290  0.67288752  0.09163176  1
  Sr  Sr23  1  0.15955731  0.66632737  0.63709652  1
  Sr  Sr24  1  0.51859637  -0.01833260  0.17999059  1
  Sr  Sr25  1  0.48547791  0.00940219  0.61594167  1
  Sr  Sr26  1  0.50107876  0.32112597  0.11285657  1
  Sr  Sr27  1  0.47398497  0.32916456  0.67348772  1
  Sr  Sr28  1  0.48201350  0.66848131  0.10191528  1
  Sr  Sr29  1  0.50785815  0.65687629  0.63433727  1
  Sr  Sr30  1  0.82315403  0.01812596  0.07707165  1
  Sr  Sr31  1  0.83004019  -0.01349676  0.63364487  1
  Sr  Sr32  1  0.82368033  0.30435737  0.16108712  1
  Sr  Sr33  1  0.82208076  0.32791781  0.61331655  1
  Sr  Sr34  1  0.84613277  0.66077903  0.13762960  1
  Sr  Sr35  1  0.82955432  0.66648169  0.58164619  1
  Sr  Sr36  1  0.01181983  0.17986548  0.35773477  1
  Sr  Sr37  1  -0.00495507  0.16361615  0.87907177  1
  Sr  Sr38  1  0.01088334  0.50631972  0.34412741  1
  Sr  Sr39  1  0.00601633  0.51166822  0.88519476  1
  Sr  Sr40  1  -0.01003766  0.82533427  0.38837541  1
  Sr  Sr41  1  0.00956858  0.83622238  0.83229224  1
  Sr  Sr42  1  0.32618106  0.17380635  0.41139250  1
  Sr  Sr43  1  0.34517904  0.15255935  0.86070687  1
  Sr  Sr44  1  0.33514002  0.49554510  0.37505035  1
  Sr  Sr45  1  0.35934415  0.49795480  0.85164183  1
  Sr  Sr46  1  0.33362852  0.85172351  0.36798616  1
  Sr  Sr47  1  0.31610642  0.82763967  0.91606508  1
  Sr  Sr48  1  0.66181487  0.16090214  0.36724497  1
  Sr  Sr49  1  0.66360434  0.16947647  0.91113066  1
  Sr  Sr50  1  0.68305836  0.52010113  0.39862601  1
  Sr  Sr51  1  0.68851253  0.48756786  0.86197134  1
  Sr  Sr52  1  0.65535010  0.83535038  0.33410330  1
  Sr  Sr53  1  0.67433445  0.82524844  0.88531943  1
  Sr  Sr54  1  0.14665148  -0.00501636  0.33097103  1
  Sr  Sr55  1  0.17158277  0.01237304  0.88532650  1
  Sr  Sr56  1  0.16482947  0.33576259  0.36893832  1
  Sr  Sr57  1  0.13832463  0.34574548  0.91513519  1
  Sr  Sr58  1  0.17316411  0.68861278  0.42080644  1
  Sr  Sr59  1  0.15523241  0.65742884  0.85850833  1
  Sr  Sr60  1  0.48617041  0.01186442  0.39479644  1
  Sr  Sr61  1  0.50227370  -0.00785233  0.84056240  1
  Sr  Sr62  1  0.49762487  0.33273723  0.33713277  1
  Sr  Sr63  1  0.49711047  0.32071859  0.89213954  1
  Sr  Sr64  1  0.49367317  0.64397646  0.39553129  1
  Sr  Sr65  1  0.50182279  0.66696823  0.86676809  1
  Sr  Sr66  1  0.83911482  -0.00817313  0.41363224  1
  Sr  Sr67  1  0.82698073  0.00121194  0.87024841  1
  Sr  Sr68  1  0.82354916  0.31569653  0.38874595  1
  Sr  Sr69  1  0.84515907  0.34266713  0.82430850  1
  Sr  Sr70  1  0.83309713  0.67631631  0.35747887  1
  Sr  Sr71  1  0.83156823  0.64935804  0.91540890  1
  Ta  Ta72  1  0.18150408  0.18994357  -0.00217606  1
  Ta  Ta73  1  0.15497999  0.13434063  0.50033608  1
  Ta  Ta74  1  0.21267225  0.50292544  -0.00538469  1
  Ta  Ta75  1  0.13817173  0.50491387  0.50463460  1
  Ta  Ta76  1  0.12870517  0.83700313  -0.00146473  1
  Ta  Ta77  1  0.16154081  0.88243417  0.50043425  1
  Ta  Ta78  1  0.50072757  0.10620472  0.00934317  1
  Ta  Ta79  1  0.49628336  0.21016133  0.50694784  1
  Ta  Ta80  1  0.53890908  0.50294215  -0.00293424  1
  Ta  Ta81  1  0.49852403  0.45906897  0.50033003  1
  Ta  Ta82  1  0.49825900  0.86980134  0.00685724  1
  Ta  Ta83  1  0.52233112  0.82817711  0.49833903  1
  Ta  Ta84  1  0.83099946  0.21547245  -0.00964873  1
  Ta  Ta85  1  0.86405122  0.15345989  0.50205506  1
  Ta  Ta86  1  0.83557819  0.44914602  0.00479160  1
  Ta  Ta87  1  0.88396886  0.49400159  0.49712895  1
  Ta  Ta88  1  0.87032592  0.82906895  -0.00002277  1
  Ta  Ta89  1  0.77862502  0.83257367  0.49506470  1
  Ta  Ta90  1  0.20412210  0.17072043  0.24821408  1
  Ta  Ta91  1  0.16733487  0.20956546  0.75435087  1
  Ta  Ta92  1  0.17795942  0.54900097  0.25062491  1
  Ta  Ta93  1  0.17604992  0.45861379  0.75215107  1
  Ta  Ta94  1  0.17059843  0.79595288  0.25783091  1
  Ta  Ta95  1  0.19811411  0.83835574  0.74152442  1
  Ta  Ta96  1  0.45526136  0.16020076  0.24827896  1
  Ta  Ta97  1  0.55111374  0.16267127  0.74591854  1
  Ta  Ta98  1  0.53785709  0.50431907  0.25296847  1
  Ta  Ta99  1  0.53803556  0.48872108  0.75259359  1
  Ta  Ta100  1  0.49003849  0.78772350  0.24748872  1
  Ta  Ta101  1  0.45382127  0.82801508  0.75312928  1
  Ta  Ta102  1  0.83516641  0.12615336  0.25532660  1
  Ta  Ta103  1  0.79107919  0.16162815  0.74685607  1
  Ta  Ta104  1  0.84111101  0.47080617  0.24957750  1
  Ta  Ta105  1  0.83769423  0.54586643  0.74521097  1
  Ta  Ta106  1  0.83042487  0.87390673  0.25084129  1
  Ta  Ta107  1  0.83031398  0.79012258  0.74793072  1
  Ta  Ta108  1  -0.04897385  0.00531341  0.24327354  1
  Ta  Ta109  1  -0.00889606  0.00674326  0.75491012  1
  Ta  Ta110  1  -0.01997419  0.34915698  0.25103244  1
  Ta  Ta111  1  0.04055414  0.33509725  0.75281670  1
  Ta  Ta112  1  0.04556809  0.66920575  0.25761871  1
  Ta  Ta113  1  -0.04509994  0.66829813  0.74686283  1
  Ta  Ta114  1  0.33003314  0.03802572  0.25058803  1
  Ta  Ta115  1  0.32940721  -0.04358413  0.75161901  1
  Ta  Ta116  1  0.33048011  0.29551446  0.24512244  1
  Ta  Ta117  1  0.28576375  0.33119264  0.75870542  1
  Ta  Ta118  1  0.30980420  0.67441555  0.24580806  1
  Ta  Ta119  1  0.33168454  0.71356800  0.74816312  1
  Ta  Ta120  1  0.71731150  -0.00030652  0.24687249  1
  Ta  Ta121  1  0.66707413  0.03474555  0.74872280  1
  Ta  Ta122  1  0.66834856  0.37104526  0.25714422  1
  Ta  Ta123  1  0.65820715  0.30485699  0.74783590  1
  Ta  Ta124  1  0.62846677  0.65952844  0.25242386  1
  Ta  Ta125  1  0.70147246  0.65843434  0.74149401  1
  Ta  Ta126  1  -0.00213860  -0.04222192  0.00098192  1
  Ta  Ta127  1  0.02244743  0.01510772  0.49776507  1
  Ta  Ta128  1  -0.04238349  0.33319526  -0.00303588  1
  Ta  Ta129  1  -0.00151271  0.36952744  0.49760808  1
  Ta  Ta130  1  0.00073438  0.71517007  -0.00694198  1
  Ta  Ta131  1  0.00161733  0.62895746  0.50137624  1
  Ta  Ta132  1  0.37130089  -0.00166848  -0.00022604  1
  Ta  Ta133  1  0.28306669  0.00513597  0.50703994  1
  Ta  Ta134  1  0.30943632  0.34613192  0.00059413  1
  Ta  Ta135  1  0.37901749  0.33910886  0.50301288  1
  Ta  Ta136  1  0.32536152  0.63579192  -0.00376837  1
  Ta  Ta137  1  0.34540531  0.67201395  0.50531184  1
  Ta  Ta138  1  0.62891109  -0.00563200  0.00601450  1
  Ta  Ta139  1  0.65793248  -0.04848631  0.49742824  1
  Ta  Ta140  1  0.70138010  0.34619525  0.00123817  1
  Ta  Ta141  1  0.61135669  0.33367273  0.50416261  1
  Ta  Ta142  1  0.65124734  0.64444934  -0.00211197  1
  Ta  Ta143  1  0.65631618  0.71214143  0.49747860  1
  N  N144  1  0.82260170  0.17834606  0.87229378  1
  N  N145  1  0.66043479  0.67291330  0.37127271  1
  N  N146  1  0.16615808  0.17337372  0.62011999  1
  N  N147  1  0.49749968  0.14988294  0.13200830  1
  N  N148  1  0.66996639  0.67198125  0.62220207  1
  N  N149  1  0.16626843  0.16667955  0.87113045  1
  N  N150  1  0.00345904  0.33798679  0.37294391  1
  N  N151  1  0.16633667  0.49487243  0.62347965  1
  N  N152  1  0.17713444  0.50113270  0.87443435  1
  N  N153  1  0.51507645  0.47954168  0.87290155  1
  N  N154  1  0.82058185  0.83557571  0.37160892  1
  N  N155  1  0.33934695  -0.00871397  0.87779857  1
  N  N156  1  -0.00534377  0.67493014  0.87604155  1
  N  N157  1  0.16288837  0.84045308  0.62333692  1
  N  N158  1  0.83141981  0.15666351  0.37876699  1
  N  N159  1  0.82721030  0.16620562  0.62184086  1
  N  N160  1  0.49696647  0.82889106  0.13008623  1
  N  N161  1  0.67039185  -0.00287698  0.12959554  1
  N  N162  1  0.16326889  0.84181623  0.37251954  1
  N  N163  1  -0.00733692  0.33936146  0.86886218  1
  N  N164  1  0.16784103  0.16778179  0.12226511  1
  N  N165  1  -0.01006236  -0.00306311  0.12325194  1
  N  N166  1  -0.00318754  0.66646746  0.62256349  1
  N  N167  1  0.50477558  0.16876975  0.62822495  1
  N  N168  1  0.00559973  0.66893873  0.37481938  1
  N  N169  1  0.50834972  0.49186923  0.37370826  1
  N  N170  1  0.32358539  0.00034662  0.62621180  1
  N  N171  1  0.32671791  0.66674518  0.11923974  1
  N  N172  1  -0.00365159  0.00024164  0.87556136  1
  N  N173  1  0.84642548  0.48999360  0.12657569  1
  N  N174  1  0.32812009  0.66839345  0.62637151  1
  N  N175  1  0.16856216  0.16892817  0.37298044  1
  N  N176  1  0.33108197  0.33288445  0.12167197  1
  O  O177  1  0.33034579  0.66495883  0.37896204  1
  O  O178  1  0.47677716  0.83518333  0.88537902  1
  O  O179  1  0.48600644  0.16714928  0.38260950  1
  O  O180  1  0.66644329  0.01343923  0.88241861  1
  O  O181  1  0.84090847  0.49767831  0.37955368  1
  O  O182  1  0.49910560  0.82553558  0.37035328  1
  O  O183  1  0.81485269  0.81942387  0.62596532  1
  O  O184  1  0.65607746  0.34810998  0.38096256  1
  O  O185  1  0.34548245  0.32810177  0.37236819  1
  O  O186  1  0.00523896  0.00780480  0.62161049  1
  O  O187  1  0.00754250  0.34049998  0.62599066  1
  O  O188  1  0.32883977  0.00679945  0.12805851  1
  O  O189  1  0.66996928  -0.00880612  0.37538346  1
  O  O190  1  0.00422261  0.67559298  0.13062882  1
  O  O191  1  0.51381812  0.48769474  0.12055897  1
  O  O192  1  0.32977231  0.33393951  0.63057177  1
  O  O193  1  0.49474784  0.83080594  0.62258342  1
  O  O194  1  0.67616344  0.35185323  0.13253995  1
  O  O195  1  0.82792772  0.16465743  0.11227653  1
  O  O196  1  0.66114050  0.66438092  0.12260434  1
  O  O197  1  0.18290961  0.52067133  0.12710000  1
  O  O198  1  0.67559030  0.32655091  0.87057841  1
  O  O199  1  0.51717999  0.49738568  0.62561326  1
  O  O200  1  0.32691913  0.01802569  0.37903168  1
  O  O201  1  0.66241533  -0.00404130  0.61825575  1
  O  O202  1  -0.00292825  0.33717727  0.12233380  1
  O  O203  1  0.84074756  0.49855695  0.86820298  1
  O  O204  1  0.67230424  0.65865036  0.87503328  1
  O  O205  1  0.34135069  0.33678865  0.87154977  1
  O  O206  1  0.50952537  0.14619792  0.87045562  1
  O  O207  1  0.84015987  0.50351830  0.62264657  1
  O  O208  1  0.15975716  0.83730210  0.87372876  1
  O  O209  1  0.66057915  0.32242119  0.62064086  1
  O  O210  1  0.83763870  0.81137933  0.87644416  1
  O  O211  1  0.17448949  0.52524635  0.37552746  1
  O  O212  1  0.32990714  0.67438706  0.87371442  1
  O  O213  1  0.84716484  0.83312666  0.12462666  1
  O  O214  1  -0.00259089  0.00331638  0.37176443  1
  O  O215  1  0.15283245  0.82865557  0.12730052  1
