# generated using pymatgen
data_Sr24Ta24N11O13
_symmetry_space_group_name_H-M   'P 1'
_cell_length_a   20.40312387
_cell_length_b   15.65617086
_cell_length_c   13.43650507
_cell_angle_alpha   89.75626611
_cell_angle_beta   89.46160721
_cell_angle_gamma   89.81972232
_symmetry_Int_Tables_number   1
_chemical_formula_structural   Sr24Ta24N11O13
_chemical_formula_sum   'Sr72 Ta72 N33 O39'
_cell_volume   4291.83818526
_cell_formula_units_Z   3
loop_
 _symmetry_equiv_pos_site_id
 _symmetry_equiv_pos_as_xyz
  1  'x, y, z'
loop_
 _atom_site_type_symbol
 _atom_site_label
 _atom_site_symmetry_multiplicity
 _atom_site_fract_x
 _atom_site_fract_y
 _atom_site_fract_z
 _atom_site_occupancy
  Sr  Sr0  1  0.03615160  0.16498218  0.03950271  1
  Sr  Sr1  1  0.00149682  0.18035515  0.54455593  1
  Sr  Sr2  1  0.02172568  0.51297194  0.03905350  1
  Sr  Sr3  1  0.01696262  0.48184520  0.53777699  1
  Sr  Sr4  1  0.01353550  0.82691564  0.03714235  1
  Sr  Sr5  1  0.02727563  0.84279048  0.54125495  1
  Sr  Sr6  1  0.35183621  0.16587151  0.14538302  1
  Sr  Sr7  1  0.34800435  0.16231151  0.64388404  1
  Sr  Sr8  1  0.36731233  0.50106851  0.12903636  1
  Sr  Sr9  1  0.35149186  0.49367504  0.62352605  1
  Sr  Sr10  1  0.32957448  0.83773037  0.16872374  1
  Sr  Sr11  1  0.36094900  0.83024796  0.65949860  1
  Sr  Sr12  1  0.70688859  0.16792963  0.17142669  1
  Sr  Sr13  1  0.71418289  0.16602680  0.66026520  1
  Sr  Sr14  1  0.71241552  0.50335610  0.17011387  1
  Sr  Sr15  1  0.71285830  0.49616249  0.67378874  1
  Sr  Sr16  1  0.72006248  0.83158824  0.16391028  1
  Sr  Sr17  1  0.71807869  0.83242449  0.66576188  1
  Sr  Sr18  1  0.15922108  0.00015856  0.16812345  1
  Sr  Sr19  1  0.13947646  0.01242137  0.66573714  1
  Sr  Sr20  1  0.12783040  0.32785343  0.15064191  1
  Sr  Sr21  1  0.16837765  0.32478328  0.63697801  1
  Sr  Sr22  1  0.13259803  0.68485510  0.17009000  1
  Sr  Sr23  1  0.12032172  0.66437881  0.65438648  1
  Sr  Sr24  1  0.44845889  -0.00577076  0.17936610  1
  Sr  Sr25  1  0.46046931  -0.00032267  0.67116489  1
  Sr  Sr26  1  0.45756385  0.33120846  0.19413359  1
  Sr  Sr27  1  0.45043648  0.32913344  0.69068655  1
  Sr  Sr28  1  0.45710994  0.67448385  0.18404211  1
  Sr  Sr29  1  0.45992347  0.66199016  0.68059041  1
  Sr  Sr30  1  0.79204198  0.00316941  0.04648495  1
  Sr  Sr31  1  0.82098956  0.00128277  0.55593248  1
  Sr  Sr32  1  0.79407362  0.34282575  0.05530745  1
  Sr  Sr33  1  0.81174270  0.33101979  0.54969562  1
  Sr  Sr34  1  0.82078331  0.66307702  0.05201677  1
  Sr  Sr35  1  0.80477681  0.66632930  0.54917403  1
  Sr  Sr36  1  0.03565622  0.16605957  0.29003403  1
  Sr  Sr37  1  0.04011037  0.17192250  0.78942178  1
  Sr  Sr38  1  0.04411919  0.50012930  0.28214109  1
  Sr  Sr39  1  0.03983871  0.49805860  0.79092579  1
  Sr  Sr40  1  0.04044906  0.84193289  0.29187084  1
  Sr  Sr41  1  0.03918361  0.83618014  0.79231261  1
  Sr  Sr42  1  0.39238941  0.16086406  0.39171217  1
  Sr  Sr43  1  0.37639557  0.16467746  0.89479948  1
  Sr  Sr44  1  0.38332974  0.50049784  0.37253480  1
  Sr  Sr45  1  0.36951950  0.51423452  0.88406977  1
  Sr  Sr46  1  0.37763255  0.83620578  0.40910317  1
  Sr  Sr47  1  0.36610284  0.80661497  0.91798330  1
  Sr  Sr48  1  0.67861482  0.15255639  0.41857187  1
  Sr  Sr49  1  0.69563083  0.17936097  0.92264088  1
  Sr  Sr50  1  0.70865133  0.49944501  0.42497378  1
  Sr  Sr51  1  0.67397298  0.50073041  0.92227362  1
  Sr  Sr52  1  0.70143192  0.84628050  0.41356352  1
  Sr  Sr53  1  0.68825632  0.82602331  0.91627848  1
  Sr  Sr54  1  0.11865858  0.00821627  0.41607639  1
  Sr  Sr55  1  0.11789964  -0.00194257  0.92315786  1
  Sr  Sr56  1  0.12672898  0.33320511  0.39999425  1
  Sr  Sr57  1  0.12472354  0.33626387  0.90209838  1
  Sr  Sr58  1  0.12145144  0.66166826  0.41362402  1
  Sr  Sr59  1  0.12809985  0.66585846  0.90854189  1
  Sr  Sr60  1  0.49940161  -0.00154228  0.42572827  1
  Sr  Sr61  1  0.47660148  -0.01721665  0.92351322  1
  Sr  Sr62  1  0.48187909  0.33261127  0.44120303  1
  Sr  Sr63  1  0.48207458  0.33935251  0.93846330  1
  Sr  Sr64  1  0.47633668  0.66349941  0.43701632  1
  Sr  Sr65  1  0.50572271  0.66992721  0.93049281  1
  Sr  Sr66  1  0.78883212  0.00529960  0.29471632  1
  Sr  Sr67  1  0.78761931  0.00214358  0.80534593  1
  Sr  Sr68  1  0.78566653  0.32727920  0.30336626  1
  Sr  Sr69  1  0.78853832  0.33413307  0.80497767  1
  Sr  Sr70  1  0.79258000  0.66924335  0.29858413  1
  Sr  Sr71  1  0.78579096  0.66400816  0.80581023  1
  Ta  Ta72  1  0.21578061  0.17027432  0.00819003  1
  Ta  Ta73  1  0.22125977  0.15013240  0.50266985  1
  Ta  Ta74  1  0.20749450  0.49615115  0.03266244  1
  Ta  Ta75  1  0.22556185  0.49926074  0.46659104  1
  Ta  Ta76  1  0.20620952  0.83333386  0.01620342  1
  Ta  Ta77  1  0.20405917  0.83299418  0.55583156  1
  Ta  Ta78  1  0.53909357  0.15821243  0.05990567  1
  Ta  Ta79  1  0.54936311  0.17014929  0.57607165  1
  Ta  Ta80  1  0.54643055  0.50158183  0.09354052  1
  Ta  Ta81  1  0.55656323  0.49981108  0.55911579  1
  Ta  Ta82  1  0.55709259  0.84321543  0.08027545  1
  Ta  Ta83  1  0.55967240  0.81983823  0.55702116  1
  Ta  Ta84  1  0.87692986  0.17200880  -0.05858585  1
  Ta  Ta85  1  0.87303160  0.16645067  0.40671739  1
  Ta  Ta86  1  0.87557851  0.49272305  -0.08899593  1
  Ta  Ta87  1  0.88010900  0.50358245  0.39947857  1
  Ta  Ta88  1  0.87258394  0.84441390  -0.07621441  1
  Ta  Ta89  1  0.87823726  0.83160491  0.40665444  1
  Ta  Ta90  1  0.22174665  0.18152055  0.29726560  1
  Ta  Ta91  1  0.21745159  0.16357414  0.79462501  1
  Ta  Ta92  1  0.21915104  0.50086538  0.25017099  1
  Ta  Ta93  1  0.21580830  0.50055165  0.77405865  1
  Ta  Ta94  1  0.21291648  0.83546059  0.33811617  1
  Ta  Ta95  1  0.21333318  0.83515289  0.79159060  1
  Ta  Ta96  1  0.54955382  0.17252548  0.27798153  1
  Ta  Ta97  1  0.54820167  0.15995430  0.79812210  1
  Ta  Ta98  1  0.55444669  0.49725961  0.31258553  1
  Ta  Ta99  1  0.54401960  0.49724273  0.77818397  1
  Ta  Ta100  1  0.55643383  0.81906748  0.29647746  1
  Ta  Ta101  1  0.55559340  0.84159286  0.77043314  1
  Ta  Ta102  1  0.88061413  0.16946162  0.16290838  1
  Ta  Ta103  1  0.88069903  0.16619535  0.71051139  1
  Ta  Ta104  1  0.88774733  0.48612614  0.19062050  1
  Ta  Ta105  1  0.88135750  0.50724419  0.69265312  1
  Ta  Ta106  1  0.88233679  0.84725210  0.18692058  1
  Ta  Ta107  1  0.88234763  0.82493974  0.70580126  1
  Ta  Ta108  1  -0.05639098  0.00720634  0.16140570  1
  Ta  Ta109  1  -0.05015729  0.00060979  0.70285631  1
  Ta  Ta110  1  -0.05005594  0.32856219  0.15753033  1
  Ta  Ta111  1  -0.05468330  0.34084886  0.70298994  1
  Ta  Ta112  1  -0.04907791  0.66797793  0.20115996  1
  Ta  Ta113  1  -0.04368310  0.66609548  0.66161014  1
  Ta  Ta114  1  0.28561239  0.01375134  0.31515283  1
  Ta  Ta115  1  0.28533565  -0.01228432  0.79155646  1
  Ta  Ta116  1  0.29099678  0.34160080  0.26740849  1
  Ta  Ta117  1  0.29325943  0.33469663  0.78652672  1
  Ta  Ta118  1  0.28123885  0.65765010  0.29486255  1
  Ta  Ta119  1  0.27309308  0.67145497  0.76393872  1
  Ta  Ta120  1  0.61585907  -0.01190787  0.25578616  1
  Ta  Ta121  1  0.62362051  0.01032591  0.79655391  1
  Ta  Ta122  1  0.62307126  0.34287278  0.30193674  1
  Ta  Ta123  1  0.61584272  0.32923699  0.76729392  1
  Ta  Ta124  1  0.62210716  0.66590362  0.30204625  1
  Ta  Ta125  1  0.61956861  0.66695990  0.75434921  1
  Ta  Ta126  1  -0.05839026  0.01196634  -0.07592777  1
  Ta  Ta127  1  -0.05698070  -0.00065020  0.38528325  1
  Ta  Ta128  1  -0.05254212  0.33183472  -0.06817906  1
  Ta  Ta129  1  -0.05660298  0.33974571  0.38003070  1
  Ta  Ta130  1  -0.05362136  0.66877483  -0.12008305  1
  Ta  Ta131  1  -0.04386521  0.66440208  0.42166494  1
  Ta  Ta132  1  0.28657431  -0.00081442  0.01479372  1
  Ta  Ta133  1  0.28317224  -0.01635949  0.53149929  1
  Ta  Ta134  1  0.28909812  0.33917028  0.00869862  1
  Ta  Ta135  1  0.29904497  0.32124932  0.48580946  1
  Ta  Ta136  1  0.27282963  0.65576467  0.04867838  1
  Ta  Ta137  1  0.28285401  0.67659442  0.51244082  1
  Ta  Ta138  1  0.62570401  0.00503857  0.03828354  1
  Ta  Ta139  1  0.62459638  -0.01066788  0.57774609  1
  Ta  Ta140  1  0.61722401  0.32905746  0.08168888  1
  Ta  Ta141  1  0.63067330  0.33436790  0.54791674  1
  Ta  Ta142  1  0.62591797  0.67181870  0.08347864  1
  Ta  Ta143  1  0.63219540  0.66672838  0.53857402  1
  N  N144  1  0.69568122  0.66469078  0.65923076  1
  N  N145  1  0.49916114  0.50092083  0.44399954  1
  N  N146  1  0.48326380  0.50581696  0.20742762  1
  N  N147  1  0.36333036  0.33088262  0.36457255  1
  N  N148  1  0.34997926  0.66893045  0.40501590  1
  N  N149  1  0.68390174  0.00570767  0.92217680  1
  N  N150  1  0.01581535  0.33377751  0.04146441  1
  N  N151  1  0.69186685  0.33027047  0.67549319  1
  N  N152  1  0.80902128  0.83202826  0.80280609  1
  N  N153  1  0.83155307  0.83170838  0.05526313  1
  N  N154  1  0.81055735  0.50033622  0.79841362  1
  N  N155  1  0.53002854  0.16271223  0.43325036  1
  N  N156  1  0.13907573  0.83648138  0.43515710  1
  N  N157  1  0.20017221  0.16277878  0.65019724  1
  N  N158  1  0.33198193  -0.00478712  0.66174408  1
  N  N159  1  0.30380501  0.00240677  0.16057370  1
  N  N160  1  0.68991575  -0.00126588  0.16331484  1
  N  N161  1  0.49830173  0.16687933  0.92972926  1
  N  N162  1  0.81109260  0.17521452  0.05563292  1
  N  N163  1  0.31770534  0.32930576  0.63013083  1
  N  N164  1  0.86074510  0.16761711  0.55286825  1
  N  N165  1  0.47630972  0.15793741  0.18775103  1
  N  N166  1  0.68381270  0.32932257  0.42560798  1
  N  N167  1  0.02157046  0.66983767  0.29723472  1
  N  N168  1  0.81140299  0.83868880  0.30286547  1
  N  N169  1  0.02160871  0.66621755  0.78433769  1
  N  N170  1  0.35902269  0.34110255  0.88975968  1
  N  N171  1  0.01618856  0.66116577  0.53752767  1
  N  N172  1  0.33240462  0.66900075  0.16236835  1
  N  N173  1  0.68805329  0.33878414  0.17867876  1
  N  N174  1  0.69157549  0.66727996  0.18898997  1
  N  N175  1  0.34018053  0.33516260  0.12898822  1
  N  N176  1  0.69139014  0.00249098  0.67835669  1
  O  O177  1  0.54145172  0.50542211  0.92964852  1
  O  O178  1  0.01240792  -0.00067473  0.03371909  1
  O  O179  1  0.13868070  0.16961709  0.39882819  1
  O  O180  1  0.34035827  0.66467122  0.63831578  1
  O  O181  1  0.47239204  0.49573478  0.67344926  1
  O  O182  1  0.80235441  0.49745255  0.29818082  1
  O  O183  1  0.21395157  0.48720703  0.62596298  1
  O  O184  1  0.19488408  0.83987973  0.16867122  1
  O  O185  1  0.64376326  0.33622684  0.92513573  1
  O  O186  1  0.31528092  0.65985943  0.89776278  1
  O  O187  1  0.83653592  0.49994126  0.54075661  1
  O  O188  1  0.13569386  0.16447026  0.90368918  1
  O  O189  1  0.02477741  0.33275492  0.29030832  1
  O  O190  1  0.02301331  0.00513958  0.29233133  1
  O  O191  1  0.35763820  -0.02459944  0.90808499  1
  O  O192  1  0.63451815  0.66601966  0.92724075  1
  O  O193  1  0.63751851  -0.00603807  0.41850804  1
  O  O194  1  0.15020648  0.50484935  0.89073841  1
  O  O195  1  0.80200506  0.17317923  0.80395454  1
  O  O196  1  0.01924612  0.33589313  0.80424284  1
  O  O197  1  0.48240121  0.82665631  0.65984653  1
  O  O198  1  -0.04626077  -0.00157293  0.55020513  1
  O  O199  1  0.02430160  0.00853720  0.80455023  1
  O  O200  1  0.13905697  0.84842972  0.68088599  1
  O  O201  1  0.13642414  0.49306718  0.14465097  1
  O  O202  1  0.48218555  0.83360430  0.18086389  1
  O  O203  1  0.80358598  0.16520976  0.29412040  1
  O  O204  1  0.19141713  0.16928632  0.15324884  1
  O  O205  1  0.12994252  0.83073196  0.91435502  1
  O  O206  1  0.84047150  0.83730502  0.55731982  1
  O  O207  1  0.47334901  0.16167182  0.68922559  1
  O  O208  1  -0.04685955  0.33703767  0.54672269  1
  O  O209  1  0.70042426  0.67418753  0.42643911  1
  O  O210  1  -0.03442219  0.66859660  0.04439788  1
  O  O211  1  0.36232262  -0.00308298  0.40788945  1
  O  O212  1  0.83073064  0.50095482  0.06094798  1
  O  O213  1  0.53871865  0.83070256  0.92260678  1
  O  O214  1  0.14438611  0.49250980  0.38268872  1
  O  O215  1  0.50153493  0.83353690  0.42797837  1
