# generated using pymatgen
data_Sr24Ta24N11O13
_symmetry_space_group_name_H-M   'P 1'
_cell_length_a   16.81480472
_cell_length_b   16.80552812
_cell_length_c   15.74294167
_cell_angle_alpha   89.56341215
_cell_angle_beta   89.74848149
_cell_angle_gamma   89.90819997
_symmetry_Int_Tables_number   1
_chemical_formula_structural   Sr24Ta24N11O13
_chemical_formula_sum   'Sr72 Ta72 N33 O39'
_cell_volume   4448.48931645
_cell_formula_units_Z   3
loop_
 _symmetry_equiv_pos_site_id
 _symmetry_equiv_pos_as_xyz
  1  'x, y, z'
loop_
 _atom_site_type_symbol
 _atom_site_label
 _atom_site_symmetry_multiplicity
 _atom_site_fract_x
 _atom_site_fract_y
 _atom_site_fract_z
 _atom_site_occupancy
  Sr  Sr0  1  0.01533967  0.17679961  0.08241679  1
  Sr  Sr1  1  -0.00121414  0.15445279  0.63698990  1
  Sr  Sr2  1  -0.00082737  0.48835080  0.16753491  1
  Sr  Sr3  1  -0.00308033  0.50839692  0.61250562  1
  Sr  Sr4  1  0.00606423  0.84310964  0.12940922  1
  Sr  Sr5  1  0.03782805  0.84285593  0.59153650  1
  Sr  Sr6  1  0.33342114  0.17565519  0.14591004  1
  Sr  Sr7  1  0.33914616  0.16761043  0.62185625  1
  Sr  Sr8  1  0.32891429  0.51138527  0.10872572  1
  Sr  Sr9  1  0.34016692  0.50742146  0.59010642  1
  Sr  Sr10  1  0.34675985  0.83861253  0.13341075  1
  Sr  Sr11  1  0.33695371  0.81617128  0.66613820  1
  Sr  Sr12  1  0.67639609  0.17074009  0.12983889  1
  Sr  Sr13  1  0.67849042  0.19437226  0.62171280  1
  Sr  Sr14  1  0.65535778  0.52182999  0.10475222  1
  Sr  Sr15  1  0.64737806  0.51160860  0.66783217  1
  Sr  Sr16  1  0.67133028  0.84453216  0.13627898  1
  Sr  Sr17  1  0.66783638  0.83842470  0.59877853  1
  Sr  Sr18  1  0.16039605  -0.01266220  0.14078434  1
  Sr  Sr19  1  0.15088737  0.01538552  0.58863110  1
  Sr  Sr20  1  0.17259533  0.33184563  0.11523390  1
  Sr  Sr21  1  0.14171040  0.32319369  0.67783822  1
  Sr  Sr22  1  0.16321880  0.66095030  0.09408477  1
  Sr  Sr23  1  0.16382156  0.65903110  0.62939823  1
  Sr  Sr24  1  0.51159556  0.00213835  0.07690178  1
  Sr  Sr25  1  0.47118510  -0.00974365  0.63187862  1
  Sr  Sr26  1  0.50845273  0.30471587  0.16526149  1
  Sr  Sr27  1  0.49923314  0.33161762  0.61899602  1
  Sr  Sr28  1  0.49672631  0.66602638  0.14472703  1
  Sr  Sr29  1  0.49485502  0.66508490  0.62629558  1
  Sr  Sr30  1  0.82243234  -0.00690952  0.16819751  1
  Sr  Sr31  1  0.81758054  -0.01299504  0.63359435  1
  Sr  Sr32  1  0.83898034  0.32755392  0.12697348  1
  Sr  Sr33  1  0.84420741  0.32821509  0.58565582  1
  Sr  Sr34  1  0.83708219  0.66998549  0.09555330  1
  Sr  Sr35  1  0.82354742  0.65616967  0.63599368  1
  Sr  Sr36  1  0.00740507  0.16605211  0.40852009  1
  Sr  Sr37  1  0.00595204  0.17330325  0.87077510  1
  Sr  Sr38  1  -0.00922382  0.49667223  0.38198350  1
  Sr  Sr39  1  0.01356813  0.51329040  0.82171721  1
  Sr  Sr40  1  0.01602907  0.85277642  0.35894671  1
  Sr  Sr41  1  0.01208480  0.82121550  0.92039000  1
  Sr  Sr42  1  0.32646800  0.16035749  0.38026261  1
  Sr  Sr43  1  0.34741670  0.17625722  0.85393050  1
  Sr  Sr44  1  0.33467043  0.51174545  0.38947804  1
  Sr  Sr45  1  0.31819642  0.50064866  0.91022615  1
  Sr  Sr46  1  0.33638213  0.82598779  0.33922597  1
  Sr  Sr47  1  0.34617935  0.83660113  0.86603757  1
  Sr  Sr48  1  0.68004062  0.19222601  0.35791228  1
  Sr  Sr49  1  0.67433295  0.17168161  0.88596213  1
  Sr  Sr50  1  0.64078441  0.51788703  0.34383846  1
  Sr  Sr51  1  0.66551629  0.50433468  0.88233631  1
  Sr  Sr52  1  0.65932089  0.82764782  0.38414945  1
  Sr  Sr53  1  0.69134334  0.85196666  0.86535895  1
  Sr  Sr54  1  0.16927545  -0.00102276  0.36996064  1
  Sr  Sr55  1  0.12854432  -0.00366473  0.90431301  1
  Sr  Sr56  1  0.16700817  0.34022428  0.33808432  1
  Sr  Sr57  1  0.17252604  0.32138980  0.88813378  1
  Sr  Sr58  1  0.15535034  0.64659509  0.40614827  1
  Sr  Sr59  1  0.16811584  0.67317412  0.86860781  1
  Sr  Sr60  1  0.49485449  -0.00678645  0.41287980  1
  Sr  Sr61  1  0.47696659  -0.00158495  0.87316066  1
  Sr  Sr62  1  0.48932139  0.32356360  0.38923802  1
  Sr  Sr63  1  0.51115432  0.32220033  0.83181792  1
  Sr  Sr64  1  0.50040719  0.67763888  0.36244408  1
  Sr  Sr65  1  0.49730460  0.64263680  0.88154069  1
  Sr  Sr66  1  0.81519233  -0.01956032  0.36861312  1
  Sr  Sr67  1  0.83184391  0.01732280  0.83796652  1
  Sr  Sr68  1  0.84447521  0.33637965  0.37169249  1
  Sr  Sr69  1  0.82151885  0.32471727  0.92021000  1
  Sr  Sr70  1  0.83561435  0.65293021  0.38880453  1
  Sr  Sr71  1  0.83242638  0.66232222  0.87112466  1
  Ta  Ta72  1  0.20410677  0.14594084  -0.00048063  1
  Ta  Ta73  1  0.17026102  0.21454822  0.50792184  1
  Ta  Ta74  1  0.11407925  0.49725398  -0.00592526  1
  Ta  Ta75  1  0.16581380  0.44993018  0.51073940  1
  Ta  Ta76  1  0.20574925  0.83635533  0.00322336  1
  Ta  Ta77  1  0.21081228  0.82099099  0.49858388  1
  Ta  Ta78  1  0.49874844  0.19425835  -0.00060525  1
  Ta  Ta79  1  0.52882931  0.15606300  0.49877129  1
  Ta  Ta80  1  0.49511329  0.44715750  -0.00593676  1
  Ta  Ta81  1  0.53067738  0.50219394  0.50525681  1
  Ta  Ta82  1  0.50811545  0.81106019  0.00305377  1
  Ta  Ta83  1  0.46380167  0.82484489  0.50051607  1
  Ta  Ta84  1  0.83737950  0.13023955  0.00628802  1
  Ta  Ta85  1  0.82937216  0.13607104  0.49969494  1
  Ta  Ta86  1  0.89049232  0.49748825  -0.00480685  1
  Ta  Ta87  1  0.77805759  0.49970113  0.50156742  1
  Ta  Ta88  1  0.83214549  0.87102496  0.00657967  1
  Ta  Ta89  1  0.86637176  0.82312929  0.49965139  1
  Ta  Ta90  1  0.13823602  0.16516009  0.24565274  1
  Ta  Ta91  1  0.17641496  0.13356270  0.75392340  1
  Ta  Ta92  1  0.18211391  0.52045579  0.24885411  1
  Ta  Ta93  1  0.20855564  0.49617100  0.74584347  1
  Ta  Ta94  1  0.16757668  0.77992912  0.24470627  1
  Ta  Ta95  1  0.15250286  0.85419374  0.75835389  1
  Ta  Ta96  1  0.50084132  0.11875651  0.24638356  1
  Ta  Ta97  1  0.53121667  0.14103133  0.75297165  1
  Ta  Ta98  1  0.47312960  0.47740517  0.24730070  1
  Ta  Ta99  1  0.45544987  0.49517380  0.75267293  1
  Ta  Ta100  1  0.50870944  0.87680038  0.25024344  1
  Ta  Ta101  1  0.53109938  0.83050335  0.74692134  1
  Ta  Ta102  1  0.87792489  0.16505958  0.24683967  1
  Ta  Ta103  1  0.83390843  0.20564126  0.75662386  1
  Ta  Ta104  1  0.80730552  0.50614119  0.24128605  1
  Ta  Ta105  1  0.83001171  0.46075380  0.75162844  1
  Ta  Ta106  1  0.84222023  0.79373466  0.24731224  1
  Ta  Ta107  1  0.87547684  0.82932881  0.75236946  1
  Ta  Ta108  1  -0.00195497  0.04517958  0.24922026  1
  Ta  Ta109  1  0.00438363  -0.03983979  0.74520939  1
  Ta  Ta110  1  0.00319407  0.29342503  0.24610343  1
  Ta  Ta111  1  -0.04910845  0.33565943  0.75677691  1
  Ta  Ta112  1  0.00657038  0.67623598  0.24187995  1
  Ta  Ta113  1  -0.00087650  0.71942520  0.75313849  1
  Ta  Ta114  1  0.37811249  0.00305441  0.24949160  1
  Ta  Ta115  1  0.27419107  -0.00321089  0.75054053  1
  Ta  Ta116  1  0.33868450  0.36805437  0.24859395  1
  Ta  Ta117  1  0.32856306  0.36970790  0.75265884  1
  Ta  Ta118  1  0.30029665  0.65205750  0.24625726  1
  Ta  Ta119  1  0.33224298  0.62650654  0.74871435  1
  Ta  Ta120  1  0.62718972  0.00692709  0.24840096  1
  Ta  Ta121  1  0.64004785  0.01198956  0.74982252  1
  Ta  Ta122  1  0.67871370  0.36802456  0.24403504  1
  Ta  Ta123  1  0.70710806  0.33867999  0.75164341  1
  Ta  Ta124  1  0.70064663  0.67577408  0.24861729  1
  Ta  Ta125  1  0.65189770  0.69865155  0.74724424  1
  Ta  Ta126  1  -0.05251731  0.00195512  0.00996763  1
  Ta  Ta127  1  -0.04019902  -0.00140299  0.49625373  1
  Ta  Ta128  1  0.00243823  0.37164933  -0.00481410  1
  Ta  Ta129  1  0.03732202  0.33511313  0.49710295  1
  Ta  Ta130  1  0.00142788  0.62382421  -0.00633961  1
  Ta  Ta131  1  -0.01693148  0.68954977  0.50118182  1
  Ta  Ta132  1  0.30929706  0.00233897  0.00102430  1
  Ta  Ta133  1  0.32161206  -0.05976392  0.50062552  1
  Ta  Ta134  1  0.37403578  0.32389306  -0.00397773  1
  Ta  Ta135  1  0.28963393  0.33450538  0.50593213  1
  Ta  Ta136  1  0.34206827  0.69635687  0.00268232  1
  Ta  Ta137  1  0.33264101  0.70237934  0.50256387  1
  Ta  Ta138  1  0.70774165  0.00277502  0.00501318  1
  Ta  Ta139  1  0.66514926  0.03981267  0.49959487  1
  Ta  Ta140  1  0.62352876  0.33541754  -0.00450186  1
  Ta  Ta141  1  0.66415657  0.37787757  0.50477442  1
  Ta  Ta142  1  0.65077215  0.70399770  0.00230367  1
  Ta  Ta143  1  0.66098500  0.63911011  0.50001061  1
  N  N144  1  0.33824905  0.33476548  0.87676883  1
  N  N145  1  -0.00754074  -0.00776553  0.62521914  1
  N  N146  1  0.50330234  0.15535553  0.12255825  1
  N  N147  1  -0.00120062  0.33351846  0.87027582  1
  N  N148  1  0.49436234  0.48701216  0.87300140  1
  N  N149  1  0.49608398  0.49526193  0.62296329  1
  N  N150  1  0.66581652  0.34039284  0.87798643  1
  N  N151  1  0.84224304  0.83106363  0.12628882  1
  N  N152  1  0.66753393  0.67127015  0.37457309  1
  N  N153  1  0.16945730  0.16393228  0.12656076  1
  N  N154  1  0.33502699  0.66752435  0.12352597  1
  N  N155  1  -0.00302020  0.00576934  0.37707371  1
  N  N156  1  0.17302886  0.82161194  0.12743925  1
  N  N157  1  0.50571113  0.15748693  0.87446865  1
  N  N158  1  0.66568075  0.67871363  0.12387466  1
  N  N159  1  -0.00885957  0.00389209  0.12604536  1
  N  N160  1  0.16724318  0.17182482  0.62903001  1
  N  N161  1  0.66654860  0.01042195  0.12237282  1
  N  N162  1  0.83604073  0.17159872  0.87558239  1
  N  N163  1  0.00460512  0.66976477  0.86578860  1
  N  N164  1  0.49941665  0.83636562  0.62752221  1
  N  N165  1  0.33014475  0.66260848  0.62400777  1
  N  N166  1  0.83883660  0.16753867  0.12818504  1
  N  N167  1  0.49706867  0.83778426  0.37385069  1
  N  N168  1  0.16905807  0.16413174  0.88112317  1
  N  N169  1  0.16105080  0.49053614  0.63127532  1
  N  N170  1  0.66617940  0.67703328  0.62603104  1
  N  N171  1  0.00090274  0.66101913  0.12181630  1
  N  N172  1  0.16916102  0.83320042  0.87957622  1
  N  N173  1  0.00520480  0.33263262  0.12811678  1
  N  N174  1  0.00762074  0.33360668  0.37574428  1
  N  N175  1  0.67076647  0.34862521  0.62651740  1
  N  N176  1  0.50364610  0.83798424  0.12298519  1
  O  O177  1  0.83269014  0.16485302  0.62440942  1
  O  O178  1  0.50130583  0.84628157  0.87421866  1
  O  O179  1  0.18029653  0.80917595  0.36865931  1
  O  O180  1  0.16753467  0.17598908  0.38129460  1
  O  O181  1  0.66655147  0.02886181  0.37096210  1
  O  O182  1  0.33678400  0.00140118  0.12500359  1
  O  O183  1  -0.00216036  0.67024777  0.37935585  1
  O  O184  1  0.00023297  0.67875763  0.62704114  1
  O  O185  1  0.51782098  0.16774407  0.62373474  1
  O  O186  1  0.49003971  0.48701852  0.12306811  1
  O  O187  1  0.15984788  0.49649537  0.87046230  1
  O  O188  1  0.50933559  0.16078593  0.37498726  1
  O  O189  1  0.33493578  0.66152439  0.87477544  1
  O  O190  1  0.83273557  0.15401690  0.37368406  1
  O  O191  1  0.33709821  0.33892920  0.12541912  1
  O  O192  1  0.85215212  0.83851574  0.87787008  1
  O  O193  1  0.33288136  0.66528772  0.37224638  1
  O  O194  1  0.80135380  0.50152269  0.36906370  1
  O  O195  1  0.65674611  0.00777611  0.62007169  1
  O  O196  1  0.31916889  0.35205653  0.37381500  1
  O  O197  1  0.84223081  0.48864127  0.87646672  1
  O  O198  1  -0.01946690  -0.00984997  0.87137774  1
  O  O199  1  0.15414521  0.50563684  0.12618427  1
  O  O200  1  0.67442337  0.68885045  0.87609388  1
  O  O201  1  0.85244254  0.82599986  0.37000957  1
  O  O202  1  0.67091765  0.00530372  0.87379023  1
  O  O203  1  0.49024815  0.48558093  0.37577702  1
  O  O204  1  0.81504256  0.48933083  0.62797874  1
  O  O205  1  0.67086486  0.35334392  0.36869633  1
  O  O206  1  0.31164832  -0.02424511  0.62933144  1
  O  O207  1  0.33754013  -0.01861044  0.37096368  1
  O  O208  1  0.18343533  0.82072128  0.63300864  1
  O  O209  1  0.32105181  0.32761529  0.63124307  1
  O  O210  1  0.84419230  0.50133332  0.12162989  1
  O  O211  1  0.17633599  0.49661464  0.37624452  1
  O  O212  1  0.66566907  0.35409803  0.12044855  1
  O  O213  1  0.85142580  0.82999700  0.62334143  1
  O  O214  1  -0.00566842  0.33825781  0.62825992  1
  O  O215  1  0.31798021  -0.00714779  0.87161213  1
