# generated using pymatgen
data_Sr24Ta24N11O13
_symmetry_space_group_name_H-M   'P 1'
_cell_length_a   16.73660469
_cell_length_b   16.85482280
_cell_length_c   15.71371763
_cell_angle_alpha   89.77028418
_cell_angle_beta   89.90207441
_cell_angle_gamma   90.01253539
_symmetry_Int_Tables_number   1
_chemical_formula_structural   Sr24Ta24N11O13
_chemical_formula_sum   'Sr72 Ta72 N33 O39'
_cell_volume   4432.67977557
_cell_formula_units_Z   3
loop_
 _symmetry_equiv_pos_site_id
 _symmetry_equiv_pos_as_xyz
  1  'x, y, z'
loop_
 _atom_site_type_symbol
 _atom_site_label
 _atom_site_symmetry_multiplicity
 _atom_site_fract_x
 _atom_site_fract_y
 _atom_site_fract_z
 _atom_site_occupancy
  Sr  Sr0  1  -0.00174682  0.18456624  0.10753203  1
  Sr  Sr1  1  -0.00394965  0.17379993  0.62236603  1
  Sr  Sr2  1  0.00866432  0.49694175  0.13414591  1
  Sr  Sr3  1  -0.00692354  0.53110773  0.58185081  1
  Sr  Sr4  1  0.01151251  0.85805927  0.10471150  1
  Sr  Sr5  1  -0.00962278  0.83021576  0.67234459  1
  Sr  Sr6  1  0.33255417  0.15499428  0.11479519  1
  Sr  Sr7  1  0.33803543  0.17470513  0.64854372  1
  Sr  Sr8  1  0.34882659  0.51380427  0.07652566  1
  Sr  Sr9  1  0.31887140  0.50263999  0.63508394  1
  Sr  Sr10  1  0.33769400  0.82479725  0.15991300  1
  Sr  Sr11  1  0.33337987  0.84887777  0.60688307  1
  Sr  Sr12  1  0.68149537  0.18558194  0.14035377  1
  Sr  Sr13  1  0.66271039  0.17954585  0.63715318  1
  Sr  Sr14  1  0.65607810  0.51972510  0.15868470  1
  Sr  Sr15  1  0.67286811  0.51802584  0.63254443  1
  Sr  Sr16  1  0.66840537  0.84712687  0.11925302  1
  Sr  Sr17  1  0.67714820  0.84538178  0.59135108  1
  Sr  Sr18  1  0.18063264  -0.00671040  0.12723933  1
  Sr  Sr19  1  0.16032731  -0.01123584  0.60516383  1
  Sr  Sr20  1  0.16235432  0.32462282  0.15557089  1
  Sr  Sr21  1  0.16406781  0.31672054  0.63929982  1
  Sr  Sr22  1  0.16331242  0.64663364  0.10320950  1
  Sr  Sr23  1  0.16851354  0.65956862  0.60870304  1
  Sr  Sr24  1  0.50296812  -0.01113857  0.09233545  1
  Sr  Sr25  1  0.48949600  0.00645307  0.64407175  1
  Sr  Sr26  1  0.50159740  0.33071596  0.13894867  1
  Sr  Sr27  1  0.48648443  0.34057737  0.58447836  1
  Sr  Sr28  1  0.50549314  0.67254484  0.11808198  1
  Sr  Sr29  1  0.49233651  0.64986011  0.67088365  1
  Sr  Sr30  1  0.83305074  -0.01325997  0.13504802  1
  Sr  Sr31  1  0.83707384  -0.01877128  0.62773404  1
  Sr  Sr32  1  0.84274779  0.32187535  0.08434037  1
  Sr  Sr33  1  0.83025853  0.31398134  0.64235374  1
  Sr  Sr34  1  0.84021730  0.63103736  0.15401097  1
  Sr  Sr35  1  0.82198692  0.66529006  0.61515559  1
  Sr  Sr36  1  0.00315763  0.16494081  0.40509589  1
  Sr  Sr37  1  -0.00014302  0.20009156  0.85683638  1
  Sr  Sr38  1  0.00298681  0.51403856  0.36096083  1
  Sr  Sr39  1  -0.01168878  0.50599979  0.91408970  1
  Sr  Sr40  1  -0.00369788  0.86091374  0.33310967  1
  Sr  Sr41  1  0.00505351  0.82941629  0.88041124  1
  Sr  Sr42  1  0.33585509  0.18481650  0.34171573  1
  Sr  Sr43  1  0.33772388  0.15968170  0.88531586  1
  Sr  Sr44  1  0.33530176  0.49916827  0.41488354  1
  Sr  Sr45  1  0.32909362  0.51069562  0.86523241  1
  Sr  Sr46  1  0.32981965  0.83404401  0.38105882  1
  Sr  Sr47  1  0.35889491  0.84321328  0.83032351  1
  Sr  Sr48  1  0.66248576  0.18540547  0.37127733  1
  Sr  Sr49  1  0.67422156  0.18071167  0.86004076  1
  Sr  Sr50  1  0.66054493  0.52087110  0.36963320  1
  Sr  Sr51  1  0.67287548  0.51947998  0.83786803  1
  Sr  Sr52  1  0.67373571  0.84632731  0.38611847  1
  Sr  Sr53  1  0.65713459  0.84135870  0.91489317  1
  Sr  Sr54  1  0.18067408  -0.01515127  0.36614721  1
  Sr  Sr55  1  0.15841669  -0.01001622  0.89917064  1
  Sr  Sr56  1  0.15420045  0.32260479  0.35844694  1
  Sr  Sr57  1  0.17722473  0.32020814  0.83794265  1
  Sr  Sr58  1  0.17205142  0.65293343  0.39378507  1
  Sr  Sr59  1  0.15756341  0.65585085  0.88510080  1
  Sr  Sr60  1  0.49682223  -0.02413361  0.42045808  1
  Sr  Sr61  1  0.49863366  0.00977975  0.86305395  1
  Sr  Sr62  1  0.49835637  0.33604712  0.36842712  1
  Sr  Sr63  1  0.47798818  0.33163584  0.92464780  1
  Sr  Sr64  1  0.49991497  0.67458491  0.33699393  1
  Sr  Sr65  1  0.50255070  0.66219516  0.88019842  1
  Sr  Sr66  1  0.82683000  -0.00689885  0.36087781  1
  Sr  Sr67  1  0.83453226  -0.03847276  0.89620673  1
  Sr  Sr68  1  0.83963253  0.30352668  0.40286808  1
  Sr  Sr69  1  0.83082697  0.33447623  0.86916140  1
  Sr  Sr70  1  0.83121009  0.65035554  0.38883597  1
  Sr  Sr71  1  0.83154456  0.65649010  0.84572495  1
  Ta  Ta72  1  0.15828016  0.18726534  -0.00244939  1
  Ta  Ta73  1  0.19515928  0.16960459  0.49743167  1
  Ta  Ta74  1  0.17091578  0.45833113  -0.00569086  1
  Ta  Ta75  1  0.15772537  0.45551928  0.50290798  1
  Ta  Ta76  1  0.21662167  0.82146608  -0.00996732  1
  Ta  Ta77  1  0.11034215  0.83106250  0.49804286  1
  Ta  Ta78  1  0.53403601  0.15857938  -0.00081373  1
  Ta  Ta79  1  0.49389557  0.15477842  0.50703373  1
  Ta  Ta80  1  0.54368685  0.50013288  -0.00132883  1
  Ta  Ta81  1  0.50697870  0.53025248  0.50161584  1
  Ta  Ta82  1  0.46106943  0.82834049  -0.00731996  1
  Ta  Ta83  1  0.50015844  0.79054896  0.50442150  1
  Ta  Ta84  1  0.83279658  0.13419902  -0.00449500  1
  Ta  Ta85  1  0.81664237  0.13258870  0.51052387  1
  Ta  Ta86  1  0.79938164  0.50681705  -0.00650639  1
  Ta  Ta87  1  0.82298057  0.46526620  0.50293636  1
  Ta  Ta88  1  0.83304723  0.77830939  -0.00092082  1
  Ta  Ta89  1  0.87636228  0.83293057  0.50333649  1
  Ta  Ta90  1  0.13761067  0.14583614  0.24356961  1
  Ta  Ta91  1  0.16052667  0.12586304  0.75420967  1
  Ta  Ta92  1  0.20997650  0.50448101  0.24934118  1
  Ta  Ta93  1  0.12419155  0.50140770  0.74394608  1
  Ta  Ta94  1  0.15972595  0.79015859  0.24599613  1
  Ta  Ta95  1  0.18295142  0.82782899  0.75400431  1
  Ta  Ta96  1  0.50484417  0.11895400  0.25157069  1
  Ta  Ta97  1  0.50132967  0.21563365  0.75499266  1
  Ta  Ta98  1  0.45597430  0.50393848  0.24306514  1
  Ta  Ta99  1  0.49435936  0.45967147  0.75888759  1
  Ta  Ta100  1  0.51480371  0.86222279  0.25634683  1
  Ta  Ta101  1  0.54506269  0.83592596  0.74943801  1
  Ta  Ta102  1  0.86052495  0.17075402  0.24526310  1
  Ta  Ta103  1  0.84221891  0.11892884  0.75974593  1
  Ta  Ta104  1  0.83498844  0.44959514  0.24978070  1
  Ta  Ta105  1  0.87289911  0.49592116  0.74523679  1
  Ta  Ta106  1  0.82891081  0.80365380  0.24777410  1
  Ta  Ta107  1  0.79358954  0.82836765  0.75318070  1
  Ta  Ta108  1  0.00402644  0.04237771  0.24411596  1
  Ta  Ta109  1  0.00065216  0.02215368  0.76262776  1
  Ta  Ta110  1  -0.03152400  0.32439406  0.24424866  1
  Ta  Ta111  1  0.00047992  0.38523037  0.75092226  1
  Ta  Ta112  1  0.01156920  0.69214127  0.25156139  1
  Ta  Ta113  1  0.00588789  0.63478385  0.75270928  1
  Ta  Ta114  1  0.37357365  0.00044810  0.25150114  1
  Ta  Ta115  1  0.29625918  0.00407111  0.75007537  1
  Ta  Ta116  1  0.33094369  0.38285900  0.24973772  1
  Ta  Ta117  1  0.37005982  0.33892383  0.75699613  1
  Ta  Ta118  1  0.32059294  0.63547003  0.24783904  1
  Ta  Ta119  1  0.30520007  0.68628886  0.74692187  1
  Ta  Ta120  1  0.63082150  0.00544547  0.25315742  1
  Ta  Ta121  1  0.67947992  -0.02158519  0.75883788  1
  Ta  Ta122  1  0.70583596  0.35180956  0.25014403  1
  Ta  Ta123  1  0.61125669  0.34496834  0.75392210  1
  Ta  Ta124  1  0.68077162  0.70501638  0.25676207  1
  Ta  Ta125  1  0.66362689  0.71454836  0.74971332  1
  Ta  Ta126  1  -0.01162932  0.04314390  -0.01489988  1
  Ta  Ta127  1  -0.00679532  -0.02749909  0.50142611  1
  Ta  Ta128  1  0.04525016  0.34060060  -0.00405424  1
  Ta  Ta129  1  0.00925890  0.35432466  0.50408533  1
  Ta  Ta130  1  -0.03354174  0.67479114  0.00052998  1
  Ta  Ta131  1  -0.00161435  0.71502774  0.49328974  1
  Ta  Ta132  1  0.33457890  -0.03988008  -0.00310087  1
  Ta  Ta133  1  0.33080728  0.04560552  0.49829938  1
  Ta  Ta134  1  0.28719504  0.33523622  0.00026754  1
  Ta  Ta135  1  0.30220284  0.31741323  0.49564041  1
  Ta  Ta136  1  0.33487318  0.70653996  -0.01288274  1
  Ta  Ta137  1  0.38100859  0.66880983  0.50571843  1
  Ta  Ta138  1  0.67529117  0.04087817  -0.00107031  1
  Ta  Ta139  1  0.67002044  0.03397400  0.50664871  1
  Ta  Ta140  1  0.66333165  0.37863186  -0.00255035  1
  Ta  Ta141  1  0.67356051  0.36361709  0.50345606  1
  Ta  Ta142  1  0.68749439  0.65150492  -0.00360236  1
  Ta  Ta143  1  0.62149909  0.67089175  0.50519779  1
  N  N144  1  0.33142854  -0.00207230  0.87291583  1
  N  N145  1  0.34177868  -0.01032992  0.12607558  1
  N  N146  1  0.32739876  0.34215536  0.37509695  1
  N  N147  1  0.49989148  0.17650237  0.62762315  1
  N  N148  1  0.33830845  0.00362679  0.37804029  1
  N  N149  1  0.00119007  0.33936100  0.12564804  1
  N  N150  1  0.82743878  0.81305042  0.87679251  1
  N  N151  1  -0.00333018  0.66315811  0.87610622  1
  N  N152  1  0.33899211  0.66711873  0.62357202  1
  N  N153  1  0.33829240  0.66729584  0.86779054  1
  N  N154  1  0.50069405  0.49972038  0.88035565  1
  N  N155  1  0.00076858  -0.01694164  0.88080885  1
  N  N156  1  0.66514386  0.67344114  0.87811827  1
  N  N157  1  0.50663242  0.83684466  0.87498888  1
  N  N158  1  0.83538647  0.49284554  0.62413526  1
  N  N159  1  0.16128776  0.49631223  0.61857871  1
  N  N160  1  0.66636709  0.00114343  0.88028125  1
  N  N161  1  0.32835140  0.33373261  0.87654722  1
  N  N162  1  0.83534145  0.14965165  0.63525597  1
  N  N163  1  -0.00134192  0.67056811  0.37297861  1
  N  N164  1  0.66174776  0.67551856  0.62356718  1
  N  N165  1  0.83598649  0.82591734  0.62231005  1
  N  N166  1  0.50004574  0.50575011  0.12689974  1
  N  N167  1  0.32919918  0.00798016  0.62269450  1
  N  N168  1  0.50154399  0.82912029  0.37473636  1
  N  N169  1  0.17061843  0.15688777  0.12498575  1
  N  N170  1  0.00334108  0.35082040  0.87731884  1
  N  N171  1  0.16256892  0.82741202  0.87632398  1
  N  N172  1  0.16806376  0.16240542  0.87077006  1
  N  N173  1  0.50912537  0.17486998  0.87963168  1
  N  N174  1  0.83707917  0.16125060  0.12326030  1
  N  N175  1  0.83087607  0.49577554  0.87508860  1
  N  N176  1  0.66205055  0.68018592  0.37587935  1
  O  O177  1  0.32583519  0.34770913  0.12378995  1
  O  O178  1  0.83356654  0.47942159  0.12256278  1
  O  O179  1  0.84060012  0.82813737  0.37298026  1
  O  O180  1  0.67620912  0.34523395  0.37739486  1
  O  O181  1  0.65687575  0.01569044  0.37701341  1
  O  O182  1  0.18105632  0.80435948  0.12210533  1
  O  O183  1  -0.00342235  0.00816610  0.37810317  1
  O  O184  1  -0.00061270  -0.01218655  0.62855759  1
  O  O185  1  0.49504621  0.51450408  0.37294740  1
  O  O186  1  0.84466209  0.47475048  0.37404981  1
  O  O187  1  0.66113581  0.00405568  0.12675697  1
  O  O188  1  0.16670115  0.48561877  0.86503445  1
  O  O189  1  0.50340686  0.83609119  0.62704594  1
  O  O190  1  0.15642474  0.81696105  0.37150333  1
  O  O191  1  0.66489372  0.67176597  0.13056517  1
  O  O192  1  0.82895765  0.82457280  0.12329647  1
  O  O193  1  0.49341970  0.83421606  0.12338548  1
  O  O194  1  0.00232725  0.67616548  0.62917196  1
  O  O195  1  0.16995643  0.16055243  0.62219571  1
  O  O196  1  0.00057149  0.33203726  0.62820980  1
  O  O197  1  0.32654563  0.66312600  0.12131766  1
  O  O198  1  0.66395363  0.01251255  0.62990251  1
  O  O199  1  0.33370817  0.33301760  0.62292235  1
  O  O200  1  -0.00100847  0.01888411  0.11481472  1
  O  O201  1  0.50026982  0.49986598  0.62526707  1
  O  O202  1  0.67908867  0.35711867  0.12657676  1
  O  O203  1  0.17338812  0.16614600  0.37036553  1
  O  O204  1  0.18305296  0.49240580  0.12492312  1
  O  O205  1  0.18368094  0.49910778  0.37903247  1
  O  O206  1  -0.00048556  0.65661782  0.12382977  1
  O  O207  1  0.66300097  0.35442479  0.87237867  1
  O  O208  1  0.50149221  0.14552679  0.12382314  1
  O  O209  1  0.83110223  0.18061101  0.86696414  1
  O  O210  1  0.50541777  0.14872067  0.37258166  1
  O  O211  1  0.33944938  0.65494876  0.37485266  1
  O  O212  1  -0.00544302  0.33701488  0.37840010  1
  O  O213  1  0.83966176  0.15059655  0.38218996  1
  O  O214  1  0.14563848  0.83174722  0.62538764  1
  O  O215  1  0.64948675  0.35476254  0.62574798  1
