# generated using pymatgen
data_Sr24Ta24N11O13
_symmetry_space_group_name_H-M   'P 1'
_cell_length_a   16.72036830
_cell_length_b   16.83783308
_cell_length_c   15.69032456
_cell_angle_alpha   90.02961829
_cell_angle_beta   89.81496462
_cell_angle_gamma   89.66160602
_symmetry_Int_Tables_number   1
_chemical_formula_structural   Sr24Ta24N11O13
_chemical_formula_sum   'Sr72 Ta72 N33 O39'
_cell_volume   4417.27120976
_cell_formula_units_Z   3
loop_
 _symmetry_equiv_pos_site_id
 _symmetry_equiv_pos_as_xyz
  1  'x, y, z'
loop_
 _atom_site_type_symbol
 _atom_site_label
 _atom_site_symmetry_multiplicity
 _atom_site_fract_x
 _atom_site_fract_y
 _atom_site_fract_z
 _atom_site_occupancy
  Sr  Sr0  1  0.00768875  0.14798369  0.13307711  1
  Sr  Sr1  1  -0.00632759  0.15573748  0.64808791  1
  Sr  Sr2  1  0.00237837  0.49372644  0.14166530  1
  Sr  Sr3  1  0.02157127  0.47363120  0.58198809  1
  Sr  Sr4  1  -0.01544345  0.82156703  0.07961497  1
  Sr  Sr5  1  0.01322048  0.82210484  0.64025869  1
  Sr  Sr6  1  0.33708316  0.15978070  0.08933555  1
  Sr  Sr7  1  0.34610746  0.14880363  0.63488915  1
  Sr  Sr8  1  0.32747624  0.47033460  0.13818573  1
  Sr  Sr9  1  0.33254189  0.49665080  0.65495542  1
  Sr  Sr10  1  0.32830956  0.83863151  0.13396412  1
  Sr  Sr11  1  0.34227598  0.81110616  0.58311306  1
  Sr  Sr12  1  0.66220911  0.16785955  0.13967306  1
  Sr  Sr13  1  0.67303635  0.14190523  0.59852907  1
  Sr  Sr14  1  0.66205024  0.50797835  0.07963167  1
  Sr  Sr15  1  0.67059157  0.49785783  0.63478242  1
  Sr  Sr16  1  0.67482940  0.82574552  0.16273979  1
  Sr  Sr17  1  0.65767662  0.83036442  0.64626346  1
  Sr  Sr18  1  0.16754808  -0.00399553  0.15225576  1
  Sr  Sr19  1  0.15962561  0.01054060  0.64675021  1
  Sr  Sr20  1  0.15918080  0.32587254  0.12703056  1
  Sr  Sr21  1  0.18016386  0.32969738  0.59008863  1
  Sr  Sr22  1  0.15522634  0.69425408  0.09946794  1
  Sr  Sr23  1  0.17276363  0.66418484  0.62781731  1
  Sr  Sr24  1  0.48464572  0.02223360  0.08373824  1
  Sr  Sr25  1  0.50976976  0.00559783  0.63955765  1
  Sr  Sr26  1  0.51292884  0.33895014  0.14448199  1
  Sr  Sr27  1  0.50350088  0.35610409  0.64536801  1
  Sr  Sr28  1  0.49221479  0.67278867  0.13584932  1
  Sr  Sr29  1  0.50523469  0.67208980  0.58989638  1
  Sr  Sr30  1  0.83064937  0.01816022  0.13740537  1
  Sr  Sr31  1  0.83947107  0.00832308  0.58483541  1
  Sr  Sr32  1  0.82696958  0.36283401  0.11464801  1
  Sr  Sr33  1  0.83895942  0.33781526  0.63222550  1
  Sr  Sr34  1  0.83387332  0.66844946  0.12720670  1
  Sr  Sr35  1  0.82350024  0.68599740  0.66162408  1
  Sr  Sr36  1  0.00327944  0.13829836  0.34625489  1
  Sr  Sr37  1  -0.00420204  0.15711755  0.86836546  1
  Sr  Sr38  1  -0.00697929  0.50723026  0.36223706  1
  Sr  Sr39  1  0.01755966  0.47217999  0.89639690  1
  Sr  Sr40  1  -0.01083587  0.82980305  0.41744133  1
  Sr  Sr41  1  0.00916732  0.82116779  0.86142745  1
  Sr  Sr42  1  0.33071005  0.16807814  0.41314572  1
  Sr  Sr43  1  0.34602965  0.15288682  0.86681429  1
  Sr  Sr44  1  0.35306317  0.48315574  0.33734535  1
  Sr  Sr45  1  0.32835136  0.49099471  0.85921212  1
  Sr  Sr46  1  0.32566452  0.83517341  0.36213876  1
  Sr  Sr47  1  0.34471808  0.81592908  0.91578433  1
  Sr  Sr48  1  0.66462642  0.16624807  0.36709226  1
  Sr  Sr49  1  0.67186451  0.13726574  0.90422055  1
  Sr  Sr50  1  0.65643639  0.50180003  0.42103129  1
  Sr  Sr51  1  0.68828832  0.49668069  0.86352318  1
  Sr  Sr52  1  0.66844030  0.82130217  0.35675492  1
  Sr  Sr53  1  0.65413124  0.83402810  0.84689342  1
  Sr  Sr54  1  0.16662787  0.00011373  0.35296587  1
  Sr  Sr55  1  0.14962130  0.00386893  0.83957938  1
  Sr  Sr56  1  0.16414972  0.33494759  0.36420662  1
  Sr  Sr57  1  0.18213230  0.33485966  0.91221888  1
  Sr  Sr58  1  0.15155499  0.68294706  0.40505107  1
  Sr  Sr59  1  0.17066503  0.67082373  0.86219448  1
  Sr  Sr60  1  0.48356185  0.02692220  0.41859789  1
  Sr  Sr61  1  0.50726031  0.00122985  0.86572130  1
  Sr  Sr62  1  0.50994487  0.33675070  0.35647430  1
  Sr  Sr63  1  0.50990765  0.36366468  0.85577669  1
  Sr  Sr64  1  0.49418265  0.67433767  0.36698854  1
  Sr  Sr65  1  0.49515611  0.67168554  0.90838213  1
  Sr  Sr66  1  0.82672541  0.00877566  0.36519316  1
  Sr  Sr67  1  0.84036662  0.01375314  0.92013865  1
  Sr  Sr68  1  0.83085148  0.36618471  0.40265843  1
  Sr  Sr69  1  0.84047870  0.33900577  0.85465990  1
  Sr  Sr70  1  0.83274203  0.67511676  0.34979090  1
  Sr  Sr71  1  0.82832999  0.67467677  0.87228186  1
  Ta  Ta72  1  0.16270230  0.13123221  0.00079563  1
  Ta  Ta73  1  0.14401562  0.14912384  0.49422382  1
  Ta  Ta74  1  0.18063896  0.52327568  -0.00358801  1
  Ta  Ta75  1  0.21551408  0.50212232  0.49587336  1
  Ta  Ta76  1  0.16625916  0.87217392  -0.01138680  1
  Ta  Ta77  1  0.16576142  0.87168562  0.50819297  1
  Ta  Ta78  1  0.51051659  0.21043920  -0.00727265  1
  Ta  Ta79  1  0.50578174  0.21103006  0.50655447  1
  Ta  Ta80  1  0.46982767  0.49587921  0.00941498  1
  Ta  Ta81  1  0.46837152  0.49519949  0.49923396  1
  Ta  Ta82  1  0.54044532  0.84029719  0.00926640  1
  Ta  Ta83  1  0.52810434  0.84868177  0.49910837  1
  Ta  Ta84  1  0.83807036  0.20159826  0.00247965  1
  Ta  Ta85  1  0.85340365  0.18929060  0.49373074  1
  Ta  Ta86  1  0.85827064  0.51548400  -0.00801413  1
  Ta  Ta87  1  0.83399784  0.54867029  0.50459455  1
  Ta  Ta88  1  0.79259071  0.83497092  0.00168340  1
  Ta  Ta89  1  0.80721183  0.82128607  0.50185554  1
  Ta  Ta90  1  0.20918636  0.16896895  0.24866361  1
  Ta  Ta91  1  0.17191794  0.20653887  0.75138686  1
  Ta  Ta92  1  0.17033396  0.54702722  0.25041785  1
  Ta  Ta93  1  0.14714036  0.47587497  0.74551218  1
  Ta  Ta94  1  0.11151817  0.82508093  0.25116843  1
  Ta  Ta95  1  0.21890630  0.83046283  0.74796671  1
  Ta  Ta96  1  0.47681297  0.15477005  0.24815447  1
  Ta  Ta97  1  0.53143673  0.18556386  0.75593292  1
  Ta  Ta98  1  0.54601015  0.50686075  0.25228540  1
  Ta  Ta99  1  0.50187575  0.54901251  0.74776607  1
  Ta  Ta100  1  0.49240468  0.89216293  0.25207497  1
  Ta  Ta101  1  0.46919893  0.81357680  0.74505850  1
  Ta  Ta102  1  0.83600815  0.21729308  0.25925275  1
  Ta  Ta103  1  0.81434103  0.14994183  0.74876953  1
  Ta  Ta104  1  0.78614959  0.50563293  0.25619526  1
  Ta  Ta105  1  0.88432821  0.50814992  0.74425132  1
  Ta  Ta106  1  0.87923282  0.83515971  0.24851468  1
  Ta  Ta107  1  0.83097212  0.87975192  0.75365206  1
  Ta  Ta108  1  -0.00766778  -0.04956029  0.24797989  1
  Ta  Ta109  1  -0.05202726  -0.00938371  0.75553899  1
  Ta  Ta110  1  -0.02630080  0.31402635  0.25336623  1
  Ta  Ta111  1  0.04294531  0.33384042  0.74783981  1
  Ta  Ta112  1  0.00974769  0.69142120  0.25001804  1
  Ta  Ta113  1  0.00596567  0.61352382  0.74327468  1
  Ta  Ta114  1  0.35308751  0.02536194  0.25553914  1
  Ta  Ta115  1  0.33896026  -0.05170811  0.74841029  1
  Ta  Ta116  1  0.33654348  0.28009647  0.24714086  1
  Ta  Ta117  1  0.30926373  0.31585012  0.75189856  1
  Ta  Ta118  1  0.30011053  0.65297163  0.24333121  1
  Ta  Ta119  1  0.35618065  0.68193897  0.75484812  1
  Ta  Ta120  1  0.61188665  0.00145253  0.25216892  1
  Ta  Ta121  1  0.70872073  0.00360797  0.75175759  1
  Ta  Ta122  1  0.68553742  0.36831587  0.25319411  1
  Ta  Ta123  1  0.67119306  0.28216270  0.75360836  1
  Ta  Ta124  1  0.66428215  0.62750784  0.24944402  1
  Ta  Ta125  1  0.62693595  0.66202826  0.75111260  1
  Ta  Ta126  1  0.03240674  -0.00358989  0.00035919  1
  Ta  Ta127  1  0.02688913  0.00675694  0.49841277  1
  Ta  Ta128  1  -0.01902428  0.30761405  0.00169095  1
  Ta  Ta129  1  0.00061481  0.28242946  0.49606211  1
  Ta  Ta130  1  -0.00510699  0.63485067  -0.00201580  1
  Ta  Ta131  1  -0.03699449  0.65723369  0.50369891  1
  Ta  Ta132  1  0.28358762  -0.00705505  -0.00839417  1
  Ta  Ta133  1  0.29378268  -0.00941885  0.50087528  1
  Ta  Ta134  1  0.37372187  0.33446937  -0.00586539  1
  Ta  Ta135  1  0.35709434  0.35345286  0.49769454  1
  Ta  Ta136  1  0.32277422  0.62599753  0.00251838  1
  Ta  Ta137  1  0.33281730  0.62274176  0.49524847  1
  Ta  Ta138  1  0.66436042  -0.04479427  0.00326639  1
  Ta  Ta139  1  0.66376361  -0.04002630  0.50124367  1
  Ta  Ta140  1  0.66493661  0.31538659  0.00040221  1
  Ta  Ta141  1  0.65704629  0.31697686  0.50153454  1
  Ta  Ta142  1  0.66696107  0.70621032  0.00660073  1
  Ta  Ta143  1  0.69293690  0.68490339  0.50585831  1
  N  N144  1  0.34050849  0.33122635  0.87139999  1
  N  N145  1  0.17027461  0.83694567  0.86775435  1
  N  N146  1  0.50247893  0.17114025  0.63224599  1
  N  N147  1  0.33552954  0.66098306  0.87824619  1
  N  N148  1  -0.00294647  0.65844197  0.11967845  1
  N  N149  1  0.50070450  0.17469490  0.12580757  1
  N  N150  1  0.32785091  0.00254986  0.37746150  1
  N  N151  1  -0.00792779  -0.00572351  0.87079910  1
  N  N152  1  0.82624091  0.16418700  0.36968543  1
  N  N153  1  0.49702984  0.83458514  0.62311932  1
  N  N154  1  0.67309987  -0.01222223  0.87758453  1
  N  N155  1  0.17334645  0.49871357  0.87066624  1
  N  N156  1  0.83491565  0.17162705  0.88286790  1
  N  N157  1  0.66982774  0.33767234  0.38071625  1
  N  N158  1  0.17310511  0.15898568  0.12185949  1
  N  N159  1  0.66209346  0.66867425  0.12447737  1
  N  N160  1  -0.00428907  -0.01096880  0.11826667  1
  N  N161  1  0.84683146  0.49913977  0.86610646  1
  N  N162  1  0.49844900  0.51240286  0.62568939  1
  N  N163  1  0.67545495  -0.01162296  0.62288382  1
  N  N164  1  0.50310231  0.15668829  0.88265617  1
  N  N165  1  0.50495496  0.50567980  0.37344267  1
  N  N166  1  0.49841646  0.50408132  0.12790666  1
  N  N167  1  0.67004242  0.33972494  0.11993849  1
  N  N168  1  -0.00216795  -0.01238611  0.38063709  1
  N  N169  1  0.49767978  0.17809046  0.38527143  1
  N  N170  1  0.17820811  0.49289383  0.61647203  1
  N  N171  1  0.82166487  0.51876546  0.38023351  1
  N  N172  1  0.66501081  0.66857209  0.62724435  1
  N  N173  1  0.16838471  0.16340444  0.37412556  1
  N  N174  1  0.83566976  0.16628728  0.62294712  1
  N  N175  1  0.16997531  0.83608120  0.62794201  1
  N  N176  1  -0.00837145  0.66472882  0.37916141  1
  O  O177  1  0.16531249  0.17729625  0.62674337  1
  O  O178  1  0.33915564  0.31746258  0.12092334  1
  O  O179  1  0.00503256  0.30874395  0.37391975  1
  O  O180  1  0.00959359  0.65076498  0.86371660  1
  O  O181  1  0.48939134  0.51546832  0.87577718  1
  O  O182  1  0.32572331  -0.00307220  0.11538603  1
  O  O183  1  0.81206038  0.83417185  0.87464367  1
  O  O184  1  0.14686035  0.83494490  0.37747673  1
  O  O185  1  0.64902987  -0.00059706  0.37325278  1
  O  O186  1  0.33531470  0.65236543  0.62072616  1
  O  O187  1  0.82385284  0.17722079  0.13562665  1
  O  O188  1  0.83402956  0.83058562  0.37644446  1
  O  O189  1  0.01814652  0.66307520  0.62061826  1
  O  O190  1  0.16959108  0.17884180  0.87739964  1
  O  O191  1  0.68331927  0.34013690  0.86778241  1
  O  O192  1  0.00121339  0.31752999  0.87403066  1
  O  O193  1  -0.00855327  0.00217445  0.62879594  1
  O  O194  1  0.33538950  -0.02109443  0.87204701  1
  O  O195  1  0.48544767  0.86562426  0.37798928  1
  O  O196  1  0.82638226  0.51362903  0.12046485  1
  O  O197  1  0.16052216  0.51899015  0.12873843  1
  O  O198  1  0.33987965  0.33960648  0.62450616  1
  O  O199  1  0.15225377  0.84181251  0.12788837  1
  O  O200  1  0.82989513  0.49927939  0.62815644  1
  O  O201  1  0.82095612  0.83754347  0.62812634  1
  O  O202  1  0.31355390  0.68391135  0.11861524  1
  O  O203  1  0.33606738  -0.01629140  0.62493279  1
  O  O204  1  0.16482656  0.52563077  0.37603774  1
  O  O205  1  0.50055838  0.82882135  0.88497960  1
  O  O206  1  0.34616607  0.32888861  0.37027462  1
  O  O207  1  0.33173012  0.64191795  0.36338218  1
  O  O208  1  0.49045007  0.86514293  0.12600159  1
  O  O209  1  -0.00512116  0.32332068  0.12496406  1
  O  O210  1  0.68036884  0.31714672  0.63417254  1
  O  O211  1  0.82980792  0.83124140  0.12491890  1
  O  O212  1  0.66295172  0.66899781  0.37709499  1
  O  O213  1  0.64166149  0.00306566  0.12720501  1
  O  O214  1  0.66566960  0.67848518  0.87318482  1
  O  O215  1  0.01109679  0.31063823  0.62436770  1
