# generated using pymatgen
data_Sr24Ta24N11O13
_symmetry_space_group_name_H-M   'P 1'
_cell_length_a   16.89344195
_cell_length_b   16.87521478
_cell_length_c   15.76709485
_cell_angle_alpha   89.87446504
_cell_angle_beta   89.99891205
_cell_angle_gamma   90.01382886
_symmetry_Int_Tables_number   1
_chemical_formula_structural   Sr24Ta24N11O13
_chemical_formula_sum   'Sr72 Ta72 N33 O39'
_cell_volume   4494.87975274
_cell_formula_units_Z   3
loop_
 _symmetry_equiv_pos_site_id
 _symmetry_equiv_pos_as_xyz
  1  'x, y, z'
loop_
 _atom_site_type_symbol
 _atom_site_label
 _atom_site_symmetry_multiplicity
 _atom_site_fract_x
 _atom_site_fract_y
 _atom_site_fract_z
 _atom_site_occupancy
  Sr  Sr0  1  -0.01311582  0.15963730  0.14693456  1
  Sr  Sr1  1  -0.01375332  0.17577637  0.58851026  1
  Sr  Sr2  1  0.00071545  0.50292536  0.11569438  1
  Sr  Sr3  1  -0.01413546  0.49503964  0.66379427  1
  Sr  Sr4  1  -0.00941643  0.85085279  0.08836422  1
  Sr  Sr5  1  -0.00769903  0.84047085  0.63980212  1
  Sr  Sr6  1  0.32246141  0.18436788  0.13000089  1
  Sr  Sr7  1  0.32514838  0.17359822  0.61199225  1
  Sr  Sr8  1  0.31582102  0.51988646  0.12547179  1
  Sr  Sr9  1  0.32361229  0.51267716  0.61785831  1
  Sr  Sr10  1  0.33209419  0.83982434  0.11845177  1
  Sr  Sr11  1  0.34248623  0.84899919  0.66349051  1
  Sr  Sr12  1  0.64628063  0.17769365  0.10007252  1
  Sr  Sr13  1  0.65343267  0.16536618  0.66321567  1
  Sr  Sr14  1  0.64589263  0.50802927  0.13398761  1
  Sr  Sr15  1  0.66099207  0.50782529  0.60830331  1
  Sr  Sr16  1  0.67260318  0.84682958  0.14190542  1
  Sr  Sr17  1  0.65248185  0.84845053  0.58210861  1
  Sr  Sr18  1  0.17035629  0.00362335  0.11954650  1
  Sr  Sr19  1  0.17704823  -0.01552354  0.67028290  1
  Sr  Sr20  1  0.18353790  0.32326238  0.12102875  1
  Sr  Sr21  1  0.17992443  0.34830872  0.62660122  1
  Sr  Sr22  1  0.16796574  0.65530404  0.13975332  1
  Sr  Sr23  1  0.15969477  0.67298040  0.58190120  1
  Sr  Sr24  1  0.51820350  -0.02391819  0.10658804  1
  Sr  Sr25  1  0.50022418  0.00299171  0.61812057  1
  Sr  Sr26  1  0.50045162  0.32773882  0.12303848  1
  Sr  Sr27  1  0.52095754  0.31483747  0.64340505  1
  Sr  Sr28  1  0.51166527  0.65216578  0.11744606  1
  Sr  Sr29  1  0.48685701  0.66220791  0.62915490  1
  Sr  Sr30  1  0.83766756  -0.00904997  0.14894651  1
  Sr  Sr31  1  0.84491991  -0.01434978  0.60744228  1
  Sr  Sr32  1  0.86543088  0.31654636  0.11401244  1
  Sr  Sr33  1  0.83105131  0.33244623  0.61850911  1
  Sr  Sr34  1  0.83170207  0.65746436  0.12365706  1
  Sr  Sr35  1  0.85059990  0.65768720  0.66443109  1
  Sr  Sr36  1  -0.01561968  0.15437420  0.37278144  1
  Sr  Sr37  1  -0.01726696  0.17698454  0.88971832  1
  Sr  Sr38  1  -0.00486168  0.51794356  0.33526047  1
  Sr  Sr39  1  -0.00420585  0.49510341  0.87999897  1
  Sr  Sr40  1  0.00772285  0.82429844  0.42310151  1
  Sr  Sr41  1  -0.00507607  0.84832175  0.86037924  1
  Sr  Sr42  1  0.33678847  0.17060431  0.37830097  1
  Sr  Sr43  1  0.29813322  0.18628930  0.88384088  1
  Sr  Sr44  1  0.31426058  0.51888458  0.39926939  1
  Sr  Sr45  1  0.32855166  0.50489203  0.85231615  1
  Sr  Sr46  1  0.31873366  0.84110336  0.33891115  1
  Sr  Sr47  1  0.33928893  0.84265773  0.87773146  1
  Sr  Sr48  1  0.64254997  0.18200294  0.35053012  1
  Sr  Sr49  1  0.66443257  0.16678630  0.87495620  1
  Sr  Sr50  1  0.66199008  0.49428109  0.37701595  1
  Sr  Sr51  1  0.64905704  0.52624533  0.89120035  1
  Sr  Sr52  1  0.68096530  0.84949750  0.36738940  1
  Sr  Sr53  1  0.65909956  0.84708237  0.89609491  1
  Sr  Sr54  1  0.18364199  0.00190067  0.34117385  1
  Sr  Sr55  1  0.15989663  -0.00079870  0.88593898  1
  Sr  Sr56  1  0.18033944  0.32577467  0.40326885  1
  Sr  Sr57  1  0.17822718  0.34212378  0.84743589  1
  Sr  Sr58  1  0.17200915  0.66343382  0.36346037  1
  Sr  Sr59  1  0.18060115  0.64629486  0.91487230  1
  Sr  Sr60  1  0.50834523  -0.01370760  0.38423458  1
  Sr  Sr61  1  0.51966733  -0.00900572  0.87548317  1
  Sr  Sr62  1  0.51209667  0.32456453  0.33697672  1
  Sr  Sr63  1  0.51592339  0.32186694  0.89988271  1
  Sr  Sr64  1  0.51009574  0.65472859  0.40614969  1
  Sr  Sr65  1  0.49720486  0.65590040  0.85183152  1
  Sr  Sr66  1  0.83765478  -0.01025520  0.38462233  1
  Sr  Sr67  1  0.84238834  -0.01687248  0.85770302  1
  Sr  Sr68  1  0.84304158  0.32832966  0.38770225  1
  Sr  Sr69  1  0.84478333  0.32079139  0.87406998  1
  Sr  Sr70  1  0.83232770  0.65382285  0.34380745  1
  Sr  Sr71  1  0.83666938  0.66004961  0.88164560  1
  Ta  Ta72  1  0.13139264  0.17176880  0.00239052  1
  Ta  Ta73  1  0.16454664  0.11911563  0.50483711  1
  Ta  Ta74  1  0.16825110  0.46993926  -0.00197188  1
  Ta  Ta75  1  0.11714127  0.50102650  0.49875614  1
  Ta  Ta76  1  0.15562990  0.81265652  0.00029158  1
  Ta  Ta77  1  0.19443032  0.86267357  0.50316693  1
  Ta  Ta78  1  0.46440415  0.14397327  -0.01004759  1
  Ta  Ta79  1  0.51297253  0.17946045  0.50493058  1
  Ta  Ta80  1  0.46433076  0.49984762  0.00056151  1
  Ta  Ta81  1  0.49490829  0.45548038  0.49819504  1
  Ta  Ta82  1  0.49938666  0.79860618  -0.00393524  1
  Ta  Ta83  1  0.45503470  0.83202303  0.50188320  1
  Ta  Ta84  1  0.82883442  0.12946151  -0.00063891  1
  Ta  Ta85  1  0.77627911  0.16811544  0.49836656  1
  Ta  Ta86  1  0.81215618  0.48093014  0.00278683  1
  Ta  Ta87  1  0.85167203  0.51644627  0.50567984  1
  Ta  Ta88  1  0.81793970  0.82896821  -0.00033971  1
  Ta  Ta89  1  0.83256826  0.78478167  0.50463693  1
  Ta  Ta90  1  0.15287055  0.18417605  0.25187204  1
  Ta  Ta91  1  0.12727794  0.16759300  0.75147497  1
  Ta  Ta92  1  0.16994121  0.46638888  0.25207269  1
  Ta  Ta93  1  0.16099429  0.53881086  0.74650298  1
  Ta  Ta94  1  0.11681835  0.83394831  0.25034227  1
  Ta  Ta95  1  0.16662395  0.78546870  0.75212838  1
  Ta  Ta96  1  0.48883158  0.12915900  0.23569715  1
  Ta  Ta97  1  0.46460010  0.15960000  0.76175521  1
  Ta  Ta98  1  0.46567628  0.50582019  0.24951366  1
  Ta  Ta99  1  0.50611600  0.46654531  0.75626228  1
  Ta  Ta100  1  0.50115168  0.80208625  0.24775975  1
  Ta  Ta101  1  0.53402892  0.83189445  0.74627642  1
  Ta  Ta102  1  0.79739455  0.16861124  0.24748648  1
  Ta  Ta103  1  0.84719501  0.15118748  0.74315988  1
  Ta  Ta104  1  0.81735420  0.46994922  0.24761416  1
  Ta  Ta105  1  0.79689267  0.48074386  0.75177484  1
  Ta  Ta106  1  0.87740170  0.82847537  0.26018069  1
  Ta  Ta107  1  0.78627359  0.83064353  0.74098567  1
  Ta  Ta108  1  0.00538950  -0.03984391  0.25732586  1
  Ta  Ta109  1  -0.00349890  0.04251878  0.74600548  1
  Ta  Ta110  1  0.03392644  0.33435181  0.24763181  1
  Ta  Ta111  1  0.00570986  0.30511852  0.74891382  1
  Ta  Ta112  1  0.00116402  0.71625241  0.25031959  1
  Ta  Ta113  1  0.04965332  0.66986733  0.75200915  1
  Ta  Ta114  1  0.36495359  0.01665125  0.24481005  1
  Ta  Ta115  1  0.35443651  0.03426505  0.75579753  1
  Ta  Ta116  1  0.33071456  0.36701829  0.24956076  1
  Ta  Ta117  1  0.37006956  0.33104187  0.75668740  1
  Ta  Ta118  1  0.37136338  0.66599543  0.25762579  1
  Ta  Ta119  1  0.29079369  0.67340216  0.74307788  1
  Ta  Ta120  1  0.66469874  0.03263809  0.24622619  1
  Ta  Ta121  1  0.67804906  -0.02324737  0.74721971  1
  Ta  Ta122  1  0.70467904  0.33752051  0.23908063  1
  Ta  Ta123  1  0.67412662  0.36656875  0.75719401  1
  Ta  Ta124  1  0.64799380  0.67917253  0.25162169  1
  Ta  Ta125  1  0.66970756  0.70296943  0.75187345  1
  Ta  Ta126  1  -0.01391276  0.02473931  -0.00356007  1
  Ta  Ta127  1  0.05310577  -0.00230695  0.50939822  1
  Ta  Ta128  1  0.03720210  0.33068792  -0.00294681  1
  Ta  Ta129  1  0.00189527  0.37975479  0.49778878  1
  Ta  Ta130  1  0.01098257  0.68963919  -0.00265343  1
  Ta  Ta131  1  -0.02699598  0.63624099  0.50206546  1
  Ta  Ta132  1  0.34977613  0.02122886  -0.00616621  1
  Ta  Ta133  1  0.31639170  -0.01275755  0.50718110  1
  Ta  Ta134  1  0.33562567  0.36614247  0.00047560  1
  Ta  Ta135  1  0.38072140  0.33761842  0.49848436  1
  Ta  Ta136  1  0.35840267  0.67270687  -0.00148933  1
  Ta  Ta137  1  0.33208335  0.71766032  0.49943782  1
  Ta  Ta138  1  0.70596298  0.00446500  -0.00008878  1
  Ta  Ta139  1  0.66755924  0.04746676  0.49274682  1
  Ta  Ta140  1  0.69727774  0.35969813  0.01143661  1
  Ta  Ta141  1  0.65628960  0.31561220  0.49263009  1
  Ta  Ta142  1  0.66947157  0.69687296  0.00264686  1
  Ta  Ta143  1  0.71075365  0.66975895  0.50426200  1
  N  N144  1  0.50136751  0.82755337  0.87138656  1
  N  N145  1  0.67099735  0.33432520  0.37201632  1
  N  N146  1  0.15439584  0.50787717  0.62089755  1
  N  N147  1  0.15712548  0.50346233  0.37216360  1
  N  N148  1  0.48978465  0.49598267  0.12948578  1
  N  N149  1  0.82835733  0.49688316  0.62805257  1
  N  N150  1  0.00606985  0.33457268  0.86783435  1
  N  N151  1  0.67142598  0.67265747  0.13239203  1
  N  N152  1  0.49805539  0.49354087  0.87593654  1
  N  N153  1  0.50008130  0.82313355  0.12712539  1
  N  N154  1  0.01036502  -0.00028012  0.62799427  1
  N  N155  1  0.33630268  0.67653752  0.37394992  1
  N  N156  1  0.83445241  0.82665037  0.62856710  1
  N  N157  1  0.33508307  0.00712671  0.62833931  1
  N  N158  1  -0.00126450  0.00700446  0.87554607  1
  N  N159  1  0.33944623  0.34117978  0.13029419  1
  N  N160  1  0.16073887  0.49782998  0.12481709  1
  N  N161  1  0.14917918  0.16328233  0.87305694  1
  N  N162  1  0.66759273  0.00640168  0.37469420  1
  N  N163  1  0.15705823  0.16159248  0.13195120  1
  N  N164  1  0.34147510  0.33575288  0.87467830  1
  N  N165  1  0.51373209  0.16374311  0.87610320  1
  N  N166  1  0.32161513  0.67882536  0.62264118  1
  N  N167  1  0.67002979  0.67717644  0.87294855  1
  N  N168  1  0.67780000  0.00246630  0.86794002  1
  N  N169  1  0.49312965  0.16229120  0.11663568  1
  N  N170  1  0.01379980  0.33511017  0.12692533  1
  N  N171  1  0.84784546  0.82148884  0.38102076  1
  N  N172  1  0.65420808  0.33688379  0.12675629  1
  N  N173  1  0.67371339  0.00396794  0.12139954  1
  N  N174  1  0.49682687  0.16444664  0.62569278  1
  N  N175  1  0.49564647  0.83193739  0.62300283  1
  N  N176  1  0.16267588  0.49938942  0.87201454  1
  O  O177  1  0.16881999  0.14068765  0.62841280  1
  O  O178  1  0.35580887  0.32788576  0.37272541  1
  O  O179  1  0.50479651  0.47542743  0.62105106  1
  O  O180  1  0.82670370  0.82509891  0.87216450  1
  O  O181  1  0.82690866  0.48852482  0.37407283  1
  O  O182  1  0.36027613  0.33026470  0.62139211  1
  O  O183  1  0.16502304  0.84724964  0.37926585  1
  O  O184  1  -0.00008392  0.68993270  0.12109222  1
  O  O185  1  0.82053723  0.16262808  0.62257386  1
  O  O186  1  0.01487260  -0.02071655  0.38383738  1
  O  O187  1  0.00755781  0.67353047  0.87316450  1
  O  O188  1  0.82481139  0.15694011  0.12133670  1
  O  O189  1  0.34948998  -0.00084437  0.11673348  1
  O  O190  1  0.68119267  0.67084263  0.37932176  1
  O  O191  1  0.66732469  0.00895335  0.61904254  1
  O  O192  1  0.67167478  0.34336732  0.62896790  1
  O  O193  1  0.83870260  0.48814632  0.12811973  1
  O  O194  1  0.69248398  0.66133234  0.62723904  1
  O  O195  1  0.82676017  0.14740540  0.86808531  1
  O  O196  1  0.17027030  0.82165116  0.87733883  1
  O  O197  1  0.33193883  0.67291734  0.87446296  1
  O  O198  1  0.82075821  0.50027656  0.87689344  1
  O  O199  1  0.84118464  0.83065479  0.12437303  1
  O  O200  1  -0.00174320  0.34503272  0.62160871  1
  O  O201  1  0.15036204  0.83162279  0.12399571  1
  O  O202  1  0.81007950  0.17370891  0.37196000  1
  O  O203  1  0.34129162  0.00854178  0.37019148  1
  O  O204  1  -0.00133635  0.36234758  0.37335069  1
  O  O205  1  0.50405606  0.47984274  0.37270598  1
  O  O206  1  0.00300771  0.65562756  0.62553049  1
  O  O207  1  0.17639659  0.83225054  0.62448062  1
  O  O208  1  0.16088773  0.15003221  0.38004712  1
  O  O209  1  0.49219610  0.16538508  0.36801409  1
  O  O210  1  -0.00430230  -0.00534297  0.13224945  1
  O  O211  1  0.34444528  0.67754090  0.12555781  1
  O  O212  1  0.31578020  0.00140761  0.87040606  1
  O  O213  1  0.49043312  0.83096855  0.37896064  1
  O  O214  1  -0.01039540  0.66955321  0.37949409  1
  O  O215  1  0.67245430  0.34539718  0.88560094  1
