# generated using pymatgen
data_Sr24Ta24N11O13
_symmetry_space_group_name_H-M   'P 1'
_cell_length_a   17.79334898
_cell_length_b   16.50505552
_cell_length_c   15.01764651
_cell_angle_alpha   89.83340238
_cell_angle_beta   88.94733366
_cell_angle_gamma   89.38076563
_symmetry_Int_Tables_number   1
_chemical_formula_structural   Sr24Ta24N11O13
_chemical_formula_sum   'Sr72 Ta72 N33 O39'
_cell_volume   4409.36756344
_cell_formula_units_Z   3
loop_
 _symmetry_equiv_pos_site_id
 _symmetry_equiv_pos_as_xyz
  1  'x, y, z'
loop_
 _atom_site_type_symbol
 _atom_site_label
 _atom_site_symmetry_multiplicity
 _atom_site_fract_x
 _atom_site_fract_y
 _atom_site_fract_z
 _atom_site_occupancy
  Sr  Sr0  1  0.05250289  0.16137608  0.08968642  1
  Sr  Sr1  1  0.00354768  0.17182480  0.66001694  1
  Sr  Sr2  1  0.00458542  0.49893681  0.11273152  1
  Sr  Sr3  1  0.04240257  0.49093138  0.59553772  1
  Sr  Sr4  1  0.03784782  0.84013133  0.13138771  1
  Sr  Sr5  1  -0.00040880  0.84391162  0.61249790  1
  Sr  Sr6  1  0.36322210  0.17792945  0.13427256  1
  Sr  Sr7  1  0.33113671  0.16853837  0.61153966  1
  Sr  Sr8  1  0.38705333  0.49951401  0.09860196  1
  Sr  Sr9  1  0.34052444  0.51485879  0.65338663  1
  Sr  Sr10  1  0.35182908  0.84017896  0.12049392  1
  Sr  Sr11  1  0.38220061  0.83739796  0.58943338  1
  Sr  Sr12  1  0.66300564  0.17238650  0.12106820  1
  Sr  Sr13  1  0.71157981  0.17371456  0.59240174  1
  Sr  Sr14  1  0.69207114  0.51265169  0.14077337  1
  Sr  Sr15  1  0.66767443  0.51287030  0.60918038  1
  Sr  Sr16  1  0.68030996  0.82135864  0.11061129  1
  Sr  Sr17  1  0.67560874  0.85389212  0.65004651  1
  Sr  Sr18  1  0.17333096  -0.00424378  0.10248855  1
  Sr  Sr19  1  0.11987212  0.00041055  0.65541673  1
  Sr  Sr20  1  0.15193329  0.33039969  0.13825933  1
  Sr  Sr21  1  0.15765065  0.31340548  0.61050587  1
  Sr  Sr22  1  0.12662896  0.65760492  0.13352767  1
  Sr  Sr23  1  0.15694531  0.65758377  0.63735842  1
  Sr  Sr24  1  0.47160272  -0.00148338  0.16186428  1
  Sr  Sr25  1  0.49361775  0.00458608  0.62779108  1
  Sr  Sr26  1  0.49810526  0.32449567  0.11258785  1
  Sr  Sr27  1  0.44336848  0.33303409  0.67509552  1
  Sr  Sr28  1  0.49600195  0.67879587  0.12871388  1
  Sr  Sr29  1  0.48702327  0.65238485  0.60613342  1
  Sr  Sr30  1  0.78072468  -0.00398161  0.14580727  1
  Sr  Sr31  1  0.82074686  -0.01404185  0.59834667  1
  Sr  Sr32  1  0.79054838  0.32749149  0.14794101  1
  Sr  Sr33  1  0.83439478  0.33707553  0.61952124  1
  Sr  Sr34  1  0.81781780  0.66520536  0.11482999  1
  Sr  Sr35  1  0.78083908  0.67403407  0.67444594  1
  Sr  Sr36  1  0.03520268  0.16370362  0.32094041  1
  Sr  Sr37  1  0.00123556  0.16551707  0.87510516  1
  Sr  Sr38  1  0.01634675  0.48289880  0.37015922  1
  Sr  Sr39  1  0.01043825  0.50882243  0.89350614  1
  Sr  Sr40  1  0.00629050  0.83839600  0.38809346  1
  Sr  Sr41  1  0.03827619  0.83185692  0.84691192  1
  Sr  Sr42  1  0.33125696  0.17752141  0.38892295  1
  Sr  Sr43  1  0.38298679  0.16651469  0.82871491  1
  Sr  Sr44  1  0.36439264  0.51247713  0.35656379  1
  Sr  Sr45  1  0.34032832  0.50511492  0.86602564  1
  Sr  Sr46  1  0.34509001  0.83199527  0.36380437  1
  Sr  Sr47  1  0.34843670  0.84931405  0.88906735  1
  Sr  Sr48  1  0.70648848  0.17818192  0.36318864  1
  Sr  Sr49  1  0.67863870  0.18450012  0.89771213  1
  Sr  Sr50  1  0.68320408  0.49002399  0.39054823  1
  Sr  Sr51  1  0.71524620  0.49981537  0.82414942  1
  Sr  Sr52  1  0.71180075  0.84558877  0.35195047  1
  Sr  Sr53  1  0.67409957  0.83000497  0.87360431  1
  Sr  Sr54  1  0.14078531  -0.01731398  0.35504629  1
  Sr  Sr55  1  0.14756541  -0.00403602  0.88569739  1
  Sr  Sr56  1  0.16143345  0.33275708  0.37257044  1
  Sr  Sr57  1  0.11768663  0.32695439  0.92466993  1
  Sr  Sr58  1  0.13423836  0.66146315  0.38378926  1
  Sr  Sr59  1  0.15608174  0.64777358  0.85740803  1
  Sr  Sr60  1  0.44858824  0.01119437  0.40462695  1
  Sr  Sr61  1  0.49656078  -0.00637700  0.83978133  1
  Sr  Sr62  1  0.46865420  0.32668432  0.36786696  1
  Sr  Sr63  1  0.49877949  0.32662466  0.89223636  1
  Sr  Sr64  1  0.48677018  0.66265065  0.38333614  1
  Sr  Sr65  1  0.45789658  0.67015119  0.90865411  1
  Sr  Sr66  1  0.83801368  -0.00445121  0.37844523  1
  Sr  Sr67  1  0.79037006  -0.00682350  0.91017627  1
  Sr  Sr68  1  0.83524554  0.34107800  0.38489375  1
  Sr  Sr69  1  0.82423243  0.31891089  0.84473449  1
  Sr  Sr70  1  0.80336989  0.65787350  0.36364685  1
  Sr  Sr71  1  0.82824201  0.66332569  0.88900113  1
  Ta  Ta72  1  0.23217853  0.17099618  -0.02538114  1
  Ta  Ta73  1  0.14421230  0.14273929  0.50156536  1
  Ta  Ta74  1  0.20725385  0.49507006  0.01410585  1
  Ta  Ta75  1  0.21625224  0.50084180  0.49926885  1
  Ta  Ta76  1  0.18656026  0.80282004  -0.00683942  1
  Ta  Ta77  1  0.20350873  0.82878285  0.51917366  1
  Ta  Ta78  1  0.50753534  0.12921040  -0.00327204  1
  Ta  Ta79  1  0.52675406  0.18277669  0.52932319  1
  Ta  Ta80  1  0.56029497  0.50651400  -0.02128259  1
  Ta  Ta81  1  0.49882500  0.46233812  0.51200489  1
  Ta  Ta82  1  0.51962814  0.86432736  0.00734874  1
  Ta  Ta83  1  0.55771465  0.84666291  0.48047232  1
  Ta  Ta84  1  0.86334166  0.15955922  0.02449186  1
  Ta  Ta85  1  0.88603928  0.16524091  0.48861180  1
  Ta  Ta86  1  0.83522363  0.47031670  -0.01028389  1
  Ta  Ta87  1  0.86089823  0.52482040  0.52009550  1
  Ta  Ta88  1  0.88101392  0.83699363  -0.00091132  1
  Ta  Ta89  1  0.83411135  0.79420572  0.50996758  1
  Ta  Ta90  1  0.20852675  0.15846125  0.23554098  1
  Ta  Ta91  1  0.19057900  0.16942603  0.77898415  1
  Ta  Ta92  1  0.21809058  0.50437727  0.22795312  1
  Ta  Ta93  1  0.16806434  0.45548191  0.76653008  1
  Ta  Ta94  1  0.20028372  0.81550514  0.24530157  1
  Ta  Ta95  1  0.21992786  0.83851637  0.72232187  1
  Ta  Ta96  1  0.52891383  0.16372830  0.26534274  1
  Ta  Ta97  1  0.55816726  0.17766321  0.73342587  1
  Ta  Ta98  1  0.53817070  0.49296877  0.25580014  1
  Ta  Ta99  1  0.53099078  0.50590591  0.77706899  1
  Ta  Ta100  1  0.54338115  0.83757884  0.26925620  1
  Ta  Ta101  1  0.50440264  0.80253920  0.75374497  1
  Ta  Ta102  1  0.87829733  0.16354952  0.22078092  1
  Ta  Ta103  1  0.83261106  0.12552384  0.75690121  1
  Ta  Ta104  1  0.86727872  0.50148276  0.25508460  1
  Ta  Ta105  1  0.89116976  0.50884252  0.73009142  1
  Ta  Ta106  1  0.87628425  0.82608906  0.24459826  1
  Ta  Ta107  1  0.86062540  0.84404108  0.76587391  1
  Ta  Ta108  1  -0.03578335  0.00003111  0.22359752  1
  Ta  Ta109  1  -0.05653234  -0.00389007  0.76438872  1
  Ta  Ta110  1  -0.03413071  0.32744216  0.22295222  1
  Ta  Ta111  1  0.00255506  0.35973377  0.75364291  1
  Ta  Ta112  1  -0.03870494  0.66614728  0.25694419  1
  Ta  Ta113  1  -0.03759093  0.66150030  0.72435147  1
  Ta  Ta114  1  0.29814275  0.00977416  0.25192475  1
  Ta  Ta115  1  0.30137180  -0.00824136  0.72583010  1
  Ta  Ta116  1  0.31043753  0.34977167  0.23845577  1
  Ta  Ta117  1  0.27008443  0.32236885  0.78168653  1
  Ta  Ta118  1  0.29230465  0.66301900  0.22647337  1
  Ta  Ta119  1  0.32757152  0.70623608  0.74780488  1
  Ta  Ta120  1  0.61681373  0.00456361  0.28348851  1
  Ta  Ta121  1  0.67231232  0.04080597  0.74137984  1
  Ta  Ta122  1  0.62540768  0.33893003  0.25900297  1
  Ta  Ta123  1  0.63075301  0.33343425  0.73060738  1
  Ta  Ta124  1  0.63612403  0.67132725  0.25634113  1
  Ta  Ta125  1  0.60659174  0.66149467  0.76795711  1
  Ta  Ta126  1  -0.04304920  -0.00322153  0.01825598  1
  Ta  Ta127  1  -0.00268434  0.04357525  0.48680725  1
  Ta  Ta128  1  -0.06013838  0.32449848  0.01228577  1
  Ta  Ta129  1  -0.00140151  0.28548288  0.48300694  1
  Ta  Ta130  1  -0.01428730  0.69609463  -0.00803486  1
  Ta  Ta131  1  -0.05750648  0.66212203  0.52207109  1
  Ta  Ta132  1  0.34699548  0.02898549  -0.00707482  1
  Ta  Ta133  1  0.27010617  -0.00721625  0.51440698  1
  Ta  Ta134  1  0.30628082  0.33156914  -0.02204068  1
  Ta  Ta135  1  0.32093426  0.36938085  0.50155981  1
  Ta  Ta136  1  0.28581108  0.66220900  0.00893484  1
  Ta  Ta137  1  0.29904134  0.66559181  0.49995805  1
  Ta  Ta138  1  0.61544964  0.00118729  0.00686575  1
  Ta  Ta139  1  0.63360676  0.00409765  0.48500044  1
  Ta  Ta140  1  0.67009992  0.37479002  -0.01581875  1
  Ta  Ta141  1  0.60752738  0.33039377  0.52479468  1
  Ta  Ta142  1  0.64239046  0.64566156  -0.03092692  1
  Ta  Ta143  1  0.65582380  0.70734553  0.50682640  1
  N  N144  1  0.66787666  0.33987736  0.85913711  1
  N  N145  1  0.85413646  0.82884775  0.37563112  1
  N  N146  1  -0.00809092  0.00540049  0.36179123  1
  N  N147  1  -0.00372980  0.32169331  0.35674493  1
  N  N148  1  0.47279649  0.17177521  0.64810961  1
  N  N149  1  0.51347742  0.83723982  0.14493277  1
  N  N150  1  0.82942342  0.83249129  0.63546838  1
  N  N151  1  0.35797861  0.33715047  0.86217624  1
  N  N152  1  0.01841750  0.33258699  0.10051123  1
  N  N153  1  0.32133551  0.34177296  0.37044085  1
  N  N154  1  0.52332842  0.16581920  0.87193642  1
  N  N155  1  0.85503208  0.49670543  0.86421078  1
  N  N156  1  0.79907374  0.15513768  0.13167785  1
  N  N157  1  0.85448413  0.49950199  0.39157455  1
  N  N158  1  0.51070017  0.49935518  0.38761057  1
  N  N159  1  0.19748761  0.17057995  0.10697306  1
  N  N160  1  0.64193649  0.67316183  0.62921881  1
  N  N161  1  0.35074267  0.00524225  0.60929739  1
  N  N162  1  0.82040699  0.83055583  0.89293915  1
  N  N163  1  0.66513525  0.01234041  0.60850107  1
  N  N164  1  0.49934294  0.83436636  0.87929412  1
  N  N165  1  0.18257567  0.83870071  0.11751335  1
  N  N166  1  0.30340473  0.00029237  0.39136852  1
  N  N167  1  0.33139506  0.00230830  0.11690666  1
  N  N168  1  0.14218583  0.15671863  0.89923006  1
  N  N169  1  0.47788624  0.49858173  0.89086300  1
  N  N170  1  -0.02100226  0.33101123  0.87642998  1
  N  N171  1  0.34026671  0.66802768  0.61940390  1
  N  N172  1  0.16405570  0.49337266  0.89699375  1
  N  N173  1  0.69233665  0.66648877  0.85167363  1
  N  N174  1  0.31296222  0.67029716  0.88014854  1
  N  N175  1  0.02918609  0.00216750  0.11583148  1
  N  N176  1  0.51116584  0.16350635  0.13840987  1
  O  O177  1  0.82766689  0.14858100  0.88960216  1
  O  O178  1  0.69440336  0.35211700  0.62033888  1
  O  O179  1  0.14080115  0.49366068  0.13202149  1
  O  O180  1  -0.01781663  0.66534064  0.38532721  1
  O  O181  1  0.17431175  0.16083991  0.37526215  1
  O  O182  1  -0.02160136  0.00396848  0.62987671  1
  O  O183  1  0.64818582  0.00584930  0.86847329  1
  O  O184  1  0.85816261  0.16713616  0.35429188  1
  O  O185  1  0.85496914  0.15332719  0.62792754  1
  O  O186  1  0.13705480  0.81858493  0.63396952  1
  O  O187  1  0.35991424  0.66113490  0.11688389  1
  O  O188  1  0.18793153  0.49751925  0.63678556  1
  O  O189  1  0.35282916  0.34029324  0.11074329  1
  O  O190  1  0.30463454  0.32419160  0.62938909  1
  O  O191  1  0.64520149  0.66687048  0.12016501  1
  O  O192  1  0.48802041  0.49810622  0.64363020  1
  O  O193  1  0.02398127  0.68338092  0.61105109  1
  O  O194  1  -0.00989397  0.67731878  0.85905482  1
  O  O195  1  0.82214066  0.82456713  0.12601073  1
  O  O196  1  -0.00196218  0.00373874  0.88145924  1
  O  O197  1  0.64760807  0.33936010  0.12352513  1
  O  O198  1  0.14992244  0.15652027  0.63800123  1
  O  O199  1  0.47999069  0.82271531  0.38891532  1
  O  O200  1  0.63358095  0.00402571  0.14189805  1
  O  O201  1  0.52751084  0.50500875  0.12006996  1
  O  O202  1  0.70177197  0.02129766  0.36926988  1
  O  O203  1  0.18977812  0.82193116  0.38473854  1
  O  O204  1  0.31459371  0.66624429  0.36232722  1
  O  O205  1  0.48934725  0.17096166  0.40209752  1
  O  O206  1  0.00907409  0.32475495  0.61824815  1
  O  O207  1  0.18401681  0.83762217  0.86236443  1
  O  O208  1  -0.02107585  0.66708238  0.11977606  1
  O  O209  1  0.52311608  0.84433195  0.62431759  1
  O  O210  1  0.34497024  0.00161092  0.85205414  1
  O  O211  1  0.20343481  0.50747070  0.36668308  1
  O  O212  1  0.63885158  0.33097842  0.39336088  1
  O  O213  1  0.65155418  0.64547752  0.38428994  1
  O  O214  1  0.83864767  0.50758241  0.12297690  1
  O  O215  1  0.80470345  0.49668133  0.64325297  1
