# generated using pymatgen
data_Sr24Ta24N11O13
_symmetry_space_group_name_H-M   'P 1'
_cell_length_a   16.80871326
_cell_length_b   16.82569166
_cell_length_c   15.79325118
_cell_angle_alpha   90.04270330
_cell_angle_beta   90.09106947
_cell_angle_gamma   89.99184289
_symmetry_Int_Tables_number   1
_chemical_formula_structural   Sr24Ta24N11O13
_chemical_formula_sum   'Sr72 Ta72 N33 O39'
_cell_volume   4466.61236184
_cell_formula_units_Z   3
loop_
 _symmetry_equiv_pos_site_id
 _symmetry_equiv_pos_as_xyz
  1  'x, y, z'
loop_
 _atom_site_type_symbol
 _atom_site_label
 _atom_site_symmetry_multiplicity
 _atom_site_fract_x
 _atom_site_fract_y
 _atom_site_fract_z
 _atom_site_occupancy
  Sr  Sr0  1  -0.00052723  0.18301100  0.12315502  1
  Sr  Sr1  1  -0.00655412  0.17121411  0.64390178  1
  Sr  Sr2  1  -0.01445216  0.51365171  0.17301148  1
  Sr  Sr3  1  -0.00347309  0.49882944  0.61522851  1
  Sr  Sr4  1  0.00568840  0.83443078  0.09975412  1
  Sr  Sr5  1  0.02527635  0.85393710  0.60631916  1
  Sr  Sr6  1  0.33089940  0.17149627  0.11360360  1
  Sr  Sr7  1  0.33775940  0.18017718  0.61272889  1
  Sr  Sr8  1  0.31495024  0.51098008  0.11007269  1
  Sr  Sr9  1  0.34471112  0.51009427  0.66699820  1
  Sr  Sr10  1  0.35836318  0.84615898  0.12488735  1
  Sr  Sr11  1  0.34398394  0.84330430  0.64139760  1
  Sr  Sr12  1  0.66841911  0.17739947  0.12005077  1
  Sr  Sr13  1  0.66688092  0.19282029  0.64549148  1
  Sr  Sr14  1  0.67333574  0.51465046  0.10091281  1
  Sr  Sr15  1  0.66006102  0.50548549  0.60078891  1
  Sr  Sr16  1  0.69144424  0.83390066  0.16772677  1
  Sr  Sr17  1  0.68124479  0.83730450  0.61350584  1
  Sr  Sr18  1  0.16103367  -0.00472912  0.15430509  1
  Sr  Sr19  1  0.17261903  0.00119893  0.63471437  1
  Sr  Sr20  1  0.16790763  0.32439484  0.09546480  1
  Sr  Sr21  1  0.15725571  0.33105406  0.59997307  1
  Sr  Sr22  1  0.14889053  0.65219407  0.12069162  1
  Sr  Sr23  1  0.15668488  0.64729773  0.61577645  1
  Sr  Sr24  1  0.50895947  -0.00794023  0.10743768  1
  Sr  Sr25  1  0.50401715  -0.02440054  0.61846987  1
  Sr  Sr26  1  0.48638404  0.32557874  0.16831491  1
  Sr  Sr27  1  0.50778748  0.34035552  0.61288822  1
  Sr  Sr28  1  0.48261959  0.66100859  0.11422139  1
  Sr  Sr29  1  0.46999257  0.66344211  0.65483231  1
  Sr  Sr30  1  0.83841584  -0.02157696  0.11494088  1
  Sr  Sr31  1  0.83253088  -0.01249689  0.60437456  1
  Sr  Sr32  1  0.83216099  0.32662672  0.11727150  1
  Sr  Sr33  1  0.84257905  0.31361510  0.66520899  1
  Sr  Sr34  1  0.83013792  0.66312052  0.14386524  1
  Sr  Sr35  1  0.81901704  0.65604120  0.62188029  1
  Sr  Sr36  1  -0.00644179  0.17248294  0.35721485  1
  Sr  Sr37  1  -0.00254747  0.18341399  0.87607321  1
  Sr  Sr38  1  -0.00570673  0.49950529  0.38618187  1
  Sr  Sr39  1  -0.01420749  0.51224298  0.83395027  1
  Sr  Sr40  1  0.02947677  0.85894171  0.39138716  1
  Sr  Sr41  1  0.01076682  0.83692116  0.89467789  1
  Sr  Sr42  1  0.33790911  0.18190481  0.38582624  1
  Sr  Sr43  1  0.33482280  0.17230115  0.88519478  1
  Sr  Sr44  1  0.34406812  0.51133490  0.33603404  1
  Sr  Sr45  1  0.32757687  0.50610088  0.88345117  1
  Sr  Sr46  1  0.34295386  0.84102447  0.36277027  1
  Sr  Sr47  1  0.35688120  0.84668790  0.87026257  1
  Sr  Sr48  1  0.66603983  0.19032534  0.35737347  1
  Sr  Sr49  1  0.66803044  0.16795815  0.88501733  1
  Sr  Sr50  1  0.66011204  0.50609937  0.40168010  1
  Sr  Sr51  1  0.67378920  0.51245632  0.90114930  1
  Sr  Sr52  1  0.67518801  0.83725436  0.38739761  1
  Sr  Sr53  1  0.69574908  0.83399520  0.83558599  1
  Sr  Sr54  1  0.17339571  0.00532868  0.36360268  1
  Sr  Sr55  1  0.16352170  -0.00936325  0.84342245  1
  Sr  Sr56  1  0.16059370  0.33000010  0.40029974  1
  Sr  Sr57  1  0.17080363  0.32740617  0.90288010  1
  Sr  Sr58  1  0.15809060  0.64772985  0.38303830  1
  Sr  Sr59  1  0.14835140  0.65307534  0.88469081  1
  Sr  Sr60  1  0.50681214  -0.02312265  0.38555555  1
  Sr  Sr61  1  0.50474743  -0.00670427  0.89286008  1
  Sr  Sr62  1  0.50687050  0.33908722  0.38759953  1
  Sr  Sr63  1  0.48789390  0.32482936  0.82653466  1
  Sr  Sr64  1  0.47128531  0.66527501  0.35091990  1
  Sr  Sr65  1  0.48503186  0.65762898  0.88987703  1
  Sr  Sr66  1  0.82956036  -0.00966946  0.39505320  1
  Sr  Sr67  1  0.83708461  -0.02331866  0.88241764  1
  Sr  Sr68  1  0.84122005  0.31319865  0.33823003  1
  Sr  Sr69  1  0.83047123  0.31929168  0.88365463  1
  Sr  Sr70  1  0.81363765  0.64880830  0.38018162  1
  Sr  Sr71  1  0.83153392  0.66405291  0.86199784  1
  Ta  Ta72  1  0.16016834  0.12460547  0.00152468  1
  Ta  Ta73  1  0.14905221  0.15023085  0.49928651  1
  Ta  Ta74  1  0.10655206  0.49741579  0.00519568  1
  Ta  Ta75  1  0.22613143  0.49691308  0.50022881  1
  Ta  Ta76  1  0.19467267  0.84426453  -0.00335756  1
  Ta  Ta77  1  0.20239995  0.83253227  0.50101320  1
  Ta  Ta78  1  0.50086860  0.20670988  -0.00389099  1
  Ta  Ta79  1  0.51738546  0.14271758  0.50120406  1
  Ta  Ta80  1  0.49490327  0.45950104  -0.00517304  1
  Ta  Ta81  1  0.46841376  0.52095500  0.50635423  1
  Ta  Ta82  1  0.56401504  0.82255012  -0.00280602  1
  Ta  Ta83  1  0.49238817  0.79573468  0.50711498  1
  Ta  Ta84  1  0.84285754  0.13297053  -0.00478917  1
  Ta  Ta85  1  0.82581836  0.17930706  0.50298035  1
  Ta  Ta86  1  0.87440075  0.50445653  0.00322877  1
  Ta  Ta87  1  0.83279289  0.44563753  0.49740533  1
  Ta  Ta88  1  0.80813649  0.81315521  0.00543568  1
  Ta  Ta89  1  0.86446238  0.80806644  0.49547831  1
  Ta  Ta90  1  0.17434602  0.19601451  0.24400681  1
  Ta  Ta91  1  0.17387699  0.19229372  0.75228934  1
  Ta  Ta92  1  0.16687308  0.46230566  0.24523838  1
  Ta  Ta93  1  0.16739388  0.46557866  0.75302902  1
  Ta  Ta94  1  0.16466820  0.80882251  0.24631718  1
  Ta  Ta95  1  0.16373429  0.80482455  0.75447570  1
  Ta  Ta96  1  0.49823788  0.13226981  0.24683260  1
  Ta  Ta97  1  0.50055308  0.13247321  0.75512182  1
  Ta  Ta98  1  0.53549942  0.50441762  0.24748927  1
  Ta  Ta99  1  0.53731892  0.50451707  0.75384052  1
  Ta  Ta100  1  0.52030265  0.82594296  0.24237858  1
  Ta  Ta101  1  0.52790924  0.81786060  0.75642884  1
  Ta  Ta102  1  0.82735795  0.12114165  0.25239981  1
  Ta  Ta103  1  0.82767726  0.12102646  0.75057020  1
  Ta  Ta104  1  0.79620295  0.48844975  0.25631421  1
  Ta  Ta105  1  0.79982162  0.49170935  0.74751523  1
  Ta  Ta106  1  0.87829899  0.83317424  0.25437099  1
  Ta  Ta107  1  0.87967176  0.82995979  0.73799659  1
  Ta  Ta108  1  -0.02514923  -0.00479432  0.25451796  1
  Ta  Ta109  1  -0.02377734  -0.00707383  0.74451412  1
  Ta  Ta110  1  0.03669979  0.33974958  0.24488457  1
  Ta  Ta111  1  0.03628561  0.33909930  0.75385131  1
  Ta  Ta112  1  0.00063690  0.70905359  0.25407506  1
  Ta  Ta113  1  0.00108600  0.70401992  0.74614645  1
  Ta  Ta114  1  0.35701117  0.02306011  0.24655079  1
  Ta  Ta115  1  0.35328158  0.02779358  0.75278870  1
  Ta  Ta116  1  0.29448900  0.33358193  0.24792075  1
  Ta  Ta117  1  0.29458351  0.33265867  0.75294993  1
  Ta  Ta118  1  0.29778121  0.69015927  0.24338344  1
  Ta  Ta119  1  0.29602116  0.68774328  0.75841617  1
  Ta  Ta120  1  0.66249993  0.01880515  0.25440188  1
  Ta  Ta121  1  0.66534938  0.01689824  0.75255693  1
  Ta  Ta122  1  0.66413947  0.37419802  0.25324924  1
  Ta  Ta123  1  0.67006245  0.37535858  0.74859616  1
  Ta  Ta124  1  0.64275830  0.65065932  0.25676674  1
  Ta  Ta125  1  0.64776867  0.65300971  0.74952603  1
  Ta  Ta126  1  0.01704919  0.02127857  -0.00119388  1
  Ta  Ta127  1  0.01503223  0.03823043  0.50013070  1
  Ta  Ta128  1  -0.00985470  0.37976838  0.00000832  1
  Ta  Ta129  1  -0.03429443  0.32211425  0.50475187  1
  Ta  Ta130  1  -0.01915627  0.63660342  0.00742749  1
  Ta  Ta131  1  -0.01709152  0.68911171  0.49292536  1
  Ta  Ta132  1  0.29383298  -0.00113043  -0.00531310  1
  Ta  Ta133  1  0.32683999  0.00029651  0.50352381  1
  Ta  Ta134  1  0.37717948  0.33804512  -0.00474724  1
  Ta  Ta135  1  0.33632971  0.38002264  0.50196505  1
  Ta  Ta136  1  0.30502997  0.69824467  -0.00268283  1
  Ta  Ta137  1  0.33165853  0.66395660  0.50375834  1
  Ta  Ta138  1  0.68056252  -0.03635660  -0.00211547  1
  Ta  Ta139  1  0.66220171  0.04615044  0.49972525  1
  Ta  Ta140  1  0.61139212  0.33747751  -0.00178471  1
  Ta  Ta141  1  0.70851564  0.33142013  0.50038809  1
  Ta  Ta142  1  0.67705820  0.70234125  0.00270255  1
  Ta  Ta143  1  0.60826195  0.67509174  0.50032956  1
  N  N144  1  0.66728548  0.00579697  0.37638093  1
  N  N145  1  0.67239493  0.34594953  0.62456732  1
  N  N146  1  0.51448190  0.82998626  0.88370530  1
  N  N147  1  0.49904430  0.49621013  0.87165363  1
  N  N148  1  0.83161811  0.15427487  0.36948439  1
  N  N149  1  0.00022530  0.00477343  0.62454848  1
  N  N150  1  0.33160815  0.00906279  0.62434388  1
  N  N151  1  0.64707255  0.66815434  0.37938805  1
  N  N152  1  0.83650273  0.15807248  0.87606825  1
  N  N153  1  0.51635856  0.83030506  0.12104641  1
  N  N154  1  -0.00230772  0.34134884  0.12956617  1
  N  N155  1  -0.00819689  0.67128727  0.12838282  1
  N  N156  1  -0.00325764  0.34306886  0.86964571  1
  N  N157  1  0.66888429  0.34403589  0.37551410  1
  N  N158  1  0.16678847  0.16437930  0.12466693  1
  N  N159  1  0.83190025  0.48624532  0.37332020  1
  N  N160  1  0.31647007  0.67058140  0.36595871  1
  N  N161  1  0.32490047  0.66846212  0.11818240  1
  N  N162  1  0.50499786  0.16499386  0.87635320  1
  N  N163  1  0.49957777  0.82154999  0.62904229  1
  N  N164  1  0.32433924  0.00179644  0.87393450  1
  N  N165  1  0.49753446  0.50363499  0.62412784  1
  N  N166  1  0.16522194  0.83469142  0.87484131  1
  N  N167  1  0.00156970  0.00892853  0.37347701  1
  N  N168  1  0.84472838  0.82381180  0.12700083  1
  N  N169  1  0.66939504  -0.00398353  0.87399177  1
  N  N170  1  -0.00244952  0.33285911  0.62340041  1
  N  N171  1  0.31583461  0.66890165  0.63081726  1
  N  N172  1  0.84325370  0.82792634  0.61919278  1
  N  N173  1  0.32800033  0.66226390  0.87731889  1
  N  N174  1  0.33581960  0.33429467  0.86950421  1
  N  N175  1  0.83170740  0.15581930  0.62744798  1
  N  N176  1  0.14902716  0.49289445  0.12481938  1
  O  O177  1  0.33440189  0.33072460  0.12550162  1
  O  O178  1  0.83158615  0.49728909  0.12642163  1
  O  O179  1  0.19033827  0.49372148  0.37548526  1
  O  O180  1  0.18389604  0.82572593  0.37721497  1
  O  O181  1  0.64361819  0.34354195  0.12275725  1
  O  O182  1  0.32325356  0.35108485  0.37005731  1
  O  O183  1  0.51773118  0.49901398  0.12197749  1
  O  O184  1  0.50476706  0.16657982  0.12531916  1
  O  O185  1  0.15874369  0.83419124  0.12386086  1
  O  O186  1  0.33854014  0.35475487  0.62922623  1
  O  O187  1  -0.00787108  0.67579230  0.87201653  1
  O  O188  1  0.16231783  0.16699482  0.37484751  1
  O  O189  1  0.65273756  0.34876830  0.88008007  1
  O  O190  1  0.67229619  0.66869157  0.87229230  1
  O  O191  1  0.66794457  0.00382055  0.61731978  1
  O  O192  1  0.82831612  0.83095048  0.37056652  1
  O  O193  1  0.18293475  0.83557005  0.62409512  1
  O  O194  1  0.16774882  0.16805150  0.87742004  1
  O  O195  1  0.15110726  0.48816289  0.87756571  1
  O  O196  1  0.50142438  0.50281380  0.37216086  1
  O  O197  1  0.66877509  -0.00428268  0.12032794  1
  O  O198  1  0.18429635  0.48930969  0.62810785  1
  O  O199  1  0.67281442  0.67424532  0.12942918  1
  O  O200  1  0.49624062  0.82312467  0.37375485  1
  O  O201  1  0.82735825  0.48882081  0.62392494  1
  O  O202  1  0.34332749  0.01737415  0.37008817  1
  O  O203  1  0.16326187  0.17197940  0.62893366  1
  O  O204  1  0.82629041  0.14712191  0.12352168  1
  O  O205  1  -0.00853054  0.65564194  0.36698764  1
  O  O206  1  0.49848873  0.14209413  0.37765436  1
  O  O207  1  0.65307943  0.66437796  0.62247986  1
  O  O208  1  0.00510643  0.33617688  0.37822463  1
  O  O209  1  0.82847117  0.50533335  0.87209036  1
  O  O210  1  0.00298367  0.68585334  0.61677226  1
  O  O211  1  0.33198964  0.00835938  0.12344887  1
  O  O212  1  0.00726743  0.00060231  0.87469075  1
  O  O213  1  0.84307316  0.82057542  0.87736998  1
  O  O214  1  0.00482322  0.00497833  0.12387468  1
  O  O215  1  0.50511012  0.15442424  0.62428433  1
