# generated using pymatgen
data_Sr24Ta24N11O13
_symmetry_space_group_name_H-M   'P 1'
_cell_length_a   16.70758905
_cell_length_b   16.91534225
_cell_length_c   15.68660101
_cell_angle_alpha   90.01607417
_cell_angle_beta   90.02522967
_cell_angle_gamma   90.39659373
_symmetry_Int_Tables_number   1
_chemical_formula_structural   Sr24Ta24N11O13
_chemical_formula_sum   'Sr72 Ta72 N33 O39'
_cell_volume   4433.15545192
_cell_formula_units_Z   3
loop_
 _symmetry_equiv_pos_site_id
 _symmetry_equiv_pos_as_xyz
  1  'x, y, z'
loop_
 _atom_site_type_symbol
 _atom_site_label
 _atom_site_symmetry_multiplicity
 _atom_site_fract_x
 _atom_site_fract_y
 _atom_site_fract_z
 _atom_site_occupancy
  Sr  Sr0  1  -0.01666098  0.14817680  0.14391761  1
  Sr  Sr1  1  0.00970182  0.17153645  0.58482757  1
  Sr  Sr2  1  -0.01108813  0.50319965  0.11530676  1
  Sr  Sr3  1  0.01525851  0.48360818  0.65064454  1
  Sr  Sr4  1  0.00981583  0.82503881  0.10165036  1
  Sr  Sr5  1  0.00091643  0.84616711  0.63375967  1
  Sr  Sr6  1  0.33442000  0.14560842  0.11675792  1
  Sr  Sr7  1  0.33348109  0.16389931  0.66576595  1
  Sr  Sr8  1  0.34649599  0.49132790  0.11228071  1
  Sr  Sr9  1  0.33986348  0.46200922  0.58624251  1
  Sr  Sr10  1  0.32745291  0.79789997  0.15439088  1
  Sr  Sr11  1  0.34691619  0.83105646  0.60283139  1
  Sr  Sr12  1  0.66584311  0.16652773  0.09318483  1
  Sr  Sr13  1  0.68108950  0.14875454  0.62063998  1
  Sr  Sr14  1  0.65859570  0.46039472  0.16951396  1
  Sr  Sr15  1  0.66559103  0.51037077  0.61729943  1
  Sr  Sr16  1  0.66139964  0.82952384  0.12140983  1
  Sr  Sr17  1  0.67083918  0.83031897  0.66456937  1
  Sr  Sr18  1  0.15522108  0.00341088  0.11020450  1
  Sr  Sr19  1  0.17339923  0.02348927  0.64470416  1
  Sr  Sr20  1  0.17180414  0.37619922  0.08783238  1
  Sr  Sr21  1  0.15941926  0.32945332  0.62855629  1
  Sr  Sr22  1  0.15842059  0.66772834  0.16343379  1
  Sr  Sr23  1  0.16554146  0.70576855  0.61093609  1
  Sr  Sr24  1  0.50543627  0.02410536  0.10966188  1
  Sr  Sr25  1  0.48998560  0.01550683  0.60341152  1
  Sr  Sr26  1  0.48240691  0.34070250  0.15910846  1
  Sr  Sr27  1  0.51904936  0.34122497  0.61175758  1
  Sr  Sr28  1  0.49556742  0.67366354  0.10951825  1
  Sr  Sr29  1  0.51085989  0.68751872  0.65596878  1
  Sr  Sr30  1  0.82532021  -0.00721076  0.17297205  1
  Sr  Sr31  1  0.84779703  0.00841123  0.60893391  1
  Sr  Sr32  1  0.83524288  0.31974110  0.11220601  1
  Sr  Sr33  1  0.83614849  0.35996435  0.66255614  1
  Sr  Sr34  1  0.82364658  0.68738706  0.11700601  1
  Sr  Sr35  1  0.82944829  0.65942922  0.59108340  1
  Sr  Sr36  1  -0.00203954  0.17314546  0.36568346  1
  Sr  Sr37  1  -0.01215385  0.16011104  0.91220911  1
  Sr  Sr38  1  0.00775491  0.49894913  0.35185748  1
  Sr  Sr39  1  0.00082645  0.49276464  0.87748572  1
  Sr  Sr40  1  -0.00198552  0.81016953  0.41185858  1
  Sr  Sr41  1  0.00943336  0.84186254  0.86689503  1
  Sr  Sr42  1  0.34356377  0.16134096  0.32898749  1
  Sr  Sr43  1  0.32720275  0.15860521  0.87414492  1
  Sr  Sr44  1  0.34292845  0.47414148  0.38335646  1
  Sr  Sr45  1  0.34144841  0.49062669  0.90458085  1
  Sr  Sr46  1  0.33176310  0.82807056  0.38708706  1
  Sr  Sr47  1  0.34111510  0.79344806  0.84866032  1
  Sr  Sr48  1  0.65264781  0.15346714  0.41847785  1
  Sr  Sr49  1  0.67838617  0.15915500  0.88064582  1
  Sr  Sr50  1  0.66922995  0.49786630  0.39117956  1
  Sr  Sr51  1  0.65676548  0.48134780  0.83360745  1
  Sr  Sr52  1  0.67794508  0.83390275  0.33011989  1
  Sr  Sr53  1  0.65482304  0.81598024  0.89112924  1
  Sr  Sr54  1  0.17049195  0.03635476  0.33385554  1
  Sr  Sr55  1  0.15806903  0.00596952  0.89011535  1
  Sr  Sr56  1  0.15512919  0.35037608  0.41914708  1
  Sr  Sr57  1  0.16558344  0.35471266  0.86388648  1
  Sr  Sr58  1  0.16697988  0.67905609  0.37475110  1
  Sr  Sr59  1  0.15551466  0.67919819  0.82776472  1
  Sr  Sr60  1  0.49247548  0.01336234  0.38875842  1
  Sr  Sr61  1  0.49188637  0.02903835  0.89863867  1
  Sr  Sr62  1  0.51605575  0.34589484  0.38568366  1
  Sr  Sr63  1  0.49627884  0.33763216  0.84879083  1
  Sr  Sr64  1  0.49752356  0.69790796  0.35791013  1
  Sr  Sr65  1  0.50256134  0.65353656  0.88180351  1
  Sr  Sr66  1  0.83736114  0.00623685  0.38686606  1
  Sr  Sr67  1  0.82471510  -0.02357311  0.82724028  1
  Sr  Sr68  1  0.85178639  0.34707999  0.32456008  1
  Sr  Sr69  1  0.83482150  0.33587746  0.88486120  1
  Sr  Sr70  1  0.82360133  0.66808118  0.38460573  1
  Sr  Sr71  1  0.85100875  0.67433958  0.92302680  1
  Ta  Ta72  1  0.16275459  0.20172798  0.00592049  1
  Ta  Ta73  1  0.20108147  0.16214118  0.49125800  1
  Ta  Ta74  1  0.16757301  0.55023140  -0.01263552  1
  Ta  Ta75  1  0.16888461  0.53420942  0.50981483  1
  Ta  Ta76  1  0.19041141  0.80819425  0.00486125  1
  Ta  Ta77  1  0.16753842  0.89584968  0.48810615  1
  Ta  Ta78  1  0.49555141  0.21653365  0.00000534  1
  Ta  Ta79  1  0.45596331  0.17980393  0.49882321  1
  Ta  Ta80  1  0.53428489  0.47818327  -0.00377395  1
  Ta  Ta81  1  0.49834615  0.55625896  0.50280260  1
  Ta  Ta82  1  0.46859547  0.85288816  0.00242253  1
  Ta  Ta83  1  0.54931558  0.83572630  0.49982182  1
  Ta  Ta84  1  0.82902745  0.09481362  0.00170605  1
  Ta  Ta85  1  0.83700423  0.21144340  0.49090538  1
  Ta  Ta86  1  0.78754206  0.49427100  0.01047927  1
  Ta  Ta87  1  0.85417504  0.48035217  0.48973077  1
  Ta  Ta88  1  0.83243729  0.87836184  0.00831307  1
  Ta  Ta89  1  0.79002853  0.83483304  0.49832139  1
  Ta  Ta90  1  0.16596291  0.22149260  0.24597832  1
  Ta  Ta91  1  0.12038734  0.17542698  0.75789914  1
  Ta  Ta92  1  0.18673092  0.48650170  0.25775411  1
  Ta  Ta93  1  0.20939301  0.50823548  0.73871864  1
  Ta  Ta94  1  0.15426179  0.85551387  0.25771744  1
  Ta  Ta95  1  0.19236641  0.86546032  0.74151989  1
  Ta  Ta96  1  0.53499219  0.17068769  0.25215724  1
  Ta  Ta97  1  0.52603797  0.16689201  0.74749504  1
  Ta  Ta98  1  0.49596576  0.53167460  0.25954702  1
  Ta  Ta99  1  0.46366971  0.50344708  0.74096739  1
  Ta  Ta100  1  0.49155972  0.87585424  0.24990459  1
  Ta  Ta101  1  0.49461300  0.88266346  0.75145515  1
  Ta  Ta102  1  0.78539309  0.16491673  0.25893749  1
  Ta  Ta103  1  0.85948716  0.16608565  0.74748660  1
  Ta  Ta104  1  0.82641770  0.53321057  0.24070936  1
  Ta  Ta105  1  0.83570656  0.54511574  0.75947816  1
  Ta  Ta106  1  0.86990233  0.82571759  0.25522489  1
  Ta  Ta107  1  0.83595375  0.77917117  0.75594724  1
  Ta  Ta108  1  0.00446300  -0.04652857  0.25148134  1
  Ta  Ta109  1  0.00350831  0.04347073  0.75439719  1
  Ta  Ta110  1  0.04724132  0.33813505  0.24913926  1
  Ta  Ta111  1  -0.00376576  0.28901102  0.75191636  1
  Ta  Ta112  1  -0.02541708  0.67508347  0.24736476  1
  Ta  Ta113  1  -0.03747323  0.66467007  0.75269477  1
  Ta  Ta114  1  0.34272361  -0.03070511  0.24709165  1
  Ta  Ta115  1  0.34337752  -0.02723790  0.75176739  1
  Ta  Ta116  1  0.28770854  0.33674470  0.24945813  1
  Ta  Ta117  1  0.33263994  0.36175486  0.74931510  1
  Ta  Ta118  1  0.33983023  0.62217969  0.25386412  1
  Ta  Ta119  1  0.33502324  0.61402599  0.73802766  1
  Ta  Ta120  1  0.64726205  0.02477167  0.25350125  1
  Ta  Ta121  1  0.62689134  0.00147078  0.75315514  1
  Ta  Ta122  1  0.67288490  0.28438031  0.26209033  1
  Ta  Ta123  1  0.66972244  0.29804337  0.74426555  1
  Ta  Ta124  1  0.66400396  0.64052998  0.24981596  1
  Ta  Ta125  1  0.71353793  0.65988452  0.76077624  1
  Ta  Ta126  1  -0.04125735  -0.00894696  0.00301231  1
  Ta  Ta127  1  0.03401780  -0.00073411  0.49116943  1
  Ta  Ta128  1  0.01616807  0.31802682  0.00077418  1
  Ta  Ta129  1  -0.03854156  0.34579057  0.49931614  1
  Ta  Ta130  1  0.04224701  0.66637268  -0.00249143  1
  Ta  Ta131  1  0.00460207  0.62406534  0.49760345  1
  Ta  Ta132  1  0.33053946  -0.06010392  0.00345971  1
  Ta  Ta133  1  0.31080971  0.03037216  0.49055524  1
  Ta  Ta134  1  0.33898785  0.30902171  -0.00505637  1
  Ta  Ta135  1  0.32735229  0.27858714  0.49861001  1
  Ta  Ta136  1  0.29008757  0.66531291  -0.00322244  1
  Ta  Ta137  1  0.33820030  0.63931591  0.50897599  1
  Ta  Ta138  1  0.69687701  -0.01101906  0.00570345  1
  Ta  Ta139  1  0.66683168  -0.04330316  0.49760486  1
  Ta  Ta140  1  0.64610268  0.35177857  -0.00021582  1
  Ta  Ta141  1  0.72631648  0.33024090  0.49096197  1
  Ta  Ta142  1  0.66640501  0.60192435  0.00643324  1
  Ta  Ta143  1  0.64794200  0.69894784  0.49553088  1
  N  N144  1  0.83064977  0.83254703  0.38102655  1
  N  N145  1  0.66438583  -0.00464513  0.12646264  1
  N  N146  1  0.49426528  0.17244306  0.62481830  1
  N  N147  1  0.00153853  0.66534852  0.12186119  1
  N  N148  1  -0.00877554  0.32770012  0.62288166  1
  N  N149  1  0.17321795  0.83252585  0.38379539  1
  N  N150  1  0.83505607  0.16512789  0.37420601  1
  N  N151  1  0.50546156  0.51139302  0.38157318  1
  N  N152  1  0.17200273  0.51555286  0.86640528  1
  N  N153  1  0.83640746  0.49913417  0.36770857  1
  N  N154  1  0.33077575  0.00592944  0.36651282  1
  N  N155  1  -0.00309115  -0.00814208  0.13537501  1
  N  N156  1  0.17116317  0.18440545  0.37047516  1
  N  N157  1  0.50187981  0.17995008  0.87718028  1
  N  N158  1  0.32668828  0.32956474  0.87227861  1
  N  N159  1  0.50203794  0.49700529  0.87548449  1
  N  N160  1  0.67510238  0.33549058  0.37832760  1
  N  N161  1  0.82351067  0.47371100  0.13159641  1
  N  N162  1  0.66300109  0.67302696  0.36803913  1
  N  N163  1  -0.00556673  0.32924941  0.87893575  1
  N  N164  1  0.00216629  0.67053451  0.87345856  1
  N  N165  1  0.17521127  0.50426797  0.37921031  1
  N  N166  1  0.50337168  0.18262084  0.12527759  1
  N  N167  1  -0.00082919  0.65687948  0.37707999  1
  N  N168  1  0.66581891  -0.00481975  0.37845862  1
  N  N169  1  0.00678293  0.33672689  0.36717682  1
  N  N170  1  -0.00689508  0.00383522  0.87082646  1
  N  N171  1  0.83429318  0.84047555  0.12904979  1
  N  N172  1  0.17657595  0.85908824  0.61821789  1
  N  N173  1  0.17259845  0.82657292  0.12756248  1
  N  N174  1  0.50751498  0.51147443  0.62260979  1
  N  N175  1  0.49661729  0.17455784  0.37692609  1
  N  N176  1  0.17172504  0.47824588  0.61747127  1
  O  O177  1  0.50398815  0.85330677  0.37711338  1
  O  O178  1  0.31373956  -0.00978102  0.11920978  1
  O  O179  1  0.67216530  0.31920567  0.12406704  1
  O  O180  1  0.01214891  0.01187300  0.61830297  1
  O  O181  1  0.33243590  -0.02111930  0.88242239  1
  O  O182  1  0.16887835  0.16837602  0.12520917  1
  O  O183  1  0.64867482  -0.00175781  0.62641868  1
  O  O184  1  0.31103273  0.32361690  0.37569754  1
  O  O185  1  0.50841269  0.85159148  0.62497794  1
  O  O186  1  0.16140786  0.17294285  0.63174324  1
  O  O187  1  0.18035636  0.83208951  0.86604630  1
  O  O188  1  0.17135006  0.51808185  0.12700057  1
  O  O189  1  0.82076960  0.14085514  0.13147346  1
  O  O190  1  0.84579693  0.16819021  0.62055148  1
  O  O191  1  0.83292161  0.82766249  0.87631447  1
  O  O192  1  0.49058349  0.85549937  0.87599181  1
  O  O193  1  0.65234897  -0.00125069  0.87759612  1
  O  O194  1  0.50230631  0.49466012  0.12740753  1
  O  O195  1  0.49917803  0.85360610  0.12522114  1
  O  O196  1  0.32361436  0.31587679  0.62986358  1
  O  O197  1  0.33439614  0.00576942  0.62798572  1
  O  O198  1  0.32057136  0.33922826  0.12522595  1
  O  O199  1  0.67319119  0.67276195  0.63688161  1
  O  O200  1  0.82043630  0.81170813  0.62988967  1
  O  O201  1  0.67214487  0.32186206  0.87107924  1
  O  O202  1  0.33002720  0.64461752  0.12440800  1
  O  O203  1  0.83606162  0.50928510  0.63304813  1
  O  O204  1  0.66610748  0.64203812  0.88027327  1
  O  O205  1  -0.01248542  0.65573219  0.61976413  1
  O  O206  1  0.33706484  0.67844416  0.62957387  1
  O  O207  1  0.65285729  0.65548392  0.11637967  1
  O  O208  1  0.82778615  0.49763745  0.87972480  1
  O  O209  1  -0.00488799  0.34208221  0.12707149  1
  O  O210  1  0.33331864  0.64733424  0.87443100  1
  O  O211  1  0.68324106  0.31082101  0.61970399  1
  O  O212  1  0.00753320  0.01646063  0.36773481  1
  O  O213  1  0.83497673  0.13567581  0.87047116  1
  O  O214  1  0.16631476  0.18652391  0.87831078  1
  O  O215  1  0.33126077  0.63805668  0.37744075  1
