# generated using pymatgen
data_Sr24Ta24N11O13
_symmetry_space_group_name_H-M   'P 1'
_cell_length_a   16.86105054
_cell_length_b   16.72826607
_cell_length_c   15.70945583
_cell_angle_alpha   90.16256728
_cell_angle_beta   90.29329769
_cell_angle_gamma   90.04603968
_symmetry_Int_Tables_number   1
_chemical_formula_structural   Sr24Ta24N11O13
_chemical_formula_sum   'Sr72 Ta72 N33 O39'
_cell_volume   4430.87109266
_cell_formula_units_Z   3
loop_
 _symmetry_equiv_pos_site_id
 _symmetry_equiv_pos_as_xyz
  1  'x, y, z'
loop_
 _atom_site_type_symbol
 _atom_site_label
 _atom_site_symmetry_multiplicity
 _atom_site_fract_x
 _atom_site_fract_y
 _atom_site_fract_z
 _atom_site_occupancy
  Sr  Sr0  1  0.00351521  0.16849193  0.09022053  1
  Sr  Sr1  1  0.01847064  0.16076158  0.63211953  1
  Sr  Sr2  1  -0.00237480  0.49519318  0.13331701  1
  Sr  Sr3  1  0.00075654  0.51509338  0.57972137  1
  Sr  Sr4  1  0.00727278  0.85325019  0.13713092  1
  Sr  Sr5  1  0.01359069  0.82896445  0.65519955  1
  Sr  Sr6  1  0.32583148  0.15540675  0.13715516  1
  Sr  Sr7  1  0.35792596  0.17023909  0.59680537  1
  Sr  Sr8  1  0.32835902  0.51130622  0.17359644  1
  Sr  Sr9  1  0.33960682  0.50314284  0.62601722  1
  Sr  Sr10  1  0.33658792  0.81303292  0.07604461  1
  Sr  Sr11  1  0.34216836  0.85081640  0.62769837  1
  Sr  Sr12  1  0.70160446  0.17033663  0.13699004  1
  Sr  Sr13  1  0.66824492  0.17600203  0.62261929  1
  Sr  Sr14  1  0.65959157  0.49671019  0.11685688  1
  Sr  Sr15  1  0.69634224  0.50146261  0.67271097  1
  Sr  Sr16  1  0.66920630  0.84602288  0.14808333  1
  Sr  Sr17  1  0.67731963  0.82010727  0.61498278  1
  Sr  Sr18  1  0.16449916  0.00028777  0.16068708  1
  Sr  Sr19  1  0.17873132  -0.00008319  0.61407839  1
  Sr  Sr20  1  0.14366445  0.31721468  0.08547237  1
  Sr  Sr21  1  0.15040269  0.33440113  0.63834746  1
  Sr  Sr22  1  0.15743500  0.67072970  0.12173292  1
  Sr  Sr23  1  0.16325279  0.65609932  0.63837614  1
  Sr  Sr24  1  0.47679882  -0.00149877  0.10987967  1
  Sr  Sr25  1  0.51913272  -0.00534326  0.66987311  1
  Sr  Sr26  1  0.47790024  0.31680098  0.11999446  1
  Sr  Sr27  1  0.48523454  0.33684502  0.60605115  1
  Sr  Sr28  1  0.50120909  0.65543541  0.13458746  1
  Sr  Sr29  1  0.48259095  0.67157057  0.59000700  1
  Sr  Sr30  1  0.84080287  0.00084058  0.12855772  1
  Sr  Sr31  1  0.82592995  0.01241722  0.57521794  1
  Sr  Sr32  1  0.81779094  0.34470664  0.15705295  1
  Sr  Sr33  1  0.81611802  0.32970219  0.64320798  1
  Sr  Sr34  1  0.82505783  0.64733000  0.08333946  1
  Sr  Sr35  1  0.83175811  0.67297335  0.63354313  1
  Sr  Sr36  1  0.01653873  0.15641095  0.41065019  1
  Sr  Sr37  1  0.00989185  0.17391538  0.86277631  1
  Sr  Sr38  1  -0.00877019  0.49835533  0.36952807  1
  Sr  Sr39  1  0.00887486  0.51694577  0.91998666  1
  Sr  Sr40  1  0.01790198  0.84154361  0.34071926  1
  Sr  Sr41  1  0.00639609  0.83941370  0.86245427  1
  Sr  Sr42  1  0.34051641  0.15124498  0.35680648  1
  Sr  Sr43  1  0.35256342  0.17833450  0.91961013  1
  Sr  Sr44  1  0.35296290  0.50107060  0.38559719  1
  Sr  Sr45  1  0.31619575  0.49473427  0.83075827  1
  Sr  Sr46  1  0.33535395  0.82854321  0.41416333  1
  Sr  Sr47  1  0.34332889  0.85216293  0.86981113  1
  Sr  Sr48  1  0.68665070  0.17449289  0.39300701  1
  Sr  Sr49  1  0.67646770  0.16608219  0.85422277  1
  Sr  Sr50  1  0.67234455  0.49716256  0.34763815  1
  Sr  Sr51  1  0.65058490  0.50561553  0.89646417  1
  Sr  Sr52  1  0.67519085  0.83054235  0.38104682  1
  Sr  Sr53  1  0.67828884  0.84136196  0.85796581  1
  Sr  Sr54  1  0.18319356  -0.00105732  0.38564395  1
  Sr  Sr55  1  0.14937495  -0.00658956  0.82731623  1
  Sr  Sr56  1  0.13170209  0.33196993  0.40770934  1
  Sr  Sr57  1  0.16249194  0.33016690  0.86925645  1
  Sr  Sr58  1  0.15093851  0.64670736  0.34717320  1
  Sr  Sr59  1  0.16605023  0.66805315  0.88529428  1
  Sr  Sr60  1  0.49622393  -0.00691084  0.33554352  1
  Sr  Sr61  1  0.49862269  -0.00134939  0.87742264  1
  Sr  Sr62  1  0.47709612  0.31640148  0.38811774  1
  Sr  Sr63  1  0.49152732  0.33776203  0.89817678  1
  Sr  Sr64  1  0.50167476  0.66300005  0.36993366  1
  Sr  Sr65  1  0.48323825  0.65768605  0.89783615  1
  Sr  Sr66  1  0.82960200  -0.01125217  0.35982813  1
  Sr  Sr67  1  0.84297783  0.01653337  0.91816119  1
  Sr  Sr68  1  0.81940519  0.34390432  0.35715336  1
  Sr  Sr69  1  0.80604929  0.33630714  0.84223911  1
  Sr  Sr70  1  0.83687312  0.66201690  0.41611993  1
  Sr  Sr71  1  0.81222270  0.66288643  0.86032427  1
  Ta  Ta72  1  0.17110737  0.11939254  -0.00773055  1
  Ta  Ta73  1  0.19710654  0.17999037  0.50762024  1
  Ta  Ta74  1  0.19816961  0.49546027  -0.00037588  1
  Ta  Ta75  1  0.18728709  0.49902502  0.50598704  1
  Ta  Ta76  1  0.15766658  0.86202954  0.00054844  1
  Ta  Ta77  1  0.15083610  0.81298756  0.49704045  1
  Ta  Ta78  1  0.55073879  0.15791578  0.00075473  1
  Ta  Ta79  1  0.51382342  0.10987638  0.49765375  1
  Ta  Ta80  1  0.44549589  0.49378879  0.00188302  1
  Ta  Ta81  1  0.54605587  0.49749874  0.50360675  1
  Ta  Ta82  1  0.53207546  0.83094810  0.00047815  1
  Ta  Ta83  1  0.50892039  0.88112585  0.49917733  1
  Ta  Ta84  1  0.83424273  0.21208761  -0.00133840  1
  Ta  Ta85  1  0.85300103  0.19768480  0.50137128  1
  Ta  Ta86  1  0.82936973  0.46146844  -0.00086619  1
  Ta  Ta87  1  0.81178290  0.48350160  0.50281105  1
  Ta  Ta88  1  0.84659899  0.82464516  -0.00035654  1
  Ta  Ta89  1  0.88352004  0.83727656  0.49400575  1
  Ta  Ta90  1  0.14671047  0.18956897  0.24960570  1
  Ta  Ta91  1  0.22136302  0.16685273  0.74915594  1
  Ta  Ta92  1  0.15904606  0.44975955  0.25077323  1
  Ta  Ta93  1  0.12034354  0.50075772  0.75271384  1
  Ta  Ta94  1  0.21438646  0.82574531  0.24404975  1
  Ta  Ta95  1  0.19299066  0.81314337  0.75384352  1
  Ta  Ta96  1  0.54088945  0.16537318  0.25266864  1
  Ta  Ta97  1  0.48326570  0.18591775  0.75218795  1
  Ta  Ta98  1  0.50958538  0.46859419  0.25480546  1
  Ta  Ta99  1  0.50797772  0.50446327  0.75379222  1
  Ta  Ta100  1  0.45315696  0.82583534  0.24756173  1
  Ta  Ta101  1  0.50219660  0.79628109  0.74912728  1
  Ta  Ta102  1  0.88120543  0.16941762  0.24816123  1
  Ta  Ta103  1  0.84131502  0.13057767  0.74349550  1
  Ta  Ta104  1  0.83243566  0.53867950  0.24909740  1
  Ta  Ta105  1  0.88807039  0.50516598  0.74836999  1
  Ta  Ta106  1  0.83598401  0.78684552  0.25307163  1
  Ta  Ta107  1  0.83942721  0.88301537  0.74389878  1
  Ta  Ta108  1  0.00167573  0.04341253  0.24803429  1
  Ta  Ta109  1  -0.04331639  0.00386634  0.74594183  1
  Ta  Ta110  1  0.00881420  0.30741287  0.25321975  1
  Ta  Ta111  1  -0.00938927  0.37640899  0.75054952  1
  Ta  Ta112  1  -0.04242332  0.66943847  0.25198944  1
  Ta  Ta113  1  -0.00004879  0.63935017  0.74624749  1
  Ta  Ta114  1  0.33131223  -0.05237766  0.24630900  1
  Ta  Ta115  1  0.33849382  0.04354948  0.74981662  1
  Ta  Ta116  1  0.27736097  0.32959202  0.25005849  1
  Ta  Ta117  1  0.34180713  0.29922295  0.75648001  1
  Ta  Ta118  1  0.33225983  0.70175520  0.25085092  1
  Ta  Ta119  1  0.34284777  0.68706130  0.74523084  1
  Ta  Ta120  1  0.65641105  0.02541825  0.25256589  1
  Ta  Ta121  1  0.71821553  0.00114477  0.74910203  1
  Ta  Ta122  1  0.62791763  0.32667105  0.24875061  1
  Ta  Ta123  1  0.61553588  0.33751630  0.75244904  1
  Ta  Ta124  1  0.70526167  0.66955441  0.25229264  1
  Ta  Ta125  1  0.61669516  0.66641880  0.75002218  1
  Ta  Ta126  1  0.03593209  -0.00176286  -0.00535433  1
  Ta  Ta127  1  0.00752709  -0.03592479  0.50384660  1
  Ta  Ta128  1  -0.05314452  0.33910477  -0.00392100  1
  Ta  Ta129  1  -0.04608197  0.33279821  0.49965584  1
  Ta  Ta130  1  -0.01174235  0.70574118  0.00068079  1
  Ta  Ta131  1  0.01298621  0.70454527  0.49729000  1
  Ta  Ta132  1  0.28416502  -0.00013856  -0.00050342  1
  Ta  Ta133  1  0.37629477  0.00405343  0.49845788  1
  Ta  Ta134  1  0.31926837  0.37693733  0.00068300  1
  Ta  Ta135  1  0.29710128  0.33522136  0.50456177  1
  Ta  Ta136  1  0.32320387  0.61587013  0.00508694  1
  Ta  Ta137  1  0.29208811  0.66050792  0.49526071  1
  Ta  Ta138  1  0.65435150  0.00422690  -0.00375834  1
  Ta  Ta139  1  0.63257699  -0.00367557  0.49496809  1
  Ta  Ta140  1  0.67626186  0.31707627  0.00014872  1
  Ta  Ta141  1  0.66735268  0.36779014  0.50774638  1
  Ta  Ta142  1  0.65349793  0.70309944  -0.00429889  1
  Ta  Ta143  1  0.66514700  0.62132685  0.50997407  1
  N  N144  1  0.17535414  0.82835707  0.87314931  1
  N  N145  1  0.65155169  0.33738764  0.87424870  1
  N  N146  1  0.85056116  0.17778953  0.12327079  1
  N  N147  1  0.33031327  0.66258220  0.37812345  1
  N  N148  1  0.83683063  0.16799929  0.62215242  1
  N  N149  1  0.65548436  0.33785200  0.62932735  1
  N  N150  1  0.17516512  0.83024872  0.12260529  1
  N  N151  1  0.33057933  0.65987574  0.12405712  1
  N  N152  1  -0.00438647  0.00625058  0.87664182  1
  N  N153  1  0.84436208  0.83015641  0.37309885  1
  N  N154  1  0.33986140  -0.01095789  0.37677758  1
  N  N155  1  0.35011466  0.01091468  0.63192097  1
  N  N156  1  -0.01703241  0.33194104  0.37221642  1
  N  N157  1  0.32307253  -0.01211655  0.11615621  1
  N  N158  1  0.15920970  0.49475797  0.87687259  1
  N  N159  1  0.50813799  0.49065516  0.37776573  1
  N  N160  1  0.65416214  0.33479083  0.12789266  1
  N  N161  1  0.48414337  0.49885702  0.87451161  1
  N  N162  1  -0.00330796  0.67146007  0.37121506  1
  N  N163  1  0.67226255  -0.00592646  0.37134477  1
  N  N164  1  0.66077940  0.65890174  0.62853357  1
  N  N165  1  -0.00060970  0.66963917  0.62468388  1
  N  N166  1  0.16229697  0.49604365  0.62654041  1
  N  N167  1  0.32504876  0.33671463  0.87328144  1
  N  N168  1  0.00380606  -0.00091136  0.62107109  1
  N  N169  1  0.00428188  0.01276410  0.12685470  1
  N  N170  1  0.17794180  0.16252139  0.62723523  1
  N  N171  1  0.33013574  0.67262282  0.62335985  1
  N  N172  1  0.65501555  0.66872990  0.87742541  1
  N  N173  1  0.84622707  0.50443419  0.62803119  1
  N  N174  1  0.67685317  0.00083935  0.87528265  1
  N  N175  1  0.82633043  0.49678852  0.12225172  1
  N  N176  1  0.83154125  0.50388143  0.37435890  1
  O  O177  1  0.67522579  -0.00113354  0.62676438  1
  O  O178  1  0.84379008  0.17471462  0.37140038  1
  O  O179  1  0.50458562  0.84092326  0.62797773  1
  O  O180  1  0.51579059  0.15909298  0.37922625  1
  O  O181  1  -0.01043950  0.35368620  0.62323467  1
  O  O182  1  0.32733230  0.33926524  0.62876289  1
  O  O183  1  0.16664037  0.17814137  0.37543034  1
  O  O184  1  0.53175144  0.16319266  0.12259326  1
  O  O185  1  0.34309474  0.00620678  0.88087165  1
  O  O186  1  0.48345594  0.48619770  0.12795005  1
  O  O187  1  0.68220415  0.65591579  0.37818854  1
  O  O188  1  0.51531150  0.83894876  0.87204185  1
  O  O189  1  0.15389189  0.47021969  0.12400337  1
  O  O190  1  0.01047037  0.00355888  0.37322278  1
  O  O191  1  -0.00869274  0.35060491  0.87661047  1
  O  O192  1  0.16045276  0.48083257  0.37386386  1
  O  O193  1  0.84195372  0.85364805  0.87752619  1
  O  O194  1  -0.00888392  0.33642163  0.12073179  1
  O  O195  1  0.49202092  0.49725174  0.61731656  1
  O  O196  1  0.84462446  0.50462048  0.87763838  1
  O  O197  1  0.30022001  0.33001754  0.12394150  1
  O  O198  1  0.51855274  0.15878631  0.87482603  1
  O  O199  1  -0.00293358  0.67730743  0.87751970  1
  O  O200  1  0.17038905  0.82394539  0.62219853  1
  O  O201  1  0.83514841  0.17166264  0.87418692  1
  O  O202  1  0.17042935  0.82668544  0.37224368  1
  O  O203  1  -0.00171002  0.69087992  0.12558472  1
  O  O204  1  0.83917672  0.85557291  0.61609658  1
  O  O205  1  0.49135825  0.83969057  0.37118074  1
  O  O206  1  0.65858765  0.33098877  0.38271593  1
  O  O207  1  0.50191642  0.82971475  0.12421809  1
  O  O208  1  0.17230456  0.15990130  0.86893042  1
  O  O209  1  0.30239975  0.32963522  0.37255701  1
  O  O210  1  0.16244321  0.16500409  0.12310115  1
  O  O211  1  0.67964506  -0.00058823  0.12921076  1
  O  O212  1  0.67857950  0.68383642  0.12806703  1
  O  O213  1  0.83546247  0.82884328  0.12471570  1
  O  O214  1  0.51058927  0.14979938  0.63008609  1
  O  O215  1  0.32953212  0.65431331  0.87818797  1
