# generated using pymatgen
data_Sr24Ta24N11O13
_symmetry_space_group_name_H-M   'P 1'
_cell_length_a   16.79279042
_cell_length_b   16.76044220
_cell_length_c   15.73245016
_cell_angle_alpha   89.96103772
_cell_angle_beta   90.14187493
_cell_angle_gamma   89.80770930
_symmetry_Int_Tables_number   1
_chemical_formula_structural   Sr24Ta24N11O13
_chemical_formula_sum   'Sr72 Ta72 N33 O39'
_cell_volume   4427.93079999
_cell_formula_units_Z   3
loop_
 _symmetry_equiv_pos_site_id
 _symmetry_equiv_pos_as_xyz
  1  'x, y, z'
loop_
 _atom_site_type_symbol
 _atom_site_label
 _atom_site_symmetry_multiplicity
 _atom_site_fract_x
 _atom_site_fract_y
 _atom_site_fract_z
 _atom_site_occupancy
  Sr  Sr0  1  -0.00626203  0.15725719  0.13953912  1
  Sr  Sr1  1  0.01448784  0.16369613  0.61244394  1
  Sr  Sr2  1  -0.00430077  0.49691943  0.16026897  1
  Sr  Sr3  1  -0.00707521  0.49599243  0.62046220  1
  Sr  Sr4  1  -0.01537558  0.81784467  0.08844499  1
  Sr  Sr5  1  0.01018850  0.83687643  0.63371898  1
  Sr  Sr6  1  0.33897170  0.16080701  0.12144999  1
  Sr  Sr7  1  0.33961338  0.14594259  0.66453368  1
  Sr  Sr8  1  0.30764595  0.48852076  0.11169481  1
  Sr  Sr9  1  0.33759942  0.48246704  0.63002188  1
  Sr  Sr10  1  0.30630709  0.81859799  0.12956981  1
  Sr  Sr11  1  0.34022593  0.83600778  0.58098818  1
  Sr  Sr12  1  0.66644729  0.14810483  0.07519050  1
  Sr  Sr13  1  0.67068565  0.17827660  0.62812362  1
  Sr  Sr14  1  0.65200777  0.49660239  0.14053720  1
  Sr  Sr15  1  0.66838854  0.51524910  0.58144414  1
  Sr  Sr16  1  0.66822328  0.85128222  0.15981299  1
  Sr  Sr17  1  0.65823028  0.83638714  0.64738672  1
  Sr  Sr18  1  0.16361709  0.01261051  0.16710617  1
  Sr  Sr19  1  0.17142484  -0.01420322  0.61483523  1
  Sr  Sr20  1  0.17481636  0.31575155  0.09501231  1
  Sr  Sr21  1  0.15900453  0.33271188  0.59777577  1
  Sr  Sr22  1  0.16086990  0.65959934  0.11927115  1
  Sr  Sr23  1  0.18752191  0.64253393  0.66372459  1
  Sr  Sr24  1  0.48996936  0.01055296  0.10813456  1
  Sr  Sr25  1  0.50786091  0.00137188  0.63691409  1
  Sr  Sr26  1  0.48436474  0.34025051  0.16679959  1
  Sr  Sr27  1  0.50399411  0.33366871  0.61478211  1
  Sr  Sr28  1  0.52674222  0.67346036  0.13129414  1
  Sr  Sr29  1  0.49652541  0.67658409  0.62592273  1
  Sr  Sr30  1  0.83858496  -0.00400434  0.13291131  1
  Sr  Sr31  1  0.82977770  0.02012411  0.58535002  1
  Sr  Sr32  1  0.80729049  0.35246182  0.11430014  1
  Sr  Sr33  1  0.84441035  0.32784900  0.66789914  1
  Sr  Sr34  1  0.83736125  0.67125376  0.09536291  1
  Sr  Sr35  1  0.84445010  0.68222096  0.63514165  1
  Sr  Sr36  1  0.00564996  0.15270923  0.37140911  1
  Sr  Sr37  1  0.00521994  0.17096488  0.87867147  1
  Sr  Sr38  1  0.00165491  0.49891566  0.37631519  1
  Sr  Sr39  1  -0.01587270  0.49612754  0.83350699  1
  Sr  Sr40  1  -0.01645744  0.82281812  0.40855139  1
  Sr  Sr41  1  -0.00439772  0.83860628  0.87051269  1
  Sr  Sr42  1  0.34846925  0.15567775  0.33746703  1
  Sr  Sr43  1  0.33344479  0.15586239  0.88050220  1
  Sr  Sr44  1  0.32518729  0.47671903  0.38664043  1
  Sr  Sr45  1  0.33108680  0.50642948  0.85953632  1
  Sr  Sr46  1  0.31836259  0.81605426  0.37350913  1
  Sr  Sr47  1  0.34837190  0.83157182  0.92037688  1
  Sr  Sr48  1  0.65347103  0.16330300  0.41994803  1
  Sr  Sr49  1  0.67712420  0.19610055  0.86524144  1
  Sr  Sr50  1  0.66316027  0.49171625  0.36423165  1
  Sr  Sr51  1  0.67724191  0.52132407  0.92630973  1
  Sr  Sr52  1  0.66259626  0.84703129  0.35172076  1
  Sr  Sr53  1  0.65948923  0.83181798  0.83952015  1
  Sr  Sr54  1  0.16905080  -0.00744838  0.38151005  1
  Sr  Sr55  1  0.14890596  0.00684158  0.82804857  1
  Sr  Sr56  1  0.16210312  0.33164833  0.40633361  1
  Sr  Sr57  1  0.17233969  0.32000434  0.90043084  1
  Sr  Sr58  1  0.17257587  0.64598531  0.33223097  1
  Sr  Sr59  1  0.18128857  0.66079133  0.88964771  1
  Sr  Sr60  1  0.50398104  0.00232483  0.37073940  1
  Sr  Sr61  1  0.50150880  0.00722576  0.87726371  1
  Sr  Sr62  1  0.50365899  0.33604774  0.38571458  1
  Sr  Sr63  1  0.48084014  0.34582412  0.83279776  1
  Sr  Sr64  1  0.50770936  0.67947689  0.37684620  1
  Sr  Sr65  1  0.50957765  0.66572452  0.87653860  1
  Sr  Sr66  1  0.83283238  -0.00026057  0.36555278  1
  Sr  Sr67  1  0.83972591  0.01173687  0.91719969  1
  Sr  Sr68  1  0.84876443  0.34479912  0.32381062  1
  Sr  Sr69  1  0.82720844  0.34590164  0.87633641  1
  Sr  Sr70  1  0.85156998  0.65975535  0.41585366  1
  Sr  Sr71  1  0.83788651  0.68331835  0.86507981  1
  Ta  Ta72  1  0.16540357  0.12534823  -0.00394833  1
  Ta  Ta73  1  0.21034593  0.15482904  0.50155277  1
  Ta  Ta74  1  0.11469392  0.49163506  -0.00680549  1
  Ta  Ta75  1  0.16928096  0.53184513  0.49801247  1
  Ta  Ta76  1  0.15906666  0.87608646  -0.00317710  1
  Ta  Ta77  1  0.16386726  0.77277310  0.50398797  1
  Ta  Ta78  1  0.49896048  0.21417903  0.00062819  1
  Ta  Ta79  1  0.46439897  0.15796032  0.50410769  1
  Ta  Ta80  1  0.48490717  0.48079247  -0.00568449  1
  Ta  Ta81  1  0.48370002  0.52177412  0.50161724  1
  Ta  Ta82  1  0.53806903  0.83432911  0.00181493  1
  Ta  Ta83  1  0.52926457  0.84209140  0.49891720  1
  Ta  Ta84  1  0.84875047  0.19244039  0.00335286  1
  Ta  Ta85  1  0.83825817  0.20850475  0.49473533  1
  Ta  Ta86  1  0.87708448  0.50372787  -0.00491133  1
  Ta  Ta87  1  0.83622847  0.46036140  0.49493336  1
  Ta  Ta88  1  0.79404567  0.83988200  -0.00158478  1
  Ta  Ta89  1  0.79538659  0.83976961  0.49853156  1
  Ta  Ta90  1  0.17040718  0.19813111  0.25845024  1
  Ta  Ta91  1  0.16654189  0.19538370  0.74534924  1
  Ta  Ta92  1  0.16622221  0.45287761  0.25247354  1
  Ta  Ta93  1  0.16221101  0.45744806  0.75407706  1
  Ta  Ta94  1  0.12558075  0.82804407  0.25088470  1
  Ta  Ta95  1  0.20121584  0.82248321  0.74669816  1
  Ta  Ta96  1  0.54407569  0.16641897  0.24314974  1
  Ta  Ta97  1  0.51682782  0.16874792  0.74929096  1
  Ta  Ta98  1  0.46819938  0.52068477  0.24795768  1
  Ta  Ta99  1  0.55189441  0.51100006  0.75311569  1
  Ta  Ta100  1  0.46933827  0.84096923  0.25153197  1
  Ta  Ta101  1  0.46311434  0.83596329  0.74705593  1
  Ta  Ta102  1  0.78002134  0.17109792  0.24916201  1
  Ta  Ta103  1  0.84022178  0.13300434  0.74987406  1
  Ta  Ta104  1  0.82757463  0.54466887  0.25319486  1
  Ta  Ta105  1  0.78840697  0.51074002  0.75165373  1
  Ta  Ta106  1  0.84957491  0.81056514  0.25034737  1
  Ta  Ta107  1  0.83340414  0.88780095  0.75191917  1
  Ta  Ta108  1  -0.00181280  -0.05195696  0.24774072  1
  Ta  Ta109  1  -0.04262647  0.01012142  0.75328938  1
  Ta  Ta110  1  0.04725309  0.32396740  0.25009005  1
  Ta  Ta111  1  0.03416691  0.32496173  0.74859243  1
  Ta  Ta112  1  -0.01837839  0.68430075  0.25119544  1
  Ta  Ta113  1  0.02034701  0.67190097  0.75074785  1
  Ta  Ta114  1  0.34433122  -0.02823042  0.24596074  1
  Ta  Ta115  1  0.33281329  -0.04903491  0.74861973  1
  Ta  Ta116  1  0.29984769  0.33000359  0.25364274  1
  Ta  Ta117  1  0.29598533  0.32339787  0.74371136  1
  Ta  Ta118  1  0.35815337  0.64733633  0.24947128  1
  Ta  Ta119  1  0.34185226  0.71546327  0.75716266  1
  Ta  Ta120  1  0.66612054  0.04361186  0.25324024  1
  Ta  Ta121  1  0.70149774  0.01738770  0.74870623  1
  Ta  Ta122  1  0.66250754  0.29220944  0.25396866  1
  Ta  Ta123  1  0.66338789  0.38307502  0.74906585  1
  Ta  Ta124  1  0.71875093  0.67177782  0.25345761  1
  Ta  Ta125  1  0.66996373  0.63276329  0.75051784  1
  Ta  Ta126  1  0.03190112  0.00157607  0.00288384  1
  Ta  Ta127  1  0.00051475  -0.00519833  0.49596468  1
  Ta  Ta128  1  -0.01181589  0.35200506  -0.00406003  1
  Ta  Ta129  1  -0.04092920  0.32925214  0.50096201  1
  Ta  Ta130  1  0.00263912  0.62412682  0.00071016  1
  Ta  Ta131  1  0.04733889  0.65605587  0.49795761  1
  Ta  Ta132  1  0.28026021  -0.00548044  0.00101468  1
  Ta  Ta133  1  0.34371809  0.02760984  0.50349680  1
  Ta  Ta134  1  0.37078932  0.33243833  0.00197541  1
  Ta  Ta135  1  0.33748179  0.28406946  0.50092206  1
  Ta  Ta136  1  0.36120103  0.64816679  0.00431150  1
  Ta  Ta137  1  0.31638597  0.64630712  0.49693061  1
  Ta  Ta138  1  0.66129350  -0.04894309  -0.00358704  1
  Ta  Ta139  1  0.66075428  -0.02609394  0.50176245  1
  Ta  Ta140  1  0.60813017  0.34336477  0.00039386  1
  Ta  Ta141  1  0.72107759  0.33716548  0.49405982  1
  Ta  Ta142  1  0.66962348  0.72722216  0.00062857  1
  Ta  Ta143  1  0.66866639  0.70548444  0.49947902  1
  N  N144  1  0.00856513  0.65868554  0.37554777  1
  N  N145  1  0.17016548  0.15863172  0.87608248  1
  N  N146  1  0.82813373  0.84900697  0.87035150  1
  N  N147  1  -0.00188384  0.33232846  0.87430375  1
  N  N148  1  0.33484112  0.31842656  0.37365720  1
  N  N149  1  0.15855529  0.49028478  0.87468209  1
  N  N150  1  0.50625576  0.16988967  0.62780429  1
  N  N151  1  0.82508017  0.83537533  0.38005312  1
  N  N152  1  0.33381576  0.32818116  0.12143790  1
  N  N153  1  0.67703433  0.33043933  0.37321834  1
  N  N154  1  0.17653647  0.81279338  0.62359848  1
  N  N155  1  0.34531801  0.67388098  0.88522346  1
  N  N156  1  -0.00349847  0.33140379  0.62159775  1
  N  N157  1  0.82828561  0.83598737  0.12644746  1
  N  N158  1  0.50786642  0.50518627  0.87397018  1
  N  N159  1  0.82949618  0.50818269  0.87771679  1
  N  N160  1  0.50651092  0.17141109  0.12364449  1
  N  N161  1  0.49241159  0.83431909  0.37409823  1
  N  N162  1  0.32056864  -0.00909140  0.12640338  1
  N  N163  1  0.17329879  0.15730865  0.62639942  1
  N  N164  1  0.00094640  0.65670241  0.12579253  1
  N  N165  1  0.33215548  0.32348602  0.62614680  1
  N  N166  1  0.67346715  0.00733143  0.62844505  1
  N  N167  1  0.16573547  0.49161895  0.37503550  1
  N  N168  1  -0.00299763  -0.01182200  0.12748346  1
  N  N169  1  0.33329798  0.65792827  0.37350089  1
  N  N170  1  0.33380614  -0.01085460  0.62596224  1
  N  N171  1  0.17410764  0.15881051  0.37523796  1
  N  N172  1  0.83535304  0.50103383  0.37315020  1
  N  N173  1  0.49753498  0.83396906  0.62416832  1
  N  N174  1  -0.00300980  -0.00947570  0.37447371  1
  N  N175  1  0.66626792  0.00923174  0.37523682  1
  N  N176  1  -0.00543839  0.00161226  0.87692827  1
  O  O177  1  0.51367992  0.83234616  0.13276521  1
  O  O178  1  0.84161195  0.17493435  0.87761560  1
  O  O179  1  0.50651043  0.16829255  0.88047339  1
  O  O180  1  0.66095952  -0.01243190  0.87237003  1
  O  O181  1  0.00934945  0.66778981  0.87519356  1
  O  O182  1  0.82460017  0.18859663  0.12554621  1
  O  O183  1  0.15239070  0.80952210  0.37298639  1
  O  O184  1  0.16824566  0.49268250  0.62230542  1
  O  O185  1  0.66780482  0.67539854  0.62280429  1
  O  O186  1  0.83718200  0.17601193  0.62153417  1
  O  O187  1  0.00758428  0.65806192  0.62718681  1
  O  O188  1  0.49201718  0.50381041  0.12712428  1
  O  O189  1  0.31465687  0.66224287  0.12240789  1
  O  O190  1  0.64991414  0.34185312  0.12309585  1
  O  O191  1  0.48489003  0.50978761  0.37769099  1
  O  O192  1  0.16623963  0.85023880  0.87376806  1
  O  O193  1  0.82658168  0.18513837  0.36881434  1
  O  O194  1  0.68138256  0.35948853  0.62409113  1
  O  O195  1  0.84426944  0.50803101  0.12516672  1
  O  O196  1  0.17180554  0.16328336  0.12464424  1
  O  O197  1  0.00170608  0.32892330  0.37120749  1
  O  O198  1  0.82243127  0.49530640  0.62656040  1
  O  O199  1  0.82151188  0.84207622  0.63229962  1
  O  O200  1  0.14818042  0.84302973  0.12470871  1
  O  O201  1  0.01591100  0.32681668  0.12729609  1
  O  O202  1  0.50530811  0.83893332  0.87313931  1
  O  O203  1  0.15190728  0.48083961  0.12088846  1
  O  O204  1  0.65217359  0.35770826  0.87844895  1
  O  O205  1  0.33218580  0.32643334  0.87609067  1
  O  O206  1  0.32050572  -0.01610582  0.87569494  1
  O  O207  1  0.66318085  -0.00001731  0.11789793  1
  O  O208  1  0.33764067  0.67482021  0.63353675  1
  O  O209  1  0.51021373  0.51575361  0.62455242  1
  O  O210  1  0.67058766  0.67782368  0.87260229  1
  O  O211  1  0.67291824  0.68726159  0.37426746  1
  O  O212  1  0.33598154  -0.00315744  0.37545785  1
  O  O213  1  0.67908950  0.69282675  0.13138022  1
  O  O214  1  0.50253217  0.16235127  0.37823159  1
  O  O215  1  -0.00388688  -0.00052544  0.62902669  1
