# generated using pymatgen
data_Sr24Ta24N11O13
_symmetry_space_group_name_H-M   'P 1'
_cell_length_a   16.75961566
_cell_length_b   16.71680770
_cell_length_c   15.75862002
_cell_angle_alpha   90.10198046
_cell_angle_beta   89.85160673
_cell_angle_gamma   89.90796619
_symmetry_Int_Tables_number   1
_chemical_formula_structural   Sr24Ta24N11O13
_chemical_formula_sum   'Sr72 Ta72 N33 O39'
_cell_volume   4415.02205506
_cell_formula_units_Z   3
loop_
 _symmetry_equiv_pos_site_id
 _symmetry_equiv_pos_as_xyz
  1  'x, y, z'
loop_
 _atom_site_type_symbol
 _atom_site_label
 _atom_site_symmetry_multiplicity
 _atom_site_fract_x
 _atom_site_fract_y
 _atom_site_fract_z
 _atom_site_occupancy
  Sr  Sr0  1  -0.00943638  0.18223458  0.12713092  1
  Sr  Sr1  1  0.00382764  0.15383441  0.65858560  1
  Sr  Sr2  1  -0.00532213  0.51188933  0.16186330  1
  Sr  Sr3  1  0.00340532  0.48776146  0.61181376  1
  Sr  Sr4  1  0.00675662  0.82656280  0.09504121  1
  Sr  Sr5  1  0.00077318  0.83773146  0.59555574  1
  Sr  Sr6  1  0.33070429  0.15236372  0.10876772  1
  Sr  Sr7  1  0.33100983  0.17959885  0.60856996  1
  Sr  Sr8  1  0.31969825  0.50237932  0.10407715  1
  Sr  Sr9  1  0.34011876  0.49846112  0.66100644  1
  Sr  Sr10  1  0.32551622  0.83502886  0.16353997  1
  Sr  Sr11  1  0.33488666  0.80764503  0.60601712  1
  Sr  Sr12  1  0.66598908  0.17084775  0.13226975  1
  Sr  Sr13  1  0.68227726  0.17572853  0.61165424  1
  Sr  Sr14  1  0.68600234  0.49999471  0.10549406  1
  Sr  Sr15  1  0.66047567  0.50516444  0.60369918  1
  Sr  Sr16  1  0.65505381  0.83999835  0.12448533  1
  Sr  Sr17  1  0.68787273  0.83395213  0.66691939  1
  Sr  Sr18  1  0.16920915  -0.00254033  0.12409445  1
  Sr  Sr19  1  0.16934661  0.01670762  0.65857329  1
  Sr  Sr20  1  0.13562790  0.34608422  0.13621662  1
  Sr  Sr21  1  0.16708949  0.32229322  0.58578419  1
  Sr  Sr22  1  0.16203818  0.67066972  0.10340285  1
  Sr  Sr23  1  0.16498342  0.65535275  0.62972982  1
  Sr  Sr24  1  0.50634990  0.00885371  0.08334575  1
  Sr  Sr25  1  0.50345504  -0.03253789  0.63606943  1
  Sr  Sr26  1  0.50065972  0.32258811  0.16636060  1
  Sr  Sr27  1  0.47842317  0.33166455  0.63754339  1
  Sr  Sr28  1  0.48433888  0.67849209  0.13830866  1
  Sr  Sr29  1  0.50958140  0.65751961  0.58714434  1
  Sr  Sr30  1  0.82340658  0.00581793  0.15790287  1
  Sr  Sr31  1  0.84216652  -0.00963879  0.61123031  1
  Sr  Sr32  1  0.81197608  0.32763281  0.08361874  1
  Sr  Sr33  1  0.84902493  0.33269517  0.63835973  1
  Sr  Sr34  1  0.84123739  0.66464137  0.12590035  1
  Sr  Sr35  1  0.82386799  0.66594238  0.66146401  1
  Sr  Sr36  1  0.00746980  0.15116246  0.33587041  1
  Sr  Sr37  1  -0.00973310  0.17730941  0.87022021  1
  Sr  Sr38  1  0.00075042  0.49644344  0.38258052  1
  Sr  Sr39  1  -0.00906320  0.51526273  0.82538471  1
  Sr  Sr40  1  0.00050998  0.83333100  0.39884993  1
  Sr  Sr41  1  0.00866657  0.83256310  0.90330077  1
  Sr  Sr42  1  0.33349900  0.17293983  0.38870381  1
  Sr  Sr43  1  0.32736740  0.16605129  0.89085964  1
  Sr  Sr44  1  0.35633095  0.49207045  0.32934792  1
  Sr  Sr45  1  0.32994786  0.50658861  0.88416529  1
  Sr  Sr46  1  0.32846482  0.82817407  0.38035162  1
  Sr  Sr47  1  0.32526803  0.83966642  0.82743604  1
  Sr  Sr48  1  0.68115102  0.15697716  0.38158977  1
  Sr  Sr49  1  0.66420488  0.18163948  0.88047483  1
  Sr  Sr50  1  0.66925550  0.49997666  0.39399785  1
  Sr  Sr51  1  0.67299345  0.50606539  0.90039356  1
  Sr  Sr52  1  0.69087708  0.82793099  0.33543988  1
  Sr  Sr53  1  0.65477253  0.84268997  0.87633413  1
  Sr  Sr54  1  0.17842397  0.00844583  0.33250725  1
  Sr  Sr55  1  0.16403081  0.00448007  0.87400092  1
  Sr  Sr56  1  0.15002290  0.33981873  0.37264379  1
  Sr  Sr57  1  0.18838331  0.33130062  0.92652915  1
  Sr  Sr58  1  0.15802277  0.68204189  0.40444927  1
  Sr  Sr59  1  0.17708659  0.65572449  0.86032734  1
  Sr  Sr60  1  0.48455180  -0.00408390  0.42361909  1
  Sr  Sr61  1  0.50680396  -0.01668960  0.87245207  1
  Sr  Sr62  1  0.48494556  0.32380949  0.36304823  1
  Sr  Sr63  1  0.48837799  0.33207833  0.83680194  1
  Sr  Sr64  1  0.48886017  0.68200114  0.36812982  1
  Sr  Sr65  1  0.50747839  0.64851881  0.92195190  1
  Sr  Sr66  1  0.83184159  0.00285697  0.37669747  1
  Sr  Sr67  1  0.83718241  -0.01141758  0.86400619  1
  Sr  Sr68  1  0.81411640  0.34173314  0.42212791  1
  Sr  Sr69  1  0.82939888  0.32618990  0.87015560  1
  Sr  Sr70  1  0.83024023  0.65576608  0.34165294  1
  Sr  Sr71  1  0.83921605  0.66857962  0.87465677  1
  Ta  Ta72  1  0.13755269  0.15221703  0.00249343  1
  Ta  Ta73  1  0.14519645  0.14119758  0.49175841  1
  Ta  Ta74  1  0.11739370  0.50246094  -0.00557639  1
  Ta  Ta75  1  0.20469816  0.50040807  0.49880622  1
  Ta  Ta76  1  0.20521497  0.83616425  -0.00027255  1
  Ta  Ta77  1  0.16984600  0.88958367  0.49355857  1
  Ta  Ta78  1  0.50097566  0.20479811  0.00044906  1
  Ta  Ta79  1  0.51532985  0.18048389  0.50204463  1
  Ta  Ta80  1  0.50080038  0.45675166  0.00044466  1
  Ta  Ta81  1  0.47993581  0.48114768  0.49707352  1
  Ta  Ta82  1  0.45467298  0.82943868  -0.00572265  1
  Ta  Ta83  1  0.57159061  0.82688462  0.49881588  1
  Ta  Ta84  1  0.83201536  0.13446044  0.00430984  1
  Ta  Ta85  1  0.87891320  0.16290747  0.49562732  1
  Ta  Ta86  1  0.87452323  0.50264169  -0.00777351  1
  Ta  Ta87  1  0.83661510  0.53865948  0.50587947  1
  Ta  Ta88  1  0.81438015  0.83964635  0.00608041  1
  Ta  Ta89  1  0.81453411  0.80534769  0.50446530  1
  Ta  Ta90  1  0.19089968  0.18784384  0.24520213  1
  Ta  Ta91  1  0.17470736  0.20612173  0.75847534  1
  Ta  Ta92  1  0.17569892  0.52453348  0.24580788  1
  Ta  Ta93  1  0.16852918  0.45089484  0.75540479  1
  Ta  Ta94  1  0.13951326  0.82305942  0.24907317  1
  Ta  Ta95  1  0.13478165  0.83528335  0.74507602  1
  Ta  Ta96  1  0.49719547  0.12170315  0.25309478  1
  Ta  Ta97  1  0.49811982  0.13975937  0.75048186  1
  Ta  Ta98  1  0.54054391  0.51168262  0.24428689  1
  Ta  Ta99  1  0.52084834  0.52269943  0.75804341  1
  Ta  Ta100  1  0.50352635  0.87676406  0.25386832  1
  Ta  Ta101  1  0.50432906  0.77950235  0.75508272  1
  Ta  Ta102  1  0.83026064  0.21412377  0.25310030  1
  Ta  Ta103  1  0.81708660  0.14605372  0.75432875  1
  Ta  Ta104  1  0.82215705  0.46357278  0.25747270  1
  Ta  Ta105  1  0.79769763  0.49261667  0.74960653  1
  Ta  Ta106  1  0.87867030  0.83231711  0.24546169  1
  Ta  Ta107  1  0.87856102  0.83350433  0.74909669  1
  Ta  Ta108  1  -0.00057500  -0.03997954  0.24715040  1
  Ta  Ta109  1  -0.00124581  -0.03388826  0.75010979  1
  Ta  Ta110  1  -0.05499661  0.33836135  0.25382088  1
  Ta  Ta111  1  0.04525034  0.33396059  0.74837136  1
  Ta  Ta112  1  0.01236798  0.69461791  0.24611429  1
  Ta  Ta113  1  0.00632867  0.70794464  0.75002424  1
  Ta  Ta114  1  0.37268763  0.00689899  0.25124662  1
  Ta  Ta115  1  0.34966860  0.03004650  0.74892659  1
  Ta  Ta116  1  0.30594885  0.31947298  0.24727963  1
  Ta  Ta117  1  0.29328698  0.32692007  0.74663342  1
  Ta  Ta118  1  0.29476556  0.65775556  0.25284272  1
  Ta  Ta119  1  0.38996900  0.66354869  0.75614607  1
  Ta  Ta120  1  0.61833029  0.00199247  0.25834972  1
  Ta  Ta121  1  0.67025476  0.03154906  0.75269698  1
  Ta  Ta122  1  0.68638046  0.34791909  0.24794458  1
  Ta  Ta123  1  0.66449937  0.36490073  0.75379390  1
  Ta  Ta124  1  0.65301162  0.63879570  0.24899138  1
  Ta  Ta125  1  0.63743974  0.65081890  0.75041501  1
  Ta  Ta126  1  -0.01164119  0.02109368  -0.00290824  1
  Ta  Ta127  1  0.02592056  0.02147884  0.50154899  1
  Ta  Ta128  1  -0.00873744  0.37497305  -0.00586982  1
  Ta  Ta129  1  -0.00509250  0.28585621  0.50085058  1
  Ta  Ta130  1  0.00066822  0.63399965  -0.00578148  1
  Ta  Ta131  1  -0.04703663  0.66245043  0.50403771  1
  Ta  Ta132  1  0.33053124  -0.03893221  0.00201523  1
  Ta  Ta133  1  0.29374997  0.00482092  0.49562389  1
  Ta  Ta134  1  0.38600724  0.33022615  0.00361761  1
  Ta  Ta135  1  0.33605186  0.37495162  0.49521349  1
  Ta  Ta136  1  0.33191835  0.71190906  -0.00688439  1
  Ta  Ta137  1  0.33534407  0.60882343  0.49236001  1
  Ta  Ta138  1  0.69765849  0.00547211  -0.00156510  1
  Ta  Ta139  1  0.66954156  -0.03697880  0.49874922  1
  Ta  Ta140  1  0.61564527  0.33179741  0.00057602  1
  Ta  Ta141  1  0.61973440  0.32980972  0.50042836  1
  Ta  Ta142  1  0.68594761  0.68918969  0.00088764  1
  Ta  Ta143  1  0.69328999  0.68793514  0.50475043  1
  N  N144  1  0.16595773  0.84871695  0.37409952  1
  N  N145  1  0.65846870  0.33444321  0.12875174  1
  N  N146  1  0.32349039  0.33872573  0.62335156  1
  N  N147  1  0.16248560  0.49246240  0.87588917  1
  N  N148  1  0.16998839  0.83602697  0.12060160  1
  N  N149  1  0.66382664  -0.00489666  0.37736149  1
  N  N150  1  0.83305506  0.83467849  0.12720112  1
  N  N151  1  0.33063095  0.65636651  0.37339118  1
  N  N152  1  0.50054397  0.49456511  0.87795308  1
  N  N153  1  0.00422784  0.67272031  0.87140452  1
  N  N154  1  0.65481366  0.34207938  0.87255972  1
  N  N155  1  0.33153691  0.00121396  0.37602996  1
  N  N156  1  0.15532152  0.50527439  0.12596212  1
  N  N157  1  0.34094690  -0.00745199  0.12230705  1
  N  N158  1  0.34445324  0.66801179  0.87453494  1
  N  N159  1  0.16278668  0.16807525  0.37295538  1
  N  N160  1  0.32511347  0.33760515  0.37169589  1
  N  N161  1  0.00101253  0.66891098  0.12578450  1
  N  N162  1  0.84059402  0.17071712  0.37702324  1
  N  N163  1  0.00964042  0.32044097  0.62406078  1
  N  N164  1  0.82787380  0.17481058  0.12678333  1
  N  N165  1  0.82947931  0.49728980  0.37661633  1
  N  N166  1  0.00069602  0.00300907  0.87605164  1
  N  N167  1  0.00557304  0.00013983  0.62374968  1
  N  N168  1  0.66458764  0.00426611  0.87822294  1
  N  N169  1  0.15647776  0.17199881  0.12514564  1
  N  N170  1  0.66832811  0.66538840  0.62842879  1
  N  N171  1  0.83011471  0.50093347  0.62535854  1
  N  N172  1  0.83188934  0.16580599  0.87572438  1
  N  N173  1  0.83972048  0.82923480  0.62447007  1
  N  N174  1  0.16719122  0.17356519  0.87951249  1
  N  N175  1  0.83456324  0.50352227  0.87283653  1
  N  N176  1  0.49532920  0.82253157  0.87481771  1
  O  O177  1  0.84324486  0.15640112  0.62685873  1
  O  O178  1  0.17390034  0.49923041  0.37699542  1
  O  O179  1  0.18381814  0.49547669  0.62808688  1
  O  O180  1  0.34056023  0.00665735  0.87395052  1
  O  O181  1  0.50281487  0.16444021  0.37839180  1
  O  O182  1  -0.02456152  0.33483960  0.38265959  1
  O  O183  1  0.33930183  0.32612426  0.88055564  1
  O  O184  1  0.52467063  0.50313002  0.12086310  1
  O  O185  1  0.64583050  0.33817307  0.37625059  1
  O  O186  1  0.66996895  0.66804415  0.12304891  1
  O  O187  1  0.53300564  0.81426227  0.62253284  1
  O  O188  1  0.66669256  -0.00427824  0.62990908  1
  O  O189  1  0.32834599  0.67060347  0.12703499  1
  O  O190  1  0.49166177  0.85362513  0.12750940  1
  O  O191  1  0.34780377  0.33504507  0.12803735  1
  O  O192  1  0.15498544  0.85113849  0.62086204  1
  O  O193  1  0.65950914  0.00139127  0.12310208  1
  O  O194  1  0.49941181  0.16356525  0.13002878  1
  O  O195  1  0.84583731  0.83030897  0.87515968  1
  O  O196  1  0.84022964  0.82425488  0.36989845  1
  O  O197  1  0.51042107  0.49605350  0.36661579  1
  O  O198  1  0.67579428  0.67857942  0.87593065  1
  O  O199  1  0.32756690  0.02275354  0.62601453  1
  O  O200  1  0.49584261  0.49491327  0.62491943  1
  O  O201  1  -0.00149586  -0.01467361  0.12461354  1
  O  O202  1  0.83813665  0.50099247  0.12149770  1
  O  O203  1  0.52197217  0.84247250  0.37921473  1
  O  O204  1  0.63579252  0.34169069  0.62452368  1
  O  O205  1  -0.02465512  0.35249228  0.12142176  1
  O  O206  1  -0.01323390  0.67413819  0.37982882  1
  O  O207  1  0.16415515  0.83608145  0.86992540  1
  O  O208  1  0.00106706  0.67322116  0.62136550  1
  O  O209  1  0.49810121  0.16298478  0.87465792  1
  O  O210  1  0.67074051  0.65579277  0.37316149  1
  O  O211  1  -0.00077938  -0.01189173  0.37208869  1
  O  O212  1  0.51057187  0.15802178  0.62841572  1
  O  O213  1  0.16390197  0.16851843  0.63048936  1
  O  O214  1  -0.00196560  0.34674077  0.87043216  1
  O  O215  1  0.35601888  0.64834461  0.61597859  1
