# generated using pymatgen
data_Sr24Ta24N11O13
_symmetry_space_group_name_H-M   'P 1'
_cell_length_a   16.84295855
_cell_length_b   16.65746873
_cell_length_c   15.65394803
_cell_angle_alpha   90.16285473
_cell_angle_beta   90.11601562
_cell_angle_gamma   89.62341103
_symmetry_Int_Tables_number   1
_chemical_formula_structural   Sr24Ta24N11O13
_chemical_formula_sum   'Sr72 Ta72 N33 O39'
_cell_volume   4391.76673696
_cell_formula_units_Z   3
loop_
 _symmetry_equiv_pos_site_id
 _symmetry_equiv_pos_as_xyz
  1  'x, y, z'
loop_
 _atom_site_type_symbol
 _atom_site_label
 _atom_site_symmetry_multiplicity
 _atom_site_fract_x
 _atom_site_fract_y
 _atom_site_fract_z
 _atom_site_occupancy
  Sr  Sr0  1  -0.00908913  0.14621344  0.10997254  1
  Sr  Sr1  1  -0.00960915  0.17337060  0.59022066  1
  Sr  Sr2  1  0.00318372  0.52395127  0.10666956  1
  Sr  Sr3  1  0.00980195  0.48380948  0.66690192  1
  Sr  Sr4  1  -0.02820872  0.83944880  0.15610780  1
  Sr  Sr5  1  0.01130925  0.82366378  0.61538296  1
  Sr  Sr6  1  0.31192840  0.18114079  0.16256243  1
  Sr  Sr7  1  0.32005960  0.16186482  0.61323195  1
  Sr  Sr8  1  0.33978017  0.49571338  0.09342791  1
  Sr  Sr9  1  0.30540531  0.49658220  0.62721577  1
  Sr  Sr10  1  0.31776294  0.84427738  0.11073320  1
  Sr  Sr11  1  0.32932960  0.83653463  0.66601400  1
  Sr  Sr12  1  0.63724364  0.16994740  0.10795906  1
  Sr  Sr13  1  0.66669751  0.15382653  0.65534705  1
  Sr  Sr14  1  0.64043865  0.50154050  0.14560697  1
  Sr  Sr15  1  0.68539767  0.49711897  0.61063582  1
  Sr  Sr16  1  0.66675011  0.83275644  0.12586278  1
  Sr  Sr17  1  0.61860496  0.84933402  0.58011613  1
  Sr  Sr18  1  0.17545053  0.00760310  0.10998260  1
  Sr  Sr19  1  0.18166581  -0.02228126  0.66771916  1
  Sr  Sr20  1  0.17289800  0.32937677  0.16216364  1
  Sr  Sr21  1  0.17156725  0.31686634  0.61316450  1
  Sr  Sr22  1  0.15263363  0.67198305  0.14296575  1
  Sr  Sr23  1  0.16485406  0.67460890  0.58888536  1
  Sr  Sr24  1  0.50207344  -0.02790042  0.06952303  1
  Sr  Sr25  1  0.50472439  0.01623250  0.61862957  1
  Sr  Sr26  1  0.49211767  0.34267734  0.11589212  1
  Sr  Sr27  1  0.55077724  0.32839105  0.67698852  1
  Sr  Sr28  1  0.51370152  0.67541806  0.16801953  1
  Sr  Sr29  1  0.49472704  0.64543866  0.60886719  1
  Sr  Sr30  1  0.81814236  -0.00328673  0.15938483  1
  Sr  Sr31  1  0.85028887  0.00152137  0.61901752  1
  Sr  Sr32  1  0.87170661  0.36238005  0.11871014  1
  Sr  Sr33  1  0.84537530  0.32694413  0.59479969  1
  Sr  Sr34  1  0.82144928  0.67248045  0.09010641  1
  Sr  Sr35  1  0.85009515  0.64853343  0.64478398  1
  Sr  Sr36  1  -0.02304753  0.15263369  0.39051013  1
  Sr  Sr37  1  -0.00583736  0.15778708  0.90652558  1
  Sr  Sr38  1  0.01601837  0.48608642  0.32419670  1
  Sr  Sr39  1  -0.00964953  0.50518482  0.88784536  1
  Sr  Sr40  1  -0.00555974  0.81418900  0.39773376  1
  Sr  Sr41  1  -0.01843611  0.84456283  0.82820267  1
  Sr  Sr42  1  0.33741297  0.17214498  0.38216412  1
  Sr  Sr43  1  0.29513508  0.17727943  0.83925736  1
  Sr  Sr44  1  0.33279123  0.51619599  0.42885696  1
  Sr  Sr45  1  0.32916039  0.49483527  0.87852219  1
  Sr  Sr46  1  0.32202113  0.81986075  0.32731799  1
  Sr  Sr47  1  0.33006378  0.84756308  0.88760969  1
  Sr  Sr48  1  0.65969613  0.16389189  0.34889068  1
  Sr  Sr49  1  0.64850551  0.16933739  0.87178501  1
  Sr  Sr50  1  0.67029366  0.49380597  0.38275516  1
  Sr  Sr51  1  0.64948295  0.51486049  0.83354579  1
  Sr  Sr52  1  0.65413361  0.84845650  0.36758066  1
  Sr  Sr53  1  0.66840196  0.83236487  0.90304686  1
  Sr  Sr54  1  0.21412656  -0.00104003  0.33629960  1
  Sr  Sr55  1  0.16542195  -0.00268527  0.88188491  1
  Sr  Sr56  1  0.17809667  0.32019662  0.38708046  1
  Sr  Sr57  1  0.17425452  0.34747802  0.82835706  1
  Sr  Sr58  1  0.15921183  0.67053427  0.36800707  1
  Sr  Sr59  1  0.18608515  0.65889945  0.93359264  1
  Sr  Sr60  1  0.49990429  0.01967626  0.41303850  1
  Sr  Sr61  1  0.51957932  0.00752959  0.87738959  1
  Sr  Sr62  1  0.52606074  0.32367148  0.32947651  1
  Sr  Sr63  1  0.50893819  0.35068745  0.89932304  1
  Sr  Sr64  1  0.50733517  0.67835093  0.38442584  1
  Sr  Sr65  1  0.49169420  0.67059774  0.82409853  1
  Sr  Sr66  1  0.85036659  -0.02305545  0.37529078  1
  Sr  Sr67  1  0.83653515  0.00397776  0.84840708  1
  Sr  Sr68  1  0.83851577  0.34786443  0.37770829  1
  Sr  Sr69  1  0.86638435  0.32763604  0.90721241  1
  Sr  Sr70  1  0.83876831  0.66042744  0.41345861  1
  Sr  Sr71  1  0.82511088  0.66801996  0.86658830  1
  Ta  Ta72  1  0.17645283  0.19121205  0.00213194  1
  Ta  Ta73  1  0.16300619  0.11798798  0.49260397  1
  Ta  Ta74  1  0.16751655  0.45504236  0.00336104  1
  Ta  Ta75  1  0.12902536  0.49608649  0.49786945  1
  Ta  Ta76  1  0.11402868  0.83524586  -0.00225844  1
  Ta  Ta77  1  0.19443440  0.85683792  0.49221305  1
  Ta  Ta78  1  0.43695774  0.17673299  -0.00453453  1
  Ta  Ta79  1  0.51500022  0.22093025  0.50395454  1
  Ta  Ta80  1  0.50527700  0.55504084  -0.00970439  1
  Ta  Ta81  1  0.51122914  0.43036310  0.50729513  1
  Ta  Ta82  1  0.50110131  0.77829865  -0.00527650  1
  Ta  Ta83  1  0.43879461  0.84274312  0.49481322  1
  Ta  Ta84  1  0.80714632  0.15466111  0.00044401  1
  Ta  Ta85  1  0.79020337  0.16127093  0.49835748  1
  Ta  Ta86  1  0.77830883  0.49750029  -0.00626952  1
  Ta  Ta87  1  0.88633362  0.49686634  0.49918434  1
  Ta  Ta88  1  0.84758330  0.85400253  -0.00537472  1
  Ta  Ta89  1  0.79792266  0.82480450  0.51686497  1
  Ta  Ta90  1  0.12629689  0.15411956  0.25645954  1
  Ta  Ta91  1  0.11882221  0.16195473  0.75113466  1
  Ta  Ta92  1  0.21644010  0.50001003  0.25972182  1
  Ta  Ta93  1  0.16623506  0.56147216  0.75998281  1
  Ta  Ta94  1  0.13371988  0.85148207  0.25061101  1
  Ta  Ta95  1  0.16349849  0.77183448  0.76731377  1
  Ta  Ta96  1  0.49184037  0.13408486  0.23876737  1
  Ta  Ta97  1  0.46965370  0.17180937  0.75294702  1
  Ta  Ta98  1  0.45874775  0.50075314  0.26262285  1
  Ta  Ta99  1  0.46961110  0.48799939  0.74352707  1
  Ta  Ta100  1  0.49497658  0.87289144  0.25254409  1
  Ta  Ta101  1  0.51708140  0.85105561  0.75430063  1
  Ta  Ta102  1  0.83362274  0.19722408  0.24397295  1
  Ta  Ta103  1  0.85465776  0.18441735  0.74381876  1
  Ta  Ta104  1  0.82661330  0.53256975  0.25272072  1
  Ta  Ta105  1  0.83435144  0.46025608  0.75005140  1
  Ta  Ta106  1  0.81913129  0.78854356  0.26572482  1
  Ta  Ta107  1  0.78692834  0.83259775  0.72669677  1
  Ta  Ta108  1  0.02927530  -0.00204511  0.25556004  1
  Ta  Ta109  1  0.00586893  0.03671111  0.74653193  1
  Ta  Ta110  1  -0.00234549  0.28989389  0.25380987  1
  Ta  Ta111  1  -0.00999580  0.30081636  0.75364917  1
  Ta  Ta112  1  -0.04273299  0.66770162  0.25160269  1
  Ta  Ta113  1  0.03055595  0.66249861  0.75246711  1
  Ta  Ta114  1  0.39087874  0.00696887  0.23584535  1
  Ta  Ta115  1  0.36732077  0.01661484  0.75903728  1
  Ta  Ta116  1  0.34145321  0.38071648  0.26492092  1
  Ta  Ta117  1  0.36980800  0.33456282  0.74182463  1
  Ta  Ta118  1  0.33654227  0.62526671  0.25755595  1
  Ta  Ta119  1  0.30475815  0.65857533  0.74784321  1
  Ta  Ta120  1  0.60663365  0.00469820  0.23502549  1
  Ta  Ta121  1  0.66910556  -0.03974858  0.74309493  1
  Ta  Ta122  1  0.70858763  0.32643806  0.22542443  1
  Ta  Ta123  1  0.72865644  0.32876241  0.75466005  1
  Ta  Ta124  1  0.70218131  0.66677675  0.26037923  1
  Ta  Ta125  1  0.66470344  0.71445585  0.73533991  1
  Ta  Ta126  1  -0.01460737  -0.03716254  -0.00600813  1
  Ta  Ta127  1  0.06371272  -0.01123375  0.49692187  1
  Ta  Ta128  1  0.05612566  0.33325824  -0.00266457  1
  Ta  Ta129  1  0.01065084  0.36967531  0.49269590  1
  Ta  Ta130  1  -0.00772293  0.71764217  -0.00165641  1
  Ta  Ta131  1  0.00325660  0.61494896  0.49757112  1
  Ta  Ta132  1  0.33457540  0.05097837  -0.00363042  1
  Ta  Ta133  1  0.31726779  -0.02197774  0.50798646  1
  Ta  Ta134  1  0.30806100  0.31533787  -0.00901647  1
  Ta  Ta135  1  0.38121782  0.33208664  0.51541288  1
  Ta  Ta136  1  0.37631860  0.66889977  0.00371544  1
  Ta  Ta137  1  0.33102061  0.71144914  0.50043678  1
  Ta  Ta138  1  0.70232988  0.00739282  -0.00490396  1
  Ta  Ta139  1  0.69023386  0.01842441  0.49616176  1
  Ta  Ta140  1  0.69757209  0.34300726  0.00641074  1
  Ta  Ta141  1  0.66097209  0.30815987  0.50486967  1
  Ta  Ta142  1  0.64009843  0.65118068  -0.01341418  1
  Ta  Ta143  1  0.68428425  0.68626693  0.51864721  1
  N  N144  1  0.64659930  0.33202222  0.12145525  1
  N  N145  1  -0.01270099  0.67957061  0.11784031  1
  N  N146  1  0.00577610  0.32266601  0.37562596  1
  N  N147  1  0.33475523  0.00231576  0.62976765  1
  N  N148  1  0.50227489  0.83143674  0.87746689  1
  N  N149  1  0.32513923  0.67099809  0.62382938  1
  N  N150  1  0.15991769  0.82698918  0.87700998  1
  N  N151  1  0.65956845  0.67295812  0.86297955  1
  N  N152  1  0.32282260  0.33127327  0.62550197  1
  N  N153  1  0.66719307  0.00101500  0.61819603  1
  N  N154  1  0.85102133  0.48757757  0.63084314  1
  N  N155  1  0.33428679  0.67017538  0.37572480  1
  N  N156  1  -0.00018519  0.65484599  0.36774156  1
  N  N157  1  0.83224556  0.16496217  0.62120847  1
  N  N158  1  0.84303708  0.50300812  0.37066393  1
  N  N159  1  0.17777492  0.49724921  0.38150343  1
  N  N160  1  0.16738894  0.83174490  0.36900862  1
  N  N161  1  -0.00469673  -0.00019319  0.87360105  1
  N  N162  1  0.17971873  0.15620885  0.37074519  1
  N  N163  1  0.49182499  0.51151416  0.86413286  1
  N  N164  1  0.69214562  0.32427060  0.62680246  1
  N  N165  1  0.32291097  0.00570559  0.87325823  1
  N  N166  1  0.34036315  0.00786172  0.11940814  1
  N  N167  1  0.01660288  0.33012989  0.87278540  1
  N  N168  1  0.65450650  -0.00299074  0.11904418  1
  N  N169  1  0.65219300  0.65010255  0.63305689  1
  N  N170  1  0.15764453  0.16436109  0.12769675  1
  N  N171  1  0.14800614  0.16596408  0.87299379  1
  N  N172  1  0.48671271  0.84449785  0.37736343  1
  N  N173  1  0.33074059  0.33426419  0.87079469  1
  N  N174  1  0.00599376  0.65429596  0.63007328  1
  N  N175  1  0.67501168  -0.00405203  0.87161480  1
  N  N176  1  0.82358528  0.82442938  0.39400440  1
  O  O177  1  0.52808055  0.48185484  0.62463505  1
  O  O178  1  0.33953603  0.66487146  0.88069247  1
  O  O179  1  0.82361502  0.83298626  0.12385954  1
  O  O180  1  0.64823063  0.00886343  0.37037178  1
  O  O181  1  0.33265679  0.34120732  0.13992861  1
  O  O182  1  -0.02016530  0.66722028  0.87784927  1
  O  O183  1  0.47814862  0.85131833  0.62608531  1
  O  O184  1  0.49018175  0.51842998  0.13372342  1
  O  O185  1  0.34216017  0.33364071  0.38502754  1
  O  O186  1  0.82907552  0.15776875  0.12748083  1
  O  O187  1  0.00520679  -0.01011275  0.38614798  1
  O  O188  1  0.16975428  0.50964559  0.88226282  1
  O  O189  1  0.82821718  0.84251018  0.86503704  1
  O  O190  1  0.00434515  -0.00622245  0.12847244  1
  O  O191  1  0.16173906  0.15888006  0.61725742  1
  O  O192  1  0.35335159  0.01891494  0.38280774  1
  O  O193  1  0.68150966  0.32199470  0.87786365  1
  O  O194  1  0.67797980  0.65869051  0.38958560  1
  O  O195  1  0.86491018  0.83804266  0.62839116  1
  O  O196  1  0.50334396  0.17773356  0.37682335  1
  O  O197  1  0.82349955  0.18450831  0.37428691  1
  O  O198  1  0.50672136  0.47123963  0.38463947  1
  O  O199  1  0.82934297  0.50828507  0.87634850  1
  O  O200  1  0.48670567  0.18426349  0.88025327  1
  O  O201  1  0.18557168  0.48607047  0.12736440  1
  O  O202  1  0.15843784  0.83108423  0.12187589  1
  O  O203  1  0.01721018  0.32043911  0.12752058  1
  O  O204  1  0.82853230  0.16427824  0.87722051  1
  O  O205  1  0.81395007  0.51514400  0.11468043  1
  O  O206  1  0.67033092  0.66444018  0.13392938  1
  O  O207  1  0.50776782  0.82202231  0.11921148  1
  O  O208  1  0.67793129  0.33247727  0.35460090  1
  O  O209  1  0.00847630  0.32831871  0.62192486  1
  O  O210  1  0.49896501  0.17446274  0.62425038  1
  O  O211  1  0.35683492  0.66117136  0.13120471  1
  O  O212  1  0.15792261  0.51869398  0.63455379  1
  O  O213  1  0.02621859  -0.01006616  0.62642172  1
  O  O214  1  0.16712879  0.82378638  0.64483062  1
  O  O215  1  0.47921229  0.18737420  0.12257790  1
