# generated using pymatgen
data_Sr24Ta24N11O13
_symmetry_space_group_name_H-M   'P 1'
_cell_length_a   15.99193130
_cell_length_b   20.03337060
_cell_length_c   13.70844020
_cell_angle_alpha   93.05616186
_cell_angle_beta   89.87274495
_cell_angle_gamma   90.18777668
_symmetry_Int_Tables_number   1
_chemical_formula_structural   Sr24Ta24N11O13
_chemical_formula_sum   'Sr72 Ta72 N33 O39'
_cell_volume   4385.52534484
_cell_formula_units_Z   3
loop_
 _symmetry_equiv_pos_site_id
 _symmetry_equiv_pos_as_xyz
  1  'x, y, z'
loop_
 _atom_site_type_symbol
 _atom_site_label
 _atom_site_symmetry_multiplicity
 _atom_site_fract_x
 _atom_site_fract_y
 _atom_site_fract_z
 _atom_site_occupancy
  Sr  Sr0  1  0.00267329  0.20648387  0.09155862  1
  Sr  Sr1  1  -0.00134636  0.20464675  0.58610877  1
  Sr  Sr2  1  -0.00677814  0.54079996  0.16860015  1
  Sr  Sr3  1  0.00522012  0.56255229  0.68205191  1
  Sr  Sr4  1  -0.00024563  0.85171376  0.13699776  1
  Sr  Sr5  1  -0.00425960  0.84729362  0.63762888  1
  Sr  Sr6  1  0.33518342  0.20881439  0.09325868  1
  Sr  Sr7  1  0.33277647  0.20629031  0.58744412  1
  Sr  Sr8  1  0.35098481  0.50628420  0.17860154  1
  Sr  Sr9  1  0.33137102  0.54527657  0.69356955  1
  Sr  Sr10  1  0.33097938  0.84456203  0.12472114  1
  Sr  Sr11  1  0.33293638  0.85410635  0.63079255  1
  Sr  Sr12  1  0.66472511  0.20936411  0.10233802  1
  Sr  Sr13  1  0.66643822  0.20704035  0.58756428  1
  Sr  Sr14  1  0.64688870  0.52320721  0.17816892  1
  Sr  Sr15  1  0.66350479  0.56654795  0.67874721  1
  Sr  Sr16  1  0.66396662  0.84518569  0.12397195  1
  Sr  Sr17  1  0.66402805  0.85183626  0.62628252  1
  Sr  Sr18  1  0.16945139  -0.05097440  0.06810996  1
  Sr  Sr19  1  0.16396917  -0.05179774  0.57256102  1
  Sr  Sr20  1  0.17024003  0.31180180  0.16085929  1
  Sr  Sr21  1  0.16900975  0.30306299  0.66266492  1
  Sr  Sr22  1  0.17295392  0.63459297  0.10835266  1
  Sr  Sr23  1  0.16930232  0.66585203  0.61370547  1
  Sr  Sr24  1  0.49930439  -0.05435917  0.08172357  1
  Sr  Sr25  1  0.49943937  -0.04445873  0.57388319  1
  Sr  Sr26  1  0.49832660  0.31895919  0.16226054  1
  Sr  Sr27  1  0.49349221  0.30509829  0.66671926  1
  Sr  Sr28  1  0.49622497  0.66075567  0.10540928  1
  Sr  Sr29  1  0.49001665  0.65279498  0.60518629  1
  Sr  Sr30  1  0.83206444  -0.05740568  0.06880095  1
  Sr  Sr31  1  0.83465975  -0.05399611  0.57553528  1
  Sr  Sr32  1  0.83391713  0.30128669  0.16042842  1
  Sr  Sr33  1  0.83487392  0.30748606  0.66468604  1
  Sr  Sr34  1  0.82245193  0.64278458  0.11092296  1
  Sr  Sr35  1  0.83838079  0.66516745  0.61168091  1
  Sr  Sr36  1  -0.00574598  0.16207226  0.33568323  1
  Sr  Sr37  1  0.00376821  0.18589320  0.83702279  1
  Sr  Sr38  1  -0.00665024  0.52025746  0.43101754  1
  Sr  Sr39  1  0.00760492  0.53361056  0.93076298  1
  Sr  Sr40  1  -0.00488647  0.88080340  0.38505650  1
  Sr  Sr41  1  -0.00099759  0.88048825  0.89694967  1
  Sr  Sr42  1  0.31882035  0.19305696  0.34894802  1
  Sr  Sr43  1  0.33761113  0.17486612  0.84150475  1
  Sr  Sr44  1  0.33102370  0.53218078  0.44330046  1
  Sr  Sr45  1  0.33875062  0.53655293  0.93372386  1
  Sr  Sr46  1  0.32709277  0.88268105  0.37885254  1
  Sr  Sr47  1  0.33232469  0.88285755  0.88686186  1
  Sr  Sr48  1  0.68250520  0.17206189  0.34123420  1
  Sr  Sr49  1  0.67201353  0.18244709  0.83602128  1
  Sr  Sr50  1  0.67549426  0.52710451  0.43246505  1
  Sr  Sr51  1  0.67277640  0.53268596  0.92276528  1
  Sr  Sr52  1  0.66896088  0.87815913  0.37820237  1
  Sr  Sr53  1  0.66224059  0.88198832  0.88823684  1
  Sr  Sr54  1  0.16465844  -0.01919024  0.31497138  1
  Sr  Sr55  1  0.16493519  -0.02334230  0.82539035  1
  Sr  Sr56  1  0.14756003  0.31901022  0.42025514  1
  Sr  Sr57  1  0.17204213  0.27754595  0.90281445  1
  Sr  Sr58  1  0.16726494  0.62377730  0.36693341  1
  Sr  Sr59  1  0.16736124  0.62732388  0.84597948  1
  Sr  Sr60  1  0.49954213  -0.01939280  0.32887875  1
  Sr  Sr61  1  0.49494020  -0.01236219  0.82490412  1
  Sr  Sr62  1  0.50997986  0.28861564  0.42497969  1
  Sr  Sr63  1  0.50629940  0.28123868  0.90558779  1
  Sr  Sr64  1  0.49738819  0.62174881  0.35137362  1
  Sr  Sr65  1  0.49843781  0.62751346  0.84813360  1
  Sr  Sr66  1  0.83394166  -0.02065874  0.32496500  1
  Sr  Sr67  1  0.82925741  -0.02610335  0.82746545  1
  Sr  Sr68  1  0.84594358  0.33179847  0.42106782  1
  Sr  Sr69  1  0.83755029  0.29349612  0.90015489  1
  Sr  Sr70  1  0.83115563  0.62726008  0.35283604  1
  Sr  Sr71  1  0.83824566  0.62433389  0.84886736  1
  Ta  Ta72  1  0.16677353  0.11299012  -0.02398920  1
  Ta  Ta73  1  0.16585962  0.11250173  0.48461619  1
  Ta  Ta74  1  0.17675771  0.43626224  -0.00222490  1
  Ta  Ta75  1  0.16763484  0.46492937  0.57700476  1
  Ta  Ta76  1  0.15816833  0.78261153  -0.00924764  1
  Ta  Ta77  1  0.15955363  0.79333418  0.47235475  1
  Ta  Ta78  1  0.50255349  0.11144492  -0.00085484  1
  Ta  Ta79  1  0.50334021  0.11134581  0.48104726  1
  Ta  Ta80  1  0.50687891  0.44726698  0.01233227  1
  Ta  Ta81  1  0.49846568  0.45879037  0.56394645  1
  Ta  Ta82  1  0.49779048  0.78102361  -0.03478052  1
  Ta  Ta83  1  0.50134566  0.78710480  0.46798802  1
  Ta  Ta84  1  0.83629258  0.11495735  -0.03114392  1
  Ta  Ta85  1  0.83165198  0.11012628  0.49621653  1
  Ta  Ta86  1  0.82910612  0.45540446  0.04478473  1
  Ta  Ta87  1  0.83119531  0.47343007  0.58384963  1
  Ta  Ta88  1  0.83696460  0.78182656  -0.02227964  1
  Ta  Ta89  1  0.82908112  0.78869188  0.47249384  1
  Ta  Ta90  1  0.17108322  0.11826545  0.18631501  1
  Ta  Ta91  1  0.16548987  0.11371919  0.70139816  1
  Ta  Ta92  1  0.17301508  0.45761286  0.28670587  1
  Ta  Ta93  1  0.16481159  0.45415922  0.78915027  1
  Ta  Ta94  1  0.15766825  0.78861738  0.25656150  1
  Ta  Ta95  1  0.17151891  0.79659114  0.77931206  1
  Ta  Ta96  1  0.49717279  0.11906963  0.21122098  1
  Ta  Ta97  1  0.50237288  0.12209466  0.69113558  1
  Ta  Ta98  1  0.50164391  0.44496719  0.33102043  1
  Ta  Ta99  1  0.50275679  0.45618119  0.78316962  1
  Ta  Ta100  1  0.49231878  0.78935037  0.25510145  1
  Ta  Ta101  1  0.49740441  0.79422447  0.76287250  1
  Ta  Ta102  1  0.83232892  0.10550093  0.18251232  1
  Ta  Ta103  1  0.83353362  0.11614196  0.71420454  1
  Ta  Ta104  1  0.82856118  0.45744467  0.27409888  1
  Ta  Ta105  1  0.84813433  0.45544179  0.79742331  1
  Ta  Ta106  1  0.83715430  0.79043821  0.25753622  1
  Ta  Ta107  1  0.82740612  0.79665197  0.76630561  1
  Ta  Ta108  1  0.00116809  0.03543990  0.17058933  1
  Ta  Ta109  1  -0.00345964  0.03601580  0.70147059  1
  Ta  Ta110  1  0.00121848  0.38886231  0.26687196  1
  Ta  Ta111  1  0.01041074  0.39070981  0.79538685  1
  Ta  Ta112  1  0.00073327  0.70766440  0.25614329  1
  Ta  Ta113  1  0.00223057  0.72262778  0.77629965  1
  Ta  Ta114  1  0.34277363  0.04785979  0.20627086  1
  Ta  Ta115  1  0.32938543  0.03925679  0.68644308  1
  Ta  Ta116  1  0.33798639  0.37252741  0.32085954  1
  Ta  Ta117  1  0.32936143  0.38386249  0.78778929  1
  Ta  Ta118  1  0.32657029  0.70820298  0.25406433  1
  Ta  Ta119  1  0.34040346  0.72542646  0.76044074  1
  Ta  Ta120  1  0.66231957  0.03475285  0.19015161  1
  Ta  Ta121  1  0.66790071  0.04356305  0.69687405  1
  Ta  Ta122  1  0.66377973  0.37425172  0.30385124  1
  Ta  Ta123  1  0.66813418  0.38655811  0.79340839  1
  Ta  Ta124  1  0.66289932  0.71587150  0.26431960  1
  Ta  Ta125  1  0.65366432  0.73135040  0.77179177  1
  Ta  Ta126  1  -0.00248838  0.04745174  -0.03612095  1
  Ta  Ta127  1  0.00555591  0.04041571  0.48802708  1
  Ta  Ta128  1  0.00444680  0.37680533  0.01536569  1
  Ta  Ta129  1  -0.00446926  0.39989243  0.58103448  1
  Ta  Ta130  1  0.00084540  0.70702908  -0.00925410  1
  Ta  Ta131  1  -0.00080418  0.71308328  0.47598620  1
  Ta  Ta132  1  0.33718988  0.04588948  -0.00783093  1
  Ta  Ta133  1  0.32685172  0.04623638  0.47207205  1
  Ta  Ta134  1  0.33958846  0.37179710  0.00701366  1
  Ta  Ta135  1  0.33791848  0.38320367  0.54229375  1
  Ta  Ta136  1  0.31967376  0.71616157  -0.03826145  1
  Ta  Ta137  1  0.33378522  0.72619616  0.46439635  1
  Ta  Ta138  1  0.67211001  0.04876679  -0.01916322  1
  Ta  Ta139  1  0.66708582  0.03961680  0.48362936  1
  Ta  Ta140  1  0.66931608  0.37796281  0.01211091  1
  Ta  Ta141  1  0.66268658  0.39830314  0.58712851  1
  Ta  Ta142  1  0.67197554  0.71299423  -0.03424988  1
  Ta  Ta143  1  0.65646433  0.71224086  0.47781215  1
  N  N144  1  0.49631413  0.18747335  0.58172844  1
  N  N145  1  0.00081757  0.64628548  0.85971061  1
  N  N146  1  -0.00068030  -0.03227661  0.57321626  1
  N  N147  1  0.16758038  0.15133661  0.83624298  1
  N  N148  1  0.82948835  0.81460380  0.62475272  1
  N  N149  1  0.49488057  0.52738131  0.67812187  1
  N  N150  1  0.66556141  0.32268636  0.67559380  1
  N  N151  1  0.33760918  0.31286932  0.43285152  1
  N  N152  1  0.49144958  0.80504885  0.11423705  1
  N  N153  1  0.00508256  0.69912362  0.61787119  1
  N  N154  1  0.50277875  0.51347933  0.91208019  1
  N  N155  1  0.66096443  -0.02855732  0.06935473  1
  N  N156  1  0.66471848  -0.02695385  0.58858514  1
  N  N157  1  0.83450588  0.81620589  0.12379163  1
  N  N158  1  -0.00074770  -0.00183813  0.82864386  1
  N  N159  1  0.84283341  0.50774739  0.92484750  1
  N  N160  1  0.00229348  0.33561036  0.14164062  1
  N  N161  1  0.15645180  0.86101674  0.37692119  1
  N  N162  1  0.33299089  -0.02505404  0.57028645  1
  N  N163  1  0.16820593  0.53062599  0.69255169  1
  N  N164  1  0.33243937  0.00209925  0.32771769  1
  N  N165  1  0.16893381  0.85900667  0.89759089  1
  N  N166  1  0.32792750  0.64793663  0.36890111  1
  N  N167  1  0.82791037  0.86013078  0.89405252  1
  N  N168  1  0.81589861  0.51921797  0.16787392  1
  N  N169  1  0.00175432  0.66206783  0.11659325  1
  N  N170  1  0.17055685  0.18724416  0.08781793  1
  N  N171  1  0.66010480  0.64468090  0.36533597  1
  N  N172  1  0.83027687  0.86018456  0.38042989  1
  N  N173  1  0.33077748  0.32542311  0.67020349  1
  N  N174  1  0.16424263  0.82945464  0.13120786  1
  N  N175  1  0.83778036  0.16797205  0.84709738  1
  N  N176  1  0.00678604  -0.03053118  0.05958956  1
  O  O177  1  0.00207776  0.63450463  0.35912171  1
  O  O178  1  0.34380122  0.36824280  0.15633724  1
  O  O179  1  0.00096600  0.31090721  0.89016007  1
  O  O180  1  0.33992957  0.01972457  0.84582764  1
  O  O181  1  0.50299115  0.86356010  0.36439626  1
  O  O182  1  0.32214547  0.70335518  0.10883534  1
  O  O183  1  0.33666194  0.63772742  0.82949828  1
  O  O184  1  0.18675985  0.52245586  0.92519986  1
  O  O185  1  0.51437870  0.16314178  0.34577303  1
  O  O186  1  0.49365250  0.81425093  0.61557858  1
  O  O187  1  0.65492019  0.00603004  0.84169384  1
  O  O188  1  0.49831951  0.13252294  0.84768610  1
  O  O189  1  0.51053939  0.52009339  0.44120459  1
  O  O190  1  0.50347006  0.45024901  0.18332998  1
  O  O191  1  0.65868939  0.63970247  0.83335692  1
  O  O192  1  0.18686870  0.46909268  0.14672647  1
  O  O193  1  0.82561557  0.18441316  0.09745913  1
  O  O194  1  0.49588384  0.87045054  0.90547709  1
  O  O195  1  0.15851278  0.12549992  0.33816551  1
  O  O196  1  0.83053850  0.54505838  0.69446984  1
  O  O197  1  0.33168955  0.71268616  0.60751323  1
  O  O198  1  0.34337698  -0.03172238  0.09071170  1
  O  O199  1  0.83576830  0.11493106  0.33849463  1
  O  O200  1  0.68355393  0.35396269  0.44039752  1
  O  O201  1  0.66019045  0.35531474  0.15983659  1
  O  O202  1  0.16256002  0.18804138  0.59350595  1
  O  O203  1  0.34762225  0.30310737  0.89417387  1
  O  O204  1  0.66690591  -0.00162628  0.32927690  1
  O  O205  1  0.50130722  0.19272686  0.09557205  1
  O  O206  1  0.16741308  0.81362351  0.62468722  1
  O  O207  1  0.83535300  0.18560658  0.59766673  1
  O  O208  1  0.00614698  0.02677567  0.33392595  1
  O  O209  1  0.67344080  0.29882610  0.91070015  1
  O  O210  1  0.82851734  0.47177255  0.43136931  1
  O  O211  1  0.64669476  0.68418321  0.62324624  1
  O  O212  1  0.16170808  0.47914108  0.43145843  1
  O  O213  1  0.00328862  0.31910087  0.66225086  1
  O  O214  1  -0.00143626  0.38465267  0.41977485  1
  O  O215  1  0.66535174  0.70580928  0.11846162  1
