# generated using pymatgen
data_Sr24Ta24N11O13
_symmetry_space_group_name_H-M   'P 1'
_cell_length_a   16.83804301
_cell_length_b   16.84373527
_cell_length_c   15.59493593
_cell_angle_alpha   89.36571738
_cell_angle_beta   90.54709719
_cell_angle_gamma   90.12959775
_symmetry_Int_Tables_number   1
_chemical_formula_structural   Sr24Ta24N11O13
_chemical_formula_sum   'Sr72 Ta72 N33 O39'
_cell_volume   4422.48323472
_cell_formula_units_Z   3
loop_
 _symmetry_equiv_pos_site_id
 _symmetry_equiv_pos_as_xyz
  1  'x, y, z'
loop_
 _atom_site_type_symbol
 _atom_site_label
 _atom_site_symmetry_multiplicity
 _atom_site_fract_x
 _atom_site_fract_y
 _atom_site_fract_z
 _atom_site_occupancy
  Sr  Sr0  1  0.00306056  0.16612862  0.08570858  1
  Sr  Sr1  1  0.02005679  0.14886000  0.64127416  1
  Sr  Sr2  1  0.00681942  0.47935059  0.17020297  1
  Sr  Sr3  1  -0.01608809  0.49630192  0.61508448  1
  Sr  Sr4  1  0.01276244  0.82746199  0.12649172  1
  Sr  Sr5  1  0.01969935  0.82373684  0.61335979  1
  Sr  Sr6  1  0.32988792  0.18145238  0.11548946  1
  Sr  Sr7  1  0.34758984  0.17890892  0.66153481  1
  Sr  Sr8  1  0.31821308  0.51969184  0.08780946  1
  Sr  Sr9  1  0.34386586  0.49072738  0.61925509  1
  Sr  Sr10  1  0.35309737  0.82109928  0.17164254  1
  Sr  Sr11  1  0.33224553  0.84740238  0.61748521  1
  Sr  Sr12  1  0.70005921  0.14362682  0.14416093  1
  Sr  Sr13  1  0.66168850  0.16761468  0.60565881  1
  Sr  Sr14  1  0.67018849  0.49759596  0.11223832  1
  Sr  Sr15  1  0.65525326  0.48167404  0.66055852  1
  Sr  Sr16  1  0.67686365  0.82416946  0.09999660  1
  Sr  Sr17  1  0.69338017  0.81887567  0.64279982  1
  Sr  Sr18  1  0.15723056  0.02343461  0.07840178  1
  Sr  Sr19  1  0.18306467  0.00372586  0.63214482  1
  Sr  Sr20  1  0.15435147  0.33708158  0.15616257  1
  Sr  Sr21  1  0.14349697  0.35181956  0.61014909  1
  Sr  Sr22  1  0.16863561  0.67048768  0.11396986  1
  Sr  Sr23  1  0.16584620  0.67328955  0.64845113  1
  Sr  Sr24  1  0.49684935  0.00848964  0.13782729  1
  Sr  Sr25  1  0.48937915  0.01733545  0.59077736  1
  Sr  Sr26  1  0.46728585  0.36526677  0.10012440  1
  Sr  Sr27  1  0.49854275  0.33472035  0.64360934  1
  Sr  Sr28  1  0.50147407  0.67500077  0.16074121  1
  Sr  Sr29  1  0.48057537  0.68512684  0.60452139  1
  Sr  Sr30  1  0.85041754  -0.02892707  0.16815090  1
  Sr  Sr31  1  0.83678771  -0.00528773  0.61666118  1
  Sr  Sr32  1  0.82769590  0.34046995  0.13811651  1
  Sr  Sr33  1  0.81538530  0.32587215  0.58821959  1
  Sr  Sr34  1  0.81928144  0.67110715  0.08201374  1
  Sr  Sr35  1  0.83383364  0.65013468  0.63351480  1
  Sr  Sr36  1  0.03127248  0.14373308  0.40747580  1
  Sr  Sr37  1  0.00393315  0.15662951  0.86632706  1
  Sr  Sr38  1  -0.01947895  0.49055105  0.38832848  1
  Sr  Sr39  1  -0.00306552  0.50051276  0.83546297  1
  Sr  Sr40  1  0.00547719  0.83438614  0.34667541  1
  Sr  Sr41  1  0.02358832  0.80902592  0.91292054  1
  Sr  Sr42  1  0.33456871  0.19432744  0.32625310  1
  Sr  Sr43  1  0.34950565  0.16012924  0.89652365  1
  Sr  Sr44  1  0.33608587  0.49504786  0.41878356  1
  Sr  Sr45  1  0.33354560  0.50689254  0.88281426  1
  Sr  Sr46  1  0.34015214  0.85355422  0.38644236  1
  Sr  Sr47  1  0.33229196  0.83393659  0.84435203  1
  Sr  Sr48  1  0.67093401  0.15566990  0.38256378  1
  Sr  Sr49  1  0.67822692  0.15362305  0.87883204  1
  Sr  Sr50  1  0.64070738  0.49850110  0.32766224  1
  Sr  Sr51  1  0.66930054  0.48529267  0.88958655  1
  Sr  Sr52  1  0.69523380  0.80553471  0.41110944  1
  Sr  Sr53  1  0.67245341  0.83112011  0.86918840  1
  Sr  Sr54  1  0.17039571  -0.00232681  0.40667547  1
  Sr  Sr55  1  0.18329110  0.00993258  0.86434464  1
  Sr  Sr56  1  0.15722508  0.34448168  0.38037127  1
  Sr  Sr57  1  0.12291364  0.34990439  0.84011118  1
  Sr  Sr58  1  0.14583095  0.69181565  0.32564087  1
  Sr  Sr59  1  0.17686853  0.66326715  0.88755258  1
  Sr  Sr60  1  0.48529335  0.02203286  0.36041941  1
  Sr  Sr61  1  0.51876344  0.00839158  0.92312431  1
  Sr  Sr62  1  0.48252481  0.34717407  0.37595087  1
  Sr  Sr63  1  0.48977236  0.34638799  0.86459126  1
  Sr  Sr64  1  0.49170788  0.67549926  0.38056920  1
  Sr  Sr65  1  0.48922258  0.70868049  0.84045923  1
  Sr  Sr66  1  0.83535575  -0.01498903  0.37728435  1
  Sr  Sr67  1  0.82441363  -0.00037033  0.82170311  1
  Sr  Sr68  1  0.81409068  0.33903799  0.35872428  1
  Sr  Sr69  1  0.82914486  0.30427120  0.92453990  1
  Sr  Sr70  1  0.83641901  0.65504545  0.41527308  1
  Sr  Sr71  1  0.82060479  0.65774843  0.86469473  1
  Ta  Ta72  1  0.16755490  0.21949002  -0.01137688  1
  Ta  Ta73  1  0.20613030  0.17982486  0.50188787  1
  Ta  Ta74  1  0.13472862  0.48398483  -0.00471545  1
  Ta  Ta75  1  0.16047767  0.55368573  0.49164101  1
  Ta  Ta76  1  0.21654553  0.84318032  0.01332734  1
  Ta  Ta77  1  0.16338508  0.81159661  0.49190362  1
  Ta  Ta78  1  0.53039161  0.19255761  0.01125460  1
  Ta  Ta79  1  0.47212460  0.18754468  0.49511012  1
  Ta  Ta80  1  0.49694186  0.55674346  -0.00687462  1
  Ta  Ta81  1  0.53114022  0.50227475  0.50147378  1
  Ta  Ta82  1  0.48553959  0.82447266  0.00150547  1
  Ta  Ta83  1  0.53516815  0.85719204  0.50700870  1
  Ta  Ta84  1  0.83943362  0.09140951  -0.00134046  1
  Ta  Ta85  1  0.86092264  0.16049360  0.49825935  1
  Ta  Ta86  1  0.87606176  0.49236065  0.00627097  1
  Ta  Ta87  1  0.77013823  0.49015666  0.49187595  1
  Ta  Ta88  1  0.84132931  0.87986922  -0.00986784  1
  Ta  Ta89  1  0.87603269  0.82795541  0.50287491  1
  Ta  Ta90  1  0.14979545  0.15111326  0.23974704  1
  Ta  Ta91  1  0.19053528  0.19821093  0.76406887  1
  Ta  Ta92  1  0.20587938  0.51154047  0.25560337  1
  Ta  Ta93  1  0.19091424  0.50657026  0.74839666  1
  Ta  Ta94  1  0.17829793  0.88411233  0.24080468  1
  Ta  Ta95  1  0.15013019  0.83525241  0.75030233  1
  Ta  Ta96  1  0.52132870  0.19842939  0.24463552  1
  Ta  Ta97  1  0.51585051  0.13834910  0.74944197  1
  Ta  Ta98  1  0.44743054  0.50572260  0.25468645  1
  Ta  Ta99  1  0.49432454  0.53974452  0.74882871  1
  Ta  Ta100  1  0.55472280  0.84344700  0.25814674  1
  Ta  Ta101  1  0.50548970  0.89009158  0.75360986  1
  Ta  Ta102  1  0.89257244  0.15156963  0.25153924  1
  Ta  Ta103  1  0.82798353  0.19758343  0.74662746  1
  Ta  Ta104  1  0.82364534  0.53894158  0.24777536  1
  Ta  Ta105  1  0.82233360  0.44627114  0.75433633  1
  Ta  Ta106  1  0.82546935  0.78766146  0.25410862  1
  Ta  Ta107  1  0.88596545  0.82342541  0.74713568  1
  Ta  Ta108  1  0.03109323  0.01729160  0.24609450  1
  Ta  Ta109  1  0.01112690  -0.04487306  0.75056930  1
  Ta  Ta110  1  -0.00917777  0.28039503  0.25194179  1
  Ta  Ta111  1  -0.05637761  0.32066868  0.75016409  1
  Ta  Ta112  1  -0.04958752  0.65773094  0.25090738  1
  Ta  Ta113  1  0.00162550  0.68699572  0.74718280  1
  Ta  Ta114  1  0.29283300  0.01462325  0.24451799  1
  Ta  Ta115  1  0.38110306  0.00950409  0.76003442  1
  Ta  Ta116  1  0.32326538  0.38621400  0.24819828  1
  Ta  Ta117  1  0.29747328  0.34360239  0.75772626  1
  Ta  Ta118  1  0.32341933  0.63493042  0.25867589  1
  Ta  Ta119  1  0.33035537  0.64769508  0.74814826  1
  Ta  Ta120  1  0.66439197  -0.03994555  0.25601012  1
  Ta  Ta121  1  0.63006962  0.00426856  0.74937246  1
  Ta  Ta122  1  0.63393633  0.31500345  0.24438531  1
  Ta  Ta123  1  0.69737403  0.31264610  0.75026184  1
  Ta  Ta124  1  0.69241710  0.67862165  0.25426815  1
  Ta  Ta125  1  0.64181313  0.64668341  0.74711215  1
  Ta  Ta126  1  -0.02830951  -0.01242950  -0.00487692  1
  Ta  Ta127  1  -0.00396310  -0.02894394  0.50042104  1
  Ta  Ta128  1  0.00863852  0.35531012  0.00088538  1
  Ta  Ta129  1  -0.02365391  0.30116026  0.50274145  1
  Ta  Ta130  1  -0.00106478  0.61343169  0.00380190  1
  Ta  Ta131  1  0.02466681  0.67408853  0.49526769  1
  Ta  Ta132  1  0.33986995  -0.03877276  0.00656242  1
  Ta  Ta133  1  0.33125817  0.07016463  0.49055166  1
  Ta  Ta134  1  0.27395411  0.34388371  -0.00418540  1
  Ta  Ta135  1  0.32622814  0.29873840  0.49799646  1
  Ta  Ta136  1  0.35820473  0.69860942  0.00367485  1
  Ta  Ta137  1  0.28630064  0.67360331  0.48395855  1
  Ta  Ta138  1  0.71009133  -0.00880693  -0.00346229  1
  Ta  Ta139  1  0.65674395  -0.02396614  0.50602071  1
  Ta  Ta140  1  0.64058957  0.30879541  0.00382167  1
  Ta  Ta141  1  0.64431313  0.35972850  0.49983897  1
  Ta  Ta142  1  0.61383842  0.66530823  -0.00490255  1
  Ta  Ta143  1  0.65523096  0.61915320  0.49768065  1
  N  N144  1  0.33333484  0.67231403  0.86997300  1
  N  N145  1  -0.01218694  0.32275076  0.62520458  1
  N  N146  1  0.33497591  0.67239132  0.12607873  1
  N  N147  1  0.48745078  0.50841820  0.37499485  1
  N  N148  1  0.67454229  -0.00497800  0.86678397  1
  N  N149  1  0.84451596  0.82106649  0.62922654  1
  N  N150  1  0.84441717  0.81874132  0.37448892  1
  N  N151  1  0.83177046  0.49879483  0.12208095  1
  N  N152  1  0.66258723  0.65711718  0.37485628  1
  N  N153  1  0.32715608  0.03067332  0.36417808  1
  N  N154  1  -0.00046514  0.65707506  0.62747741  1
  N  N155  1  0.16281837  0.17764999  0.11868476  1
  N  N156  1  0.31985524  0.34203537  0.37883516  1
  N  N157  1  0.17547842  0.83505079  0.62783096  1
  N  N158  1  0.00823627  -0.00762150  0.37436472  1
  N  N159  1  -0.00705736  0.32283797  0.13417958  1
  N  N160  1  0.49534203  0.50707069  0.62915987  1
  N  N161  1  0.00560264  -0.00864444  0.11753936  1
  N  N162  1  0.35034973  -0.00071542  0.88576359  1
  N  N163  1  -0.02220361  0.32708789  0.88146968  1
  N  N164  1  0.15947324  0.50640875  0.86975894  1
  N  N165  1  0.17345010  0.84388843  0.36892211  1
  N  N166  1  0.17458730  0.82487362  0.13279679  1
  N  N167  1  0.50569583  0.85417839  0.88212310  1
  N  N168  1  0.65870725  0.32605016  0.62649803  1
  N  N169  1  0.16475008  0.16111902  0.88076042  1
  N  N170  1  -0.00824554  0.65891447  0.36971488  1
  N  N171  1  0.32888561  0.69500442  0.36490886  1
  N  N172  1  0.31104118  0.35511074  0.11414911  1
  N  N173  1  0.50389776  0.17034718  0.62828356  1
  N  N174  1  0.50265172  0.17975221  0.37012694  1
  N  N175  1  0.01223246  -0.00575010  0.63173020  1
  N  N176  1  0.80898792  0.49666348  0.37267854  1
  O  O177  1  0.53781792  0.83063604  0.38647264  1
  O  O178  1  0.83300755  0.14685100  0.86910286  1
  O  O179  1  0.65092795  0.31891647  0.87159902  1
  O  O180  1  0.16551822  0.50756756  0.13145350  1
  O  O181  1  0.47756130  0.52316294  0.11858246  1
  O  O182  1  0.65505395  0.67121593  0.11941385  1
  O  O183  1  0.65006988  0.32313262  0.37502486  1
  O  O184  1  0.32415248  0.66778763  0.61062088  1
  O  O185  1  0.83521152  0.15654304  0.62336676  1
  O  O186  1  0.16655555  0.51357348  0.61642380  1
  O  O187  1  0.51788285  0.16558947  0.88510745  1
  O  O188  1  0.83454621  0.84236066  0.86611818  1
  O  O189  1  0.17755191  0.17905911  0.37318544  1
  O  O190  1  0.48569015  0.16109039  0.12359965  1
  O  O191  1  0.50544489  0.84460369  0.63092659  1
  O  O192  1  0.66002957  0.65976429  0.87419916  1
  O  O193  1  0.18736919  0.18004459  0.63541334  1
  O  O194  1  0.31344033  0.33613499  0.62918637  1
  O  O195  1  0.82919690  0.46526124  0.88298092  1
  O  O196  1  0.68441563  -0.01116097  0.63140674  1
  O  O197  1  0.15217035  0.50361522  0.37657402  1
  O  O198  1  0.68498457  -0.02204071  0.13159715  1
  O  O199  1  -0.00034879  0.63552463  0.12935907  1
  O  O200  1  0.17712754  0.83497633  0.88635786  1
  O  O201  1  0.00137577  0.64899213  0.87948463  1
  O  O202  1  0.83249354  0.82901603  0.11292099  1
  O  O203  1  0.52240179  0.83484941  0.13374676  1
  O  O204  1  0.66100329  0.33857849  0.12282995  1
  O  O205  1  -0.00176481  0.32864705  0.37655572  1
  O  O206  1  0.49171699  0.50179080  0.87939999  1
  O  O207  1  0.81036956  0.47523051  0.62767572  1
  O  O208  1  0.65867775  0.66272474  0.62401396  1
  O  O209  1  0.02156566  0.00030754  0.87170977  1
  O  O210  1  0.34440119  0.02253896  0.12229997  1
  O  O211  1  0.33615279  0.35205686  0.87900484  1
  O  O212  1  0.85138827  0.12453500  0.12853416  1
  O  O213  1  0.85765226  0.14145037  0.37359727  1
  O  O214  1  0.66840577  -0.01004952  0.38237449  1
  O  O215  1  0.34199289  0.02722526  0.63313653  1
