# generated using pymatgen
data_Sr24Ta24N11O13
_symmetry_space_group_name_H-M   'P 1'
_cell_length_a   16.77264318
_cell_length_b   16.82819148
_cell_length_c   15.66031273
_cell_angle_alpha   90.26259224
_cell_angle_beta   90.00055270
_cell_angle_gamma   90.11023969
_symmetry_Int_Tables_number   1
_chemical_formula_structural   Sr24Ta24N11O13
_chemical_formula_sum   'Sr72 Ta72 N33 O39'
_cell_volume   4420.11957742
_cell_formula_units_Z   3
loop_
 _symmetry_equiv_pos_site_id
 _symmetry_equiv_pos_as_xyz
  1  'x, y, z'
loop_
 _atom_site_type_symbol
 _atom_site_label
 _atom_site_symmetry_multiplicity
 _atom_site_fract_x
 _atom_site_fract_y
 _atom_site_fract_z
 _atom_site_occupancy
  Sr  Sr0  1  -0.00312762  0.16402271  0.12433315  1
  Sr  Sr1  1  -0.01972381  0.21771488  0.61628886  1
  Sr  Sr2  1  -0.00123045  0.50975397  0.11935351  1
  Sr  Sr3  1  0.00912122  0.50698486  0.65798620  1
  Sr  Sr4  1  0.01727740  0.85769011  0.12010701  1
  Sr  Sr5  1  -0.00168545  0.82467926  0.62501791  1
  Sr  Sr6  1  0.33499348  0.17796891  0.11769068  1
  Sr  Sr7  1  0.32913068  0.17532196  0.64772220  1
  Sr  Sr8  1  0.34975687  0.52242815  0.16039708  1
  Sr  Sr9  1  0.32270662  0.51225455  0.61669223  1
  Sr  Sr10  1  0.31985141  0.84890009  0.11940507  1
  Sr  Sr11  1  0.35058575  0.82856175  0.58269834  1
  Sr  Sr12  1  0.66476601  0.18864335  0.13384472  1
  Sr  Sr13  1  0.66228109  0.15183500  0.58032182  1
  Sr  Sr14  1  0.66818146  0.49433221  0.08610035  1
  Sr  Sr15  1  0.66005369  0.49272932  0.63715962  1
  Sr  Sr16  1  0.67253185  0.82565931  0.12013146  1
  Sr  Sr17  1  0.64712132  0.83963706  0.67899416  1
  Sr  Sr18  1  0.17661651  0.00809425  0.16808366  1
  Sr  Sr19  1  0.16782497  -0.03729020  0.60499407  1
  Sr  Sr20  1  0.13928833  0.31072311  0.07912846  1
  Sr  Sr21  1  0.18558692  0.34324877  0.60984424  1
  Sr  Sr22  1  0.16936556  0.67372181  0.10923663  1
  Sr  Sr23  1  0.15122178  0.65371959  0.66615775  1
  Sr  Sr24  1  0.49988311  -0.02994684  0.09643252  1
  Sr  Sr25  1  0.49881312  0.00075182  0.62088503  1
  Sr  Sr26  1  0.50918403  0.34042901  0.10910888  1
  Sr  Sr27  1  0.48953577  0.31688259  0.65667570  1
  Sr  Sr28  1  0.50221848  0.66659361  0.16713294  1
  Sr  Sr29  1  0.49855813  0.65004276  0.61851728  1
  Sr  Sr30  1  0.83846216  -0.00692978  0.09570821  1
  Sr  Sr31  1  0.83198608  -0.01941545  0.63749768  1
  Sr  Sr32  1  0.84517944  0.31318397  0.17482903  1
  Sr  Sr33  1  0.80690187  0.33631944  0.60644671  1
  Sr  Sr34  1  0.82704304  0.66342795  0.13507841  1
  Sr  Sr35  1  0.83417044  0.66072021  0.58733012  1
  Sr  Sr36  1  0.00042931  0.18685101  0.37162404  1
  Sr  Sr37  1  -0.01200228  0.17578015  0.87611886  1
  Sr  Sr38  1  -0.00712752  0.51892383  0.33449667  1
  Sr  Sr39  1  0.01290735  0.51184588  0.89025133  1
  Sr  Sr40  1  -0.00827455  0.84979591  0.41334574  1
  Sr  Sr41  1  0.01994554  0.85036847  0.84572123  1
  Sr  Sr42  1  0.32419284  0.17423289  0.35567554  1
  Sr  Sr43  1  0.34138624  0.16146169  0.86183204  1
  Sr  Sr44  1  0.32904690  0.50057725  0.37519433  1
  Sr  Sr45  1  0.33001812  0.53000104  0.87191689  1
  Sr  Sr46  1  0.32092151  0.85813865  0.38622412  1
  Sr  Sr47  1  0.33331201  0.83858251  0.91242547  1
  Sr  Sr48  1  0.66794899  0.18359409  0.36776460  1
  Sr  Sr49  1  0.66111923  0.18517972  0.90414048  1
  Sr  Sr50  1  0.68425836  0.51259013  0.42843674  1
  Sr  Sr51  1  0.65600833  0.48471846  0.86664728  1
  Sr  Sr52  1  0.66705466  0.81447432  0.32846995  1
  Sr  Sr53  1  0.67420624  0.83214701  0.88985983  1
  Sr  Sr54  1  0.15787064  -0.00547291  0.37458214  1
  Sr  Sr55  1  0.17562723  0.00655397  0.82677197  1
  Sr  Sr56  1  0.17532782  0.32741915  0.40606001  1
  Sr  Sr57  1  0.18583634  0.29914627  0.88592682  1
  Sr  Sr58  1  0.16002652  0.63647624  0.33183075  1
  Sr  Sr59  1  0.17079804  0.67754346  0.88952885  1
  Sr  Sr60  1  0.50248182  -0.00716700  0.40065959  1
  Sr  Sr61  1  0.49860825  -0.01848013  0.87036121  1
  Sr  Sr62  1  0.48430502  0.31502188  0.32286580  1
  Sr  Sr63  1  0.49476225  0.32568778  0.89058982  1
  Sr  Sr64  1  0.48206655  0.65912283  0.39091552  1
  Sr  Sr65  1  0.51311278  0.65645253  0.83667996  1
  Sr  Sr66  1  0.82480603  -0.01662085  0.39336918  1
  Sr  Sr67  1  0.84752828  0.00142037  0.86921442  1
  Sr  Sr68  1  0.83760254  0.32978117  0.38574367  1
  Sr  Sr69  1  0.84996392  0.34139009  0.82062870  1
  Sr  Sr70  1  0.83796159  0.66947300  0.37081629  1
  Sr  Sr71  1  0.81332708  0.64460950  0.91748909  1
  Ta  Ta72  1  0.16212259  0.11391621  -0.00072609  1
  Ta  Ta73  1  0.15900018  0.14238381  0.51015796  1
  Ta  Ta74  1  0.19419332  0.48658893  0.01133816  1
  Ta  Ta75  1  0.14344030  0.51668592  0.49055549  1
  Ta  Ta76  1  0.16116975  0.89734772  -0.00884175  1
  Ta  Ta77  1  0.16091006  0.77581749  0.49205830  1
  Ta  Ta78  1  0.50061943  0.13507708  -0.00713800  1
  Ta  Ta79  1  0.47695852  0.18499856  0.50101329  1
  Ta  Ta80  1  0.48543865  0.52722908  0.00459462  1
  Ta  Ta81  1  0.49216546  0.45470424  0.49669088  1
  Ta  Ta82  1  0.50187998  0.78327223  0.00394476  1
  Ta  Ta83  1  0.55031057  0.82669099  0.50131773  1
  Ta  Ta84  1  0.82948400  0.18815190  -0.00556303  1
  Ta  Ta85  1  0.84744822  0.14000036  0.50621027  1
  Ta  Ta86  1  0.84115142  0.46478270  0.00058673  1
  Ta  Ta87  1  0.88069830  0.49652372  0.50110384  1
  Ta  Ta88  1  0.86413649  0.81770431  -0.00207906  1
  Ta  Ta89  1  0.78041301  0.82627042  0.50046269  1
  Ta  Ta90  1  0.16238134  0.20102542  0.24256997  1
  Ta  Ta91  1  0.13291812  0.17126971  0.72906373  1
  Ta  Ta92  1  0.16690137  0.45427138  0.24123868  1
  Ta  Ta93  1  0.17673068  0.46334265  0.77185684  1
  Ta  Ta94  1  0.15976570  0.81734823  0.26400783  1
  Ta  Ta95  1  0.21822676  0.82811958  0.75043389  1
  Ta  Ta96  1  0.50684582  0.11757938  0.24952743  1
  Ta  Ta97  1  0.53757537  0.15463803  0.74810839  1
  Ta  Ta98  1  0.54411000  0.49388837  0.25143278  1
  Ta  Ta99  1  0.47498399  0.47796382  0.75674060  1
  Ta  Ta100  1  0.47458334  0.84399570  0.25092311  1
  Ta  Ta101  1  0.45041938  0.82605226  0.75061976  1
  Ta  Ta102  1  0.83050188  0.11937087  0.25076642  1
  Ta  Ta103  1  0.79139351  0.16176239  0.74756776  1
  Ta  Ta104  1  0.80050465  0.49526085  0.25673280  1
  Ta  Ta105  1  0.83309973  0.53333367  0.74338810  1
  Ta  Ta106  1  0.86467910  0.84568421  0.25617511  1
  Ta  Ta107  1  0.83129003  0.78830734  0.75040639  1
  Ta  Ta108  1  -0.02777980  0.00326896  0.25600242  1
  Ta  Ta109  1  0.00932903  0.04260296  0.71936994  1
  Ta  Ta110  1  0.03713717  0.34107378  0.24875574  1
  Ta  Ta111  1  0.04422128  0.34189460  0.75971478  1
  Ta  Ta112  1  0.00236476  0.71950184  0.25808275  1
  Ta  Ta113  1  -0.04822500  0.66982711  0.75034854  1
  Ta  Ta114  1  0.36762703  0.00430287  0.24764067  1
  Ta  Ta115  1  0.34136452  -0.03872880  0.74691070  1
  Ta  Ta116  1  0.29118385  0.34019828  0.23729730  1
  Ta  Ta117  1  0.32860508  0.36622377  0.75990584  1
  Ta  Ta118  1  0.32310141  0.71214120  0.25809218  1
  Ta  Ta119  1  0.33508078  0.70169329  0.75350019  1
  Ta  Ta120  1  0.66405954  0.01337642  0.25069859  1
  Ta  Ta121  1  0.66548284  0.03804935  0.74924847  1
  Ta  Ta122  1  0.67232629  0.38375373  0.25516972  1
  Ta  Ta123  1  0.66263011  0.29424449  0.74328398  1
  Ta  Ta124  1  0.66825058  0.61616785  0.25016707  1
  Ta  Ta125  1  0.70292970  0.66169037  0.75080929  1
  Ta  Ta126  1  0.03254959  0.00748128  -0.01332054  1
  Ta  Ta127  1  0.00016013  0.04239857  0.51679631  1
  Ta  Ta128  1  -0.05393475  0.33510973  0.00468299  1
  Ta  Ta129  1  0.00803522  0.38592354  0.49278846  1
  Ta  Ta130  1  -0.01296323  0.70194689  -0.00077490  1
  Ta  Ta131  1  0.02206107  0.64733249  0.49947664  1
  Ta  Ta132  1  0.31076844  0.01704316  -0.00231705  1
  Ta  Ta133  1  0.32490484  0.04123322  0.49611738  1
  Ta  Ta134  1  0.32670174  0.37930551  0.01864558  1
  Ta  Ta135  1  0.36882049  0.32978525  0.48955293  1
  Ta  Ta136  1  0.37357751  0.66827226  0.00384127  1
  Ta  Ta137  1  0.27900745  0.66383781  0.49458690  1
  Ta  Ta138  1  0.66483036  0.02123495  -0.00686971  1
  Ta  Ta139  1  0.66635526  -0.04931672  0.50668066  1
  Ta  Ta140  1  0.74320525  0.33404107  -0.00360077  1
  Ta  Ta141  1  0.60889411  0.33246438  0.49905347  1
  Ta  Ta142  1  0.62575874  0.66280682  0.00152598  1
  Ta  Ta143  1  0.66097481  0.70549717  0.50915158  1
  N  N144  1  0.82614999  0.16868907  0.62251702  1
  N  N145  1  0.66405568  -0.00900965  0.63363557  1
  N  N146  1  -0.00332002  0.67909753  0.37485576  1
  N  N147  1  0.49631930  0.15744442  0.87177590  1
  N  N148  1  0.32923382  0.01347640  0.37475653  1
  N  N149  1  0.32557506  0.67037566  0.37330857  1
  N  N150  1  0.16974819  0.51099951  0.88996122  1
  N  N151  1  0.33364944  0.00552093  0.12360595  1
  N  N152  1  -0.00657021  0.66548051  0.62945216  1
  N  N153  1  0.33380580  0.33608229  0.36893203  1
  N  N154  1  0.16434948  0.48845676  0.37151695  1
  N  N155  1  0.82294144  0.82959794  0.37230739  1
  N  N156  1  0.35839385  0.34787909  0.13690744  1
  N  N157  1  0.64922364  0.32213771  0.62026781  1
  N  N158  1  0.83629661  0.50048987  0.38042055  1
  N  N159  1  0.34017140  0.68058999  0.88028418  1
  N  N160  1  0.16227895  0.15983885  0.12523943  1
  N  N161  1  0.50750578  0.49784672  0.12937538  1
  N  N162  1  0.49939468  0.82198007  0.13139615  1
  N  N163  1  0.17724040  0.84963312  0.87368435  1
  N  N164  1  0.49689861  0.49354323  0.87680816  1
  N  N165  1  0.00693107  -0.02577257  0.61914445  1
  N  N166  1  0.17688264  0.19705756  0.61601336  1
  N  N167  1  0.15956868  0.84076754  0.38693505  1
  N  N168  1  -0.01089914  0.33578448  0.12066002  1
  N  N169  1  0.65897297  0.66747607  0.63339573  1
  N  N170  1  0.66567975  0.65690170  0.13147674  1
  N  N171  1  0.83270750  0.49658546  0.62318252  1
  N  N172  1  0.33713715  -0.00054396  0.86526560  1
  N  N173  1  0.66453835  0.65805973  0.88144712  1
  N  N174  1  0.83186203  0.16883946  0.87072439  1
  N  N175  1  0.49915952  0.16035329  0.62084182  1
  N  N176  1  0.00352817  0.34762580  0.37206777  1
  O  O177  1  0.68286114  -0.01049763  0.87284394  1
  O  O178  1  0.65642265  0.34064521  0.37674647  1
  O  O179  1  0.00857073  0.01723451  0.85377809  1
  O  O180  1  0.82508499  0.81766027  0.62537136  1
  O  O181  1  0.66460431  -0.01361904  0.37232004  1
  O  O182  1  -0.00675395  0.01146425  0.38193368  1
  O  O183  1  0.83550643  0.81463137  0.87742750  1
  O  O184  1  -0.00382912  0.67530756  0.87582738  1
  O  O185  1  0.33610868  0.34867656  0.88892827  1
  O  O186  1  0.83951231  0.49426340  0.86741317  1
  O  O187  1  0.84002005  0.49022835  0.13224178  1
  O  O188  1  0.66833849  0.01817636  0.11811216  1
  O  O189  1  0.82945118  0.14754772  0.12622779  1
  O  O190  1  0.32238589  0.67000734  0.61619043  1
  O  O191  1  0.00180968  0.33356698  0.88014089  1
  O  O192  1  0.15935955  0.17309471  0.37922599  1
  O  O193  1  0.16776668  0.50131108  0.64538579  1
  O  O194  1  0.33607011  0.00098912  0.61784843  1
  O  O195  1  0.49253870  0.48021819  0.37051850  1
  O  O196  1  0.70115469  0.33264444  0.87105395  1
  O  O197  1  0.16705292  0.85846682  0.12077026  1
  O  O198  1  0.03147573  0.35749344  0.63050148  1
  O  O199  1  0.69496412  0.34197592  0.13160052  1
  O  O200  1  0.66708272  0.66082099  0.37427345  1
  O  O201  1  0.48693189  0.48063867  0.62158350  1
  O  O202  1  0.49884901  0.82577200  0.62985743  1
  O  O203  1  0.16247344  0.15494021  0.85694756  1
  O  O204  1  0.84597677  0.83728840  0.12447523  1
  O  O205  1  0.17248814  0.81121886  0.62889522  1
  O  O206  1  0.00564392  0.69555829  0.12468520  1
  O  O207  1  0.33633586  0.34491867  0.62963290  1
  O  O208  1  0.82415027  0.14222674  0.37522475  1
  O  O209  1  0.15412018  0.52045479  0.13055730  1
  O  O210  1  0.50701265  0.13427635  0.12698041  1
  O  O211  1  0.49049060  0.82279444  0.87591479  1
  O  O212  1  -0.00258373  0.00744045  0.12678139  1
  O  O213  1  0.32930150  0.67956843  0.12854446  1
  O  O214  1  0.51347085  0.83453225  0.37587851  1
  O  O215  1  0.50872681  0.14872535  0.37542455  1
