# generated using pymatgen
data_Sr24Ta24N11O13
_symmetry_space_group_name_H-M   'P 1'
_cell_length_a   16.76206530
_cell_length_b   16.83127833
_cell_length_c   15.64331480
_cell_angle_alpha   89.65818894
_cell_angle_beta   90.17751306
_cell_angle_gamma   89.93775713
_symmetry_Int_Tables_number   1
_chemical_formula_structural   Sr24Ta24N11O13
_chemical_formula_sum   'Sr72 Ta72 N33 O39'
_cell_volume   4413.29885152
_cell_formula_units_Z   3
loop_
 _symmetry_equiv_pos_site_id
 _symmetry_equiv_pos_as_xyz
  1  'x, y, z'
loop_
 _atom_site_type_symbol
 _atom_site_label
 _atom_site_symmetry_multiplicity
 _atom_site_fract_x
 _atom_site_fract_y
 _atom_site_fract_z
 _atom_site_occupancy
  Sr  Sr0  1  -0.01463073  0.14701220  0.14894549  1
  Sr  Sr1  1  0.00755350  0.16468433  0.63343589  1
  Sr  Sr2  1  0.02228635  0.48856858  0.10782628  1
  Sr  Sr3  1  -0.01257287  0.49247505  0.65889679  1
  Sr  Sr4  1  0.03164216  0.81527228  0.14904252  1
  Sr  Sr5  1  -0.00877797  0.81861746  0.61032632  1
  Sr  Sr6  1  0.33745880  0.16230586  0.13585195  1
  Sr  Sr7  1  0.32486314  0.17727414  0.58093593  1
  Sr  Sr8  1  0.34025486  0.50512611  0.16505647  1
  Sr  Sr9  1  0.31611537  0.49402133  0.60863993  1
  Sr  Sr10  1  0.34022218  0.80827251  0.08772216  1
  Sr  Sr11  1  0.34625093  0.85131560  0.63759204  1
  Sr  Sr12  1  0.66428441  0.15278467  0.09345169  1
  Sr  Sr13  1  0.65482103  0.17267920  0.64032745  1
  Sr  Sr14  1  0.65808355  0.48062585  0.13268625  1
  Sr  Sr15  1  0.67858499  0.51361305  0.56979094  1
  Sr  Sr16  1  0.66550712  0.84044000  0.12501463  1
  Sr  Sr17  1  0.68495687  0.80217289  0.67009454  1
  Sr  Sr18  1  0.17689360  0.00970080  0.12371100  1
  Sr  Sr19  1  0.16037401  -0.01541890  0.66898776  1
  Sr  Sr20  1  0.17087844  0.32876632  0.08763221  1
  Sr  Sr21  1  0.15372488  0.34113394  0.63705135  1
  Sr  Sr22  1  0.17516298  0.65684459  0.13474212  1
  Sr  Sr23  1  0.15547140  0.67759384  0.58178241  1
  Sr  Sr24  1  0.50157377  -0.01478931  0.16768108  1
  Sr  Sr25  1  0.49003523  0.01673694  0.61123103  1
  Sr  Sr26  1  0.49886479  0.30826606  0.10677687  1
  Sr  Sr27  1  0.49923210  0.34031815  0.66041319  1
  Sr  Sr28  1  0.51381783  0.67933539  0.07322822  1
  Sr  Sr29  1  0.49012610  0.66419895  0.63214025  1
  Sr  Sr30  1  0.81831903  0.00412560  0.11165847  1
  Sr  Sr31  1  0.82911606  0.03672412  0.62363321  1
  Sr  Sr32  1  0.84841818  0.35511928  0.14033026  1
  Sr  Sr33  1  0.80378851  0.35299685  0.59639661  1
  Sr  Sr34  1  0.81055282  0.69483630  0.15692765  1
  Sr  Sr35  1  0.84265164  0.66741785  0.62232130  1
  Sr  Sr36  1  -0.00101711  0.16540063  0.37378648  1
  Sr  Sr37  1  -0.00830595  0.14188999  0.85910041  1
  Sr  Sr38  1  0.00327993  0.48360088  0.34147084  1
  Sr  Sr39  1  0.00166949  0.50519096  0.88368618  1
  Sr  Sr40  1  0.00699178  0.80950322  0.38789108  1
  Sr  Sr41  1  0.00492340  0.81803423  0.87077950  1
  Sr  Sr42  1  0.33889205  0.15810325  0.36282182  1
  Sr  Sr43  1  0.32067801  0.18619711  0.92309133  1
  Sr  Sr44  1  0.32580342  0.50749676  0.38174386  1
  Sr  Sr45  1  0.35176762  0.48808612  0.82115783  1
  Sr  Sr46  1  0.36649811  0.83600141  0.40804355  1
  Sr  Sr47  1  0.33114894  0.83024386  0.86661484  1
  Sr  Sr48  1  0.67198572  0.15008043  0.42542448  1
  Sr  Sr49  1  0.65023919  0.16526735  0.85965902  1
  Sr  Sr50  1  0.66857803  0.48764448  0.35918569  1
  Sr  Sr51  1  0.65257436  0.49346332  0.91656556  1
  Sr  Sr52  1  0.66944528  0.84659191  0.33780007  1
  Sr  Sr53  1  0.68116814  0.82843078  0.89056935  1
  Sr  Sr54  1  0.15595878  0.00695608  0.33188426  1
  Sr  Sr55  1  0.17432099  0.00549293  0.87863678  1
  Sr  Sr56  1  0.18226202  0.31602829  0.42183211  1
  Sr  Sr57  1  0.15594929  0.34214040  0.86425987  1
  Sr  Sr58  1  0.16402277  0.65063342  0.35557936  1
  Sr  Sr59  1  0.15246575  0.67052154  0.91993971  1
  Sr  Sr60  1  0.50229090  0.00072399  0.38809599  1
  Sr  Sr61  1  0.49595821  0.00567392  0.83816527  1
  Sr  Sr62  1  0.49270681  0.36103191  0.31307036  1
  Sr  Sr63  1  0.50759187  0.32215232  0.88425075  1
  Sr  Sr64  1  0.49527565  0.66258621  0.41596543  1
  Sr  Sr65  1  0.48559472  0.67350667  0.85682452  1
  Sr  Sr66  1  0.83506137  0.00944885  0.39931618  1
  Sr  Sr67  1  0.81655472  0.01915494  0.89122712  1
  Sr  Sr68  1  0.82923665  0.34604839  0.36095758  1
  Sr  Sr69  1  0.83588755  0.37636176  0.89788648  1
  Sr  Sr70  1  0.82742945  0.68146524  0.38300363  1
  Sr  Sr71  1  0.84840417  0.68392644  0.83783229  1
  Ta  Ta72  1  0.12762665  0.16529265  0.00386852  1
  Ta  Ta73  1  0.15764850  0.12204649  0.49673016  1
  Ta  Ta74  1  0.21577274  0.49530091  -0.00522549  1
  Ta  Ta75  1  0.12458106  0.49577718  0.49957998  1
  Ta  Ta76  1  0.15933828  0.85532538  0.00190961  1
  Ta  Ta77  1  0.17553451  0.86406181  0.49646328  1
  Ta  Ta78  1  0.49321680  0.11725701  0.00172130  1
  Ta  Ta79  1  0.49838262  0.20747168  0.49931690  1
  Ta  Ta80  1  0.45986245  0.49941832  -0.00211628  1
  Ta  Ta81  1  0.49931616  0.47035242  0.48946953  1
  Ta  Ta82  1  0.50158717  0.87567012  -0.00202057  1
  Ta  Ta83  1  0.55283131  0.83412059  0.51285724  1
  Ta  Ta84  1  0.83617894  0.20119667  -0.00069994  1
  Ta  Ta85  1  0.85274658  0.20037110  0.50563045  1
  Ta  Ta86  1  0.82977104  0.55044853  0.00266425  1
  Ta  Ta87  1  0.87261481  0.50587248  0.49257698  1
  Ta  Ta88  1  0.85811381  0.82449467  0.00347723  1
  Ta  Ta89  1  0.79397999  0.84026715  0.50515618  1
  Ta  Ta90  1  0.16577865  0.20165410  0.24963048  1
  Ta  Ta91  1  0.20422372  0.17360005  0.74854658  1
  Ta  Ta92  1  0.17214164  0.44736641  0.25647257  1
  Ta  Ta93  1  0.16353888  0.53933925  0.74464504  1
  Ta  Ta94  1  0.22168752  0.83007473  0.24917901  1
  Ta  Ta95  1  0.16198044  0.79600319  0.75307648  1
  Ta  Ta96  1  0.53625761  0.16253361  0.25254997  1
  Ta  Ta97  1  0.44966522  0.17263353  0.75169913  1
  Ta  Ta98  1  0.50307026  0.56511080  0.24959661  1
  Ta  Ta99  1  0.55820608  0.50235995  0.74538001  1
  Ta  Ta100  1  0.49121832  0.79092921  0.24434193  1
  Ta  Ta101  1  0.52630470  0.84709944  0.74385271  1
  Ta  Ta102  1  0.79430933  0.16556284  0.25391678  1
  Ta  Ta103  1  0.83160660  0.22607028  0.75283664  1
  Ta  Ta104  1  0.84010028  0.53046061  0.25208901  1
  Ta  Ta105  1  0.79427196  0.50076398  0.74303732  1
  Ta  Ta106  1  0.85756617  0.86017513  0.25907909  1
  Ta  Ta107  1  0.84193378  0.87688474  0.75391488  1
  Ta  Ta108  1  -0.02768207  -0.02780477  0.25692691  1
  Ta  Ta109  1  -0.02359206  -0.02812740  0.74987138  1
  Ta  Ta110  1  0.04296875  0.32152876  0.24844284  1
  Ta  Ta111  1  -0.03257103  0.32351951  0.75649429  1
  Ta  Ta112  1  -0.02335464  0.64729426  0.24247241  1
  Ta  Ta113  1  0.04142145  0.66386741  0.74149676  1
  Ta  Ta114  1  0.33157253  -0.04241077  0.25272339  1
  Ta  Ta115  1  0.32699010  0.05661145  0.74515589  1
  Ta  Ta116  1  0.29890443  0.32926605  0.24712305  1
  Ta  Ta117  1  0.32647666  0.29127735  0.74677955  1
  Ta  Ta118  1  0.35682909  0.68847052  0.25290002  1
  Ta  Ta119  1  0.27972396  0.66810730  0.75091516  1
  Ta  Ta120  1  0.67592828  0.03473092  0.25904359  1
  Ta  Ta121  1  0.66831397  -0.02602742  0.73865966  1
  Ta  Ta122  1  0.66701465  0.27732978  0.25532384  1
  Ta  Ta123  1  0.68060834  0.36410419  0.75332730  1
  Ta  Ta124  1  0.63466716  0.66374838  0.24963884  1
  Ta  Ta125  1  0.66738288  0.62486643  0.74517768  1
  Ta  Ta126  1  0.00479040  -0.02943439  0.00586947  1
  Ta  Ta127  1  0.04615990  -0.00820250  0.50168741  1
  Ta  Ta128  1  -0.00810020  0.29014273  0.00398488  1
  Ta  Ta129  1  -0.01331418  0.34723156  0.49498700  1
  Ta  Ta130  1  -0.04238647  0.66970271  0.01687595  1
  Ta  Ta131  1  -0.00478229  0.62120419  0.49156059  1
  Ta  Ta132  1  0.36112712  -0.00780303  -0.00298111  1
  Ta  Ta133  1  0.28062222  -0.00068685  0.50354235  1
  Ta  Ta134  1  0.34017424  0.38023149  0.00293982  1
  Ta  Ta135  1  0.38698229  0.34008681  0.48761392  1
  Ta  Ta136  1  0.33437321  0.61559532  -0.01103317  1
  Ta  Ta137  1  0.31725097  0.67917416  0.50227527  1
  Ta  Ta138  1  0.62501771  -0.00724879  0.00301176  1
  Ta  Ta139  1  0.66780535  -0.04244444  0.51458567  1
  Ta  Ta140  1  0.69150181  0.31244611  0.00036106  1
  Ta  Ta141  1  0.61237852  0.33090681  0.48844991  1
  Ta  Ta142  1  0.70693576  0.66563925  -0.00489791  1
  Ta  Ta143  1  0.66796294  0.70869949  0.50270610  1
  N  N144  1  0.34623765  0.33072943  0.37015396  1
  N  N145  1  0.83740591  0.84463843  0.88288290  1
  N  N146  1  0.48616498  0.16190446  0.88389109  1
  N  N147  1  0.16600410  0.48342280  0.37601144  1
  N  N148  1  0.66620903  -0.00091767  0.38105879  1
  N  N149  1  0.82520626  0.50595556  0.37450040  1
  N  N150  1  0.17007942  0.82970410  0.87597029  1
  N  N151  1  0.50303772  0.82930204  0.12212994  1
  N  N152  1  0.00341025  0.65948657  0.62349061  1
  N  N153  1  0.66043672  -0.00228927  0.12957108  1
  N  N154  1  0.33430760  0.67060505  0.38136238  1
  N  N155  1  0.00193989  0.32565166  0.12210663  1
  N  N156  1  0.32602104  0.65886826  0.86709096  1
  N  N157  1  0.83143165  0.84122257  0.38153870  1
  N  N158  1  0.66752413  0.65822360  0.62027279  1
  N  N159  1  0.16614484  0.16008209  0.37685926  1
  N  N160  1  0.02047180  0.65786324  0.11906497  1
  N  N161  1  0.33906262  0.33599691  0.12208066  1
  N  N162  1  0.50010013  0.82312999  0.62681750  1
  N  N163  1  0.66884554  0.33541067  0.87800680  1
  N  N164  1  0.65950285  0.32651283  0.37285224  1
  N  N165  1  0.48979064  0.17654858  0.62153519  1
  N  N166  1  0.15928796  0.49960463  0.62492848  1
  N  N167  1  0.32145853  0.01272210  0.62446115  1
  N  N168  1  0.18781026  0.82848729  0.12555876  1
  N  N169  1  0.66774614  0.01770761  0.62343647  1
  N  N170  1  0.00447317  0.65782741  0.36381811  1
  N  N171  1  0.82810151  0.19308039  0.62807895  1
  N  N172  1  0.83082587  0.50841140  0.62387623  1
  N  N173  1  0.50078516  0.15263424  0.13193280  1
  N  N174  1  0.49788752  0.51257586  0.36738586  1
  N  N175  1  0.00430212  0.32577180  0.37510517  1
  N  N176  1  0.16301394  0.16369911  0.12264610  1
  O  O177  1  0.65470476  0.67495352  0.37516318  1
  O  O178  1  0.32666676  -0.01210273  0.37767272  1
  O  O179  1  0.33142202  0.33536505  0.86903032  1
  O  O180  1  0.83144944  0.17679926  0.87451264  1
  O  O181  1  0.16675831  0.83698302  0.62329112  1
  O  O182  1  0.50625327  0.49729039  0.86545052  1
  O  O183  1  -0.00302262  -0.01716543  0.38483337  1
  O  O184  1  0.69359479  0.67006224  0.86829292  1
  O  O185  1  0.17384141  0.84532674  0.37090696  1
  O  O186  1  0.81637438  0.51788992  0.12377186  1
  O  O187  1  0.66488244  -0.01213310  0.87591279  1
  O  O188  1  0.16514316  0.16917193  0.87932330  1
  O  O189  1  -0.00634600  -0.01718959  0.88024593  1
  O  O190  1  0.33537356  0.01094823  0.87342689  1
  O  O191  1  0.18625773  0.49118128  0.12277983  1
  O  O192  1  0.66522083  0.31915435  0.12767166  1
  O  O193  1  0.19277912  0.49423226  0.86513335  1
  O  O194  1  0.51556208  0.82568408  0.37018325  1
  O  O195  1  0.32924697  0.65623087  0.62993134  1
  O  O196  1  0.82138835  0.84595543  0.13035307  1
  O  O197  1  0.33323754  0.65687522  0.11488116  1
  O  O198  1  0.49686706  0.15372425  0.37674995  1
  O  O199  1  0.34354638  -0.02366293  0.12812827  1
  O  O200  1  0.00246645  -0.01787808  0.62578232  1
  O  O201  1  0.16453998  0.16978920  0.62215140  1
  O  O202  1  0.83445896  0.52705230  0.87150215  1
  O  O203  1  0.49242145  0.52843749  0.12270263  1
  O  O204  1  -0.00791678  0.33163676  0.63298003  1
  O  O205  1  -0.00140628  0.66176313  0.88673448  1
  O  O206  1  0.52550016  0.49490401  0.61948633  1
  O  O207  1  0.83703920  0.83155585  0.62983241  1
  O  O208  1  0.65221060  0.33625936  0.62507605  1
  O  O209  1  0.83557917  0.17778534  0.37810162  1
  O  O210  1  0.34295690  0.33468046  0.62434493  1
  O  O211  1  0.66469343  0.66520825  0.11737003  1
  O  O212  1  -0.01013301  0.34783280  0.88246508  1
  O  O213  1  0.50659515  0.83330073  0.87476473  1
  O  O214  1  0.83180780  0.17734937  0.12919351  1
  O  O215  1  -0.00530527  -0.01503246  0.12977229  1
