# generated using pymatgen
data_Sr24Ta24N11O13
_symmetry_space_group_name_H-M   'P 1'
_cell_length_a   16.74554153
_cell_length_b   16.79825879
_cell_length_c   15.75398295
_cell_angle_alpha   89.96452650
_cell_angle_beta   90.27250674
_cell_angle_gamma   89.83866267
_symmetry_Int_Tables_number   1
_chemical_formula_structural   Sr24Ta24N11O13
_chemical_formula_sum   'Sr72 Ta72 N33 O39'
_cell_volume   4431.46287075
_cell_formula_units_Z   3
loop_
 _symmetry_equiv_pos_site_id
 _symmetry_equiv_pos_as_xyz
  1  'x, y, z'
loop_
 _atom_site_type_symbol
 _atom_site_label
 _atom_site_symmetry_multiplicity
 _atom_site_fract_x
 _atom_site_fract_y
 _atom_site_fract_z
 _atom_site_occupancy
  Sr  Sr0  1  -0.00125654  0.14378506  0.08974535  1
  Sr  Sr1  1  -0.00563345  0.16526606  0.62074417  1
  Sr  Sr2  1  -0.00763827  0.50252068  0.11254726  1
  Sr  Sr3  1  0.01770312  0.48783078  0.66720268  1
  Sr  Sr4  1  -0.01323269  0.85043336  0.17529459  1
  Sr  Sr5  1  0.00407518  0.82992661  0.61295450  1
  Sr  Sr6  1  0.32346941  0.16514808  0.13116947  1
  Sr  Sr7  1  0.35236416  0.15542174  0.61821928  1
  Sr  Sr8  1  0.33888531  0.49676041  0.13104839  1
  Sr  Sr9  1  0.32363720  0.50863272  0.58310506  1
  Sr  Sr10  1  0.32446213  0.84033650  0.11813031  1
  Sr  Sr11  1  0.34867422  0.82058534  0.66761820  1
  Sr  Sr12  1  0.66162714  0.16303438  0.12093096  1
  Sr  Sr13  1  0.67984021  0.13221955  0.65667125  1
  Sr  Sr14  1  0.66461013  0.49550406  0.16061674  1
  Sr  Sr15  1  0.68112379  0.48498117  0.61626094  1
  Sr  Sr16  1  0.66930284  0.81487759  0.09591180  1
  Sr  Sr17  1  0.66439100  0.82426782  0.59910961  1
  Sr  Sr18  1  0.16325006  -0.00880605  0.13561699  1
  Sr  Sr19  1  0.16009980  0.01479024  0.57702680  1
  Sr  Sr20  1  0.17315642  0.34400212  0.15890139  1
  Sr  Sr21  1  0.16121624  0.33404526  0.64156442  1
  Sr  Sr22  1  0.16419109  0.65351278  0.08196570  1
  Sr  Sr23  1  0.16672057  0.67434671  0.63308740  1
  Sr  Sr24  1  0.49614126  0.01993763  0.16275870  1
  Sr  Sr25  1  0.50388236  -0.00499856  0.61541329  1
  Sr  Sr26  1  0.48945592  0.32071873  0.08222015  1
  Sr  Sr27  1  0.49934563  0.34352343  0.62549608  1
  Sr  Sr28  1  0.50373636  0.66186980  0.12928804  1
  Sr  Sr29  1  0.50036198  0.66660494  0.64796644  1
  Sr  Sr30  1  0.81350419  0.00793864  0.11236395  1
  Sr  Sr31  1  0.84658400  0.00723115  0.66688168  1
  Sr  Sr32  1  0.83753141  0.35738804  0.14557525  1
  Sr  Sr33  1  0.83680156  0.33690565  0.60856292  1
  Sr  Sr34  1  0.84516944  0.67693808  0.11668141  1
  Sr  Sr35  1  0.82814754  0.68241300  0.59311427  1
  Sr  Sr36  1  -0.00257458  0.17385243  0.41361895  1
  Sr  Sr37  1  -0.00565373  0.15201709  0.88020897  1
  Sr  Sr38  1  -0.00105556  0.47603929  0.32608550  1
  Sr  Sr39  1  -0.00637662  0.50443079  0.88874725  1
  Sr  Sr40  1  0.01742064  0.83571843  0.38898216  1
  Sr  Sr41  1  -0.01118227  0.84317042  0.82730460  1
  Sr  Sr42  1  0.33920622  0.15350825  0.38466250  1
  Sr  Sr43  1  0.33813039  0.17810427  0.85786639  1
  Sr  Sr44  1  0.32833204  0.50118490  0.37074106  1
  Sr  Sr45  1  0.34374264  0.50105133  0.92006470  1
  Sr  Sr46  1  0.34865729  0.82990992  0.34054586  1
  Sr  Sr47  1  0.32656628  0.83942485  0.87749963  1
  Sr  Sr48  1  0.67710666  0.14528934  0.33879966  1
  Sr  Sr49  1  0.66830015  0.15897930  0.89004555  1
  Sr  Sr50  1  0.68183029  0.48178321  0.38748437  1
  Sr  Sr51  1  0.65518145  0.48999425  0.83569258  1
  Sr  Sr52  1  0.66001230  0.82322090  0.39887970  1
  Sr  Sr53  1  0.67679920  0.82230775  0.90008253  1
  Sr  Sr54  1  0.16433027  -0.00595550  0.37056811  1
  Sr  Sr55  1  0.17903377  0.01609864  0.91890055  1
  Sr  Sr56  1  0.16905610  0.34186281  0.35593810  1
  Sr  Sr57  1  0.15900468  0.32895700  0.84767162  1
  Sr  Sr58  1  0.17071325  0.66280314  0.41453339  1
  Sr  Sr59  1  0.15693836  0.67579737  0.86367682  1
  Sr  Sr60  1  0.50359017  0.00390131  0.38229536  1
  Sr  Sr61  1  0.47974919  0.00644465  0.82533412  1
  Sr  Sr62  1  0.49157944  0.33585039  0.41715611  1
  Sr  Sr63  1  0.49797429  0.33416121  0.87636439  1
  Sr  Sr64  1  0.48583691  0.65729766  0.34287006  1
  Sr  Sr65  1  0.50670055  0.67548933  0.87732677  1
  Sr  Sr66  1  0.83011357  0.00228241  0.34487484  1
  Sr  Sr67  1  0.82388899  0.00517014  0.88282021  1
  Sr  Sr68  1  0.83340575  0.33112296  0.37508339  1
  Sr  Sr69  1  0.83548736  0.36480854  0.86868608  1
  Sr  Sr70  1  0.85256308  0.68432075  0.38367572  1
  Sr  Sr71  1  0.83274290  0.67649642  0.89864175  1
  Ta  Ta72  1  0.16631889  0.20996075  0.00309387  1
  Ta  Ta73  1  0.17710809  0.20382336  0.49620001  1
  Ta  Ta74  1  0.16560509  0.45793898  0.00454726  1
  Ta  Ta75  1  0.13766477  0.48352162  0.49234626  1
  Ta  Ta76  1  0.12802445  0.83797096  0.00081509  1
  Ta  Ta77  1  0.21846702  0.83485773  0.49819340  1
  Ta  Ta78  1  0.49372136  0.13124132  -0.00838258  1
  Ta  Ta79  1  0.54824366  0.16254260  0.50237928  1
  Ta  Ta80  1  0.53768264  0.50233762  0.00448828  1
  Ta  Ta81  1  0.50728607  0.52903297  0.49682343  1
  Ta  Ta82  1  0.49184525  0.86619528  -0.00733807  1
  Ta  Ta83  1  0.47612736  0.81537155  0.50445916  1
  Ta  Ta84  1  0.82724102  0.21443245  0.00645692  1
  Ta  Ta85  1  0.81106608  0.14576576  0.50106881  1
  Ta  Ta86  1  0.79195756  0.50494123  0.00192411  1
  Ta  Ta87  1  0.87897876  0.50045684  0.49670013  1
  Ta  Ta88  1  0.87031643  0.84509486  -0.00438325  1
  Ta  Ta89  1  0.83333088  0.88210558  0.50548883  1
  Ta  Ta90  1  0.13475353  0.16153763  0.25486233  1
  Ta  Ta91  1  0.16016817  0.14087840  0.74853923  1
  Ta  Ta92  1  0.16606193  0.54058752  0.24708316  1
  Ta  Ta93  1  0.20858473  0.50409114  0.75636014  1
  Ta  Ta94  1  0.16797888  0.78910494  0.25511889  1
  Ta  Ta95  1  0.16654034  0.87736556  0.74458884  1
  Ta  Ta96  1  0.49717198  0.20694754  0.25868175  1
  Ta  Ta97  1  0.52286060  0.18878525  0.74545074  1
  Ta  Ta98  1  0.49977519  0.44997435  0.24778208  1
  Ta  Ta99  1  0.45403772  0.49998112  0.75165844  1
  Ta  Ta100  1  0.53167449  0.83591715  0.24438817  1
  Ta  Ta101  1  0.54136674  0.83311704  0.75181755  1
  Ta  Ta102  1  0.86996916  0.17060832  0.25249553  1
  Ta  Ta103  1  0.83618633  0.20177783  0.74953214  1
  Ta  Ta104  1  0.82804993  0.54050457  0.25238198  1
  Ta  Ta105  1  0.83522138  0.54479801  0.75129131  1
  Ta  Ta106  1  0.79462807  0.82959681  0.25062266  1
  Ta  Ta107  1  0.80627876  0.81842757  0.74654749  1
  Ta  Ta108  1  -0.00052998  0.04294855  0.25905390  1
  Ta  Ta109  1  0.05097659  0.00773259  0.74263730  1
  Ta  Ta110  1  0.00069210  0.28431341  0.24442009  1
  Ta  Ta111  1  -0.01696776  0.31018305  0.75691621  1
  Ta  Ta112  1  0.03325142  0.66473890  0.25028118  1
  Ta  Ta113  1  -0.03179857  0.66295758  0.74654041  1
  Ta  Ta114  1  0.32879416  0.00065299  0.25579998  1
  Ta  Ta115  1  0.28495286  0.00399678  0.74408650  1
  Ta  Ta116  1  0.37080793  0.32758347  0.24732134  1
  Ta  Ta117  1  0.33565571  0.37872106  0.75579056  1
  Ta  Ta118  1  0.29166821  0.66576470  0.25318296  1
  Ta  Ta119  1  0.33383946  0.62262161  0.74846332  1
  Ta  Ta120  1  0.66101748  -0.04979241  0.24148751  1
  Ta  Ta121  1  0.66501411  -0.04514976  0.75066556  1
  Ta  Ta122  1  0.62052510  0.32333032  0.25232386  1
  Ta  Ta123  1  0.67135939  0.30355191  0.75111791  1
  Ta  Ta124  1  0.68516865  0.68163063  0.24823323  1
  Ta  Ta125  1  0.68544321  0.67883474  0.74872672  1
  Ta  Ta126  1  0.00174418  -0.04924521  -0.00206633  1
  Ta  Ta127  1  -0.03825253  -0.00092126  0.50062767  1
  Ta  Ta128  1  0.02373640  0.32449154  0.00723014  1
  Ta  Ta129  1  0.01288225  0.36208623  0.49224901  1
  Ta  Ta130  1  0.00108739  0.73559768  -0.00072927  1
  Ta  Ta131  1  0.00510777  0.60240415  0.49837552  1
  Ta  Ta132  1  0.37275053  0.00571748  -0.00809866  1
  Ta  Ta133  1  0.33801408  -0.04661226  0.50578261  1
  Ta  Ta134  1  0.29592967  0.32542380  0.00055368  1
  Ta  Ta135  1  0.30385259  0.32600729  0.50114025  1
  Ta  Ta136  1  0.34639338  0.68030846  -0.00018196  1
  Ta  Ta137  1  0.35177778  0.69389260  0.50066001  1
  Ta  Ta138  1  0.61141685  -0.00756231  -0.00160675  1
  Ta  Ta139  1  0.69277395  0.00723199  0.50394049  1
  Ta  Ta140  1  0.67894419  0.35256119  -0.00176469  1
  Ta  Ta141  1  0.66932172  0.27637148  0.50273160  1
  Ta  Ta142  1  0.66503014  0.62164728  0.00414043  1
  Ta  Ta143  1  0.62839632  0.64732751  0.49536805  1
  N  N144  1  0.50603690  0.48660393  0.12601656  1
  N  N145  1  0.32988270  0.00366776  0.87419137  1
  N  N146  1  0.33146088  -0.00658255  0.62973529  1
  N  N147  1  0.16492293  0.17036804  0.37628247  1
  N  N148  1  0.66606341  0.33313242  0.87540030  1
  N  N149  1  0.16381414  0.50038777  0.37103338  1
  N  N150  1  0.82409165  0.51875995  0.87266337  1
  N  N151  1  0.50394644  0.82542575  0.62512849  1
  N  N152  1  -0.00108642  0.00195370  0.37543066  1
  N  N153  1  0.83672303  0.17115328  0.62696333  1
  N  N154  1  -0.00215013  0.33252520  0.87702773  1
  N  N155  1  0.16573906  0.49971667  0.12002487  1
  N  N156  1  0.32952731  0.66518572  0.37376883  1
  N  N157  1  0.50766158  0.16843079  0.37687851  1
  N  N158  1  0.49999701  0.16664007  0.87146997  1
  N  N159  1  -0.00097433  0.33724804  0.13341378  1
  N  N160  1  0.84417993  0.50656154  0.37406139  1
  N  N161  1  0.49882833  0.83619434  0.87188362  1
  N  N162  1  0.00105111  0.32925718  0.37336382  1
  N  N163  1  0.32918118  0.34201353  0.87558440  1
  N  N164  1  0.50894627  0.15702786  0.62477439  1
  N  N165  1  0.83132882  0.51363849  0.12719541  1
  N  N166  1  0.83339384  0.84269931  0.62471396  1
  N  N167  1  0.00521280  0.00204553  0.62434494  1
  N  N168  1  0.33981927  -0.00811069  0.37706965  1
  N  N169  1  0.33466424  0.66156504  0.62718227  1
  N  N170  1  0.65377452  -0.01082382  0.11785217  1
  N  N171  1  0.66708644  0.66117812  0.12637700  1
  N  N172  1  0.17816721  0.82425274  0.37885565  1
  N  N173  1  0.67119305  -0.01702564  0.62381100  1
  N  N174  1  0.83549176  0.16687122  0.37350462  1
  N  N175  1  0.33537267  0.33137217  0.12723202  1
  N  N176  1  0.83564319  0.84198979  0.87403732  1
  O  O177  1  0.66496675  -0.01570762  0.88173956  1
  O  O178  1  0.01503523  -0.00886586  0.87357313  1
  O  O179  1  0.64548459  0.32717686  0.12721201  1
  O  O180  1  0.15486522  0.85385020  0.86972805  1
  O  O181  1  0.50326487  0.16861976  0.11831881  1
  O  O182  1  0.16377912  0.16925562  0.62353585  1
  O  O183  1  -0.01213482  0.69205501  0.86901861  1
  O  O184  1  0.00211295  0.33709188  0.63065652  1
  O  O185  1  0.33222735  0.33242215  0.37741833  1
  O  O186  1  0.32853820  0.67650544  0.12307147  1
  O  O187  1  0.67626618  0.32747994  0.61801223  1
  O  O188  1  0.15001204  0.83079872  0.13467494  1
  O  O189  1  0.01176740  0.65015683  0.37702855  1
  O  O190  1  0.65064561  0.31876115  0.37910963  1
  O  O191  1  0.15943524  0.16654793  0.87648132  1
  O  O192  1  0.83628614  0.51198842  0.62171274  1
  O  O193  1  0.00546960  -0.00418304  0.13318370  1
  O  O194  1  -0.00256550  0.64190101  0.62424085  1
  O  O195  1  0.48204814  0.51013343  0.61968308  1
  O  O196  1  0.82796728  0.83660655  0.12720711  1
  O  O197  1  0.82045858  0.18872040  0.12983453  1
  O  O198  1  0.81365119  0.83886935  0.37797204  1
  O  O199  1  0.83528623  0.19450480  0.88496675  1
  O  O200  1  0.67167051  0.66432251  0.87511470  1
  O  O201  1  0.66870923  -0.00813603  0.36493916  1
  O  O202  1  0.64507034  0.66036210  0.37231379  1
  O  O203  1  0.50868969  0.82713367  0.37050142  1
  O  O204  1  0.51010732  0.82881640  0.12110979  1
  O  O205  1  0.16085238  0.16361413  0.12070197  1
  O  O206  1  0.34193739  -0.00170856  0.12381293  1
  O  O207  1  0.17457142  0.49334285  0.63126839  1
  O  O208  1  0.01119822  0.69377035  0.12815132  1
  O  O209  1  0.31739294  0.34556692  0.62532449  1
  O  O210  1  0.50340850  0.49755628  0.37261161  1
  O  O211  1  0.16940302  0.84745266  0.62040511  1
  O  O212  1  0.34294449  0.66604396  0.87587149  1
  O  O213  1  0.66272521  0.66198785  0.62352376  1
  O  O214  1  0.49509091  0.49814348  0.88176308  1
  O  O215  1  0.18644791  0.50198995  0.88195607  1
