# generated using pymatgen
data_Sr24Ta24N11O13
_symmetry_space_group_name_H-M   'P 1'
_cell_length_a   16.73192658
_cell_length_b   16.76590438
_cell_length_c   15.72869993
_cell_angle_alpha   90.08376612
_cell_angle_beta   89.98390112
_cell_angle_gamma   89.72454091
_symmetry_Int_Tables_number   1
_chemical_formula_structural   Sr24Ta24N11O13
_chemical_formula_sum   'Sr72 Ta72 N33 O39'
_cell_volume   4412.25151924
_cell_formula_units_Z   3
loop_
 _symmetry_equiv_pos_site_id
 _symmetry_equiv_pos_as_xyz
  1  'x, y, z'
loop_
 _atom_site_type_symbol
 _atom_site_label
 _atom_site_symmetry_multiplicity
 _atom_site_fract_x
 _atom_site_fract_y
 _atom_site_fract_z
 _atom_site_occupancy
  Sr  Sr0  1  0.00683773  0.15573243  0.11413406  1
  Sr  Sr1  1  -0.00491792  0.16976562  0.67038325  1
  Sr  Sr2  1  -0.01347512  0.49924607  0.10854685  1
  Sr  Sr3  1  -0.00471261  0.48298733  0.59887965  1
  Sr  Sr4  1  0.00693422  0.81006648  0.16002007  1
  Sr  Sr5  1  -0.00785966  0.86268489  0.61102949  1
  Sr  Sr6  1  0.34875464  0.15628577  0.16938920  1
  Sr  Sr7  1  0.33034047  0.16638736  0.61593444  1
  Sr  Sr8  1  0.33504685  0.48306009  0.11657226  1
  Sr  Sr9  1  0.32354579  0.51545214  0.67361389  1
  Sr  Sr10  1  0.32390485  0.83075729  0.11148140  1
  Sr  Sr11  1  0.33134162  0.82305031  0.58858488  1
  Sr  Sr12  1  0.66097758  0.15493475  0.08597003  1
  Sr  Sr13  1  0.66748775  0.15798222  0.62857200  1
  Sr  Sr14  1  0.65776595  0.46647091  0.14460511  1
  Sr  Sr15  1  0.64189940  0.49299077  0.61874533  1
  Sr  Sr16  1  0.68561872  0.82784886  0.11853949  1
  Sr  Sr17  1  0.64673031  0.82476723  0.65994856  1
  Sr  Sr18  1  0.16843317  0.01636681  0.12279806  1
  Sr  Sr19  1  0.16440453  0.00263604  0.62376734  1
  Sr  Sr20  1  0.15071972  0.34378410  0.08022048  1
  Sr  Sr21  1  0.18045531  0.34561582  0.62410534  1
  Sr  Sr22  1  0.17781586  0.67515796  0.13654468  1
  Sr  Sr23  1  0.17136342  0.66951242  0.64684180  1
  Sr  Sr24  1  0.49782675  0.00332854  0.14425939  1
  Sr  Sr25  1  0.51252189  0.00700516  0.65222032  1
  Sr  Sr26  1  0.48982994  0.33522536  0.13834856  1
  Sr  Sr27  1  0.49897387  0.31826843  0.57660980  1
  Sr  Sr28  1  0.51372051  0.69576989  0.09685775  1
  Sr  Sr29  1  0.50449346  0.66481735  0.62893930  1
  Sr  Sr30  1  0.84249716  0.01193631  0.12319847  1
  Sr  Sr31  1  0.83058876  0.00645514  0.59050328  1
  Sr  Sr32  1  0.84615890  0.34455385  0.16383538  1
  Sr  Sr33  1  0.83989768  0.34284081  0.62959787  1
  Sr  Sr34  1  0.83922507  0.67288078  0.11499623  1
  Sr  Sr35  1  0.85831715  0.69427590  0.62322793  1
  Sr  Sr36  1  -0.01779307  0.17428486  0.32645893  1
  Sr  Sr37  1  0.01268549  0.15869885  0.89287759  1
  Sr  Sr38  1  -0.01227112  0.49117472  0.38978087  1
  Sr  Sr39  1  -0.01192406  0.49582395  0.89839626  1
  Sr  Sr40  1  -0.00684012  0.83018311  0.38527905  1
  Sr  Sr41  1  0.01148310  0.81980032  0.82818724  1
  Sr  Sr42  1  0.33145347  0.16783373  0.38341260  1
  Sr  Sr43  1  0.33786820  0.14568813  0.83752581  1
  Sr  Sr44  1  0.32416350  0.50651803  0.33295280  1
  Sr  Sr45  1  0.33622127  0.48558719  0.88064442  1
  Sr  Sr46  1  0.32867476  0.82041480  0.38900890  1
  Sr  Sr47  1  0.32011251  0.83321508  0.91175470  1
  Sr  Sr48  1  0.67422285  0.14898730  0.41008938  1
  Sr  Sr49  1  0.65874345  0.16029915  0.87409514  1
  Sr  Sr50  1  0.64482856  0.48168950  0.37586748  1
  Sr  Sr51  1  0.66380168  0.48083988  0.85641862  1
  Sr  Sr52  1  0.65298625  0.82929242  0.34254707  1
  Sr  Sr53  1  0.67760339  0.81475041  0.88493343  1
  Sr  Sr54  1  0.17287736  0.01167896  0.38930323  1
  Sr  Sr55  1  0.16070003  0.00659097  0.86915005  1
  Sr  Sr56  1  0.15865426  0.34745812  0.41070127  1
  Sr  Sr57  1  0.17818197  0.34397424  0.88003277  1
  Sr  Sr58  1  0.17792904  0.66753115  0.35175888  1
  Sr  Sr59  1  0.17319547  0.67456027  0.86319728  1
  Sr  Sr60  1  0.50346100  -0.00356947  0.35100921  1
  Sr  Sr61  1  0.50441038  0.01542207  0.85174884  1
  Sr  Sr62  1  0.48033424  0.32787178  0.36288160  1
  Sr  Sr63  1  0.51451401  0.33011732  0.92308293  1
  Sr  Sr64  1  0.50863777  0.67899503  0.40573244  1
  Sr  Sr65  1  0.51061895  0.66925429  0.86099225  1
  Sr  Sr66  1  0.84038552  0.00993188  0.37803868  1
  Sr  Sr67  1  0.82264642  0.01004383  0.92266379  1
  Sr  Sr68  1  0.84423541  0.34660456  0.37189209  1
  Sr  Sr69  1  0.83253476  0.33550620  0.83521126  1
  Sr  Sr70  1  0.85098756  0.68240926  0.37952612  1
  Sr  Sr71  1  0.84328242  0.66939515  0.89235877  1
  Ta  Ta72  1  0.21815482  0.16752824  0.00298914  1
  Ta  Ta73  1  0.13122920  0.17492680  0.50163678  1
  Ta  Ta74  1  0.16966001  0.53620525  -0.00670978  1
  Ta  Ta75  1  0.18909057  0.52552039  0.50646579  1
  Ta  Ta76  1  0.12732932  0.83474272  -0.00546369  1
  Ta  Ta77  1  0.15173309  0.80869607  0.50560106  1
  Ta  Ta78  1  0.47018443  0.15357505  0.00281346  1
  Ta  Ta79  1  0.50013695  0.13014167  0.49885732  1
  Ta  Ta80  1  0.50759524  0.52174653  0.00236297  1
  Ta  Ta81  1  0.45403074  0.50392157  0.49804028  1
  Ta  Ta82  1  0.49982028  0.87203014  -0.00504591  1
  Ta  Ta83  1  0.51244622  0.86477459  0.50358840  1
  Ta  Ta84  1  0.83443996  0.20968425  0.00635439  1
  Ta  Ta85  1  0.85455970  0.18515287  0.49608612  1
  Ta  Ta86  1  0.80862748  0.47577394  0.00214674  1
  Ta  Ta87  1  0.80097494  0.52204457  0.49794192  1
  Ta  Ta88  1  0.88783414  0.83579849  0.00037785  1
  Ta  Ta89  1  0.77847286  0.83596927  0.50334196  1
  Ta  Ta90  1  0.16589739  0.21007227  0.24425957  1
  Ta  Ta91  1  0.16696730  0.19442032  0.75739394  1
  Ta  Ta92  1  0.14347331  0.48290302  0.24680357  1
  Ta  Ta93  1  0.12963030  0.49896853  0.75265835  1
  Ta  Ta94  1  0.17424816  0.85989026  0.25200550  1
  Ta  Ta95  1  0.20378029  0.84146778  0.74904943  1
  Ta  Ta96  1  0.54763333  0.16784652  0.25236006  1
  Ta  Ta97  1  0.50126256  0.21104898  0.74937048  1
  Ta  Ta98  1  0.49980122  0.55428718  0.24161762  1
  Ta  Ta99  1  0.49604193  0.43534473  0.74956375  1
  Ta  Ta100  1  0.46988703  0.82063059  0.25376585  1
  Ta  Ta101  1  0.45339089  0.83569728  0.74728329  1
  Ta  Ta102  1  0.79120720  0.16702476  0.24626609  1
  Ta  Ta103  1  0.82773031  0.13314283  0.75693622  1
  Ta  Ta104  1  0.82265537  0.53213120  0.25079914  1
  Ta  Ta105  1  0.83821606  0.52658398  0.75129726  1
  Ta  Ta106  1  0.83946492  0.85764329  0.24768463  1
  Ta  Ta107  1  0.82976605  0.87028012  0.75007951  1
  Ta  Ta108  1  0.00766891  -0.01862901  0.24888500  1
  Ta  Ta109  1  -0.05348498  0.00237488  0.76219359  1
  Ta  Ta110  1  0.04577925  0.34624081  0.24658050  1
  Ta  Ta111  1  0.02411396  0.34590112  0.75373737  1
  Ta  Ta112  1  0.00043408  0.62928185  0.24966165  1
  Ta  Ta113  1  -0.00199858  0.62498191  0.75318185  1
  Ta  Ta114  1  0.32253430  -0.03512026  0.25746743  1
  Ta  Ta115  1  0.33012407  -0.04273910  0.74920599  1
  Ta  Ta116  1  0.27017237  0.33575263  0.24640162  1
  Ta  Ta117  1  0.36623614  0.32780866  0.74944449  1
  Ta  Ta118  1  0.36892230  0.67769741  0.24515271  1
  Ta  Ta119  1  0.33878149  0.71110626  0.75268880  1
  Ta  Ta120  1  0.68068937  0.01721122  0.24220036  1
  Ta  Ta121  1  0.71256900  -0.00505957  0.75743394  1
  Ta  Ta122  1  0.66923182  0.28583781  0.24930868  1
  Ta  Ta123  1  0.62519834  0.32377142  0.74743926  1
  Ta  Ta124  1  0.66508444  0.64343179  0.24879965  1
  Ta  Ta125  1  0.69998264  0.64501761  0.75407059  1
  Ta  Ta126  1  0.00585531  -0.04369750  0.00058041  1
  Ta  Ta127  1  0.00075607  0.06981170  0.49968424  1
  Ta  Ta128  1  -0.04465387  0.32736391  -0.00480062  1
  Ta  Ta129  1  -0.00281724  0.28046446  0.50798421  1
  Ta  Ta130  1  0.02192129  0.68575835  -0.00051967  1
  Ta  Ta131  1  0.04036937  0.66580456  0.49802732  1
  Ta  Ta132  1  0.34939332  0.01798688  -0.00329370  1
  Ta  Ta133  1  0.37183710  -0.00148026  0.50045425  1
  Ta  Ta134  1  0.33650817  0.28112418  0.00252295  1
  Ta  Ta135  1  0.33126966  0.39991302  0.50036348  1
  Ta  Ta136  1  0.33977072  0.64294852  -0.00833566  1
  Ta  Ta137  1  0.32773559  0.62258529  0.50179901  1
  Ta  Ta138  1  0.63289824  -0.01998412  -0.00222285  1
  Ta  Ta139  1  0.65025036  -0.02940156  0.50160728  1
  Ta  Ta140  1  0.71443714  0.33045798  -0.00052260  1
  Ta  Ta141  1  0.69139903  0.32475429  0.49989953  1
  Ta  Ta142  1  0.66722660  0.61263367  -0.00130819  1
  Ta  Ta143  1  0.69149961  0.67262193  0.50235494  1
  N  N144  1  0.50611150  0.16626949  0.12317235  1
  N  N145  1  0.50192585  0.16615007  0.62212280  1
  N  N146  1  0.17093470  0.50308339  0.87595807  1
  N  N147  1  0.00706579  -0.00406599  0.12864822  1
  N  N148  1  0.82558690  0.50387919  0.37863010  1
  N  N149  1  0.01214224  0.65850878  0.37620032  1
  N  N150  1  0.34072081  0.66372838  0.87024952  1
  N  N151  1  0.33314015  -0.00662492  0.87669707  1
  N  N152  1  0.50682169  0.16392577  0.37370721  1
  N  N153  1  -0.00037823  0.32256227  0.62740806  1
  N  N154  1  0.16336921  0.83669388  0.87505932  1
  N  N155  1  0.33779960  -0.00432068  0.37796276  1
  N  N156  1  -0.00862209  0.32708751  0.87615840  1
  N  N157  1  0.49456150  0.50400362  0.12548436  1
  N  N158  1  0.49444288  0.83150963  0.37400860  1
  N  N159  1  0.17233222  0.17616537  0.12204382  1
  N  N160  1  0.00567293  0.65679856  0.12482877  1
  N  N161  1  0.50091597  0.17349045  0.87295091  1
  N  N162  1  0.81920505  0.84805603  0.62283206  1
  N  N163  1  -0.00921259  -0.00261592  0.87648937  1
  N  N164  1  0.00087104  0.66015483  0.87161237  1
  N  N165  1  0.17489766  0.17203580  0.87721446  1
  N  N166  1  0.83801463  0.17369075  0.13096624  1
  N  N167  1  0.83136174  0.49698900  0.86970641  1
  N  N168  1  0.16653346  0.50545549  0.62720289  1
  N  N169  1  0.83250609  0.17256883  0.37444702  1
  N  N170  1  0.66873802  -0.00558927  0.12243829  1
  N  N171  1  0.84760607  0.83724845  0.12594012  1
  N  N172  1  0.67397672  0.64986757  0.87589426  1
  N  N173  1  0.49319725  0.83060617  0.62252797  1
  N  N174  1  0.82710073  0.49779492  0.12705398  1
  N  N175  1  0.66772155  -0.00626777  0.87268040  1
  N  N176  1  0.16236938  0.83601129  0.62381424  1
  O  O177  1  0.00123256  0.33859087  0.12479105  1
  O  O178  1  0.16268107  0.50276774  0.37253506  1
  O  O179  1  0.83556033  0.49951476  0.61760210  1
  O  O180  1  0.82762097  0.16336899  0.88024989  1
  O  O181  1  0.15477462  0.18489478  0.37667993  1
  O  O182  1  0.00616567  0.32620862  0.36934955  1
  O  O183  1  0.81591649  0.84349097  0.37988206  1
  O  O184  1  0.00093676  0.02633322  0.37788602  1
  O  O185  1  0.16543679  0.83592481  0.37510669  1
  O  O186  1  0.00812931  0.64728897  0.62018975  1
  O  O187  1  0.49526952  0.84993297  0.87103641  1
  O  O188  1  0.35066652  0.31880239  0.87987300  1
  O  O189  1  0.84260824  0.83653598  0.88154243  1
  O  O190  1  0.48536608  0.48375923  0.63074698  1
  O  O191  1  0.66981408  0.31445233  0.11881014  1
  O  O192  1  -0.01623493  0.02133895  0.62049396  1
  O  O193  1  0.34112677  0.35229855  0.62218670  1
  O  O194  1  0.32022726  0.32724808  0.12632915  1
  O  O195  1  0.30685504  0.35938428  0.36969863  1
  O  O196  1  0.68213459  0.31814253  0.37654924  1
  O  O197  1  0.16978727  0.83861918  0.12459090  1
  O  O198  1  0.66944133  0.32374899  0.62402265  1
  O  O199  1  0.66747381  -0.00887321  0.63046320  1
  O  O200  1  0.48080337  0.52154435  0.36571503  1
  O  O201  1  0.66456266  -0.01170303  0.37480175  1
  O  O202  1  0.33470636  0.66501026  0.62502225  1
  O  O203  1  0.66879100  0.66706662  0.37178929  1
  O  O204  1  0.33605907  -0.00716566  0.13159215  1
  O  O205  1  0.15585279  0.50199754  0.11707593  1
  O  O206  1  0.83022070  0.15969691  0.63095848  1
  O  O207  1  0.66923605  0.32455017  0.87442404  1
  O  O208  1  0.16285303  0.17342001  0.62734333  1
  O  O209  1  0.66982536  0.65316726  0.12048833  1
  O  O210  1  0.49827755  0.48077801  0.87482995  1
  O  O211  1  0.34754634  0.67457355  0.11981004  1
  O  O212  1  0.67493642  0.66849559  0.62772511  1
  O  O213  1  0.34086187  0.66144311  0.37169123  1
  O  O214  1  0.33641893  -0.00144317  0.62413939  1
  O  O215  1  0.48448873  0.84803656  0.11982691  1
