# generated using pymatgen
data_Sr24Ta24N11O13
_symmetry_space_group_name_H-M   'P 1'
_cell_length_a   16.80005033
_cell_length_b   16.78589835
_cell_length_c   15.78637929
_cell_angle_alpha   90.19549414
_cell_angle_beta   89.90810898
_cell_angle_gamma   89.94153697
_symmetry_Int_Tables_number   1
_chemical_formula_structural   Sr24Ta24N11O13
_chemical_formula_sum   'Sr72 Ta72 N33 O39'
_cell_volume   4451.78713007
_cell_formula_units_Z   3
loop_
 _symmetry_equiv_pos_site_id
 _symmetry_equiv_pos_as_xyz
  1  'x, y, z'
loop_
 _atom_site_type_symbol
 _atom_site_label
 _atom_site_symmetry_multiplicity
 _atom_site_fract_x
 _atom_site_fract_y
 _atom_site_fract_z
 _atom_site_occupancy
  Sr  Sr0  1  -0.00320693  0.15478547  0.10941332  1
  Sr  Sr1  1  0.01281697  0.15791946  0.63385411  1
  Sr  Sr2  1  0.00941646  0.49713490  0.14260636  1
  Sr  Sr3  1  -0.00722294  0.50156491  0.61514629  1
  Sr  Sr4  1  0.01726111  0.83429183  0.10714003  1
  Sr  Sr5  1  0.01961982  0.83012002  0.62185601  1
  Sr  Sr6  1  0.33257796  0.15731213  0.13225534  1
  Sr  Sr7  1  0.34036631  0.14929888  0.58585553  1
  Sr  Sr8  1  0.33246102  0.51448108  0.08114526  1
  Sr  Sr9  1  0.33065537  0.49027490  0.63642767  1
  Sr  Sr10  1  0.32986581  0.82093795  0.15038725  1
  Sr  Sr11  1  0.33787590  0.83490381  0.65231878  1
  Sr  Sr12  1  0.68477709  0.18981153  0.14204464  1
  Sr  Sr13  1  0.66641297  0.18910137  0.63192479  1
  Sr  Sr14  1  0.66205925  0.50719424  0.11489130  1
  Sr  Sr15  1  0.67276720  0.52632435  0.67147170  1
  Sr  Sr16  1  0.66531898  0.84464071  0.12824354  1
  Sr  Sr17  1  0.66658261  0.84739092  0.58969400  1
  Sr  Sr18  1  0.14518644  0.00860343  0.08719670  1
  Sr  Sr19  1  0.15914251  -0.00153866  0.63227439  1
  Sr  Sr20  1  0.19980862  0.32624850  0.13205157  1
  Sr  Sr21  1  0.16420395  0.34104722  0.67106570  1
  Sr  Sr22  1  0.16264635  0.66442368  0.13449569  1
  Sr  Sr23  1  0.15257499  0.64728587  0.57975611  1
  Sr  Sr24  1  0.47864795  -0.01519731  0.12995176  1
  Sr  Sr25  1  0.48941068  -0.01018778  0.61057923  1
  Sr  Sr26  1  0.51750822  0.33170188  0.16403661  1
  Sr  Sr27  1  0.49449046  0.32806194  0.61043730  1
  Sr  Sr28  1  0.50330337  0.64910793  0.08518346  1
  Sr  Sr29  1  0.48686275  0.66453661  0.63495348  1
  Sr  Sr30  1  0.81973499  -0.00763107  0.13792568  1
  Sr  Sr31  1  0.80557136  0.01236866  0.64479604  1
  Sr  Sr32  1  0.85139472  0.33291892  0.11500893  1
  Sr  Sr33  1  0.85301510  0.33301065  0.58561332  1
  Sr  Sr34  1  0.81033574  0.66581332  0.15599532  1
  Sr  Sr35  1  0.82538254  0.66839506  0.63274128  1
  Sr  Sr36  1  0.00156105  0.15604332  0.39746221  1
  Sr  Sr37  1  0.00275353  0.15805848  0.86528240  1
  Sr  Sr38  1  0.00576644  0.50227730  0.37521730  1
  Sr  Sr39  1  -0.00197362  0.49827943  0.87341043  1
  Sr  Sr40  1  0.02401851  0.83604193  0.38793313  1
  Sr  Sr41  1  0.00967306  0.82499420  0.87868294  1
  Sr  Sr42  1  0.33092834  0.16079287  0.36607389  1
  Sr  Sr43  1  0.33794388  0.14951141  0.91462784  1
  Sr  Sr44  1  0.35091795  0.51165249  0.42453287  1
  Sr  Sr45  1  0.33273151  0.49351318  0.86839519  1
  Sr  Sr46  1  0.32954497  0.82006101  0.34678018  1
  Sr  Sr47  1  0.33777226  0.83544346  0.84523347  1
  Sr  Sr48  1  0.68099894  0.20136082  0.37516106  1
  Sr  Sr49  1  0.66996491  0.17488820  0.85067949  1
  Sr  Sr50  1  0.65888256  0.51517042  0.34179041  1
  Sr  Sr51  1  0.67118734  0.50427467  0.88309427  1
  Sr  Sr52  1  0.65818039  0.84163670  0.37233523  1
  Sr  Sr53  1  0.66052327  0.85766976  0.90872589  1
  Sr  Sr54  1  0.14740358  0.01381500  0.41518561  1
  Sr  Sr55  1  0.16024818  -0.00986228  0.86174813  1
  Sr  Sr56  1  0.17985110  0.32260803  0.34036021  1
  Sr  Sr57  1  0.20050875  0.33283812  0.87408998  1
  Sr  Sr58  1  0.16668493  0.66505872  0.36438693  1
  Sr  Sr59  1  0.14999704  0.65248180  0.91757841  1
  Sr  Sr60  1  0.47664588  -0.02012959  0.36296683  1
  Sr  Sr61  1  0.48867372  0.00091933  0.89567679  1
  Sr  Sr62  1  0.49377518  0.33675499  0.38467802  1
  Sr  Sr63  1  0.52403537  0.32053216  0.83533160  1
  Sr  Sr64  1  0.49366825  0.65830704  0.39641181  1
  Sr  Sr65  1  0.48769006  0.66135601  0.86436423  1
  Sr  Sr66  1  0.81919026  -0.00383247  0.35360338  1
  Sr  Sr67  1  0.80661196  0.00536183  0.86512541  1
  Sr  Sr68  1  0.85530089  0.33448823  0.38440488  1
  Sr  Sr69  1  0.83821552  0.34184515  0.91699119  1
  Sr  Sr70  1  0.80790320  0.67276291  0.37194567  1
  Sr  Sr71  1  0.83733260  0.65739609  0.83629500  1
  Ta  Ta72  1  0.15740480  0.18820057  0.00163533  1
  Ta  Ta73  1  0.17092529  0.20493484  0.50342960  1
  Ta  Ta74  1  0.14912920  0.47034467  0.00614786  1
  Ta  Ta75  1  0.16876363  0.45650360  0.50247889  1
  Ta  Ta76  1  0.19974548  0.83041488  -0.00243037  1
  Ta  Ta77  1  0.20176508  0.83123424  0.50149487  1
  Ta  Ta78  1  0.52354964  0.18920553  0.00124804  1
  Ta  Ta79  1  0.52198376  0.14652439  0.49467419  1
  Ta  Ta80  1  0.50449050  0.44818625  -0.00017718  1
  Ta  Ta81  1  0.55545662  0.50073112  0.50634440  1
  Ta  Ta82  1  0.46248955  0.82648253  0.00192570  1
  Ta  Ta83  1  0.46322372  0.82530481  0.49348366  1
  Ta  Ta84  1  0.82458590  0.14651312  0.00228567  1
  Ta  Ta85  1  0.82770276  0.13843479  0.49935532  1
  Ta  Ta86  1  0.83703913  0.53821426  -0.00317594  1
  Ta  Ta87  1  0.79792745  0.51276200  0.50684682  1
  Ta  Ta88  1  0.84116151  0.80563969  0.00439495  1
  Ta  Ta89  1  0.85508909  0.83612439  0.49854299  1
  Ta  Ta90  1  0.14839819  0.13809680  0.25170178  1
  Ta  Ta91  1  0.21282685  0.16231346  0.74524873  1
  Ta  Ta92  1  0.20970926  0.50047018  0.25074009  1
  Ta  Ta93  1  0.16076923  0.53846489  0.74637297  1
  Ta  Ta94  1  0.16002370  0.88494865  0.24888381  1
  Ta  Ta95  1  0.16590463  0.77024499  0.74908852  1
  Ta  Ta96  1  0.52081709  0.14669244  0.25138846  1
  Ta  Ta97  1  0.47291042  0.14477498  0.74881691  1
  Ta  Ta98  1  0.47757717  0.51673200  0.24224846  1
  Ta  Ta99  1  0.49824966  0.48966926  0.75186030  1
  Ta  Ta100  1  0.50396424  0.78789161  0.24504712  1
  Ta  Ta101  1  0.52967574  0.84027184  0.74873165  1
  Ta  Ta102  1  0.86018476  0.17862963  0.25242968  1
  Ta  Ta103  1  0.84028036  0.22051180  0.74969493  1
  Ta  Ta104  1  0.83321707  0.48821208  0.25056821  1
  Ta  Ta105  1  0.84184583  0.46078242  0.75085740  1
  Ta  Ta106  1  0.87705165  0.82629643  0.24590821  1
  Ta  Ta107  1  0.83074365  0.84249577  0.75009155  1
  Ta  Ta108  1  0.00930907  -0.00657268  0.25280394  1
  Ta  Ta109  1  -0.03156756  -0.02433395  0.74281643  1
  Ta  Ta110  1  0.00366620  0.30115266  0.25045435  1
  Ta  Ta111  1  -0.03055138  0.33205709  0.74794480  1
  Ta  Ta112  1  -0.02089758  0.68081171  0.24830239  1
  Ta  Ta113  1  0.02857601  0.66442424  0.74948540  1
  Ta  Ta114  1  0.27986799  -0.00202307  0.24485909  1
  Ta  Ta115  1  0.33863739  0.02823214  0.75136228  1
  Ta  Ta116  1  0.34714278  0.40201500  0.25175857  1
  Ta  Ta117  1  0.34984766  0.28219773  0.74889308  1
  Ta  Ta118  1  0.34565601  0.62913129  0.25435921  1
  Ta  Ta119  1  0.28715704  0.65621316  0.74823790  1
  Ta  Ta120  1  0.64007095  0.02932763  0.25202758  1
  Ta  Ta121  1  0.62874921  -0.00867992  0.74987177  1
  Ta  Ta122  1  0.70709883  0.35742519  0.24393206  1
  Ta  Ta123  1  0.71872464  0.34557495  0.75307996  1
  Ta  Ta124  1  0.62784648  0.67625979  0.24022256  1
  Ta  Ta125  1  0.65807401  0.72669075  0.74800237  1
  Ta  Ta126  1  -0.04336471  -0.00502381  -0.00102993  1
  Ta  Ta127  1  -0.04891186  -0.00946490  0.50325079  1
  Ta  Ta128  1  0.03875110  0.32824031  -0.00305846  1
  Ta  Ta129  1  0.05115809  0.32910101  0.50642631  1
  Ta  Ta130  1  -0.04403246  0.66315907  -0.00209648  1
  Ta  Ta131  1  -0.03516514  0.67791297  0.50356906  1
  Ta  Ta132  1  0.31876472  -0.04249626  -0.00004661  1
  Ta  Ta133  1  0.32262689  -0.04148563  0.50108890  1
  Ta  Ta134  1  0.38426437  0.32832433  -0.00373818  1
  Ta  Ta135  1  0.29690482  0.33176498  0.50834751  1
  Ta  Ta136  1  0.32609684  0.70326622  -0.00899092  1
  Ta  Ta137  1  0.32698155  0.70093013  0.50480639  1
  Ta  Ta138  1  0.65815198  0.05005736  -0.00052566  1
  Ta  Ta139  1  0.65955804  0.03670593  0.50149722  1
  Ta  Ta140  1  0.64499608  0.32837773  -0.00253041  1
  Ta  Ta141  1  0.67442571  0.38173331  0.50345099  1
  Ta  Ta142  1  0.70305593  0.67750873  -0.00368562  1
  Ta  Ta143  1  0.65991557  0.64113739  0.50937095  1
  N  N144  1  0.16479481  0.49662069  0.62682104  1
  N  N145  1  0.65957848  0.67526407  0.11149452  1
  N  N146  1  0.17328410  0.49681259  0.12483137  1
  N  N147  1  0.83757073  0.82925647  0.12841080  1
  N  N148  1  -0.01268816  -0.00450641  0.37784561  1
  N  N149  1  0.32786445  -0.00911233  0.62120897  1
  N  N150  1  0.50132237  0.49311638  0.12160661  1
  N  N151  1  0.31464128  -0.00388178  0.12523896  1
  N  N152  1  0.48953434  0.82207973  0.12157606  1
  N  N153  1  0.65375686  0.01532448  0.62789107  1
  N  N154  1  -0.01658720  -0.00571263  0.11782723  1
  N  N155  1  0.82834237  0.49993886  0.62508698  1
  N  N156  1  0.83572197  0.16448199  0.12345501  1
  N  N157  1  -0.00688448  0.66400303  0.87703599  1
  N  N158  1  0.83408114  0.16577711  0.37823332  1
  N  N159  1  0.68049133  0.34100170  0.87773926  1
  N  N160  1  0.64979171  0.01792600  0.87858653  1
  N  N161  1  0.33447774  0.32293839  0.62541347  1
  N  N162  1  -0.01107675  0.66677178  0.62338486  1
  N  N163  1  0.48976847  0.82025329  0.37283271  1
  N  N164  1  0.32564015  0.66181396  0.87565768  1
  N  N165  1  0.16783738  0.16744505  0.37380108  1
  N  N166  1  0.68372551  0.34549849  0.12456184  1
  N  N167  1  0.83497464  0.50097866  0.87856558  1
  N  N168  1  0.32561699  -0.00755187  0.87200643  1
  N  N169  1  0.33027941  0.65976133  0.37321094  1
  N  N170  1  0.66142036  0.68379468  0.62809679  1
  N  N171  1  0.35808904  0.31644595  0.87635287  1
  N  N172  1  -0.00577437  -0.00429668  0.62494062  1
  N  N173  1  0.00818270  0.33035383  0.62661614  1
  N  N174  1  0.32504585  0.66132983  0.62115727  1
  N  N175  1  0.17592603  0.16313745  0.62815775  1
  N  N176  1  0.16786964  0.16742224  0.12382272  1
  O  O177  1  0.65306257  0.66744396  0.38069304  1
  O  O178  1  0.17786271  0.81691222  0.62738832  1
  O  O179  1  0.01853112  0.31878002  0.12848084  1
  O  O180  1  0.18188453  0.17261957  0.87638318  1
  O  O181  1  0.50245611  0.16623560  0.87837894  1
  O  O182  1  -0.02615378  0.66351458  0.37097970  1
  O  O183  1  0.82635406  0.83531683  0.62377804  1
  O  O184  1  0.82688871  0.50743768  0.37425018  1
  O  O185  1  0.84700209  0.83419978  0.37253003  1
  O  O186  1  0.83322910  0.18083618  0.87103300  1
  O  O187  1  0.01526358  0.31783699  0.37569422  1
  O  O188  1  0.00004522  0.66578311  0.12437521  1
  O  O189  1  0.31872464  0.00040059  0.37739346  1
  O  O190  1  0.50996968  0.50199404  0.38386388  1
  O  O191  1  0.50310305  0.83746881  0.87585608  1
  O  O192  1  0.67716518  0.69346317  0.87005173  1
  O  O193  1  0.17409902  0.49518042  0.37604402  1
  O  O194  1  0.32322069  0.66307706  0.11810016  1
  O  O195  1  0.65867841  0.00754449  0.37321680  1
  O  O196  1  0.67803216  0.35309699  0.62749136  1
  O  O197  1  0.82995399  0.17874576  0.62229681  1
  O  O198  1  0.01297700  0.32989207  0.87358172  1
  O  O199  1  0.65083598  0.02007031  0.12401488  1
  O  O200  1  0.34042856  0.36239775  0.37561562  1
  O  O201  1  0.15762690  0.50277652  0.88058668  1
  O  O202  1  0.51610461  0.17472742  0.13118430  1
  O  O203  1  0.17322236  0.83945030  0.12612395  1
  O  O204  1  0.50369153  0.15297103  0.62054613  1
  O  O205  1  0.17449366  0.81639231  0.87196359  1
  O  O206  1  0.35440078  0.35379666  0.13291108  1
  O  O207  1  0.83533403  0.82714496  0.87200477  1
  O  O208  1  0.84017514  0.50276598  0.12577668  1
  O  O209  1  0.17575989  0.84235397  0.37335034  1
  O  O210  1  0.51237053  0.49103403  0.62798249  1
  O  O211  1  0.50076394  0.49174323  0.87735094  1
  O  O212  1  0.68313465  0.36125601  0.37792196  1
  O  O213  1  -0.01995165  -0.00309498  0.86955570  1
  O  O214  1  0.49580982  0.15458257  0.37659295  1
  O  O215  1  0.50392521  0.83363014  0.62118518  1
