# generated using pymatgen
data_Sr24Ta24N11O13
_symmetry_space_group_name_H-M   'P 1'
_cell_length_a   16.84400389
_cell_length_b   16.77931564
_cell_length_c   15.76211730
_cell_angle_alpha   89.85088706
_cell_angle_beta   90.10049923
_cell_angle_gamma   89.71408442
_symmetry_Int_Tables_number   1
_chemical_formula_structural   Sr24Ta24N11O13
_chemical_formula_sum   'Sr72 Ta72 N33 O39'
_cell_volume   4454.78322605
_cell_formula_units_Z   3
loop_
 _symmetry_equiv_pos_site_id
 _symmetry_equiv_pos_as_xyz
  1  'x, y, z'
loop_
 _atom_site_type_symbol
 _atom_site_label
 _atom_site_symmetry_multiplicity
 _atom_site_fract_x
 _atom_site_fract_y
 _atom_site_fract_z
 _atom_site_occupancy
  Sr  Sr0  1  0.01176276  0.15823496  0.13534407  1
  Sr  Sr1  1  -0.01584766  0.17942476  0.57406817  1
  Sr  Sr2  1  -0.01317392  0.50269089  0.12878709  1
  Sr  Sr3  1  -0.00976575  0.49243095  0.65411583  1
  Sr  Sr4  1  0.01560258  0.82269204  0.07967043  1
  Sr  Sr5  1  -0.00088333  0.84377996  0.63727327  1
  Sr  Sr6  1  0.33749637  0.14524729  0.07421217  1
  Sr  Sr7  1  0.33005227  0.17276873  0.63613066  1
  Sr  Sr8  1  0.32314484  0.50302562  0.13390928  1
  Sr  Sr9  1  0.30339691  0.51062638  0.58750969  1
  Sr  Sr10  1  0.32610055  0.83554970  0.16026048  1
  Sr  Sr11  1  0.33050381  0.83299596  0.63895186  1
  Sr  Sr12  1  0.64522054  0.16103293  0.13736384  1
  Sr  Sr13  1  0.66479087  0.16530726  0.65373154  1
  Sr  Sr14  1  0.65109066  0.48333321  0.10344425  1
  Sr  Sr15  1  0.64768170  0.51305707  0.63246494  1
  Sr  Sr16  1  0.67557036  0.83009901  0.13405580  1
  Sr  Sr17  1  0.64491078  0.84401220  0.58801536  1
  Sr  Sr18  1  0.16177467  0.00191578  0.11408340  1
  Sr  Sr19  1  0.17979594  -0.01941288  0.67280573  1
  Sr  Sr20  1  0.18080037  0.32665772  0.14980870  1
  Sr  Sr21  1  0.17318462  0.33426825  0.61768549  1
  Sr  Sr22  1  0.17233605  0.65860068  0.13489931  1
  Sr  Sr23  1  0.16146750  0.67214365  0.58569101  1
  Sr  Sr24  1  0.51705549  -0.01730917  0.13846478  1
  Sr  Sr25  1  0.49535438  0.00327475  0.58852786  1
  Sr  Sr26  1  0.50234302  0.33578581  0.13060047  1
  Sr  Sr27  1  0.52123449  0.32936668  0.65751885  1
  Sr  Sr28  1  0.51382670  0.65962688  0.08526387  1
  Sr  Sr29  1  0.50179178  0.67212266  0.63743633  1
  Sr  Sr30  1  0.84912005  0.01364959  0.14822554  1
  Sr  Sr31  1  0.84471431  -0.00407612  0.61735365  1
  Sr  Sr32  1  0.85357709  0.33270844  0.12019026  1
  Sr  Sr33  1  0.83883435  0.34198127  0.59852066  1
  Sr  Sr34  1  0.83044171  0.68562648  0.13208952  1
  Sr  Sr35  1  0.84980697  0.66420509  0.66044286  1
  Sr  Sr36  1  0.01810388  0.15313091  0.35693246  1
  Sr  Sr37  1  -0.00997044  0.17082855  0.90838840  1
  Sr  Sr38  1  -0.02622178  0.51905551  0.34286032  1
  Sr  Sr39  1  -0.00251019  0.49043307  0.86685219  1
  Sr  Sr40  1  0.00493933  0.82647428  0.41208205  1
  Sr  Sr41  1  0.00574429  0.83862001  0.86433965  1
  Sr  Sr42  1  0.34093487  0.16025706  0.42159267  1
  Sr  Sr43  1  0.33283835  0.17947531  0.85966033  1
  Sr  Sr44  1  0.32557205  0.49401434  0.36518846  1
  Sr  Sr45  1  0.31529208  0.51715113  0.90141814  1
  Sr  Sr46  1  0.31940763  0.84125074  0.35979658  1
  Sr  Sr47  1  0.33543043  0.82607085  0.84286526  1
  Sr  Sr48  1  0.63057231  0.16864079  0.34634637  1
  Sr  Sr49  1  0.66807594  0.15948150  0.86019476  1
  Sr  Sr50  1  0.65984398  0.48825150  0.40053044  1
  Sr  Sr51  1  0.64541837  0.50024567  0.86617542  1
  Sr  Sr52  1  0.66896697  0.83511426  0.36742340  1
  Sr  Sr53  1  0.64634362  0.83446664  0.91461989  1
  Sr  Sr54  1  0.17145051  -0.00299272  0.34223822  1
  Sr  Sr55  1  0.16839616  0.01375729  0.88589912  1
  Sr  Sr56  1  0.18559076  0.31175676  0.39424423  1
  Sr  Sr57  1  0.16939510  0.34236315  0.83470790  1
  Sr  Sr58  1  0.16900537  0.66865372  0.36964425  1
  Sr  Sr59  1  0.16083629  0.65244851  0.91576200  1
  Sr  Sr60  1  0.49834867  -0.01012814  0.37016574  1
  Sr  Sr61  1  0.51519883  0.00228555  0.91301942  1
  Sr  Sr62  1  0.51254525  0.34516237  0.34649623  1
  Sr  Sr63  1  0.51001408  0.32983438  0.86709069  1
  Sr  Sr64  1  0.52976946  0.65241635  0.42254580  1
  Sr  Sr65  1  0.49833881  0.67275013  0.86394729  1
  Sr  Sr66  1  0.86001988  -0.00055400  0.39091945  1
  Sr  Sr67  1  0.83008313  0.01037598  0.84096366  1
  Sr  Sr68  1  0.84165867  0.34086154  0.38132853  1
  Sr  Sr69  1  0.85151572  0.33859587  0.90368930  1
  Sr  Sr70  1  0.82853786  0.67118508  0.34434165  1
  Sr  Sr71  1  0.84200557  0.69084930  0.86698715  1
  Ta  Ta72  1  0.16781495  0.20921692  -0.00551514  1
  Ta  Ta73  1  0.16953465  0.11372559  0.50510749  1
  Ta  Ta74  1  0.15519789  0.45940054  -0.00341415  1
  Ta  Ta75  1  0.11251407  0.49887643  0.50039444  1
  Ta  Ta76  1  0.20589550  0.83179503  0.00181281  1
  Ta  Ta77  1  0.17666671  0.86026852  0.50205833  1
  Ta  Ta78  1  0.51466218  0.18349130  -0.00502834  1
  Ta  Ta79  1  0.51687459  0.19448063  0.50842401  1
  Ta  Ta80  1  0.47604985  0.48530218  -0.00287631  1
  Ta  Ta81  1  0.48169742  0.47156894  0.50621174  1
  Ta  Ta82  1  0.45801675  0.83159751  -0.00100231  1
  Ta  Ta83  1  0.46372097  0.82300156  0.50009286  1
  Ta  Ta84  1  0.81118607  0.15303493  0.00265114  1
  Ta  Ta85  1  0.78056151  0.16866623  0.49514475  1
  Ta  Ta86  1  0.82603472  0.52986483  0.00061771  1
  Ta  Ta87  1  0.83982357  0.52972277  0.49658218  1
  Ta  Ta88  1  0.83488782  0.87090196  0.00111146  1
  Ta  Ta89  1  0.83001123  0.80235197  0.50423949  1
  Ta  Ta90  1  0.23350278  0.16445839  0.24916015  1
  Ta  Ta91  1  0.12364198  0.16973064  0.74253146  1
  Ta  Ta92  1  0.14402141  0.47934219  0.25688446  1
  Ta  Ta93  1  0.17340365  0.52918204  0.74637380  1
  Ta  Ta94  1  0.13106653  0.83059487  0.24836774  1
  Ta  Ta95  1  0.16460552  0.78061979  0.74914904  1
  Ta  Ta96  1  0.44188340  0.16583254  0.24765543  1
  Ta  Ta97  1  0.49724990  0.12644431  0.75079298  1
  Ta  Ta98  1  0.50263515  0.53802504  0.25690287  1
  Ta  Ta99  1  0.44492759  0.50352735  0.74006128  1
  Ta  Ta100  1  0.50509324  0.77473125  0.25222419  1
  Ta  Ta101  1  0.51575053  0.86177035  0.75022598  1
  Ta  Ta102  1  0.80964637  0.17691821  0.25489300  1
  Ta  Ta103  1  0.85359597  0.19120680  0.74533841  1
  Ta  Ta104  1  0.78887145  0.49721218  0.24988131  1
  Ta  Ta105  1  0.81464261  0.48005185  0.75259403  1
  Ta  Ta106  1  0.87445826  0.84482013  0.24535005  1
  Ta  Ta107  1  0.77011235  0.84187118  0.74861270  1
  Ta  Ta108  1  0.00578287  -0.05140051  0.24126826  1
  Ta  Ta109  1  0.00105456  0.05645059  0.74034098  1
  Ta  Ta110  1  0.02242023  0.34305303  0.25937458  1
  Ta  Ta111  1  -0.00983519  0.29899958  0.74584788  1
  Ta  Ta112  1  0.00302187  0.70531218  0.24584300  1
  Ta  Ta113  1  0.04042838  0.66404892  0.75484593  1
  Ta  Ta114  1  0.33899828  0.03236775  0.25324613  1
  Ta  Ta115  1  0.37786060  0.00084185  0.74994597  1
  Ta  Ta116  1  0.33997009  0.29502031  0.25348001  1
  Ta  Ta117  1  0.34171182  0.37979618  0.74073416  1
  Ta  Ta118  1  0.38107122  0.66266328  0.24763934  1
  Ta  Ta119  1  0.30643242  0.64852881  0.75244217  1
  Ta  Ta120  1  0.69957801  0.00553373  0.25019910  1
  Ta  Ta121  1  0.64563798  -0.02218880  0.75620818  1
  Ta  Ta122  1  0.69773478  0.33816265  0.24702405  1
  Ta  Ta123  1  0.71495210  0.33779078  0.75647847  1
  Ta  Ta124  1  0.64669040  0.64385297  0.24420551  1
  Ta  Ta125  1  0.66925660  0.70791403  0.74922409  1
  Ta  Ta126  1  -0.03460211  -0.00292140  -0.00145337  1
  Ta  Ta127  1  0.05196108  -0.00056198  0.50704594  1
  Ta  Ta128  1  0.04185156  0.33491944  -0.00350536  1
  Ta  Ta129  1  0.01024138  0.36966368  0.49603124  1
  Ta  Ta130  1  -0.02240473  0.64469916  -0.00035202  1
  Ta  Ta131  1  -0.02480434  0.64724444  0.49594535  1
  Ta  Ta132  1  0.33626682  -0.04229414  -0.00149846  1
  Ta  Ta133  1  0.30601316  -0.01349049  0.50463768  1
  Ta  Ta134  1  0.32095867  0.33998908  -0.00477995  1
  Ta  Ta135  1  0.38100864  0.33696922  0.50983297  1
  Ta  Ta136  1  0.33702330  0.69954556  0.00387478  1
  Ta  Ta137  1  0.34562190  0.69039048  0.49432254  1
  Ta  Ta138  1  0.70703154  0.01250003  0.00295648  1
  Ta  Ta139  1  0.67622488  0.03596145  0.49974943  1
  Ta  Ta140  1  0.67129702  0.29991765  0.00004017  1
  Ta  Ta141  1  0.65800721  0.30452904  0.49701215  1
  Ta  Ta142  1  0.69347111  0.64988216  -0.00637079  1
  Ta  Ta143  1  0.71632505  0.66922289  0.51003573  1
  N  N144  1  0.66571042  0.65789899  0.12331452  1
  N  N145  1  0.33627727  0.00164784  0.37704656  1
  N  N146  1  0.67141008  0.32749609  0.12426454  1
  N  N147  1  0.00413028  0.66616846  0.87862453  1
  N  N148  1  0.84236518  0.84340659  0.12151084  1
  N  N149  1  -0.00019435  0.33669841  0.61596659  1
  N  N150  1  0.82000660  0.50657569  0.37447975  1
  N  N151  1  0.68142886  0.33132188  0.87567876  1
  N  N152  1  0.14966670  0.50496506  0.62314090  1
  N  N153  1  0.00389624  -0.00845850  0.11574691  1
  N  N154  1  0.33335873  0.33206370  0.62740307  1
  N  N155  1  0.50056282  0.16720368  0.87440287  1
  N  N156  1  0.00582766  0.00559312  0.62796150  1
  N  N157  1  0.66743165  0.67259440  0.87353550  1
  N  N158  1  0.49149243  0.83558445  0.62090965  1
  N  N159  1  0.00933219  0.32895148  0.87082637  1
  N  N160  1  0.15945895  0.49340679  0.87683692  1
  N  N161  1  0.66831488  0.67142297  0.62254455  1
  N  N162  1  0.16351340  0.83383250  0.37915433  1
  N  N163  1  -0.00559618  0.67082715  0.37660755  1
  N  N164  1  0.32765408  0.66836941  0.87226990  1
  N  N165  1  0.49653645  0.50300014  0.37630018  1
  N  N166  1  -0.00136394  0.66546809  0.12688174  1
  N  N167  1  0.34341115  0.66663843  0.12643805  1
  N  N168  1  0.66665851  0.32815826  0.37660688  1
  N  N169  1  0.66907605  -0.00062705  0.87787141  1
  N  N170  1  0.48817510  0.51620611  0.62312105  1
  N  N171  1  0.67585915  -0.00197793  0.13042257  1
  N  N172  1  0.49232645  0.83516705  0.87760889  1
  N  N173  1  0.33953448  -0.00109127  0.63143370  1
  N  N174  1  0.16552782  0.82431625  0.63121645  1
  N  N175  1  0.17357872  0.83035957  0.12006015  1
  N  N176  1  0.50130289  0.16643889  0.62762019  1
  O  O177  1  0.66577473  0.01197704  0.62360902  1
  O  O178  1  0.02573262  0.30752760  0.38080127  1
  O  O179  1  0.81954089  0.83396333  0.62650005  1
  O  O180  1  0.82476742  0.17338926  0.13147042  1
  O  O181  1  0.48176433  0.17327868  0.12022239  1
  O  O182  1  0.67430313  0.00796056  0.37810959  1
  O  O183  1  0.00193987  0.65947502  0.63016760  1
  O  O184  1  0.84711840  0.82397274  0.38108288  1
  O  O185  1  0.33719631  -0.01020271  0.12277092  1
  O  O186  1  0.83560637  0.17062217  0.87039355  1
  O  O187  1  0.01700831  0.33212072  0.13373077  1
  O  O188  1  0.81193314  0.85095701  0.86759319  1
  O  O189  1  0.49870038  0.81780674  0.13086380  1
  O  O190  1  0.82793092  0.49763406  0.62666691  1
  O  O191  1  0.14996277  0.16771880  0.61839242  1
  O  O192  1  0.33030673  0.34015117  0.86888633  1
  O  O193  1  0.19196364  0.17927571  0.11822196  1
  O  O194  1  0.34528845  0.31931660  0.38334971  1
  O  O195  1  0.15595062  0.50588909  0.37699240  1
  O  O196  1  0.18958236  0.15285588  0.38001730  1
  O  O197  1  0.82572070  0.50106491  0.87398551  1
  O  O198  1  0.48734411  0.50041670  0.12259619  1
  O  O199  1  0.67612487  0.66211595  0.38429450  1
  O  O200  1  0.01452563  -0.00501426  0.37896604  1
  O  O201  1  0.50608191  0.81214317  0.37328272  1
  O  O202  1  0.82515977  0.51505511  0.13030392  1
  O  O203  1  0.47587729  0.50264496  0.87326463  1
  O  O204  1  0.33312032  -0.01827121  0.87281089  1
  O  O205  1  0.14900670  0.18109222  0.87258642  1
  O  O206  1  0.16954845  0.81838397  0.87335588  1
  O  O207  1  0.33337239  0.67237106  0.37129330  1
  O  O208  1  0.33535709  0.32254955  0.11873035  1
  O  O209  1  0.48550207  0.16832113  0.38187496  1
  O  O210  1  0.67841638  0.32188648  0.63329223  1
  O  O211  1  -0.01617950  0.02070901  0.86914056  1
  O  O212  1  0.15977954  0.48342808  0.13048634  1
  O  O213  1  0.82170752  0.17513814  0.38049924  1
  O  O214  1  0.32844635  0.67118556  0.61801151  1
  O  O215  1  0.83092214  0.18291500  0.61791712  1
