# generated using pymatgen
data_Sr24Ta24N11O13
_symmetry_space_group_name_H-M   'P 1'
_cell_length_a   16.99356694
_cell_length_b   16.68441576
_cell_length_c   15.58972343
_cell_angle_alpha   90.39989628
_cell_angle_beta   89.10791116
_cell_angle_gamma   89.75357582
_symmetry_Int_Tables_number   1
_chemical_formula_structural   Sr24Ta24N11O13
_chemical_formula_sum   'Sr72 Ta72 N33 O39'
_cell_volume   4419.43261042
_cell_formula_units_Z   3
loop_
 _symmetry_equiv_pos_site_id
 _symmetry_equiv_pos_as_xyz
  1  'x, y, z'
loop_
 _atom_site_type_symbol
 _atom_site_label
 _atom_site_symmetry_multiplicity
 _atom_site_fract_x
 _atom_site_fract_y
 _atom_site_fract_z
 _atom_site_occupancy
  Sr  Sr0  1  -0.00941357  0.16875119  0.13189050  1
  Sr  Sr1  1  0.02040257  0.15418681  0.57350506  1
  Sr  Sr2  1  0.03090500  0.51627377  0.10843478  1
  Sr  Sr3  1  -0.00591274  0.49631291  0.62324173  1
  Sr  Sr4  1  0.01056197  0.82926839  0.12869245  1
  Sr  Sr5  1  -0.00256600  0.84365192  0.66358775  1
  Sr  Sr6  1  0.34558738  0.15623105  0.11836361  1
  Sr  Sr7  1  0.33539188  0.17029987  0.65033746  1
  Sr  Sr8  1  0.33318145  0.51542820  0.13976807  1
  Sr  Sr9  1  0.38090453  0.50837620  0.60211902  1
  Sr  Sr10  1  0.33337475  0.83700656  0.08708720  1
  Sr  Sr11  1  0.35387730  0.83875512  0.63156716  1
  Sr  Sr12  1  0.67988178  0.16816185  0.16191632  1
  Sr  Sr13  1  0.67169147  0.16278397  0.61793471  1
  Sr  Sr14  1  0.69272780  0.49100358  0.10209434  1
  Sr  Sr15  1  0.68058375  0.51048340  0.66506166  1
  Sr  Sr16  1  0.65388736  0.82805689  0.13697456  1
  Sr  Sr17  1  0.68494066  0.82917760  0.57797562  1
  Sr  Sr18  1  0.14631080  0.00904766  0.16928220  1
  Sr  Sr19  1  0.17006002  -0.00477283  0.60904868  1
  Sr  Sr20  1  0.14755700  0.30767569  0.10071375  1
  Sr  Sr21  1  0.15258315  0.33432368  0.63193462  1
  Sr  Sr22  1  0.17297197  0.66405688  0.11828063  1
  Sr  Sr23  1  0.12357856  0.66014995  0.65630599  1
  Sr  Sr24  1  0.50570310  -0.00876908  0.11488413  1
  Sr  Sr25  1  0.49518624  0.02088507  0.67502715  1
  Sr  Sr26  1  0.46696048  0.34448299  0.12914300  1
  Sr  Sr27  1  0.50293953  0.31836065  0.57643512  1
  Sr  Sr28  1  0.48167689  0.66651505  0.15885568  1
  Sr  Sr29  1  0.49946824  0.68941080  0.60979137  1
  Sr  Sr30  1  0.84406640  -0.00920728  0.08551175  1
  Sr  Sr31  1  0.83158619  -0.00370536  0.63374596  1
  Sr  Sr32  1  0.83683221  0.33465155  0.11583443  1
  Sr  Sr33  1  0.82165207  0.34553988  0.66267575  1
  Sr  Sr34  1  0.81064459  0.66768376  0.13694466  1
  Sr  Sr35  1  0.82357283  0.65995742  0.60333800  1
  Sr  Sr36  1  0.00160184  0.16874108  0.36289974  1
  Sr  Sr37  1  -0.00858990  0.17348946  0.91537691  1
  Sr  Sr38  1  0.00937383  0.50895460  0.40520514  1
  Sr  Sr39  1  0.03955128  0.49613954  0.84396861  1
  Sr  Sr40  1  0.01610052  0.82466087  0.34147724  1
  Sr  Sr41  1  0.00259064  0.83853719  0.87018327  1
  Sr  Sr42  1  0.35220095  0.15471012  0.35173999  1
  Sr  Sr43  1  0.33395457  0.17342930  0.87940562  1
  Sr  Sr44  1  0.33745680  0.51234869  0.36476995  1
  Sr  Sr45  1  0.34896112  0.50701615  0.87520759  1
  Sr  Sr46  1  0.32530279  0.83793058  0.41947331  1
  Sr  Sr47  1  0.35535984  0.82811798  0.86516186  1
  Sr  Sr48  1  0.66628555  0.17385777  0.38792271  1
  Sr  Sr49  1  0.67999767  0.15013065  0.82670120  1
  Sr  Sr50  1  0.70618082  0.49416759  0.33704883  1
  Sr  Sr51  1  0.66456298  0.48418499  0.88481746  1
  Sr  Sr52  1  0.66177802  0.82788524  0.36624031  1
  Sr  Sr53  1  0.67514442  0.84842582  0.91728031  1
  Sr  Sr54  1  0.16636976  0.00019776  0.38493945  1
  Sr  Sr55  1  0.14579762  -0.00800864  0.84173033  1
  Sr  Sr56  1  0.13112560  0.33605236  0.40815711  1
  Sr  Sr57  1  0.16776235  0.32061775  0.85914686  1
  Sr  Sr58  1  0.15486453  0.65309527  0.35645060  1
  Sr  Sr59  1  0.16722240  0.66428488  0.89426886  1
  Sr  Sr60  1  0.51623270  0.00820443  0.33073901  1
  Sr  Sr61  1  0.49152994  -0.00926147  0.89111020  1
  Sr  Sr62  1  0.47129283  0.34082808  0.37391681  1
  Sr  Sr63  1  0.49217833  0.34024202  0.92190993  1
  Sr  Sr64  1  0.47751379  0.68082658  0.39316309  1
  Sr  Sr65  1  0.49074325  0.65528520  0.82495473  1
  Sr  Sr66  1  0.81522560  0.00691173  0.42518668  1
  Sr  Sr67  1  0.84074662  -0.00978638  0.86874706  1
  Sr  Sr68  1  0.82691882  0.32390470  0.33150646  1
  Sr  Sr69  1  0.82812027  0.33608570  0.87706397  1
  Sr  Sr70  1  0.82724611  0.67133872  0.37420437  1
  Sr  Sr71  1  0.78703280  0.66360756  0.90043927  1
  Ta  Ta72  1  0.16725572  0.12496690  -0.00415075  1
  Ta  Ta73  1  0.21280042  0.17402689  0.49132251  1
  Ta  Ta74  1  0.18778724  0.47506909  -0.00337749  1
  Ta  Ta75  1  0.19517763  0.50653059  0.50781182  1
  Ta  Ta76  1  0.16470966  0.87479286  0.00064613  1
  Ta  Ta77  1  0.14037015  0.80947753  0.50115462  1
  Ta  Ta78  1  0.54668646  0.16330967  -0.00110713  1
  Ta  Ta79  1  0.49317255  0.12505018  0.49852144  1
  Ta  Ta80  1  0.49931447  0.53900486  0.00050610  1
  Ta  Ta81  1  0.56783388  0.49608039  0.49606598  1
  Ta  Ta82  1  0.50170521  0.79109123  -0.00303462  1
  Ta  Ta83  1  0.50281887  0.89376048  0.50544563  1
  Ta  Ta84  1  0.79268693  0.16352818  -0.00225570  1
  Ta  Ta85  1  0.83434572  0.20638120  0.50066826  1
  Ta  Ta86  1  0.87910684  0.50827851  -0.00788249  1
  Ta  Ta87  1  0.82318639  0.47472256  0.49339741  1
  Ta  Ta88  1  0.85732880  0.81218681  -0.00162285  1
  Ta  Ta89  1  0.87698302  0.83348448  0.49926609  1
  Ta  Ta90  1  0.17952267  0.19374115  0.26329590  1
  Ta  Ta91  1  0.13622666  0.15746364  0.74958760  1
  Ta  Ta92  1  0.16269587  0.46319064  0.25006430  1
  Ta  Ta93  1  0.21805965  0.50220527  0.73673869  1
  Ta  Ta94  1  0.20833744  0.83436371  0.25533720  1
  Ta  Ta95  1  0.19431127  0.82591709  0.75093228  1
  Ta  Ta96  1  0.51903404  0.19476504  0.25329202  1
  Ta  Ta97  1  0.50155869  0.22831318  0.75446539  1
  Ta  Ta98  1  0.53672261  0.49615868  0.24869833  1
  Ta  Ta99  1  0.50445281  0.43755841  0.74907489  1
  Ta  Ta100  1  0.45390173  0.83723962  0.24883222  1
  Ta  Ta101  1  0.54763697  0.83803178  0.74838507  1
  Ta  Ta102  1  0.83495791  0.11332733  0.25327266  1
  Ta  Ta103  1  0.87702267  0.16629583  0.74588863  1
  Ta  Ta104  1  0.88487266  0.50266116  0.24141743  1
  Ta  Ta105  1  0.85347656  0.52476964  0.77323400  1
  Ta  Ta106  1  0.83725156  0.87116415  0.26040321  1
  Ta  Ta107  1  0.80766771  0.81315462  0.74816942  1
  Ta  Ta108  1  -0.04270172  -0.00258335  0.25449061  1
  Ta  Ta109  1  -0.00514018  0.04661115  0.74678934  1
  Ta  Ta110  1  0.00801591  0.36322941  0.24832923  1
  Ta  Ta111  1  -0.00364703  0.28445178  0.74528086  1
  Ta  Ta112  1  -0.01756229  0.64639764  0.25254740  1
  Ta  Ta113  1  -0.05593428  0.66558700  0.75815189  1
  Ta  Ta114  1  0.32965201  -0.03280936  0.24957759  1
  Ta  Ta115  1  0.30666743  -0.00600030  0.75874998  1
  Ta  Ta116  1  0.28404133  0.32580147  0.25206748  1
  Ta  Ta117  1  0.36141717  0.34950673  0.75221169  1
  Ta  Ta118  1  0.32136207  0.71035957  0.24930673  1
  Ta  Ta119  1  0.30256075  0.66558880  0.74075093  1
  Ta  Ta120  1  0.71010598  -0.00105076  0.25445131  1
  Ta  Ta121  1  0.66961978  -0.04693594  0.74260430  1
  Ta  Ta122  1  0.63158245  0.33878970  0.24350944  1
  Ta  Ta123  1  0.63198899  0.32859592  0.75308845  1
  Ta  Ta124  1  0.63798677  0.64378792  0.24292295  1
  Ta  Ta125  1  0.66649032  0.71539269  0.74670774  1
  Ta  Ta126  1  0.02983312  -0.00401134  0.00016628  1
  Ta  Ta127  1  -0.00109166  -0.04134994  0.49953202  1
  Ta  Ta128  1  -0.00213728  0.36422800  -0.01242008  1
  Ta  Ta129  1  -0.05460128  0.33288464  0.49623052  1
  Ta  Ta130  1  -0.03141449  0.66945477  -0.00976217  1
  Ta  Ta131  1  -0.00174895  0.70026829  0.50491818  1
  Ta  Ta132  1  0.28210401  0.00108508  -0.00883575  1
  Ta  Ta133  1  0.36335884  0.01921990  0.50867812  1
  Ta  Ta134  1  0.30445750  0.35251018  -0.00133255  1
  Ta  Ta135  1  0.30483476  0.32733467  0.50087366  1
  Ta  Ta136  1  0.36541918  0.66301223  -0.00581286  1
  Ta  Ta137  1  0.28027277  0.66482136  0.52133112  1
  Ta  Ta138  1  0.67015022  0.04700146  -0.00100406  1
  Ta  Ta139  1  0.62755786  0.00380850  0.50278312  1
  Ta  Ta140  1  0.66677045  0.28227057  -0.00441336  1
  Ta  Ta141  1  0.69300341  0.35744122  0.49703434  1
  Ta  Ta142  1  0.61028606  0.66126331  0.00034449  1
  Ta  Ta143  1  0.66032205  0.62851333  0.49547520  1
  N  N144  1  -0.00531537  0.00913670  0.87961890  1
  N  N145  1  0.15510261  0.16229149  0.38661258  1
  N  N146  1  0.33440826  0.33445650  0.87673683  1
  N  N147  1  0.83659557  0.83318605  0.62388280  1
  N  N148  1  0.16850456  0.82870806  0.37899971  1
  N  N149  1  0.84809035  0.49564572  0.37403670  1
  N  N150  1  0.19131491  0.49529678  0.85624212  1
  N  N151  1  -0.00579785  0.00066548  0.13195528  1
  N  N152  1  0.81268002  0.49781140  0.89091346  1
  N  N153  1  0.66666274  0.00118593  0.37244285  1
  N  N154  1  0.67045045  -0.00053850  0.62755464  1
  N  N155  1  0.50781795  0.84931299  0.62073872  1
  N  N156  1  0.49087906  0.83200783  0.12861802  1
  N  N157  1  -0.01733031  0.33712952  0.36843893  1
  N  N158  1  0.15835967  0.15932254  0.87476189  1
  N  N159  1  0.82748317  0.83717132  0.38030142  1
  N  N160  1  0.51034448  0.82991067  0.87729734  1
  N  N161  1  0.65623853  0.66246516  0.12169100  1
  N  N162  1  -0.02519939  0.67131015  0.63485123  1
  N  N163  1  0.34651456  0.67668237  0.61846366  1
  N  N164  1  0.50543451  0.17027003  0.37487632  1
  N  N165  1  0.34112843  0.00047464  0.88118756  1
  N  N166  1  0.33925662  0.01018495  0.63354275  1
  N  N167  1  0.17973320  0.49725311  0.13011354  1
  N  N168  1  0.17665895  0.49516568  0.38519012  1
  N  N169  1  0.66723441  0.32372803  0.87614892  1
  N  N170  1  0.00306978  0.32913057  0.86634051  1
  N  N171  1  0.83361082  0.83281143  0.87937554  1
  N  N172  1  0.32677793  0.67854139  0.12510327  1
  N  N173  1  0.84694817  0.49927360  0.12083836  1
  N  N174  1  -0.00710779  0.66492794  0.37526479  1
  N  N175  1  0.33390396  0.66946323  0.87189016  1
  N  N176  1  0.00292308  0.00113997  0.61685926  1
  O  O177  1  0.52303100  0.15958598  0.12600528  1
  O  O178  1  0.52803542  0.48995897  0.37896445  1
  O  O179  1  -0.00943258  0.32570362  0.61887334  1
  O  O180  1  0.64437289  0.67431633  0.86679236  1
  O  O181  1  0.31352726  0.34327386  0.37225205  1
  O  O182  1  0.67309643  0.00084415  0.87478520  1
  O  O183  1  0.67102942  0.01018305  0.12448334  1
  O  O184  1  0.01046083  0.67631010  0.86941292  1
  O  O185  1  0.31227239  0.31557904  0.12397900  1
  O  O186  1  0.52914709  0.47043257  0.61846513  1
  O  O187  1  0.64625140  0.33487840  0.11671570  1
  O  O188  1  0.48677065  0.84695482  0.37882034  1
  O  O189  1  0.83243526  0.14747200  0.12173445  1
  O  O190  1  0.50616058  0.48855040  0.87662064  1
  O  O191  1  0.16742698  0.85171650  0.12884175  1
  O  O192  1  -0.00494790  0.32855642  0.11386791  1
  O  O193  1  0.33807989  -0.00723476  0.37460338  1
  O  O194  1  0.49468004  0.17800698  0.63229535  1
  O  O195  1  0.83402513  0.16523556  0.87316596  1
  O  O196  1  0.31953766  -0.00662983  0.12265551  1
  O  O197  1  0.17326521  0.16001313  0.61612133  1
  O  O198  1  0.66177649  0.66356363  0.62186528  1
  O  O199  1  0.50561825  0.49647472  0.12286300  1
  O  O200  1  0.16645676  0.15859998  0.13737614  1
  O  O201  1  0.67135382  0.34057933  0.37017142  1
  O  O202  1  0.51407792  0.18305050  0.87546374  1
  O  O203  1  0.33153038  0.33028355  0.62199791  1
  O  O204  1  0.32055740  0.68206059  0.39460254  1
  O  O205  1  0.66770028  0.65018556  0.37032341  1
  O  O206  1  -0.01846028  0.67097493  0.11765334  1
  O  O207  1  0.01158493  0.00268821  0.37428415  1
  O  O208  1  0.14328265  0.48945676  0.63397589  1
  O  O209  1  0.83469255  0.49907827  0.64372035  1
  O  O210  1  0.82869882  0.18822007  0.62797576  1
  O  O211  1  0.16878889  0.83427728  0.62941488  1
  O  O212  1  0.17587338  0.82812970  0.88147796  1
  O  O213  1  0.84833016  0.83836349  0.12685005  1
  O  O214  1  0.83320232  0.16749762  0.37778948  1
  O  O215  1  0.67437799  0.34309636  0.62324190  1
