# generated using pymatgen
data_Sr24Ta24N11O13
_symmetry_space_group_name_H-M   'P 1'
_cell_length_a   16.72437113
_cell_length_b   16.86786915
_cell_length_c   15.69706765
_cell_angle_alpha   89.49981558
_cell_angle_beta   89.69431368
_cell_angle_gamma   90.06538161
_symmetry_Int_Tables_number   1
_chemical_formula_structural   Sr24Ta24N11O13
_chemical_formula_sum   'Sr72 Ta72 N33 O39'
_cell_volume   4427.97860186
_cell_formula_units_Z   3
loop_
 _symmetry_equiv_pos_site_id
 _symmetry_equiv_pos_as_xyz
  1  'x, y, z'
loop_
 _atom_site_type_symbol
 _atom_site_label
 _atom_site_symmetry_multiplicity
 _atom_site_fract_x
 _atom_site_fract_y
 _atom_site_fract_z
 _atom_site_occupancy
  Sr  Sr0  1  -0.00017324  0.19151174  0.11031846  1
  Sr  Sr1  1  0.00597230  0.18728587  0.61700646  1
  Sr  Sr2  1  0.00577972  0.49885988  0.12952859  1
  Sr  Sr3  1  -0.00672595  0.54899867  0.59097553  1
  Sr  Sr4  1  -0.00016037  0.86275755  0.10802735  1
  Sr  Sr5  1  -0.01992927  0.83820289  0.66344009  1
  Sr  Sr6  1  0.33617712  0.14608474  0.10492740  1
  Sr  Sr7  1  0.33933593  0.16444426  0.65828839  1
  Sr  Sr8  1  0.35940560  0.50863447  0.06944589  1
  Sr  Sr9  1  0.32629007  0.49772470  0.63407134  1
  Sr  Sr10  1  0.32606302  0.80953749  0.17446997  1
  Sr  Sr11  1  0.32686534  0.83825968  0.61573976  1
  Sr  Sr12  1  0.68215074  0.17778473  0.14393436  1
  Sr  Sr13  1  0.66403004  0.16505851  0.62116297  1
  Sr  Sr14  1  0.66373773  0.49162722  0.16061366  1
  Sr  Sr15  1  0.67025476  0.51494118  0.62689340  1
  Sr  Sr16  1  0.65910377  0.84397083  0.12786234  1
  Sr  Sr17  1  0.66577691  0.83562034  0.58494487  1
  Sr  Sr18  1  0.17601868  -0.00792042  0.12885173  1
  Sr  Sr19  1  0.15963969  -0.01374715  0.60451077  1
  Sr  Sr20  1  0.16193203  0.32581145  0.15900119  1
  Sr  Sr21  1  0.17692529  0.32164268  0.62430305  1
  Sr  Sr22  1  0.16225162  0.65611445  0.12601050  1
  Sr  Sr23  1  0.17075078  0.66528455  0.59048901  1
  Sr  Sr24  1  0.50011658  -0.00278198  0.08808426  1
  Sr  Sr25  1  0.49273650  -0.00504394  0.63251173  1
  Sr  Sr26  1  0.49797412  0.31729662  0.13697033  1
  Sr  Sr27  1  0.50171554  0.35174543  0.58088378  1
  Sr  Sr28  1  0.50580112  0.67019596  0.12020287  1
  Sr  Sr29  1  0.47610818  0.65748495  0.67726385  1
  Sr  Sr30  1  0.82520022  -0.01255322  0.13018924  1
  Sr  Sr31  1  0.83426755  -0.01937299  0.65118618  1
  Sr  Sr32  1  0.84973751  0.32393825  0.08253554  1
  Sr  Sr33  1  0.82898195  0.31033377  0.64795375  1
  Sr  Sr34  1  0.83982741  0.62536767  0.15357477  1
  Sr  Sr35  1  0.82511988  0.67403565  0.61810833  1
  Sr  Sr36  1  0.01167132  0.17592289  0.40202561  1
  Sr  Sr37  1  0.00498450  0.20221813  0.86029582  1
  Sr  Sr38  1  0.00847255  0.51729374  0.35286390  1
  Sr  Sr39  1  -0.00676309  0.51623959  0.91105078  1
  Sr  Sr40  1  -0.02022587  0.87321772  0.33882539  1
  Sr  Sr41  1  0.00958256  0.83850429  0.88164681  1
  Sr  Sr42  1  0.33351552  0.18389815  0.32013947  1
  Sr  Sr43  1  0.33539766  0.15784472  0.88279719  1
  Sr  Sr44  1  0.33153028  0.48962742  0.41663507  1
  Sr  Sr45  1  0.33104959  0.50461404  0.86428708  1
  Sr  Sr46  1  0.32025373  0.84502393  0.39050194  1
  Sr  Sr47  1  0.35674518  0.82909168  0.83205498  1
  Sr  Sr48  1  0.66655047  0.16912648  0.38136536  1
  Sr  Sr49  1  0.68083488  0.17974642  0.85276994  1
  Sr  Sr50  1  0.66001508  0.50551049  0.37456207  1
  Sr  Sr51  1  0.68107249  0.50883555  0.83844163  1
  Sr  Sr52  1  0.66363509  0.84008945  0.37363198  1
  Sr  Sr53  1  0.65034790  0.83332020  0.92262568  1
  Sr  Sr54  1  0.17407988  -0.00653648  0.36924459  1
  Sr  Sr55  1  0.16198875  -0.00177148  0.90338392  1
  Sr  Sr56  1  0.16310027  0.32809236  0.37050103  1
  Sr  Sr57  1  0.18163628  0.32951162  0.82927345  1
  Sr  Sr58  1  0.17448273  0.65868884  0.37637996  1
  Sr  Sr59  1  0.15556963  0.65216433  0.91197135  1
  Sr  Sr60  1  0.50597967  -0.00883740  0.41570584  1
  Sr  Sr61  1  0.48918315  0.00726213  0.86282996  1
  Sr  Sr62  1  0.52221490  0.32540954  0.35953632  1
  Sr  Sr63  1  0.48329649  0.33562887  0.92077383  1
  Sr  Sr64  1  0.48945820  0.68621648  0.33502174  1
  Sr  Sr65  1  0.49523733  0.65725051  0.88446800  1
  Sr  Sr66  1  0.81783249  -0.00609268  0.33643406  1
  Sr  Sr67  1  0.83107741  -0.03905211  0.88991724  1
  Sr  Sr68  1  0.84448830  0.29151742  0.42077671  1
  Sr  Sr69  1  0.83551754  0.33436797  0.86877372  1
  Sr  Sr70  1  0.82941971  0.64464138  0.39264228  1
  Sr  Sr71  1  0.83796351  0.66152678  0.85140114  1
  Ta  Ta72  1  0.16283186  0.19827597  -0.00526151  1
  Ta  Ta73  1  0.21180650  0.16664195  0.49467735  1
  Ta  Ta74  1  0.17119639  0.45787663  -0.00528841  1
  Ta  Ta75  1  0.14732125  0.47579213  0.49798432  1
  Ta  Ta76  1  0.20871427  0.82374043  0.00449261  1
  Ta  Ta77  1  0.11210147  0.83190359  0.48843607  1
  Ta  Ta78  1  0.54284257  0.16442053  0.00240599  1
  Ta  Ta79  1  0.45853373  0.17269188  0.48960792  1
  Ta  Ta80  1  0.55588732  0.49902951  -0.00413587  1
  Ta  Ta81  1  0.50119210  0.54207616  0.50882171  1
  Ta  Ta82  1  0.45507880  0.82913793  0.00822497  1
  Ta  Ta83  1  0.49126451  0.79214608  0.51127663  1
  Ta  Ta84  1  0.83348994  0.13778983  -0.00042795  1
  Ta  Ta85  1  0.83728215  0.11024619  0.50247694  1
  Ta  Ta86  1  0.80043808  0.50267357  -0.00032582  1
  Ta  Ta87  1  0.83665923  0.46407645  0.50193071  1
  Ta  Ta88  1  0.82714823  0.77874488  0.01707753  1
  Ta  Ta89  1  0.85154760  0.85195149  0.50049950  1
  Ta  Ta90  1  0.14362068  0.14840855  0.24180898  1
  Ta  Ta91  1  0.16231694  0.12883910  0.75164097  1
  Ta  Ta92  1  0.20564118  0.49676265  0.24851153  1
  Ta  Ta93  1  0.14068235  0.52354278  0.75249849  1
  Ta  Ta94  1  0.13843630  0.81516777  0.25123209  1
  Ta  Ta95  1  0.16757317  0.80383081  0.75020663  1
  Ta  Ta96  1  0.50708990  0.12343259  0.24778765  1
  Ta  Ta97  1  0.50466143  0.21685220  0.74806265  1
  Ta  Ta98  1  0.46952418  0.50051924  0.25028762  1
  Ta  Ta99  1  0.50052515  0.46309317  0.75540838  1
  Ta  Ta100  1  0.49939973  0.87405236  0.24900945  1
  Ta  Ta101  1  0.54910618  0.83184228  0.74909262  1
  Ta  Ta102  1  0.85842280  0.17914408  0.25399883  1
  Ta  Ta103  1  0.85462657  0.13168705  0.74856943  1
  Ta  Ta104  1  0.84081921  0.44895791  0.25017829  1
  Ta  Ta105  1  0.87352547  0.49760607  0.75069110  1
  Ta  Ta106  1  0.82481813  0.79213012  0.24417125  1
  Ta  Ta107  1  0.77153500  0.82419443  0.75030726  1
  Ta  Ta108  1  0.00685247  0.04822925  0.24832286  1
  Ta  Ta109  1  0.00889686  0.03126020  0.74989428  1
  Ta  Ta110  1  -0.03946400  0.32983294  0.25512849  1
  Ta  Ta111  1  0.00828507  0.39600806  0.74786064  1
  Ta  Ta112  1  -0.00441659  0.70507835  0.25747967  1
  Ta  Ta113  1  0.02492617  0.66062440  0.75753227  1
  Ta  Ta114  1  0.37036469  -0.00359373  0.24848404  1
  Ta  Ta115  1  0.29607550  -0.00385905  0.75441757  1
  Ta  Ta116  1  0.33858549  0.39217405  0.24294421  1
  Ta  Ta117  1  0.37838025  0.33195742  0.75415723  1
  Ta  Ta118  1  0.33325188  0.60869946  0.24107189  1
  Ta  Ta119  1  0.28332884  0.66909708  0.75266743  1
  Ta  Ta120  1  0.62735362  0.00561282  0.24836826  1
  Ta  Ta121  1  0.66683541  -0.03253519  0.75381373  1
  Ta  Ta122  1  0.73254924  0.32867403  0.25709221  1
  Ta  Ta123  1  0.62071633  0.34056288  0.75234432  1
  Ta  Ta124  1  0.67909418  0.68126527  0.25344574  1
  Ta  Ta125  1  0.66028094  0.70204534  0.74993151  1
  Ta  Ta126  1  -0.01555928  0.04286225  -0.00369354  1
  Ta  Ta127  1  -0.02180598  -0.01382623  0.50019372  1
  Ta  Ta128  1  0.05092626  0.34477783  -0.01079059  1
  Ta  Ta129  1  0.00344722  0.37239902  0.50604905  1
  Ta  Ta130  1  -0.03140491  0.68644521  0.00808278  1
  Ta  Ta131  1  -0.00902369  0.72637638  0.48274784  1
  Ta  Ta132  1  0.33185271  -0.05512996  0.00438084  1
  Ta  Ta133  1  0.33065908  0.04681545  0.49133508  1
  Ta  Ta134  1  0.29071248  0.33164657  -0.00322723  1
  Ta  Ta135  1  0.33126894  0.29452782  0.49181903  1
  Ta  Ta136  1  0.33050235  0.70182359  -0.00200060  1
  Ta  Ta137  1  0.37004857  0.66742242  0.50599204  1
  Ta  Ta138  1  0.67182317  0.03801999  0.00298778  1
  Ta  Ta139  1  0.69863194  0.00483698  0.49717645  1
  Ta  Ta140  1  0.66602345  0.35624881  -0.00390106  1
  Ta  Ta141  1  0.68884079  0.35640486  0.49950017  1
  Ta  Ta142  1  0.68654922  0.64161989  0.00242455  1
  Ta  Ta143  1  0.60606789  0.66862797  0.50358947  1
  N  N144  1  0.83927729  0.15323164  0.62709059  1
  N  N145  1  0.68161043  0.33338432  0.37684930  1
  N  N146  1  0.32651042  0.66659735  0.87007608  1
  N  N147  1  0.16809578  0.16452248  0.12027905  1
  N  N148  1  0.33573543  0.65453196  0.12406696  1
  N  N149  1  0.33378436  0.00528501  0.37435594  1
  N  N150  1  0.49688425  0.50514073  0.62969348  1
  N  N151  1  0.82563786  0.83500874  0.12655605  1
  N  N152  1  0.84031785  0.14611495  0.37559927  1
  N  N153  1  0.49325911  0.83057904  0.13075009  1
  N  N154  1  0.17068648  0.49402633  0.37567750  1
  N  N155  1  0.32606367  -0.01311162  0.87219724  1
  N  N156  1  0.66529988  -0.00157639  0.37832556  1
  N  N157  1  0.01270400  0.35479524  0.86526131  1
  N  N158  1  0.50649558  0.16368207  0.12016441  1
  N  N159  1  0.17171913  0.16304807  0.86867932  1
  N  N160  1  0.66741768  0.33881069  0.87428663  1
  N  N161  1  0.16803719  0.49833494  0.87157377  1
  N  N162  1  0.66803248  0.00149607  0.12085537  1
  N  N163  1  0.33359026  -0.01253552  0.12331106  1
  N  N164  1  0.83729998  0.15980887  0.12039931  1
  N  N165  1  -0.01014722  0.66575480  0.37588076  1
  N  N166  1  -0.00234502  0.67852675  0.87898630  1
  N  N167  1  0.81988872  0.83015184  0.62061722  1
  N  N168  1  0.33251404  0.32933367  0.87705270  1
  N  N169  1  0.83639200  0.49660089  0.87244181  1
  N  N170  1  0.50880708  0.50070445  0.88297978  1
  N  N171  1  0.49873118  0.82926663  0.63409377  1
  N  N172  1  0.16421669  0.83901524  0.37620423  1
  N  N173  1  0.49551850  0.16439885  0.37175702  1
  N  N174  1  0.32571031  0.66434734  0.62582574  1
  N  N175  1  0.83323881  0.47830645  0.12229086  1
  N  N176  1  0.16878108  0.82671889  0.12586674  1
  O  O177  1  0.67046757  -0.01208072  0.88121665  1
  O  O178  1  0.16782057  0.51083006  0.61848017  1
  O  O179  1  0.16595269  0.49198054  0.12418669  1
  O  O180  1  0.67715913  0.64933019  0.13395019  1
  O  O181  1  0.67106060  0.66959459  0.88040126  1
  O  O182  1  0.51884394  0.18528702  0.87562913  1
  O  O183  1  0.65984854  0.34814245  0.62647048  1
  O  O184  1  0.18170432  0.16593842  0.36698774  1
  O  O185  1  0.49305051  0.19405720  0.62045684  1
  O  O186  1  -0.00375191  0.65718268  0.13151460  1
  O  O187  1  0.83067506  0.48527773  0.62803842  1
  O  O188  1  0.50704873  0.50201180  0.12147268  1
  O  O189  1  -0.00235978  0.01915054  0.37847792  1
  O  O190  1  0.80220455  0.81307384  0.88270370  1
  O  O191  1  0.69386522  0.33568045  0.13261825  1
  O  O192  1  0.34086748  0.31759702  0.61939681  1
  O  O193  1  0.84034018  0.48888216  0.37841714  1
  O  O194  1  0.66802659  -0.00902730  0.62851662  1
  O  O195  1  0.00208898  -0.00645274  0.62660832  1
  O  O196  1  0.14936658  0.82130484  0.62237225  1
  O  O197  1  0.00932228  0.34165854  0.62800575  1
  O  O198  1  0.64838164  0.67841041  0.37640397  1
  O  O199  1  0.32163394  0.00735116  0.62339587  1
  O  O200  1  0.82302649  0.83739697  0.36830768  1
  O  O201  1  0.00432108  0.02326180  0.87726951  1
  O  O202  1  0.50099114  0.83445282  0.37597509  1
  O  O203  1  0.33060015  0.33640458  0.36876124  1
  O  O204  1  0.18610185  0.16469768  0.62307589  1
  O  O205  1  0.16568273  0.82132310  0.87513778  1
  O  O206  1  0.33549946  0.35469473  0.12053832  1
  O  O207  1  0.50428678  0.83218359  0.87563470  1
  O  O208  1  0.65724722  0.67682105  0.62061710  1
  O  O209  1  -0.00008726  0.34635470  0.37717025  1
  O  O210  1  -0.01401564  0.69139355  0.63306441  1
  O  O211  1  0.83325026  0.17573823  0.86610568  1
  O  O212  1  -0.00374799  0.02880647  0.12368145  1
  O  O213  1  0.34242020  0.64371614  0.37908586  1
  O  O214  1  0.48738962  0.50965369  0.37659804  1
  O  O215  1  0.00427941  0.34205903  0.12981467  1
