# generated using pymatgen
data_Sr24Ta24N11O13
_symmetry_space_group_name_H-M   'P 1'
_cell_length_a   17.14070463
_cell_length_b   16.77240646
_cell_length_c   15.55783136
_cell_angle_alpha   89.49980884
_cell_angle_beta   89.24507984
_cell_angle_gamma   90.66956503
_symmetry_Int_Tables_number   1
_chemical_formula_structural   Sr24Ta24N11O13
_chemical_formula_sum   'Sr72 Ta72 N33 O39'
_cell_volume   4471.86425053
_cell_formula_units_Z   3
loop_
 _symmetry_equiv_pos_site_id
 _symmetry_equiv_pos_as_xyz
  1  'x, y, z'
loop_
 _atom_site_type_symbol
 _atom_site_label
 _atom_site_symmetry_multiplicity
 _atom_site_fract_x
 _atom_site_fract_y
 _atom_site_fract_z
 _atom_site_occupancy
  Sr  Sr0  1  0.00457448  0.17053610  0.08576611  1
  Sr  Sr1  1  0.00230362  0.16686621  0.64104827  1
  Sr  Sr2  1  -0.04332575  0.49981830  0.14063679  1
  Sr  Sr3  1  -0.00550298  0.51969786  0.59335989  1
  Sr  Sr4  1  -0.00050634  0.83666185  0.11774365  1
  Sr  Sr5  1  -0.02081596  0.82527552  0.67368238  1
  Sr  Sr6  1  0.32792067  0.17538400  0.15910668  1
  Sr  Sr7  1  0.33100264  0.18341232  0.61080194  1
  Sr  Sr8  1  0.33574283  0.49686134  0.11290546  1
  Sr  Sr9  1  0.28229934  0.51407554  0.64794689  1
  Sr  Sr10  1  0.31903395  0.86985605  0.10352266  1
  Sr  Sr11  1  0.32020589  0.83939759  0.63483069  1
  Sr  Sr12  1  0.66730717  0.16645055  0.11372296  1
  Sr  Sr13  1  0.64372235  0.16623384  0.65160588  1
  Sr  Sr14  1  0.63580225  0.51413863  0.14052734  1
  Sr  Sr15  1  0.65075091  0.49134679  0.62780053  1
  Sr  Sr16  1  0.65290789  0.82767965  0.12514760  1
  Sr  Sr17  1  0.65849782  0.84749651  0.59107297  1
  Sr  Sr18  1  0.15810364  -0.00373528  0.13557273  1
  Sr  Sr19  1  0.18239412  0.00899745  0.58460163  1
  Sr  Sr20  1  0.19097715  0.33267679  0.11996819  1
  Sr  Sr21  1  0.17735738  0.32616973  0.66918792  1
  Sr  Sr22  1  0.20825575  0.64540827  0.12054393  1
  Sr  Sr23  1  0.16536711  0.68188237  0.62739432  1
  Sr  Sr24  1  0.51663720  -0.00773823  0.08790745  1
  Sr  Sr25  1  0.50201928  -0.02159851  0.64878340  1
  Sr  Sr26  1  0.51856961  0.30336675  0.13971444  1
  Sr  Sr27  1  0.50230444  0.32488760  0.61075399  1
  Sr  Sr28  1  0.50437373  0.66195603  0.13255286  1
  Sr  Sr29  1  0.54112315  0.65808899  0.59435844  1
  Sr  Sr30  1  0.82496949  -0.00301924  0.16213319  1
  Sr  Sr31  1  0.84083881  0.00213527  0.61260616  1
  Sr  Sr32  1  0.82857073  0.31687200  0.12644980  1
  Sr  Sr33  1  0.87371566  0.33210571  0.59084290  1
  Sr  Sr34  1  0.84639669  0.67681142  0.10535694  1
  Sr  Sr35  1  0.84524181  0.65851058  0.64658140  1
  Sr  Sr36  1  -0.01529885  0.14424933  0.43200512  1
  Sr  Sr37  1  0.00988900  0.17437878  0.86853546  1
  Sr  Sr38  1  -0.00847862  0.48214670  0.37335692  1
  Sr  Sr39  1  -0.04527619  0.51230596  0.90861363  1
  Sr  Sr40  1  -0.00108747  0.84281130  0.32818733  1
  Sr  Sr41  1  -0.00147667  0.82803673  0.88640731  1
  Sr  Sr42  1  0.33988732  0.17281163  0.38140717  1
  Sr  Sr43  1  0.32111731  0.19478330  0.85171081  1
  Sr  Sr44  1  0.30973553  0.52236755  0.34978637  1
  Sr  Sr45  1  0.31613674  0.50888084  0.89385637  1
  Sr  Sr46  1  0.30085630  0.84324730  0.40008685  1
  Sr  Sr47  1  0.33185243  0.84887618  0.85594013  1
  Sr  Sr48  1  0.67318279  0.17958764  0.34453788  1
  Sr  Sr49  1  0.66075402  0.16639317  0.88003219  1
  Sr  Sr50  1  0.62764601  0.50162087  0.39969206  1
  Sr  Sr51  1  0.65656329  0.50839342  0.83796391  1
  Sr  Sr52  1  0.65781764  0.83234687  0.37430921  1
  Sr  Sr53  1  0.65023254  0.83258850  0.90312782  1
  Sr  Sr54  1  0.17689080  0.00077000  0.36524223  1
  Sr  Sr55  1  0.16321536  -0.01292500  0.91559066  1
  Sr  Sr56  1  0.18961552  0.33126649  0.33964458  1
  Sr  Sr57  1  0.18122733  0.33739787  0.88388683  1
  Sr  Sr58  1  0.16719177  0.65566043  0.40129084  1
  Sr  Sr59  1  0.19444732  0.66805748  0.85195334  1
  Sr  Sr60  1  0.51677445  -0.02409746  0.38972946  1
  Sr  Sr61  1  0.49887554  -0.01195469  0.87112694  1
  Sr  Sr62  1  0.50978790  0.31234175  0.39191952  1
  Sr  Sr63  1  0.52974070  0.32314076  0.84512300  1
  Sr  Sr64  1  0.51088116  0.66312097  0.36180046  1
  Sr  Sr65  1  0.51113626  0.64088604  0.89303986  1
  Sr  Sr66  1  0.82686665  -0.00477387  0.38142104  1
  Sr  Sr67  1  0.86314570  0.00696799  0.82392284  1
  Sr  Sr68  1  0.84088628  0.32948865  0.36679877  1
  Sr  Sr69  1  0.84092833  0.31242609  0.90675819  1
  Sr  Sr70  1  0.87702879  0.65390118  0.35273893  1
  Sr  Sr71  1  0.83881023  0.68238459  0.87668258  1
  Ta  Ta72  1  0.19217727  0.16126728  0.00015702  1
  Ta  Ta73  1  0.16288621  0.20480657  0.50580930  1
  Ta  Ta74  1  0.12721713  0.50032568  0.00547630  1
  Ta  Ta75  1  0.16213523  0.45973600  0.49214049  1
  Ta  Ta76  1  0.16647840  0.79523146  0.00640186  1
  Ta  Ta77  1  0.12079694  0.83650150  0.49888045  1
  Ta  Ta78  1  0.46548410  0.16789089  -0.00159902  1
  Ta  Ta79  1  0.51045164  0.13222065  0.49781279  1
  Ta  Ta80  1  0.50833078  0.45826087  -0.00627940  1
  Ta  Ta81  1  0.43582119  0.50792714  0.51125269  1
  Ta  Ta82  1  0.47425359  0.81016352  -0.01037511  1
  Ta  Ta83  1  0.46499119  0.81776582  0.50587727  1
  Ta  Ta84  1  0.83614179  0.11579645  -0.00626464  1
  Ta  Ta85  1  0.79360055  0.17123789  0.50482323  1
  Ta  Ta86  1  0.77711356  0.50194383  -0.00135852  1
  Ta  Ta87  1  0.80174682  0.50566154  0.49933462  1
  Ta  Ta88  1  0.82792305  0.88162732  -0.01086689  1
  Ta  Ta89  1  0.85939884  0.81341966  0.49973522  1
  Ta  Ta90  1  0.11346218  0.16234333  0.25705343  1
  Ta  Ta91  1  0.17001515  0.12605443  0.75192786  1
  Ta  Ta92  1  0.13595295  0.50488372  0.23524898  1
  Ta  Ta93  1  0.11077046  0.50287991  0.76968383  1
  Ta  Ta94  1  0.17554161  0.79937960  0.24357751  1
  Ta  Ta95  1  0.15779781  0.87209164  0.74554352  1
  Ta  Ta96  1  0.50204519  0.12121723  0.25062102  1
  Ta  Ta97  1  0.46974482  0.15072030  0.74683875  1
  Ta  Ta98  1  0.48179110  0.46816717  0.25635091  1
  Ta  Ta99  1  0.46216585  0.50369789  0.73868174  1
  Ta  Ta100  1  0.46681666  0.84191287  0.24832725  1
  Ta  Ta101  1  0.51516560  0.79155249  0.74864720  1
  Ta  Ta102  1  0.88235407  0.16316404  0.25805671  1
  Ta  Ta103  1  0.81980728  0.18954478  0.73444181  1
  Ta  Ta104  1  0.78455946  0.49940912  0.25440941  1
  Ta  Ta105  1  0.84020139  0.46066020  0.74705202  1
  Ta  Ta106  1  0.81273807  0.81660989  0.24632094  1
  Ta  Ta107  1  0.78467502  0.83795593  0.75300491  1
  Ta  Ta108  1  -0.00343638  0.04089979  0.25342163  1
  Ta  Ta109  1  0.04588231  -0.00299215  0.75067724  1
  Ta  Ta110  1  0.01056067  0.29355767  0.25801728  1
  Ta  Ta111  1  -0.01018850  0.37569170  0.75544289  1
  Ta  Ta112  1  0.04913860  0.66267688  0.23593824  1
  Ta  Ta113  1  0.01463727  0.64110025  0.76253540  1
  Ta  Ta114  1  0.37188614  -0.00620219  0.25819371  1
  Ta  Ta115  1  0.31418794  0.02315479  0.75162826  1
  Ta  Ta116  1  0.36713393  0.35223779  0.25494491  1
  Ta  Ta117  1  0.36245738  0.36499304  0.74972367  1
  Ta  Ta118  1  0.34174791  0.71453560  0.25195731  1
  Ta  Ta119  1  0.38593238  0.65977683  0.74321883  1
  Ta  Ta120  1  0.64482194  0.00054830  0.24506378  1
  Ta  Ta121  1  0.68126116  -0.01716550  0.75991959  1
  Ta  Ta122  1  0.67181015  0.36575377  0.25800490  1
  Ta  Ta123  1  0.72147867  0.33083211  0.74476776  1
  Ta  Ta124  1  0.70465920  0.66495766  0.25893530  1
  Ta  Ta125  1  0.67146379  0.70334924  0.74533283  1
  Ta  Ta126  1  -0.03674731  0.00026644  -0.00411308  1
  Ta  Ta127  1  -0.00273747  -0.06117902  0.50388513  1
  Ta  Ta128  1  0.02066222  0.35512379  0.00855055  1
  Ta  Ta129  1  0.05481865  0.33092076  0.50381179  1
  Ta  Ta130  1  0.04719445  0.66110586  0.01657265  1
  Ta  Ta131  1  -0.00147997  0.72265753  0.49925385  1
  Ta  Ta132  1  0.33578669  0.05048641  -0.00578673  1
  Ta  Ta133  1  0.36913001  0.00413609  0.50309605  1
  Ta  Ta134  1  0.37258631  0.32508053  -0.00152409  1
  Ta  Ta135  1  0.31829065  0.36666623  0.50178507  1
  Ta  Ta136  1  0.34758618  0.70252702  -0.01084746  1
  Ta  Ta137  1  0.35883204  0.66613879  0.50875299  1
  Ta  Ta138  1  0.71187099  0.00119017  -0.00944299  1
  Ta  Ta139  1  0.66552379  0.03869367  0.49674946  1
  Ta  Ta140  1  0.66387842  0.36912372  -0.00637562  1
  Ta  Ta141  1  0.69405533  0.32351182  0.50688989  1
  Ta  Ta142  1  0.67801358  0.64816824  0.00534121  1
  Ta  Ta143  1  0.72240665  0.66529375  0.48378401  1
  N  N144  1  0.33573380  -0.00104402  0.62501760  1
  N  N145  1  0.85052607  0.16259098  0.61594378  1
  N  N146  1  0.15606691  0.48931442  0.36857565  1
  N  N147  1  0.15520828  0.83004999  0.36317947  1
  N  N148  1  0.83904724  0.16474395  0.37657076  1
  N  N149  1  0.33520696  0.34880719  0.87965955  1
  N  N150  1  0.67326954  0.66729733  0.12830264  1
  N  N151  1  0.65262969  0.00287165  0.87804354  1
  N  N152  1  0.68332389  0.33836162  0.86978606  1
  N  N153  1  0.16875645  0.17100500  0.62965604  1
  N  N154  1  0.16473767  0.16412312  0.87986461  1
  N  N155  1  0.66997734  0.33816430  0.38697098  1
  N  N156  1  -0.00760548  0.66876445  0.12796361  1
  N  N157  1  0.83238858  0.84043174  0.86854736  1
  N  N158  1  0.50228586  0.16026410  0.37183295  1
  N  N159  1  0.33244976  0.00008026  0.37617366  1
  N  N160  1  0.34041322  0.33030688  0.38326568  1
  N  N161  1  0.66029345  0.67096787  0.38142918  1
  N  N162  1  0.34787138  0.67231999  0.85943131  1
  N  N163  1  0.67352020  0.00554296  0.37456394  1
  N  N164  1  0.49691450  0.15275248  0.11991340  1
  N  N165  1  0.00973451  0.00084255  0.87788071  1
  N  N166  1  0.16277471  0.83991528  0.62634914  1
  N  N167  1  0.18257193  0.48816887  0.12010118  1
  N  N168  1  0.67191244  0.00162847  0.11925025  1
  N  N169  1  0.32855486  0.33913608  0.63277955  1
  N  N170  1  0.16278908  0.84431132  0.11831951  1
  N  N171  1  0.50513306  0.82480128  0.61988623  1
  N  N172  1  0.16517310  0.50003736  0.87969186  1
  N  N173  1  0.49823825  0.83258233  0.86689757  1
  N  N174  1  0.34618008  0.33443914  0.12766918  1
  N  N175  1  0.33122137  0.00167015  0.88229429  1
  N  N176  1  0.49310301  0.16554621  0.62712723  1
  O  O177  1  0.84250688  0.82328215  0.36746304  1
  O  O178  1  0.34951390  0.67959906  0.37745522  1
  O  O179  1  0.01675601  0.32336832  0.12878327  1
  O  O180  1  0.68914250  0.68879440  0.61418149  1
  O  O181  1  0.13841293  0.15972426  0.38683500  1
  O  O182  1  0.16171022  0.83213894  0.87854032  1
  O  O183  1  0.85030883  0.15598792  0.11772056  1
  O  O184  1  0.82448614  0.50189641  0.62822156  1
  O  O185  1  0.49483410  0.47056523  0.12063919  1
  O  O186  1  -0.00380081  -0.01980672  0.62833916  1
  O  O187  1  0.01700086  0.68877625  0.37065954  1
  O  O188  1  0.67308466  0.67328194  0.87029024  1
  O  O189  1  0.83269334  0.82289804  0.62695742  1
  O  O190  1  0.01606325  0.35259681  0.63148548  1
  O  O191  1  0.15004659  0.15862298  0.12480208  1
  O  O192  1  0.81776492  0.49329985  0.37697520  1
  O  O193  1  0.67131141  0.34274036  0.12588656  1
  O  O194  1  0.14062155  0.49775963  0.62139651  1
  O  O195  1  0.00687832  0.31795486  0.38345051  1
  O  O196  1  0.81803411  0.83883427  0.11922390  1
  O  O197  1  0.79739088  0.49991611  0.12328805  1
  O  O198  1  0.34809637  0.70285048  0.12657534  1
  O  O199  1  0.50515769  0.48526600  0.86491500  1
  O  O200  1  0.83484387  0.15935248  0.86690705  1
  O  O201  1  0.46868833  0.50482420  0.37988810  1
  O  O202  1  0.65468853  0.33630255  0.63746535  1
  O  O203  1  -0.01230158  0.35606202  0.88296152  1
  O  O204  1  0.66974474  0.00391383  0.62651487  1
  O  O205  1  -0.00683173  -0.01132043  0.38227829  1
  O  O206  1  0.00422224  0.66002401  0.88909949  1
  O  O207  1  0.48314899  0.83659644  0.12094977  1
  O  O208  1  0.50768043  0.16581307  0.87227098  1
  O  O209  1  0.50500854  0.49941633  0.61179000  1
  O  O210  1  0.80773271  0.49879908  0.86995124  1
  O  O211  1  0.49151055  0.82254504  0.37331429  1
  O  O212  1  0.34154852  0.01680377  0.12973999  1
  O  O213  1  0.00623236  0.67251644  0.63479235  1
  O  O214  1  -0.00191091  0.01085195  0.12447359  1
  O  O215  1  0.31927959  0.66985878  0.63096325  1
