# generated using pymatgen
data_Sr24Ta24N11O13
_symmetry_space_group_name_H-M   'P 1'
_cell_length_a   16.73326503
_cell_length_b   16.78842072
_cell_length_c   15.74275952
_cell_angle_alpha   89.81774642
_cell_angle_beta   89.88146133
_cell_angle_gamma   90.06120609
_symmetry_Int_Tables_number   1
_chemical_formula_structural   Sr24Ta24N11O13
_chemical_formula_sum   'Sr72 Ta72 N33 O39'
_cell_volume   4422.50179708
_cell_formula_units_Z   3
loop_
 _symmetry_equiv_pos_site_id
 _symmetry_equiv_pos_as_xyz
  1  'x, y, z'
loop_
 _atom_site_type_symbol
 _atom_site_label
 _atom_site_symmetry_multiplicity
 _atom_site_fract_x
 _atom_site_fract_y
 _atom_site_fract_z
 _atom_site_occupancy
  Sr  Sr0  1  0.00969253  0.16274442  0.11460816  1
  Sr  Sr1  1  0.00390436  0.17924819  0.63429172  1
  Sr  Sr2  1  -0.00103073  0.49980600  0.12922678  1
  Sr  Sr3  1  0.01181867  0.50725798  0.58239882  1
  Sr  Sr4  1  0.01642688  0.83420840  0.16849457  1
  Sr  Sr5  1  -0.01778749  0.84276311  0.61618983  1
  Sr  Sr6  1  0.34661169  0.14605010  0.16283163  1
  Sr  Sr7  1  0.33315124  0.16756957  0.61243424  1
  Sr  Sr8  1  0.35153087  0.47525197  0.10960823  1
  Sr  Sr9  1  0.32125179  0.50831855  0.66832404  1
  Sr  Sr10  1  0.32386595  0.83157245  0.09250214  1
  Sr  Sr11  1  0.34898509  0.82181691  0.60148339  1
  Sr  Sr12  1  0.66147385  0.17607977  0.08136765  1
  Sr  Sr13  1  0.66354788  0.16571196  0.63093262  1
  Sr  Sr14  1  0.67684594  0.48875751  0.16132080  1
  Sr  Sr15  1  0.67487895  0.51063239  0.61607798  1
  Sr  Sr16  1  0.68116228  0.81567059  0.10742195  1
  Sr  Sr17  1  0.66183998  0.83702082  0.66415861  1
  Sr  Sr18  1  0.17539349  0.00081069  0.11735447  1
  Sr  Sr19  1  0.15251031  0.00621460  0.66939383  1
  Sr  Sr20  1  0.15553431  0.33356857  0.08664385  1
  Sr  Sr21  1  0.16061459  0.33883914  0.62357194  1
  Sr  Sr22  1  0.15069440  0.65902654  0.14923647  1
  Sr  Sr23  1  0.17353118  0.67100748  0.62545510  1
  Sr  Sr24  1  0.49817298  0.00490676  0.15286377  1
  Sr  Sr25  1  0.49884076  0.00310592  0.62391306  1
  Sr  Sr26  1  0.49403043  0.32148988  0.12118671  1
  Sr  Sr27  1  0.50401875  0.34228751  0.59461126  1
  Sr  Sr28  1  0.50399400  0.65931962  0.13262740  1
  Sr  Sr29  1  0.49512522  0.65830387  0.60710091  1
  Sr  Sr30  1  0.82848066  -0.01388516  0.13428992  1
  Sr  Sr31  1  0.84202094  0.02328551  0.57438600  1
  Sr  Sr32  1  0.83470986  0.34167875  0.13808252  1
  Sr  Sr33  1  0.82345668  0.32371077  0.66714153  1
  Sr  Sr34  1  0.83841067  0.66186117  0.08491583  1
  Sr  Sr35  1  0.82112278  0.68394934  0.64361890  1
  Sr  Sr36  1  -0.01418496  0.16899587  0.37679384  1
  Sr  Sr37  1  0.01334606  0.16548687  0.87491741  1
  Sr  Sr38  1  0.01034395  0.50132406  0.37079877  1
  Sr  Sr39  1  -0.00148078  0.51465395  0.91852601  1
  Sr  Sr40  1  -0.01011782  0.84417393  0.37963499  1
  Sr  Sr41  1  0.01169559  0.82365656  0.82768447  1
  Sr  Sr42  1  0.33147728  0.16299301  0.37806279  1
  Sr  Sr43  1  0.34181336  0.13322906  0.83859495  1
  Sr  Sr44  1  0.33217662  0.52202651  0.32348527  1
  Sr  Sr45  1  0.34836584  0.49155046  0.87934017  1
  Sr  Sr46  1  0.34290377  0.82509909  0.40949676  1
  Sr  Sr47  1  0.33553343  0.82430944  0.90051656  1
  Sr  Sr48  1  0.66572333  0.15248050  0.41821589  1
  Sr  Sr49  1  0.66529670  0.17292461  0.86972991  1
  Sr  Sr50  1  0.65588294  0.51132368  0.39212623  1
  Sr  Sr51  1  0.69366104  0.50116706  0.83732934  1
  Sr  Sr52  1  0.65514565  0.84772571  0.32292099  1
  Sr  Sr53  1  0.68110431  0.82099156  0.88510625  1
  Sr  Sr54  1  0.16630371  0.01135736  0.33903410  1
  Sr  Sr55  1  0.17257530  -0.00173196  0.88180872  1
  Sr  Sr56  1  0.14963058  0.32087381  0.41727856  1
  Sr  Sr57  1  0.16894680  0.34372377  0.87561746  1
  Sr  Sr58  1  0.16212455  0.66183524  0.36803740  1
  Sr  Sr59  1  0.16411662  0.67041812  0.86208865  1
  Sr  Sr60  1  0.48828117  -0.00158084  0.38252550  1
  Sr  Sr61  1  0.50973579  0.01093396  0.83890608  1
  Sr  Sr62  1  0.48797124  0.32787259  0.37421782  1
  Sr  Sr63  1  0.49679139  0.33533342  0.90216550  1
  Sr  Sr64  1  0.50673539  0.66282558  0.36634780  1
  Sr  Sr65  1  0.48608328  0.66496892  0.90537987  1
  Sr  Sr66  1  0.83141651  -0.00773776  0.36532657  1
  Sr  Sr67  1  0.82349258  0.00772699  0.92026678  1
  Sr  Sr68  1  0.84235466  0.34654634  0.33596576  1
  Sr  Sr69  1  0.82514501  0.33048593  0.86416579  1
  Sr  Sr70  1  0.83830372  0.64496061  0.42495744  1
  Sr  Sr71  1  0.83296816  0.67051649  0.86769956  1
  Ta  Ta72  1  0.21432813  0.16328720  -0.00588386  1
  Ta  Ta73  1  0.16251870  0.12961557  0.50601814  1
  Ta  Ta74  1  0.18179618  0.51928414  0.00161407  1
  Ta  Ta75  1  0.20783571  0.50081180  0.49540942  1
  Ta  Ta76  1  0.12692729  0.82889575  0.00039573  1
  Ta  Ta77  1  0.15965289  0.86547712  0.50164712  1
  Ta  Ta78  1  0.47675488  0.14823169  -0.00305279  1
  Ta  Ta79  1  0.49468725  0.16485845  0.50410098  1
  Ta  Ta80  1  0.54982773  0.49688603  0.00008963  1
  Ta  Ta81  1  0.44349621  0.50064556  0.49304394  1
  Ta  Ta82  1  0.50947761  0.88024200  0.00119055  1
  Ta  Ta83  1  0.54424886  0.83191024  0.49726679  1
  Ta  Ta84  1  0.84601720  0.19260918  -0.00207360  1
  Ta  Ta85  1  0.83130017  0.22417841  0.50160018  1
  Ta  Ta86  1  0.81075606  0.48515988  -0.00029273  1
  Ta  Ta87  1  0.83264080  0.44506041  0.50409572  1
  Ta  Ta88  1  0.88960167  0.83520633  0.00240871  1
  Ta  Ta89  1  0.79081642  0.83438316  0.49666496  1
  Ta  Ta90  1  0.16245882  0.19915932  0.24918486  1
  Ta  Ta91  1  0.18378452  0.19158648  0.75088643  1
  Ta  Ta92  1  0.16973697  0.44922605  0.25406172  1
  Ta  Ta93  1  0.12671533  0.50315070  0.74500777  1
  Ta  Ta94  1  0.20884460  0.83477970  0.25385525  1
  Ta  Ta95  1  0.21099708  0.83237981  0.74961283  1
  Ta  Ta96  1  0.54757474  0.17110084  0.24689514  1
  Ta  Ta97  1  0.49802403  0.20865048  0.75052232  1
  Ta  Ta98  1  0.51170953  0.47657966  0.24914488  1
  Ta  Ta99  1  0.51437275  0.49258567  0.75308971  1
  Ta  Ta100  1  0.45595314  0.83173251  0.24720356  1
  Ta  Ta101  1  0.48350505  0.81323136  0.75412020  1
  Ta  Ta102  1  0.78976828  0.16856978  0.24976836  1
  Ta  Ta103  1  0.83531099  0.12434593  0.75426733  1
  Ta  Ta104  1  0.83870761  0.53927390  0.24938862  1
  Ta  Ta105  1  0.88211089  0.50189639  0.75172362  1
  Ta  Ta106  1  0.83570647  0.78968288  0.24659531  1
  Ta  Ta107  1  0.83299144  0.89211414  0.75002386  1
  Ta  Ta108  1  -0.00300548  0.01590533  0.25185042  1
  Ta  Ta109  1  -0.04211339  0.00625942  0.74675525  1
  Ta  Ta110  1  0.03457760  0.32765432  0.25095302  1
  Ta  Ta111  1  0.00383586  0.37722728  0.74850221  1
  Ta  Ta112  1  -0.04344799  0.66626975  0.25019254  1
  Ta  Ta113  1  -0.00011547  0.63057536  0.75130349  1
  Ta  Ta114  1  0.33162396  -0.04840311  0.25231730  1
  Ta  Ta115  1  0.33421538  -0.05191230  0.75100473  1
  Ta  Ta116  1  0.28802347  0.32675693  0.25135918  1
  Ta  Ta117  1  0.34699432  0.31742322  0.74910177  1
  Ta  Ta118  1  0.33221486  0.71160899  0.25178315  1
  Ta  Ta119  1  0.34298827  0.69361173  0.75168143  1
  Ta  Ta120  1  0.66702937  0.04461006  0.25352915  1
  Ta  Ta121  1  0.70901396  0.00675488  0.74360544  1
  Ta  Ta122  1  0.65736691  0.30100017  0.25349923  1
  Ta  Ta123  1  0.62612202  0.34051219  0.74457772  1
  Ta  Ta124  1  0.71607274  0.66355475  0.25506136  1
  Ta  Ta125  1  0.61984382  0.66302312  0.75906835  1
  Ta  Ta126  1  0.00684335  -0.04258542  -0.00353322  1
  Ta  Ta127  1  0.04023518  0.00674448  0.50266372  1
  Ta  Ta128  1  -0.02973403  0.32879022  0.00113927  1
  Ta  Ta129  1  -0.03957213  0.33318603  0.50252384  1
  Ta  Ta130  1  0.01159645  0.70397449  0.00188520  1
  Ta  Ta131  1  0.01499787  0.69009375  0.49801052  1
  Ta  Ta132  1  0.35808832  0.01169770  0.00038642  1
  Ta  Ta133  1  0.28800492  -0.00151873  0.50075166  1
  Ta  Ta134  1  0.33177282  0.27417940  -0.00117572  1
  Ta  Ta135  1  0.32633840  0.37855471  0.49651049  1
  Ta  Ta136  1  0.30150383  0.64446843  0.00274748  1
  Ta  Ta137  1  0.32972241  0.63259758  0.49715217  1
  Ta  Ta138  1  0.63262926  -0.00515563  -0.00089924  1
  Ta  Ta139  1  0.66116984  -0.03933249  0.49937786  1
  Ta  Ta140  1  0.67695629  0.36826144  -0.00110979  1
  Ta  Ta141  1  0.70009549  0.33461349  0.50211118  1
  Ta  Ta142  1  0.66720683  0.61903510  -0.00177877  1
  Ta  Ta143  1  0.66600584  0.71933829  0.49334521  1
  N  N144  1  0.00125801  0.00403710  0.37332872  1
  N  N145  1  -0.00329333  0.67087792  0.12787650  1
  N  N146  1  0.84795535  0.82665623  0.12264708  1
  N  N147  1  0.67453449  0.00090013  0.62029503  1
  N  N148  1  0.66189120  0.34052897  0.62569219  1
  N  N149  1  0.48847506  0.50119856  0.37133885  1
  N  N150  1  0.33918806  -0.01909890  0.87095154  1
  N  N151  1  -0.00402391  0.33414043  0.12243199  1
  N  N152  1  0.50169753  0.16766224  0.62517288  1
  N  N153  1  0.50718989  0.16495034  0.12560077  1
  N  N154  1  0.16938748  0.49114054  0.37443289  1
  N  N155  1  0.83323206  0.16270599  0.87998770  1
  N  N156  1  0.16618413  0.16622221  0.62710156  1
  N  N157  1  -0.00453707  0.00468023  0.62194309  1
  N  N158  1  0.66461578  0.00035799  0.37066900  1
  N  N159  1  -0.00228559  0.34294349  0.62741273  1
  N  N160  1  0.84602759  0.50133979  0.87380002  1
  N  N161  1  0.33424200  0.66348262  0.63048496  1
  N  N162  1  0.32459306  -0.00883677  0.38282537  1
  N  N163  1  0.17460427  0.15797339  0.87556928  1
  N  N164  1  0.67458328  0.67368413  0.37444298  1
  N  N165  1  0.50538875  0.49576072  0.87580343  1
  N  N166  1  0.50250000  0.17008299  0.87269110  1
  N  N167  1  0.33534197  -0.01002119  0.12226044  1
  N  N168  1  0.83634884  0.50354133  0.12800907  1
  N  N169  1  0.66159529  0.66202209  0.87341747  1
  N  N170  1  0.16596408  0.50340125  0.62696724  1
  N  N171  1  -0.00082795  0.67245038  0.37858194  1
  N  N172  1  0.32800951  0.65968889  0.88031745  1
  N  N173  1  0.00019274  0.66921330  0.87094734  1
  N  N174  1  0.50726688  0.49571794  0.12303095  1
  N  N175  1  -0.00337671  0.33470652  0.36930116  1
  N  N176  1  0.33412457  0.67216571  0.37488282  1
  O  O177  1  0.33595989  0.34259308  0.62636626  1
  O  O178  1  0.66171545  0.68228977  0.63774105  1
  O  O179  1  0.49618488  0.83615122  0.87883761  1
  O  O180  1  0.16991467  0.82973081  0.87756239  1
  O  O181  1  0.00149053  -0.01788001  0.87126879  1
  O  O182  1  0.32387310  0.67559247  0.12525050  1
  O  O183  1  0.81830528  0.84452338  0.62672519  1
  O  O184  1  0.00674322  0.67352324  0.62640975  1
  O  O185  1  0.81281230  0.17447047  0.12650478  1
  O  O186  1  0.66695722  0.32896257  0.12736972  1
  O  O187  1  0.49058010  0.84433603  0.12078463  1
  O  O188  1  0.83509610  0.49329244  0.38234318  1
  O  O189  1  0.16773014  0.83420880  0.12383462  1
  O  O190  1  0.84621981  0.85199085  0.87274666  1
  O  O191  1  0.16338201  0.50873793  0.87592604  1
  O  O192  1  0.81473703  0.18638166  0.37472929  1
  O  O193  1  0.00731351  -0.01241352  0.12400120  1
  O  O194  1  0.67916812  0.65711291  0.12235451  1
  O  O195  1  0.33854423  0.32063423  0.87731506  1
  O  O196  1  0.66339265  0.33965329  0.87264619  1
  O  O197  1  0.83120746  0.17458867  0.62198861  1
  O  O198  1  0.83550289  0.48093770  0.62849908  1
  O  O199  1  0.16794542  0.84748399  0.37702323  1
  O  O200  1  0.17345705  0.84373260  0.62453142  1
  O  O201  1  0.17075574  0.17646796  0.12256552  1
  O  O202  1  0.50916689  0.16746484  0.37309287  1
  O  O203  1  0.16579906  0.17036344  0.37463982  1
  O  O204  1  0.33344354  -0.01919920  0.62138959  1
  O  O205  1  0.31632967  0.31552133  0.12611603  1
  O  O206  1  0.17424680  0.48982492  0.12539937  1
  O  O207  1  0.31290032  0.32864603  0.37794433  1
  O  O208  1  0.81388203  0.83504722  0.37048028  1
  O  O209  1  0.66162652  0.31855979  0.37781929  1
  O  O210  1  0.48383543  0.49928548  0.61709953  1
  O  O211  1  0.65432754  0.01084925  0.12338552  1
  O  O212  1  0.50529082  0.82181350  0.62739546  1
  O  O213  1  0.50231708  0.83404019  0.36887399  1
  O  O214  1  -0.00109082  0.34265893  0.87533126  1
  O  O215  1  0.66433724  0.00217942  0.87450641  1
