# generated using pymatgen
data_Sr24Ta24N11O13
_symmetry_space_group_name_H-M   'P 1'
_cell_length_a   16.83312353
_cell_length_b   16.75845595
_cell_length_c   15.73581756
_cell_angle_alpha   90.16844801
_cell_angle_beta   90.11101395
_cell_angle_gamma   89.93088373
_symmetry_Int_Tables_number   1
_chemical_formula_structural   Sr24Ta24N11O13
_chemical_formula_sum   'Sr72 Ta72 N33 O39'
_cell_volume   4438.99871673
_cell_formula_units_Z   3
loop_
 _symmetry_equiv_pos_site_id
 _symmetry_equiv_pos_as_xyz
  1  'x, y, z'
loop_
 _atom_site_type_symbol
 _atom_site_label
 _atom_site_symmetry_multiplicity
 _atom_site_fract_x
 _atom_site_fract_y
 _atom_site_fract_z
 _atom_site_occupancy
  Sr  Sr0  1  -0.00721798  0.19073399  0.16924610  1
  Sr  Sr1  1  0.01831502  0.16509635  0.60867421  1
  Sr  Sr2  1  -0.01944917  0.48509406  0.07980713  1
  Sr  Sr3  1  -0.00551757  0.51069482  0.63082365  1
  Sr  Sr4  1  -0.00727360  0.83056531  0.12180288  1
  Sr  Sr5  1  -0.00996155  0.83151698  0.65042850  1
  Sr  Sr6  1  0.31879992  0.16371920  0.12485789  1
  Sr  Sr7  1  0.35388205  0.17205975  0.67234195  1
  Sr  Sr8  1  0.32348650  0.51229782  0.14012883  1
  Sr  Sr9  1  0.33145426  0.48327546  0.58253207  1
  Sr  Sr10  1  0.31916766  0.84177655  0.09042275  1
  Sr  Sr11  1  0.31303256  0.82195426  0.62122389  1
  Sr  Sr12  1  0.66333365  0.16472743  0.12291011  1
  Sr  Sr13  1  0.66165179  0.16929077  0.58087838  1
  Sr  Sr14  1  0.67075169  0.50584814  0.15817782  1
  Sr  Sr15  1  0.65199701  0.50184631  0.63182178  1
  Sr  Sr16  1  0.62508795  0.82414606  0.13723580  1
  Sr  Sr17  1  0.65883691  0.83946924  0.62467443  1
  Sr  Sr18  1  0.17558914  -0.00766670  0.10447896  1
  Sr  Sr19  1  0.17055245  -0.00196198  0.59808463  1
  Sr  Sr20  1  0.17091056  0.33708103  0.12330204  1
  Sr  Sr21  1  0.18805623  0.31461044  0.63809645  1
  Sr  Sr22  1  0.15787140  0.67700374  0.16353122  1
  Sr  Sr23  1  0.17013287  0.66211735  0.61846478  1
  Sr  Sr24  1  0.50347381  0.01517742  0.15959914  1
  Sr  Sr25  1  0.50916036  -0.00192116  0.61169324  1
  Sr  Sr26  1  0.51669037  0.32873970  0.09397816  1
  Sr  Sr27  1  0.50878799  0.33879586  0.63104388  1
  Sr  Sr28  1  0.47297799  0.67455788  0.10544328  1
  Sr  Sr29  1  0.51827644  0.66714261  0.67307681  1
  Sr  Sr30  1  0.84711151  -0.00161417  0.11174744  1
  Sr  Sr31  1  0.85138894  -0.01190266  0.66682046  1
  Sr  Sr32  1  0.82905397  0.33073345  0.13222978  1
  Sr  Sr33  1  0.86149900  0.32172836  0.62862523  1
  Sr  Sr34  1  0.84481092  0.66904963  0.12237638  1
  Sr  Sr35  1  0.82505595  0.67244231  0.58601322  1
  Sr  Sr36  1  0.01369848  0.17410783  0.38755812  1
  Sr  Sr37  1  -0.01691939  0.17575030  0.82361293  1
  Sr  Sr38  1  -0.02045370  0.50873989  0.41135901  1
  Sr  Sr39  1  -0.00105046  0.50196399  0.87032329  1
  Sr  Sr40  1  -0.00409406  0.81962220  0.34133459  1
  Sr  Sr41  1  -0.01568965  0.84138615  0.88624028  1
  Sr  Sr42  1  0.33843152  0.15853175  0.33911137  1
  Sr  Sr43  1  0.31748504  0.16467279  0.88086428  1
  Sr  Sr44  1  0.33045505  0.50338924  0.36520077  1
  Sr  Sr45  1  0.34341518  0.49873244  0.91911468  1
  Sr  Sr46  1  0.32180989  0.85079323  0.41494619  1
  Sr  Sr47  1  0.31959805  0.81503016  0.87075285  1
  Sr  Sr48  1  0.65914627  0.15989539  0.37580626  1
  Sr  Sr49  1  0.67638451  0.17295589  0.91887243  1
  Sr  Sr50  1  0.66352020  0.50848557  0.36983492  1
  Sr  Sr51  1  0.65280161  0.49256014  0.83842219  1
  Sr  Sr52  1  0.64093295  0.83758115  0.38333364  1
  Sr  Sr53  1  0.63856084  0.82843030  0.85212043  1
  Sr  Sr54  1  0.17093597  -0.00184260  0.39653246  1
  Sr  Sr55  1  0.17991645  -0.00789452  0.90381267  1
  Sr  Sr56  1  0.18601970  0.32248005  0.35338267  1
  Sr  Sr57  1  0.17822410  0.33316373  0.88916053  1
  Sr  Sr58  1  0.17688729  0.66707314  0.38286049  1
  Sr  Sr59  1  0.14893116  0.67568657  0.82603090  1
  Sr  Sr60  1  0.50203814  0.00475412  0.37861039  1
  Sr  Sr61  1  0.49659665  0.01037274  0.84556091  1
  Sr  Sr62  1  0.51673069  0.34849142  0.41985493  1
  Sr  Sr63  1  0.51279850  0.32835701  0.86784105  1
  Sr  Sr64  1  0.50423595  0.65249776  0.32414848  1
  Sr  Sr65  1  0.48775390  0.67706170  0.88582830  1
  Sr  Sr66  1  0.86461814  -0.00881544  0.34150057  1
  Sr  Sr67  1  0.83559848  -0.00283402  0.88066800  1
  Sr  Sr68  1  0.85176764  0.31639814  0.37518685  1
  Sr  Sr69  1  0.84439177  0.34601872  0.86438447  1
  Sr  Sr70  1  0.83872162  0.67289777  0.37674824  1
  Sr  Sr71  1  0.84434056  0.67369936  0.91769598  1
  Ta  Ta72  1  0.12708949  0.17138121  -0.00543000  1
  Ta  Ta73  1  0.21058510  0.17343228  0.50145019  1
  Ta  Ta74  1  0.15984530  0.54531667  -0.00020080  1
  Ta  Ta75  1  0.15072011  0.48237763  0.49926171  1
  Ta  Ta76  1  0.15247022  0.79391023  -0.00640254  1
  Ta  Ta77  1  0.12149783  0.82743742  0.50261635  1
  Ta  Ta78  1  0.48633319  0.15270334  0.00022260  1
  Ta  Ta79  1  0.46709467  0.17234033  0.50235105  1
  Ta  Ta80  1  0.53559187  0.50100866  0.00252560  1
  Ta  Ta81  1  0.49983520  0.54737999  0.49936608  1
  Ta  Ta82  1  0.49358467  0.87597748  -0.00181078  1
  Ta  Ta83  1  0.48960808  0.76717391  0.49850823  1
  Ta  Ta84  1  0.87144188  0.17428246  -0.00004439  1
  Ta  Ta85  1  0.84030475  0.11994301  0.50259973  1
  Ta  Ta86  1  0.78625167  0.50050149  -0.00027453  1
  Ta  Ta87  1  0.80780499  0.48278692  0.50312332  1
  Ta  Ta88  1  0.77003310  0.84088044  -0.00487330  1
  Ta  Ta89  1  0.84172741  0.86040822  0.49936447  1
  Ta  Ta90  1  0.16188854  0.13168766  0.25331015  1
  Ta  Ta91  1  0.16726808  0.12789488  0.74874783  1
  Ta  Ta92  1  0.12226439  0.50089954  0.24791621  1
  Ta  Ta93  1  0.19481292  0.48713477  0.75288330  1
  Ta  Ta94  1  0.18365115  0.85303747  0.25674519  1
  Ta  Ta95  1  0.15968790  0.86807609  0.74894323  1
  Ta  Ta96  1  0.50525627  0.21639100  0.25872517  1
  Ta  Ta97  1  0.55686509  0.16778853  0.74403347  1
  Ta  Ta98  1  0.49979439  0.45326550  0.25578477  1
  Ta  Ta99  1  0.45823038  0.49978528  0.74608296  1
  Ta  Ta100  1  0.44725270  0.83640786  0.24671682  1
  Ta  Ta101  1  0.46506756  0.84650274  0.74702505  1
  Ta  Ta102  1  0.81218308  0.15175367  0.24567624  1
  Ta  Ta103  1  0.78471391  0.16171770  0.74921436  1
  Ta  Ta104  1  0.85675316  0.50136537  0.24537575  1
  Ta  Ta105  1  0.82942192  0.54672432  0.75267221  1
  Ta  Ta106  1  0.79370971  0.83257573  0.24480902  1
  Ta  Ta107  1  0.81990434  0.79647123  0.75690763  1
  Ta  Ta108  1  0.03924898  0.00668815  0.24606116  1
  Ta  Ta109  1  0.04132964  0.00108553  0.75128693  1
  Ta  Ta110  1  0.00433715  0.38137011  0.25611660  1
  Ta  Ta111  1  0.03641615  0.35170438  0.74735477  1
  Ta  Ta112  1  -0.00495524  0.61633814  0.24292886  1
  Ta  Ta113  1  -0.04765139  0.66876046  0.75369172  1
  Ta  Ta114  1  0.32013482  -0.02408438  0.25242133  1
  Ta  Ta115  1  0.31591885  -0.01522978  0.74456171  1
  Ta  Ta116  1  0.37999821  0.33424343  0.25531348  1
  Ta  Ta117  1  0.34074577  0.37673705  0.74913436  1
  Ta  Ta118  1  0.32723775  0.71714852  0.24718525  1
  Ta  Ta119  1  0.33054183  0.61753512  0.75311854  1
  Ta  Ta120  1  0.69294185  -0.00803778  0.24915357  1
  Ta  Ta121  1  0.67113552  0.03638426  0.74308278  1
  Ta  Ta122  1  0.64952492  0.32641820  0.24822169  1
  Ta  Ta123  1  0.68114695  0.29501968  0.75290261  1
  Ta  Ta124  1  0.69304305  0.68458319  0.25002448  1
  Ta  Ta125  1  0.71054182  0.66754953  0.75369704  1
  Ta  Ta126  1  0.00308066  0.06366599  -0.00249567  1
  Ta  Ta127  1  -0.01779733  -0.02281693  0.50549857  1
  Ta  Ta128  1  0.00109039  0.29037659  -0.00811958  1
  Ta  Ta129  1  0.04139709  0.34815160  0.49997727  1
  Ta  Ta130  1  0.03870946  0.66432005  -0.00214241  1
  Ta  Ta131  1  0.00812964  0.68910221  0.50492632  1
  Ta  Ta132  1  0.37338651  0.01137325  0.00499269  1
  Ta  Ta133  1  0.34134520  0.04331902  0.50256072  1
  Ta  Ta134  1  0.35586146  0.31668237  0.00015702  1
  Ta  Ta135  1  0.34160194  0.29119476  0.50479152  1
  Ta  Ta136  1  0.27701331  0.66520883  -0.00120728  1
  Ta  Ta137  1  0.36282215  0.66214336  0.49765669  1
  Ta  Ta138  1  0.64703181  -0.02140317  -0.00324133  1
  Ta  Ta139  1  0.72532510  -0.00637952  0.50335082  1
  Ta  Ta140  1  0.67828941  0.37035309  -0.00147057  1
  Ta  Ta141  1  0.70131513  0.35400397  0.50161046  1
  Ta  Ta142  1  0.66432728  0.63979604  -0.00688224  1
  Ta  Ta143  1  0.63698372  0.66533692  0.50516158  1
  N  N144  1  0.82822975  0.50255116  0.12485261  1
  N  N145  1  0.81226106  0.83458701  0.87933193  1
  N  N146  1  0.65861558  0.66130946  0.87211419  1
  N  N147  1  0.00708767  0.32905964  0.87162665  1
  N  N148  1  0.00996411  0.33732415  0.37216349  1
  N  N149  1  0.31660003  0.67829639  0.12901137  1
  N  N150  1  0.49987448  0.50111421  0.37292264  1
  N  N151  1  -0.00011056  0.65861810  0.12686969  1
  N  N152  1  0.16220031  0.83629479  0.37667386  1
  N  N153  1  0.33875590  0.00515348  0.37844967  1
  N  N154  1  0.33695091  0.00125864  0.62565184  1
  N  N155  1  0.33833309  0.00653762  0.12629144  1
  N  N156  1  0.49180706  0.50928716  0.62199929  1
  N  N157  1  0.17851633  0.15961469  0.62582620  1
  N  N158  1  0.51067891  0.16919036  0.62954721  1
  N  N159  1  0.67425709  0.32988335  0.87450434  1
  N  N160  1  -0.00868078  0.67025988  0.62432021  1
  N  N161  1  0.47632250  0.84316551  0.12404607  1
  N  N162  1  0.66826777  0.66757576  0.62505326  1
  N  N163  1  -0.00410057  0.66973726  0.87089336  1
  N  N164  1  0.67035381  0.33552155  0.12640684  1
  N  N165  1  0.48018338  0.84204576  0.87042993  1
  N  N166  1  0.00421330  -0.00220172  0.62503365  1
  N  N167  1  0.34599515  0.33169355  0.63087018  1
  N  N168  1  0.15506545  0.83032750  0.87331880  1
  N  N169  1  0.50393312  0.17506767  0.37554766  1
  N  N170  1  0.16216328  0.16296446  0.87473468  1
  N  N171  1  0.15738556  0.83120910  0.62365164  1
  N  N172  1  0.83104112  0.16540993  0.12503304  1
  N  N173  1  0.17558933  0.16205334  0.37377649  1
  N  N174  1  0.68091038  0.00038098  0.62190769  1
  N  N175  1  0.01595397  0.32838577  0.62597909  1
  N  N176  1  0.31790222  0.65283019  0.87028887  1
  O  O177  1  0.67811240  0.67532671  0.37789301  1
  O  O178  1  0.83250404  0.14490350  0.62787754  1
  O  O179  1  0.82814932  0.16404683  0.87663014  1
  O  O180  1  0.33268321  0.65162059  0.62149149  1
  O  O181  1  0.65554390  0.00083463  0.87365285  1
  O  O182  1  0.82692793  0.84032124  0.37361374  1
  O  O183  1  0.49808128  0.17085934  0.12795929  1
  O  O184  1  0.17668106  0.49357722  0.62521654  1
  O  O185  1  -0.00034071  0.02065162  0.87490476  1
  O  O186  1  0.48771555  0.80971147  0.37685242  1
  O  O187  1  0.83589823  0.14224390  0.37836828  1
  O  O188  1  0.82548127  0.49434565  0.37710697  1
  O  O189  1  0.51756610  0.48790742  0.12665830  1
  O  O190  1  0.33715250  0.00787530  0.87851499  1
  O  O191  1  0.66289222  -0.00674578  0.12718976  1
  O  O192  1  0.35882987  0.32721692  0.12376380  1
  O  O193  1  0.00752837  0.33739457  0.12842665  1
  O  O194  1  0.15652596  0.83464443  0.12094682  1
  O  O195  1  0.82138076  0.50718442  0.62679558  1
  O  O196  1  0.16260323  0.17054702  0.12924592  1
  O  O197  1  0.34717214  0.33394056  0.87511865  1
  O  O198  1  0.80408473  0.83358514  0.11787952  1
  O  O199  1  0.17603703  0.49771014  0.87825091  1
  O  O200  1  0.35044039  0.33424123  0.38110282  1
  O  O201  1  0.51709682  0.16261121  0.87689720  1
  O  O202  1  0.01451877  -0.00645997  0.37121291  1
  O  O203  1  0.69036526  0.33294862  0.62553614  1
  O  O204  1  0.50318005  0.50215844  0.87821080  1
  O  O205  1  0.83063879  0.83403599  0.62448288  1
  O  O206  1  0.14778490  0.49943711  0.12053402  1
  O  O207  1  0.48284330  0.81293909  0.62241238  1
  O  O208  1  0.01636317  0.01782329  0.12076301  1
  O  O209  1  0.67937863  0.66373440  0.12806902  1
  O  O210  1  0.82592008  0.50599511  0.87480547  1
  O  O211  1  0.68005522  0.34189675  0.37768157  1
  O  O212  1  -0.00809344  0.66084368  0.37214430  1
  O  O213  1  0.68638577  -0.00645642  0.37590581  1
  O  O214  1  0.14591867  0.50652676  0.37705633  1
  O  O215  1  0.33906185  0.66573219  0.36918634  1
