# generated using pymatgen
data_Sr24Ta24N11O13
_symmetry_space_group_name_H-M   'P 1'
_cell_length_a   16.84444707
_cell_length_b   16.89610109
_cell_length_c   15.84066911
_cell_angle_alpha   89.94404823
_cell_angle_beta   90.08762473
_cell_angle_gamma   89.93552410
_symmetry_Int_Tables_number   1
_chemical_formula_structural   Sr24Ta24N11O13
_chemical_formula_sum   'Sr72 Ta72 N33 O39'
_cell_volume   4508.33095794
_cell_formula_units_Z   3
loop_
 _symmetry_equiv_pos_site_id
 _symmetry_equiv_pos_as_xyz
  1  'x, y, z'
loop_
 _atom_site_type_symbol
 _atom_site_label
 _atom_site_symmetry_multiplicity
 _atom_site_fract_x
 _atom_site_fract_y
 _atom_site_fract_z
 _atom_site_occupancy
  Sr  Sr0  1  0.01058365  0.16185111  0.15247823  1
  Sr  Sr1  1  0.00825469  0.18646774  0.60203017  1
  Sr  Sr2  1  0.01478784  0.50796606  0.13080957  1
  Sr  Sr3  1  0.01220896  0.50779639  0.64562914  1
  Sr  Sr4  1  0.00508708  0.84189859  0.08620525  1
  Sr  Sr5  1  -0.00047860  0.84801710  0.62745347  1
  Sr  Sr6  1  0.34360127  0.18789269  0.12505622  1
  Sr  Sr7  1  0.34198867  0.15922272  0.60219791  1
  Sr  Sr8  1  0.34893574  0.52077834  0.11806388  1
  Sr  Sr9  1  0.34155774  0.52303005  0.60655906  1
  Sr  Sr10  1  0.33847556  0.83670817  0.12510842  1
  Sr  Sr11  1  0.33601714  0.84251161  0.66513427  1
  Sr  Sr12  1  0.67715799  0.17768688  0.09510891  1
  Sr  Sr13  1  0.67381186  0.17735653  0.65251006  1
  Sr  Sr14  1  0.67188621  0.50715151  0.13147078  1
  Sr  Sr15  1  0.66406585  0.52014215  0.62012356  1
  Sr  Sr16  1  0.68945306  0.84756836  0.15197593  1
  Sr  Sr17  1  0.65966412  0.85439978  0.59340876  1
  Sr  Sr18  1  0.15974167  -0.01842360  0.12585146  1
  Sr  Sr19  1  0.16115202  -0.01374255  0.62177765  1
  Sr  Sr20  1  0.15768519  0.31767520  0.11520813  1
  Sr  Sr21  1  0.15771289  0.33070881  0.65675654  1
  Sr  Sr22  1  0.16374932  0.66506289  0.14112523  1
  Sr  Sr23  1  0.15302359  0.65401479  0.59083574  1
  Sr  Sr24  1  0.48539055  -0.01572595  0.14723057  1
  Sr  Sr25  1  0.49205408  -0.00655108  0.60066962  1
  Sr  Sr26  1  0.50109510  0.31824859  0.13682517  1
  Sr  Sr27  1  0.47937964  0.30588372  0.63958675  1
  Sr  Sr28  1  0.49500973  0.65721627  0.08892977  1
  Sr  Sr29  1  0.49107727  0.66970666  0.63860385  1
  Sr  Sr30  1  0.83603487  -0.00401155  0.11764757  1
  Sr  Sr31  1  0.82035337  -0.01609290  0.64768384  1
  Sr  Sr32  1  0.81834336  0.32224198  0.10374766  1
  Sr  Sr33  1  0.81309471  0.32254257  0.60806134  1
  Sr  Sr34  1  0.82232684  0.64876167  0.13897032  1
  Sr  Sr35  1  0.83144665  0.63953461  0.64438828  1
  Sr  Sr36  1  -0.00171381  0.16317827  0.36832182  1
  Sr  Sr37  1  0.02524129  0.18894727  0.87703887  1
  Sr  Sr38  1  0.01645998  0.51673560  0.35006268  1
  Sr  Sr39  1  0.01213915  0.49767188  0.86970571  1
  Sr  Sr40  1  0.01270925  0.83326872  0.41486025  1
  Sr  Sr41  1  -0.00526949  0.85273543  0.87052667  1
  Sr  Sr42  1  0.35400256  0.17190076  0.37797098  1
  Sr  Sr43  1  0.33119316  0.18939041  0.87636642  1
  Sr  Sr44  1  0.33899217  0.51872003  0.39925652  1
  Sr  Sr45  1  0.35288905  0.52792156  0.88128054  1
  Sr  Sr46  1  0.31868287  0.83773340  0.33466259  1
  Sr  Sr47  1  0.33944452  0.83626928  0.87730589  1
  Sr  Sr48  1  0.68127830  0.18661557  0.38422950  1
  Sr  Sr49  1  0.67181262  0.16983545  0.87374492  1
  Sr  Sr50  1  0.66991371  0.50168317  0.37685352  1
  Sr  Sr51  1  0.66255632  0.52956893  0.87830327  1
  Sr  Sr52  1  0.66210009  0.84275693  0.37194572  1
  Sr  Sr53  1  0.68907574  0.85939373  0.87651272  1
  Sr  Sr54  1  0.15259509  -0.00065227  0.39221436  1
  Sr  Sr55  1  0.16414800  -0.02738303  0.86263466  1
  Sr  Sr56  1  0.15194038  0.32685685  0.34198080  1
  Sr  Sr57  1  0.16558897  0.33501154  0.87892311  1
  Sr  Sr58  1  0.17078034  0.66290738  0.37113417  1
  Sr  Sr59  1  0.14342318  0.65681707  0.89552247  1
  Sr  Sr60  1  0.49129583  -0.00451413  0.37408428  1
  Sr  Sr61  1  0.47425048  -0.01810535  0.88069773  1
  Sr  Sr62  1  0.48818885  0.32424970  0.35673065  1
  Sr  Sr63  1  0.49471947  0.30413145  0.87102415  1
  Sr  Sr64  1  0.50661719  0.64891101  0.42021861  1
  Sr  Sr65  1  0.49628466  0.67607626  0.86674922  1
  Sr  Sr66  1  0.82703555  -0.01511850  0.35909455  1
  Sr  Sr67  1  0.83697990  -0.00279124  0.87912266  1
  Sr  Sr68  1  0.83306591  0.31747164  0.40096130  1
  Sr  Sr69  1  0.81135038  0.32089627  0.88502477  1
  Sr  Sr70  1  0.82316666  0.64738172  0.34418500  1
  Sr  Sr71  1  0.82980546  0.64252266  0.86521555  1
  Ta  Ta72  1  0.17424031  0.13058541  0.00456485  1
  Ta  Ta73  1  0.17784420  0.19892537  0.49594555  1
  Ta  Ta74  1  0.19540567  0.49577711  0.00439860  1
  Ta  Ta75  1  0.16062879  0.45909595  0.49428511  1
  Ta  Ta76  1  0.18394547  0.81675792  0.00529039  1
  Ta  Ta77  1  0.20287955  0.82821677  0.50128714  1
  Ta  Ta78  1  0.50104342  0.13017781  0.00622217  1
  Ta  Ta79  1  0.53402219  0.16889935  0.49967059  1
  Ta  Ta80  1  0.50664947  0.46531064  0.00234231  1
  Ta  Ta81  1  0.50900874  0.45314210  0.50046322  1
  Ta  Ta82  1  0.54014037  0.83516108  0.00506723  1
  Ta  Ta83  1  0.45523676  0.82718940  0.50077762  1
  Ta  Ta84  1  0.87640596  0.16290122  0.00334991  1
  Ta  Ta85  1  0.83548205  0.12888369  0.49781566  1
  Ta  Ta86  1  0.85559085  0.49016327  0.00505339  1
  Ta  Ta87  1  0.86512885  0.50038677  0.49653052  1
  Ta  Ta88  1  0.83099978  0.79438194  0.00173734  1
  Ta  Ta89  1  0.83381572  0.79309712  0.49473229  1
  Ta  Ta90  1  0.19073219  0.14256126  0.24744486  1
  Ta  Ta91  1  0.17360608  0.14204023  0.74628123  1
  Ta  Ta92  1  0.20611409  0.49218511  0.25474832  1
  Ta  Ta93  1  0.19731864  0.51204946  0.74850693  1
  Ta  Ta94  1  0.12949278  0.83408361  0.25471918  1
  Ta  Ta95  1  0.15590559  0.78847191  0.74321828  1
  Ta  Ta96  1  0.53912089  0.15352997  0.25009649  1
  Ta  Ta97  1  0.49511445  0.12491359  0.74618265  1
  Ta  Ta98  1  0.49511215  0.51776528  0.25828353  1
  Ta  Ta99  1  0.50063526  0.46968416  0.74945592  1
  Ta  Ta100  1  0.50221015  0.78863966  0.25540276  1
  Ta  Ta101  1  0.53351788  0.84213584  0.74237835  1
  Ta  Ta102  1  0.81907216  0.17571258  0.24785716  1
  Ta  Ta103  1  0.86980547  0.17204115  0.74914139  1
  Ta  Ta104  1  0.83925707  0.45097706  0.24752621  1
  Ta  Ta105  1  0.83133859  0.46000799  0.74986742  1
  Ta  Ta106  1  0.88092201  0.82495756  0.24498451  1
  Ta  Ta107  1  0.83142852  0.80299393  0.75204946  1
  Ta  Ta108  1  -0.00096824  -0.03345952  0.24885687  1
  Ta  Ta109  1  0.00152216  0.04394376  0.75212378  1
  Ta  Ta110  1  -0.03550309  0.33881937  0.24709832  1
  Ta  Ta111  1  -0.04056997  0.33326776  0.75106421  1
  Ta  Ta112  1  -0.00284292  0.70686507  0.24948411  1
  Ta  Ta113  1  0.00382835  0.68745041  0.74834877  1
  Ta  Ta114  1  0.30787271  0.02245201  0.25454039  1
  Ta  Ta115  1  0.32643909  0.03014724  0.74564074  1
  Ta  Ta116  1  0.32591868  0.37432502  0.25343785  1
  Ta  Ta117  1  0.33057047  0.38300563  0.75264610  1
  Ta  Ta118  1  0.37141426  0.66233375  0.25579437  1
  Ta  Ta119  1  0.28944098  0.66422237  0.74497836  1
  Ta  Ta120  1  0.66420648  0.04143197  0.24935349  1
  Ta  Ta121  1  0.62724693  0.00026699  0.74619264  1
  Ta  Ta122  1  0.68235059  0.32899096  0.24513375  1
  Ta  Ta123  1  0.65729194  0.36838650  0.75616035  1
  Ta  Ta124  1  0.62021719  0.66935675  0.25380026  1
  Ta  Ta125  1  0.66903793  0.71611437  0.74592281  1
  Ta  Ta126  1  0.00795208  0.03267117  0.00063000  1
  Ta  Ta127  1  -0.03083655  0.01312761  0.49785468  1
  Ta  Ta128  1  -0.02365135  0.34071589  -0.00394225  1
  Ta  Ta129  1  0.01243271  0.36495440  0.49860619  1
  Ta  Ta130  1  -0.02956488  0.66413242  0.00686832  1
  Ta  Ta131  1  -0.03880986  0.65619309  0.49188728  1
  Ta  Ta132  1  0.31646722  0.01931641  -0.00199669  1
  Ta  Ta133  1  0.32580035  -0.03703557  0.49837951  1
  Ta  Ta134  1  0.33779197  0.36882569  -0.00226186  1
  Ta  Ta135  1  0.29948000  0.33968572  0.49585278  1
  Ta  Ta136  1  0.30677497  0.68025296  0.00687420  1
  Ta  Ta137  1  0.33035998  0.71473997  0.50079798  1
  Ta  Ta138  1  0.63115222  0.00113375  0.00294630  1
  Ta  Ta139  1  0.67542922  0.03841268  0.50518839  1
  Ta  Ta140  1  0.64161339  0.36176326  -0.00286924  1
  Ta  Ta141  1  0.63081184  0.33723641  0.50279938  1
  Ta  Ta142  1  0.67107144  0.70723175  0.00261350  1
  Ta  Ta143  1  0.69906454  0.68204910  0.49338199  1
  N  N144  1  -0.01035329  -0.00105996  0.37823851  1
  N  N145  1  0.84495257  0.15927157  0.12262682  1
  N  N146  1  0.16475558  0.83227488  0.37433232  1
  N  N147  1  0.17071687  0.49704452  0.37624240  1
  N  N148  1  0.65806984  0.33195089  0.87248439  1
  N  N149  1  0.84237508  0.82505731  0.12529793  1
  N  N150  1  -0.00571415  0.66600571  0.12495311  1
  N  N151  1  0.00000271  0.01181137  0.87096190  1
  N  N152  1  -0.00732954  0.66855999  0.37487541  1
  N  N153  1  0.33644821  0.67560034  0.37237828  1
  N  N154  1  0.33401428  0.67601627  0.12589739  1
  N  N155  1  0.32840313  0.00009061  0.37577007  1
  N  N156  1  0.84139713  0.82394113  0.87321836  1
  N  N157  1  0.66330204  0.33581815  0.12490355  1
  N  N158  1  0.17142959  0.16159685  0.12307988  1
  N  N159  1  0.66463447  0.01060248  0.62685340  1
  N  N160  1  -0.00648723  0.34136384  0.87136088  1
  N  N161  1  0.83932953  0.15683713  0.37402973  1
  N  N162  1  -0.00088576  0.00022077  0.12628555  1
  N  N163  1  0.50210263  0.15816200  0.12441816  1
  N  N164  1  0.16741044  0.82616246  0.12554906  1
  N  N165  1  0.49720001  0.83047034  0.62493243  1
  N  N166  1  0.83683913  0.49129971  0.12627207  1
  N  N167  1  0.32712869  -0.00110853  0.62452409  1
  N  N168  1  0.51002237  0.16247140  0.37487515  1
  N  N169  1  0.32633318  0.67509080  0.62934674  1
  N  N170  1  0.32219622  0.00406991  0.87748338  1
  N  N171  1  0.50288917  0.15545973  0.62639634  1
  N  N172  1  0.32832935  0.34085409  0.37698869  1
  N  N173  1  0.16293373  0.82495116  0.62460298  1
  N  N174  1  0.66477849  0.67129056  0.37361168  1
  N  N175  1  0.50423850  0.49336627  0.37762891  1
  N  N176  1  0.33141769  0.35083189  0.87610395  1
  O  O177  1  -0.00992019  0.66622587  0.62379698  1
  O  O178  1  0.51414770  0.81774017  0.12571794  1
  O  O179  1  0.83322985  0.48158068  0.87275916  1
  O  O180  1  0.16739522  0.81572450  0.86937936  1
  O  O181  1  0.65980296  0.00844164  0.12405757  1
  O  O182  1  0.17658879  0.17642059  0.37442806  1
  O  O183  1  0.66072751  0.68306894  0.12999928  1
  O  O184  1  0.84756430  0.48979923  0.37210759  1
  O  O185  1  0.52389777  0.83350850  0.87940741  1
  O  O186  1  0.49733531  0.81321992  0.37911216  1
  O  O187  1  0.31809610  0.34998270  0.63130953  1
  O  O188  1  0.17056440  0.17476407  0.61885952  1
  O  O189  1  0.84077601  0.81204809  0.61828926  1
  O  O190  1  0.85105547  0.16566698  0.87266526  1
  O  O191  1  0.17622420  0.14952393  0.87076104  1
  O  O192  1  0.67205682  0.02378644  0.37255992  1
  O  O193  1  0.50358844  0.48398972  0.87235218  1
  O  O194  1  -0.00807793  0.33276461  0.12746773  1
  O  O195  1  0.49910496  0.48634985  0.62292197  1
  O  O196  1  0.32620331  0.67808087  0.87109074  1
  O  O197  1  0.65365619  0.33490896  0.62919332  1
  O  O198  1  0.00288169  0.35207097  0.62642740  1
  O  O199  1  0.33114858  -0.00571527  0.13192182  1
  O  O200  1  -0.00965321  0.34451854  0.37725313  1
  O  O201  1  0.50419048  0.48995448  0.12649232  1
  O  O202  1  0.17364169  0.49568655  0.62399966  1
  O  O203  1  0.84454851  0.48196881  0.61887955  1
  O  O204  1  0.17815940  0.50257978  0.12735493  1
  O  O205  1  -0.00436127  0.00737816  0.62825389  1
  O  O206  1  0.49373528  0.14841968  0.87482784  1
  O  O207  1  0.84775589  0.17071102  0.62248328  1
  O  O208  1  0.83681501  0.81664779  0.37124656  1
  O  O209  1  0.66441483  0.69764810  0.87571687  1
  O  O210  1  0.65711779  0.33913712  0.37755601  1
  O  O211  1  0.67239002  0.69248759  0.62239211  1
  O  O212  1  0.34009133  0.34595211  0.13036824  1
  O  O213  1  -0.00901955  0.67216083  0.87218486  1
  O  O214  1  0.18416085  0.50472654  0.87946439  1
  O  O215  1  0.64662639  0.00807352  0.87686181  1
