# generated using pymatgen
data_Sr24Ta24N11O13
_symmetry_space_group_name_H-M   'P 1'
_cell_length_a   16.89364219
_cell_length_b   16.80227531
_cell_length_c   15.66529158
_cell_angle_alpha   89.61571697
_cell_angle_beta   89.88002486
_cell_angle_gamma   90.46408067
_symmetry_Int_Tables_number   1
_chemical_formula_structural   Sr24Ta24N11O13
_chemical_formula_sum   'Sr72 Ta72 N33 O39'
_cell_volume   4446.36237078
_cell_formula_units_Z   3
loop_
 _symmetry_equiv_pos_site_id
 _symmetry_equiv_pos_as_xyz
  1  'x, y, z'
loop_
 _atom_site_type_symbol
 _atom_site_label
 _atom_site_symmetry_multiplicity
 _atom_site_fract_x
 _atom_site_fract_y
 _atom_site_fract_z
 _atom_site_occupancy
  Sr  Sr0  1  0.02170489  0.16314528  0.10440907  1
  Sr  Sr1  1  0.02003035  0.14753181  0.62453858  1
  Sr  Sr2  1  -0.01423346  0.47347585  0.16497939  1
  Sr  Sr3  1  0.00010107  0.50639648  0.61179508  1
  Sr  Sr4  1  0.01548535  0.82064169  0.11443440  1
  Sr  Sr5  1  0.01324576  0.83102882  0.63430817  1
  Sr  Sr6  1  0.33936865  0.15138897  0.14869539  1
  Sr  Sr7  1  0.34538921  0.17716131  0.57921979  1
  Sr  Sr8  1  0.31461939  0.50743953  0.11129691  1
  Sr  Sr9  1  0.34513789  0.48501452  0.67065004  1
  Sr  Sr10  1  0.37602609  0.83871356  0.08962403  1
  Sr  Sr11  1  0.33593771  0.83012371  0.63365252  1
  Sr  Sr12  1  0.66790315  0.16185933  0.10832726  1
  Sr  Sr13  1  0.67713163  0.17300965  0.65655012  1
  Sr  Sr14  1  0.68171427  0.49522120  0.11470861  1
  Sr  Sr15  1  0.64761481  0.50244405  0.58603495  1
  Sr  Sr16  1  0.67648993  0.82915904  0.15922644  1
  Sr  Sr17  1  0.69359909  0.82957738  0.63070349  1
  Sr  Sr18  1  0.14474798  -0.01017230  0.12521073  1
  Sr  Sr19  1  0.15675738  -0.01736128  0.66789882  1
  Sr  Sr20  1  0.16375196  0.32372867  0.08201161  1
  Sr  Sr21  1  0.16422956  0.32789270  0.63223547  1
  Sr  Sr22  1  0.16040512  0.65166517  0.13784270  1
  Sr  Sr23  1  0.15837088  0.67533089  0.57820372  1
  Sr  Sr24  1  0.48772556  0.02180527  0.10787333  1
  Sr  Sr25  1  0.46957688  0.00785919  0.60709199  1
  Sr  Sr26  1  0.45547312  0.33982999  0.18047728  1
  Sr  Sr27  1  0.50039059  0.33150938  0.61690253  1
  Sr  Sr28  1  0.49537727  0.65027800  0.11780538  1
  Sr  Sr29  1  0.49700614  0.67600483  0.62621962  1
  Sr  Sr30  1  0.79869098  0.01526813  0.14374567  1
  Sr  Sr31  1  0.82113252  0.00817498  0.61029443  1
  Sr  Sr32  1  0.82311233  0.33035435  0.12686214  1
  Sr  Sr33  1  0.81913632  0.36732051  0.61614964  1
  Sr  Sr34  1  0.82751353  0.68776625  0.10786406  1
  Sr  Sr35  1  0.84712541  0.68126779  0.66809405  1
  Sr  Sr36  1  0.01300914  0.15127391  0.39404014  1
  Sr  Sr37  1  0.02685620  0.16711394  0.87350855  1
  Sr  Sr38  1  0.00429651  0.49334203  0.38960638  1
  Sr  Sr39  1  -0.02495945  0.49182151  0.82378207  1
  Sr  Sr40  1  0.02911287  0.82625742  0.35651452  1
  Sr  Sr41  1  0.00728278  0.82044321  0.89135512  1
  Sr  Sr42  1  0.33415839  0.17554708  0.36960931  1
  Sr  Sr43  1  0.35198444  0.16363216  0.90335558  1
  Sr  Sr44  1  0.34438714  0.51063524  0.32601227  1
  Sr  Sr45  1  0.33620534  0.49742443  0.88286710  1
  Sr  Sr46  1  0.34939040  0.81392589  0.42233401  1
  Sr  Sr47  1  0.35274338  0.84311425  0.85669154  1
  Sr  Sr48  1  0.70452021  0.16251452  0.35234480  1
  Sr  Sr49  1  0.64613848  0.16779359  0.87717388  1
  Sr  Sr50  1  0.67260218  0.48273039  0.38818747  1
  Sr  Sr51  1  0.66803500  0.51240657  0.91381342  1
  Sr  Sr52  1  0.68422463  0.84555034  0.37520509  1
  Sr  Sr53  1  0.68508047  0.82396471  0.84786121  1
  Sr  Sr54  1  0.16104091  0.00016436  0.33397317  1
  Sr  Sr55  1  0.14721609  -0.01683525  0.87677457  1
  Sr  Sr56  1  0.15647169  0.31166790  0.42173538  1
  Sr  Sr57  1  0.15776515  0.34317250  0.86024794  1
  Sr  Sr58  1  0.16057005  0.65880641  0.36565336  1
  Sr  Sr59  1  0.16010684  0.65664355  0.90923838  1
  Sr  Sr60  1  0.46821954  0.01074685  0.38478080  1
  Sr  Sr61  1  0.48800908  0.00634455  0.89335962  1
  Sr  Sr62  1  0.49140393  0.33631902  0.38970673  1
  Sr  Sr63  1  0.49416716  0.33249736  0.83688259  1
  Sr  Sr64  1  0.51429474  0.67123613  0.38699068  1
  Sr  Sr65  1  0.48575616  0.66076835  0.87367929  1
  Sr  Sr66  1  0.83164963  0.00903523  0.39467296  1
  Sr  Sr67  1  0.79242093  0.02990448  0.85440988  1
  Sr  Sr68  1  0.83473458  0.34763142  0.35503688  1
  Sr  Sr69  1  0.81204297  0.33576078  0.88128888  1
  Sr  Sr70  1  0.82810555  0.69658682  0.34890563  1
  Sr  Sr71  1  0.83708492  0.67112226  0.88054849  1
  Ta  Ta72  1  0.19731378  0.14296358  0.00221422  1
  Ta  Ta73  1  0.17499128  0.10904482  0.50541746  1
  Ta  Ta74  1  0.09143637  0.49004073  -0.00444661  1
  Ta  Ta75  1  0.21398670  0.49547363  0.49828418  1
  Ta  Ta76  1  0.20510126  0.82722991  0.00372733  1
  Ta  Ta77  1  0.17030529  0.86697649  0.49878513  1
  Ta  Ta78  1  0.49647667  0.23040700  0.01780748  1
  Ta  Ta79  1  0.54677088  0.16631876  0.49564543  1
  Ta  Ta80  1  0.49527483  0.44630852  0.00368673  1
  Ta  Ta81  1  0.45849003  0.50402108  0.49859594  1
  Ta  Ta82  1  0.54393594  0.82698207  -0.00286507  1
  Ta  Ta83  1  0.53876821  0.85803111  0.51234137  1
  Ta  Ta84  1  0.85703707  0.16364308  -0.00356515  1
  Ta  Ta85  1  0.84152637  0.20181347  0.50612401  1
  Ta  Ta86  1  0.87851589  0.49855065  -0.00088442  1
  Ta  Ta87  1  0.83012582  0.55648770  0.50681259  1
  Ta  Ta88  1  0.82601462  0.87567109  -0.00938255  1
  Ta  Ta89  1  0.85759843  0.81982018  0.50330928  1
  Ta  Ta90  1  0.16290721  0.19716977  0.24931820  1
  Ta  Ta91  1  0.21464672  0.16127039  0.74530786  1
  Ta  Ta92  1  0.15652474  0.44966853  0.25284564  1
  Ta  Ta93  1  0.16160729  0.53795047  0.74576328  1
  Ta  Ta94  1  0.21936178  0.82365433  0.25226685  1
  Ta  Ta95  1  0.17438699  0.78877221  0.74851653  1
  Ta  Ta96  1  0.53099646  0.17042600  0.25794397  1
  Ta  Ta97  1  0.47432341  0.15556547  0.73988995  1
  Ta  Ta98  1  0.53603314  0.50229581  0.25510985  1
  Ta  Ta99  1  0.53907206  0.50475222  0.75736499  1
  Ta  Ta100  1  0.49079259  0.84588506  0.25597661  1
  Ta  Ta101  1  0.52204785  0.85781617  0.73872538  1
  Ta  Ta102  1  0.88325905  0.16651689  0.25500578  1
  Ta  Ta103  1  0.86574876  0.18552559  0.73739142  1
  Ta  Ta104  1  0.82547819  0.53520891  0.25258485  1
  Ta  Ta105  1  0.78123566  0.50829869  0.74729772  1
  Ta  Ta106  1  0.86804207  0.86250903  0.24521415  1
  Ta  Ta107  1  0.86059125  0.86894719  0.76507201  1
  Ta  Ta108  1  -0.02938063  0.00001126  0.24790265  1
  Ta  Ta109  1  -0.03699864  -0.00254174  0.76156590  1
  Ta  Ta110  1  0.02884327  0.30525505  0.25638884  1
  Ta  Ta111  1  -0.02658761  0.31254354  0.73833656  1
  Ta  Ta112  1  -0.02206734  0.65355827  0.25204049  1
  Ta  Ta113  1  0.03866528  0.66730159  0.74884504  1
  Ta  Ta114  1  0.33719355  -0.05500898  0.24787062  1
  Ta  Ta115  1  0.33356048  0.03657116  0.74623860  1
  Ta  Ta116  1  0.27326308  0.33289903  0.25620028  1
  Ta  Ta117  1  0.32990702  0.28852623  0.74136807  1
  Ta  Ta118  1  0.34585941  0.71307072  0.24720412  1
  Ta  Ta119  1  0.28736268  0.65941671  0.74531111  1
  Ta  Ta120  1  0.62043258  0.00532884  0.25381214  1
  Ta  Ta121  1  0.62121833  -0.00783217  0.74502272  1
  Ta  Ta122  1  0.63964372  0.32991860  0.25153482  1
  Ta  Ta123  1  0.66325805  0.37562976  0.74366170  1
  Ta  Ta124  1  0.66617074  0.63535316  0.24885373  1
  Ta  Ta125  1  0.66143692  0.63237629  0.74651763  1
  Ta  Ta126  1  -0.05444811  0.00425927  -0.00956868  1
  Ta  Ta127  1  0.02781173  -0.01961920  0.49696624  1
  Ta  Ta128  1  -0.01699856  0.35203204  -0.01111279  1
  Ta  Ta129  1  -0.02627382  0.31537393  0.50396299  1
  Ta  Ta130  1  -0.00680257  0.62189160  -0.00385358  1
  Ta  Ta131  1  -0.03542066  0.67814830  0.49964766  1
  Ta  Ta132  1  0.29970102  -0.00534824  0.00495223  1
  Ta  Ta133  1  0.28765051  -0.00728130  0.50454437  1
  Ta  Ta134  1  0.35442821  0.32833908  0.00053625  1
  Ta  Ta135  1  0.32923933  0.37721994  0.49649915  1
  Ta  Ta136  1  0.32070846  0.68644699  0.00317976  1
  Ta  Ta137  1  0.33473526  0.61718058  0.50339194  1
  Ta  Ta138  1  0.65957376  -0.03711452  -0.00043555  1
  Ta  Ta139  1  0.63902765  0.01317135  0.49465188  1
  Ta  Ta140  1  0.62091332  0.33361043  0.00234473  1
  Ta  Ta141  1  0.67085941  0.29816120  0.49841828  1
  Ta  Ta142  1  0.65281587  0.70064165  0.00321551  1
  Ta  Ta143  1  0.70690439  0.67762837  0.50520534  1
  N  N144  1  0.66783366  0.66825501  0.12643844  1
  N  N145  1  0.00121713  0.66420008  0.37198333  1
  N  N146  1  0.67181312  0.67109528  0.62579143  1
  N  N147  1  0.31997001  -0.00718331  0.63191086  1
  N  N148  1  0.33243273  0.33118651  0.62473721  1
  N  N149  1  0.64608087  -0.00458905  0.12563644  1
  N  N150  1  0.32243790  0.33858290  0.37130637  1
  N  N151  1  0.85530714  0.17127998  0.37422688  1
  N  N152  1  0.17309534  0.82715034  0.62696652  1
  N  N153  1  0.83305115  0.15521529  0.62165099  1
  N  N154  1  0.66144760  0.34173774  0.62288754  1
  N  N155  1  0.33599429  0.66742370  0.12683962  1
  N  N156  1  0.50394469  0.48979484  0.88135679  1
  N  N157  1  -0.01171971  0.33413173  0.86509407  1
  N  N158  1  0.32719684  0.65499466  0.62462017  1
  N  N159  1  0.66788002  0.00229110  0.37383761  1
  N  N160  1  0.82645213  0.52168434  0.63127035  1
  N  N161  1  0.50116318  0.50055568  0.37637698  1
  N  N162  1  0.84216532  0.82409693  0.88076459  1
  N  N163  1  0.00292520  0.66770244  0.62154226  1
  N  N164  1  0.48799415  0.83360629  0.61854766  1
  N  N165  1  -0.00296851  0.65934033  0.87070289  1
  N  N166  1  0.17635696  0.15402357  0.62154776  1
  N  N167  1  0.00212542  0.32558647  0.38080879  1
  N  N168  1  0.18559236  0.82819701  0.37699738  1
  N  N169  1  0.00158855  -0.00565576  0.37531926  1
  N  N170  1  0.50714169  0.17141458  0.62128424  1
  N  N171  1  0.49897628  0.18229555  0.13938620  1
  N  N172  1  0.32749807  -0.00977793  0.12690109  1
  N  N173  1  0.17577789  0.16091160  0.12512779  1
  N  N174  1  0.66691181  0.32892757  0.37097793  1
  N  N175  1  0.64459300  -0.00391603  0.87274115  1
  N  N176  1  0.00088919  0.00895361  0.88083736  1
  O  O177  1  0.66990596  0.33542795  0.12096346  1
  O  O178  1  0.85751968  0.17634940  0.12314102  1
  O  O179  1  0.82842401  0.50159467  0.87849348  1
  O  O180  1  0.51977056  0.83279143  0.13391756  1
  O  O181  1  0.51527932  0.83285787  0.86690448  1
  O  O182  1  0.17225495  0.82481112  0.12574218  1
  O  O183  1  0.00050690  0.66294180  0.12287350  1
  O  O184  1  0.13450278  0.47129434  0.12643651  1
  O  O185  1  0.49765526  0.18250212  0.87055419  1
  O  O186  1  0.18100904  0.15888288  0.87382981  1
  O  O187  1  0.83637915  0.51167480  0.12435921  1
  O  O188  1  0.17405206  0.15442274  0.37357040  1
  O  O189  1  -0.00945050  0.00596416  0.11040739  1
  O  O190  1  0.32552671  0.65730655  0.87627819  1
  O  O191  1  0.50292324  0.84427632  0.38527028  1
  O  O192  1  0.17223761  0.50739318  0.62242628  1
  O  O193  1  0.85763838  0.84670296  0.37728751  1
  O  O194  1  0.34289511  0.66602659  0.36745935  1
  O  O195  1  0.16324519  0.47566640  0.37991404  1
  O  O196  1  0.33070120  -0.00331200  0.87251567  1
  O  O197  1  0.67031370  0.01666099  0.62954520  1
  O  O198  1  0.66129884  0.66652570  0.87871871  1
  O  O199  1  0.13317394  0.50171904  0.86656998  1
  O  O200  1  0.32266001  -0.01878059  0.37137922  1
  O  O201  1  0.01079034  0.35181443  0.62111679  1
  O  O202  1  0.85120435  0.83936767  0.63039902  1
  O  O203  1  0.34187589  0.32556744  0.87151692  1
  O  O204  1  0.84679944  0.84654161  0.12136926  1
  O  O205  1  0.48404337  0.17245135  0.38656059  1
  O  O206  1  0.82836788  0.52062634  0.37835151  1
  O  O207  1  0.19165946  0.82874415  0.87475812  1
  O  O208  1  0.31574210  0.33282220  0.12370785  1
  O  O209  1  0.85131579  0.17871102  0.87201166  1
  O  O210  1  0.50158672  0.48787776  0.12885621  1
  O  O211  1  0.49566195  0.50180699  0.63158668  1
  O  O212  1  0.67299026  0.67174443  0.37555800  1
  O  O213  1  0.00330996  0.32394793  0.12673526  1
  O  O214  1  -0.00153322  -0.00644805  0.62634173  1
  O  O215  1  0.65174911  0.33715720  0.87364644  1
