# generated using pymatgen
data_Sr24Ta24N11O13
_symmetry_space_group_name_H-M   'P 1'
_cell_length_a   16.92744374
_cell_length_b   16.92207334
_cell_length_c   15.41538929
_cell_angle_alpha   89.26184377
_cell_angle_beta   89.76128560
_cell_angle_gamma   89.58991610
_symmetry_Int_Tables_number   1
_chemical_formula_structural   Sr24Ta24N11O13
_chemical_formula_sum   'Sr72 Ta72 N33 O39'
_cell_volume   4415.18267475
_cell_formula_units_Z   3
loop_
 _symmetry_equiv_pos_site_id
 _symmetry_equiv_pos_as_xyz
  1  'x, y, z'
loop_
 _atom_site_type_symbol
 _atom_site_label
 _atom_site_symmetry_multiplicity
 _atom_site_fract_x
 _atom_site_fract_y
 _atom_site_fract_z
 _atom_site_occupancy
  Sr  Sr0  1  -0.00183004  0.15246630  0.14138807  1
  Sr  Sr1  1  -0.00978973  0.16984958  0.58204076  1
  Sr  Sr2  1  0.02039497  0.51547072  0.11930323  1
  Sr  Sr3  1  0.01312536  0.43793837  0.70778058  1
  Sr  Sr4  1  0.00998606  0.84949603  0.17469880  1
  Sr  Sr5  1  0.00192534  0.86222397  0.62440886  1
  Sr  Sr6  1  0.30996497  0.16559910  0.11007549  1
  Sr  Sr7  1  0.32890450  0.13950295  0.64541108  1
  Sr  Sr8  1  0.37466950  0.51393236  0.16823415  1
  Sr  Sr9  1  0.32082323  0.49740814  0.59194383  1
  Sr  Sr10  1  0.31572514  0.82592439  0.06995770  1
  Sr  Sr11  1  0.34357831  0.83753439  0.62672230  1
  Sr  Sr12  1  0.67515693  0.17105086  0.11097355  1
  Sr  Sr13  1  0.65800765  0.13808781  0.65949605  1
  Sr  Sr14  1  0.58521964  0.46373586  0.06266041  1
  Sr  Sr15  1  0.68417818  0.51379873  0.62277495  1
  Sr  Sr16  1  0.69986914  0.81602567  0.12207267  1
  Sr  Sr17  1  0.61971640  0.82559719  0.63291335  1
  Sr  Sr18  1  0.15525147  0.00738025  0.10407739  1
  Sr  Sr19  1  0.19072697  -0.01535410  0.67726033  1
  Sr  Sr20  1  0.14649927  0.34629854  0.07987695  1
  Sr  Sr21  1  0.16906108  0.32390391  0.63506242  1
  Sr  Sr22  1  0.17673053  0.65344737  0.11880149  1
  Sr  Sr23  1  0.18694494  0.69792948  0.54457790  1
  Sr  Sr24  1  0.61714373  -0.01419446  0.20804209  1
  Sr  Sr25  1  0.48629369  -0.00979284  0.63131923  1
  Sr  Sr26  1  0.48832617  0.28601675  0.10187668  1
  Sr  Sr27  1  0.51785622  0.40786114  0.49879413  1
  Sr  Sr28  1  0.50258184  0.70038674  0.08781610  1
  Sr  Sr29  1  0.48621073  0.66264655  0.67344622  1
  Sr  Sr30  1  0.81683279  0.00884620  0.11259300  1
  Sr  Sr31  1  0.80522276  -0.00372083  0.65841793  1
  Sr  Sr32  1  0.87135267  0.32576141  0.19421695  1
  Sr  Sr33  1  0.82165462  0.32244306  0.61650773  1
  Sr  Sr34  1  0.85866935  0.67215345  0.14590798  1
  Sr  Sr35  1  0.83012462  0.70495584  0.59435922  1
  Sr  Sr36  1  0.00371775  0.18094686  0.37247409  1
  Sr  Sr37  1  -0.01956967  0.14348275  0.92442996  1
  Sr  Sr38  1  -0.03830103  0.50490045  0.34303472  1
  Sr  Sr39  1  0.00351800  0.52781729  0.89663106  1
  Sr  Sr40  1  0.00148062  0.81149550  0.40816535  1
  Sr  Sr41  1  -0.01972655  0.84122563  0.83055687  1
  Sr  Sr42  1  0.32458718  0.15231616  0.36049941  1
  Sr  Sr43  1  0.33183629  0.18461824  0.88642038  1
  Sr  Sr44  1  0.33941448  0.48295802  0.37913049  1
  Sr  Sr45  1  0.29706129  0.49371786  0.80813211  1
  Sr  Sr46  1  0.33013615  0.83496294  0.39508688  1
  Sr  Sr47  1  0.31931551  0.80702615  0.86229001  1
  Sr  Sr48  1  0.63333094  0.15112633  0.33502548  1
  Sr  Sr49  1  0.68873269  0.20534894  0.87755164  1
  Sr  Sr50  1  0.71045620  0.49485385  0.41019377  1
  Sr  Sr51  1  0.64855880  0.48656420  0.85016393  1
  Sr  Sr52  1  0.64322989  0.81362874  0.33145581  1
  Sr  Sr53  1  0.65870161  0.79976341  0.91863391  1
  Sr  Sr54  1  0.15475107  0.02432356  0.31144889  1
  Sr  Sr55  1  0.15909951  -0.01295006  0.88242036  1
  Sr  Sr56  1  0.18336562  0.32793853  0.42404141  1
  Sr  Sr57  1  0.15859546  0.35471392  0.85607585  1
  Sr  Sr58  1  0.19245626  0.63128432  0.35391477  1
  Sr  Sr59  1  0.15557048  0.65005084  0.89115884  1
  Sr  Sr60  1  0.47548547  -0.02153182  0.41007647  1
  Sr  Sr61  1  0.51229397  0.12154561  0.80951652  1
  Sr  Sr62  1  0.48036609  0.29289609  0.31764104  1
  Sr  Sr63  1  0.50505437  0.32369174  0.87594673  1
  Sr  Sr64  1  0.50551379  0.65315233  0.30625611  1
  Sr  Sr65  1  0.51869359  0.65727117  0.87899938  1
  Sr  Sr66  1  0.90853759  -0.00053479  0.48668827  1
  Sr  Sr67  1  0.81725081  0.00962960  0.88681601  1
  Sr  Sr68  1  0.83207534  0.33594118  0.39695567  1
  Sr  Sr69  1  0.82288231  0.37157983  0.83050927  1
  Sr  Sr70  1  0.82922083  0.66696880  0.37307734  1
  Sr  Sr71  1  0.84685908  0.67711851  0.89490138  1
  Ta  Ta72  1  0.14751519  0.18148427  -0.01190672  1
  Ta  Ta73  1  0.17815944  0.14408978  0.50293405  1
  Ta  Ta74  1  0.24647878  0.49610197  0.02027603  1
  Ta  Ta75  1  0.11584874  0.49521565  0.50022751  1
  Ta  Ta76  1  0.11999863  0.82841189  -0.01233626  1
  Ta  Ta77  1  0.16987204  0.87741064  0.49827020  1
  Ta  Ta78  1  0.50363401  0.09210798  0.03312643  1
  Ta  Ta79  1  0.50005154  0.16819961  0.49064699  1
  Ta  Ta80  1  0.42634348  0.49461826  -0.04994725  1
  Ta  Ta81  1  0.52214494  0.58692844  0.49691631  1
  Ta  Ta82  1  0.51160907  0.89764789  0.05819801  1
  Ta  Ta83  1  0.50319590  0.76583061  0.47872004  1
  Ta  Ta84  1  0.83725390  0.21451294  0.02028638  1
  Ta  Ta85  1  0.78505287  0.14485888  0.49360148  1
  Ta  Ta86  1  0.83079908  0.49343171  0.00870315  1
  Ta  Ta87  1  0.90330695  0.50510374  0.55798871  1
  Ta  Ta88  1  0.87605782  0.83845446  0.01516690  1
  Ta  Ta89  1  0.77218871  0.86347300  0.48428451  1
  Ta  Ta90  1  0.16166856  0.22014433  0.24744842  1
  Ta  Ta91  1  0.12726573  0.16302494  0.75536123  1
  Ta  Ta92  1  0.17201187  0.45673121  0.25811501  1
  Ta  Ta93  1  0.13792865  0.57044222  0.68979801  1
  Ta  Ta94  1  0.18759269  0.81664611  0.24624699  1
  Ta  Ta95  1  0.15321239  0.77800160  0.73641309  1
  Ta  Ta96  1  0.46153189  0.09390719  0.23208974  1
  Ta  Ta97  1  0.49332422  0.26261238  0.64039302  1
  Ta  Ta98  1  0.57080606  0.47158284  0.26724291  1
  Ta  Ta99  1  0.49032860  0.45337034  0.71230631  1
  Ta  Ta100  1  0.45980967  0.84775275  0.23298110  1
  Ta  Ta101  1  0.49911806  0.91037491  0.87869027  1
  Ta  Ta102  1  0.82599995  0.13914216  0.27036389  1
  Ta  Ta103  1  0.85795694  0.16313659  0.74532915  1
  Ta  Ta104  1  0.76320770  0.48570124  0.18867576  1
  Ta  Ta105  1  0.85620760  0.55758555  0.73545934  1
  Ta  Ta106  1  0.83892356  0.86578097  0.27638167  1
  Ta  Ta107  1  0.78343479  0.82952551  0.76017375  1
  Ta  Ta108  1  -0.05671705  0.00328359  0.27623025  1
  Ta  Ta109  1  -0.00471443  0.04611549  0.75373265  1
  Ta  Ta110  1  0.04971221  0.34513524  0.25789322  1
  Ta  Ta111  1  -0.01428151  0.25698051  0.76034272  1
  Ta  Ta112  1  0.03162823  0.67821819  0.26076093  1
  Ta  Ta113  1  -0.00025592  0.66519170  0.72134406  1
  Ta  Ta114  1  0.33864883  -0.03029612  0.23248101  1
  Ta  Ta115  1  0.36685518  -0.00941043  0.82533638  1
  Ta  Ta116  1  0.29498064  0.32726076  0.24538595  1
  Ta  Ta117  1  0.35893191  0.32793244  0.72419352  1
  Ta  Ta118  1  0.33572711  0.70982334  0.23435465  1
  Ta  Ta119  1  0.28717575  0.66451084  0.72159823  1
  Ta  Ta120  1  0.76929401  -0.00197877  0.35647395  1
  Ta  Ta121  1  0.64413134  -0.03802057  0.77800017  1
  Ta  Ta122  1  0.67244913  0.34148059  0.24006033  1
  Ta  Ta123  1  0.62462181  0.33403149  0.67341403  1
  Ta  Ta124  1  0.67463250  0.61763246  0.23050609  1
  Ta  Ta125  1  0.69937094  0.67040705  0.75303923  1
  Ta  Ta126  1  -0.01226832  -0.04471824  -0.00096762  1
  Ta  Ta127  1  0.08545915  0.01291887  0.50225638  1
  Ta  Ta128  1  -0.05493225  0.34097689  0.00089695  1
  Ta  Ta129  1  -0.00080876  0.37373077  0.50768229  1
  Ta  Ta130  1  0.00257938  0.72272567  0.00794471  1
  Ta  Ta131  1  0.00719040  0.62443913  0.52814984  1
  Ta  Ta132  1  0.38174604  -0.00302973  0.01605785  1
  Ta  Ta133  1  0.26577783  0.00381923  0.47821798  1
  Ta  Ta134  1  0.32864735  0.36285484  -0.01632312  1
  Ta  Ta135  1  0.36161323  0.29590421  0.50347420  1
  Ta  Ta136  1  0.33720471  0.62907039  -0.01490978  1
  Ta  Ta137  1  0.37530722  0.66231266  0.47775373  1
  Ta  Ta138  1  0.61927343  0.00478523  -0.04395677  1
  Ta  Ta139  1  0.66616801  0.00099719  0.49882787  1
  Ta  Ta140  1  0.74403148  0.35727100  0.03830542  1
  Ta  Ta141  1  0.65086848  0.27612019  0.49570733  1
  Ta  Ta142  1  0.69889805  0.61047480  0.01517533  1
  Ta  Ta143  1  0.65118767  0.68160411  0.49295649  1
  N  N144  1  0.50406052  0.81556891  0.96705236  1
  N  N145  1  0.82400780  0.14878630  0.61157563  1
  N  N146  1  0.65885810  0.06011305  0.84112810  1
  N  N147  1  0.54211173  0.13348472  0.15488044  1
  N  N148  1  0.17969119  0.48660105  0.39329052  1
  N  N149  1  -0.01094023  -0.00427757  0.86885632  1
  N  N150  1  0.67566852  0.65400697  0.35027277  1
  N  N151  1  0.32993923  0.33755208  0.85684202  1
  N  N152  1  0.67238446  0.37379592  0.55637657  1
  N  N153  1  0.51170606  0.52439792  0.61125773  1
  N  N154  1  0.33602587  0.32016517  0.37116309  1
  N  N155  1  0.48202814  0.49406627  0.83246330  1
  N  N156  1  0.01265604  0.68056203  0.13768440  1
  N  N157  1  0.30996512  -0.00866154  0.35246845  1
  N  N158  1  0.14990475  0.82128023  0.86346112  1
  N  N159  1  0.16233802  0.17653462  0.36732553  1
  N  N160  1  0.84294985  0.17526500  0.14930293  1
  N  N161  1  0.15425826  0.17727736  0.11279923  1
  N  N162  1  0.48166180  0.12848156  0.35502905  1
  N  N163  1  0.34519254  0.65142382  0.34538026  1
  N  N164  1  0.16247207  0.83779863  0.62838518  1
  N  N165  1  0.55823175  0.84180566  0.17106900  1
  N  N166  1  0.49839500  0.14128698  0.61640339  1
  N  N167  1  0.66944966  0.67438423  0.62965361  1
  N  N168  1  0.19556115  0.49979955  0.14209192  1
  N  N169  1  0.17012344  0.48362946  0.61533891  1
  N  N170  1  0.30916167  0.33916235  0.60350151  1
  N  N171  1  0.34572671  0.66922547  0.11090985  1
  N  N172  1  0.84986857  0.46133628  0.67246633  1
  N  N173  1  0.84903994  0.84355298  0.15134985  1
  N  N174  1  0.16614915  0.16318950  0.63657883  1
  N  N175  1  0.33371539  0.66930196  0.60453177  1
  N  N176  1  0.68040921  0.63987973  0.89505459  1
  O  O177  1  0.49479589  0.82705361  0.36480005  1
  O  O178  1  0.63619405  -0.00203043  0.37354559  1
  O  O179  1  0.82490922  0.46056116  0.29969674  1
  O  O180  1  0.55385964  0.51226625  0.38940889  1
  O  O181  1  0.01503605  0.01928908  0.38106110  1
  O  O182  1  0.85627580  0.52231544  0.86521326  1
  O  O183  1  0.72869012  0.07640222  0.23648823  1
  O  O184  1  0.48411814  0.85636603  0.55816044  1
  O  O185  1  0.29630762  -0.00229614  0.10758969  1
  O  O186  1  0.64176318  0.32050464  0.11398807  1
  O  O187  1  0.87080101  0.51659919  0.13191546  1
  O  O188  1  0.77747531  0.84699384  0.62610335  1
  O  O189  1  0.30802570  0.65558818  0.85618698  1
  O  O190  1  0.84987269  0.80841824  0.40728794  1
  O  O191  1  -0.01921861  0.72135990  0.59630090  1
  O  O192  1  0.68471906  0.35620693  0.92804896  1
  O  O193  1  0.65269725  0.67899039  0.11108053  1
  O  O194  1  0.02732826  0.01506501  0.61919561  1
  O  O195  1  0.16800720  0.83465629  0.11822024  1
  O  O196  1  -0.02733605  0.31220930  0.87754544  1
  O  O197  1  -0.00382550  0.31184870  0.62617732  1
  O  O198  1  0.00508842  0.65507816  0.38938215  1
  O  O199  1  0.34011726  0.31730881  0.12291088  1
  O  O200  1  0.48399256  0.19004691  0.96145021  1
  O  O201  1  -0.00566564  0.34757195  0.37720575  1
  O  O202  1  0.68206884  0.31057702  0.36507963  1
  O  O203  1  0.29969833  0.03105256  0.92339923  1
  O  O204  1  0.85351766  0.19276220  0.38766336  1
  O  O205  1  0.00118402  0.35487314  0.12059593  1
  O  O206  1  -0.00079331  0.67733290  0.87877210  1
  O  O207  1  0.49771634  0.42180680  0.19040096  1
  O  O208  1  0.12590844  0.50355508  0.79836290  1
  O  O209  1  -0.03050889  -0.00070189  0.14303960  1
  O  O210  1  0.18644352  0.20206763  0.86322941  1
  O  O211  1  0.34605919  -0.02672407  0.70559362  1
  O  O212  1  0.82491229  0.83086901  0.88229309  1
  O  O213  1  0.17486074  0.83134001  0.37160990  1
  O  O214  1  0.64851012  -0.01104214  0.63542909  1
  O  O215  1  0.83198800  0.16672837  0.89647080  1
