# generated using pymatgen
data_Sr24Ta24N11O13
_symmetry_space_group_name_H-M   'P 1'
_cell_length_a   16.85737899
_cell_length_b   17.66845265
_cell_length_c   15.23072529
_cell_angle_alpha   89.88324976
_cell_angle_beta   89.95723218
_cell_angle_gamma   89.23884991
_symmetry_Int_Tables_number   1
_chemical_formula_structural   Sr24Ta24N11O13
_chemical_formula_sum   'Sr72 Ta72 N33 O39'
_cell_volume   4535.96625793
_cell_formula_units_Z   3
loop_
 _symmetry_equiv_pos_site_id
 _symmetry_equiv_pos_as_xyz
  1  'x, y, z'
loop_
 _atom_site_type_symbol
 _atom_site_label
 _atom_site_symmetry_multiplicity
 _atom_site_fract_x
 _atom_site_fract_y
 _atom_site_fract_z
 _atom_site_occupancy
  Sr  Sr0  1  0.00396425  0.21107927  0.09183374  1
  Sr  Sr1  1  -0.00226599  0.21857489  0.63553409  1
  Sr  Sr2  1  0.01460364  0.51538072  0.13504667  1
  Sr  Sr3  1  0.03680645  0.52465484  0.64122541  1
  Sr  Sr4  1  -0.00206831  0.84446552  0.11322176  1
  Sr  Sr5  1  -0.00039345  0.83267757  0.62837983  1
  Sr  Sr6  1  0.32671799  0.18754586  0.10918699  1
  Sr  Sr7  1  0.32919675  0.17263604  0.63643892  1
  Sr  Sr8  1  0.34214599  0.53146978  0.09832122  1
  Sr  Sr9  1  0.32718878  0.51761456  0.63569146  1
  Sr  Sr10  1  0.34229510  0.83923304  0.14977668  1
  Sr  Sr11  1  0.35815513  0.86653215  0.61129187  1
  Sr  Sr12  1  0.68374572  0.18916798  0.13576436  1
  Sr  Sr13  1  0.68673582  0.20093089  0.62689799  1
  Sr  Sr14  1  0.66858275  0.51096356  0.10976758  1
  Sr  Sr15  1  0.65194585  0.49972834  0.62340646  1
  Sr  Sr16  1  0.67937448  0.86445123  0.11182778  1
  Sr  Sr17  1  0.66217070  0.87111469  0.62407502  1
  Sr  Sr18  1  0.15509034  -0.04185557  0.15072802  1
  Sr  Sr19  1  0.14310586  -0.03831832  0.61343441  1
  Sr  Sr20  1  0.16549897  0.32671091  0.13257852  1
  Sr  Sr21  1  0.17196428  0.31199426  0.63953178  1
  Sr  Sr22  1  0.16015719  0.65094549  0.08676782  1
  Sr  Sr23  1  0.17219940  0.66377207  0.63817659  1
  Sr  Sr24  1  0.47481884  -0.01839223  0.09793482  1
  Sr  Sr25  1  0.49504118  0.00402278  0.63125429  1
  Sr  Sr26  1  0.49294560  0.29905035  0.12952369  1
  Sr  Sr27  1  0.47231670  0.29317708  0.63261900  1
  Sr  Sr28  1  0.50057206  0.65334016  0.13875544  1
  Sr  Sr29  1  0.49529065  0.63299428  0.61442519  1
  Sr  Sr30  1  0.83407531  -0.01370806  0.13978256  1
  Sr  Sr31  1  0.83284528  -0.02944908  0.61140946  1
  Sr  Sr32  1  0.82488578  0.32668520  0.09151069  1
  Sr  Sr33  1  0.82800681  0.34266904  0.63780888  1
  Sr  Sr34  1  0.81569684  0.63413432  0.13966836  1
  Sr  Sr35  1  0.79732166  0.61679279  0.62610894  1
  Sr  Sr36  1  0.00654782  0.20591130  0.39611961  1
  Sr  Sr37  1  -0.00171727  0.17896551  0.86563178  1
  Sr  Sr38  1  0.01760629  0.51003341  0.35252267  1
  Sr  Sr39  1  0.03608692  0.55188134  0.88041126  1
  Sr  Sr40  1  -0.01036858  0.84652325  0.39162263  1
  Sr  Sr41  1  0.00150556  0.82551909  0.86655492  1
  Sr  Sr42  1  0.33297314  0.18302707  0.38379755  1
  Sr  Sr43  1  0.33668743  0.15480772  0.87376244  1
  Sr  Sr44  1  0.33825561  0.52712896  0.39678572  1
  Sr  Sr45  1  0.34282689  0.53750949  0.86699507  1
  Sr  Sr46  1  0.33142186  0.85731083  0.36257913  1
  Sr  Sr47  1  0.36266174  0.85994081  0.87599716  1
  Sr  Sr48  1  0.68231090  0.18672450  0.35254298  1
  Sr  Sr49  1  0.69455456  0.19734067  0.87724182  1
  Sr  Sr50  1  0.65763135  0.51069789  0.38823474  1
  Sr  Sr51  1  0.66655438  0.50856147  0.86447887  1
  Sr  Sr52  1  0.69419053  0.87614967  0.39339558  1
  Sr  Sr53  1  0.66854189  0.85785505  0.86956512  1
  Sr  Sr54  1  0.14505492  -0.02492379  0.37338575  1
  Sr  Sr55  1  0.12975821  -0.02914370  0.86921308  1
  Sr  Sr56  1  0.17097439  0.31584553  0.36283326  1
  Sr  Sr57  1  0.17079569  0.27980624  0.88904864  1
  Sr  Sr58  1  0.14914581  0.64505958  0.40696709  1
  Sr  Sr59  1  0.18294477  0.67327982  0.86412941  1
  Sr  Sr60  1  0.47760452  -0.00795328  0.40318981  1
  Sr  Sr61  1  0.49594027  -0.00800947  0.86421087  1
  Sr  Sr62  1  0.49067664  0.29936271  0.35424080  1
  Sr  Sr63  1  0.48048442  0.29046272  0.88250187  1
  Sr  Sr64  1  0.49626601  0.64917482  0.36740380  1
  Sr  Sr65  1  0.50632875  0.64158425  0.87275379  1
  Sr  Sr66  1  0.84390794  0.01080566  0.36452905  1
  Sr  Sr67  1  0.84470239  -0.03141390  0.86923342  1
  Sr  Sr68  1  0.81889358  0.32400122  0.40420612  1
  Sr  Sr69  1  0.83922015  0.32233106  0.86783680  1
  Sr  Sr70  1  0.81938137  0.62881728  0.36853168  1
  Sr  Sr71  1  0.80251491  0.64081667  0.87031773  1
  Ta  Ta72  1  0.15760205  0.11047625  0.01308255  1
  Ta  Ta73  1  0.16076669  0.12997473  0.51011170  1
  Ta  Ta74  1  0.17886501  0.46301613  -0.01544526  1
  Ta  Ta75  1  0.17270252  0.46132199  0.50456141  1
  Ta  Ta76  1  0.20330385  0.82982799  -0.00124553  1
  Ta  Ta77  1  0.19446063  0.81166193  0.49735419  1
  Ta  Ta78  1  0.54055766  0.14070548  -0.00748487  1
  Ta  Ta79  1  0.53555065  0.15716742  0.49552180  1
  Ta  Ta80  1  0.49831255  0.45002758  -0.01012307  1
  Ta  Ta81  1  0.48784478  0.44263987  0.50898098  1
  Ta  Ta82  1  0.51076952  0.79955579  0.00301540  1
  Ta  Ta83  1  0.50774396  0.80195364  0.48941336  1
  Ta  Ta84  1  0.84025047  0.13089083  -0.00214239  1
  Ta  Ta85  1  0.83918765  0.14623216  0.51100289  1
  Ta  Ta86  1  0.87186058  0.49567540  -0.01229133  1
  Ta  Ta87  1  0.88799627  0.48890083  0.50498058  1
  Ta  Ta88  1  0.82912595  0.78783202  0.00359913  1
  Ta  Ta89  1  0.82787873  0.77610003  0.51340543  1
  Ta  Ta90  1  0.15697202  0.13532679  0.23696140  1
  Ta  Ta91  1  0.15533910  0.11471706  0.73601111  1
  Ta  Ta92  1  0.20195685  0.50318577  0.23970197  1
  Ta  Ta93  1  0.17992986  0.45569534  0.78339122  1
  Ta  Ta94  1  0.15673303  0.77699325  0.24591190  1
  Ta  Ta95  1  0.21364309  0.83429472  0.75128655  1
  Ta  Ta96  1  0.49588844  0.11686430  0.24851344  1
  Ta  Ta97  1  0.54446464  0.15221022  0.75896788  1
  Ta  Ta98  1  0.49380619  0.46583223  0.24899133  1
  Ta  Ta99  1  0.49391711  0.44344224  0.74765759  1
  Ta  Ta100  1  0.54174564  0.84238279  0.25912989  1
  Ta  Ta101  1  0.50925829  0.79616237  0.74170430  1
  Ta  Ta102  1  0.87093452  0.18136333  0.24811046  1
  Ta  Ta103  1  0.83938500  0.13111855  0.73798983  1
  Ta  Ta104  1  0.83520208  0.45608130  0.24269465  1
  Ta  Ta105  1  0.88453177  0.49105381  0.77623134  1
  Ta  Ta106  1  0.83485779  0.79442057  0.24991503  1
  Ta  Ta107  1  0.82027093  0.78480940  0.73494619  1
  Ta  Ta108  1  0.00608500  0.06483831  0.24509002  1
  Ta  Ta109  1  -0.00858716  0.03852922  0.72260586  1
  Ta  Ta110  1  -0.02920187  0.34446918  0.24197567  1
  Ta  Ta111  1  0.01748012  0.38146109  0.78195244  1
  Ta  Ta112  1  -0.00463595  0.69539349  0.25634429  1
  Ta  Ta113  1  -0.05013868  0.67324068  0.73147289  1
  Ta  Ta114  1  0.32092683  0.03693154  0.24411596  1
  Ta  Ta115  1  0.28884829  -0.00015783  0.74375531  1
  Ta  Ta116  1  0.33571907  0.38227502  0.23959727  1
  Ta  Ta117  1  0.32828494  0.36071895  0.77156708  1
  Ta  Ta118  1  0.29562348  0.66703028  0.24733783  1
  Ta  Ta119  1  0.34880607  0.71654430  0.74225616  1
  Ta  Ta120  1  0.62340511  0.00979835  0.24970249  1
  Ta  Ta121  1  0.67803294  0.04365165  0.75040717  1
  Ta  Ta122  1  0.66728212  0.36852482  0.24880574  1
  Ta  Ta123  1  0.62676859  0.34341968  0.75251754  1
  Ta  Ta124  1  0.66454987  0.71848702  0.26716594  1
  Ta  Ta125  1  0.65268889  0.70241844  0.73507257  1
  Ta  Ta126  1  -0.00537199  0.03354700  0.00634287  1
  Ta  Ta127  1  -0.00480541  0.05110676  0.51831628  1
  Ta  Ta128  1  0.01212560  0.38418464  -0.01568229  1
  Ta  Ta129  1  0.01713983  0.37916115  0.50596867  1
  Ta  Ta130  1  -0.04669951  0.67827014  -0.00013672  1
  Ta  Ta131  1  -0.04050114  0.66582733  0.51820351  1
  Ta  Ta132  1  0.28637099  -0.00207223  0.00199408  1
  Ta  Ta133  1  0.29363956  0.02150870  0.50994637  1
  Ta  Ta134  1  0.33216944  0.36810312  -0.00965082  1
  Ta  Ta135  1  0.32723812  0.36023030  0.50783090  1
  Ta  Ta136  1  0.34601523  0.71217202  -0.00370527  1
  Ta  Ta137  1  0.33526588  0.70929760  0.50745271  1
  Ta  Ta138  1  0.67359581  0.03921208  -0.00036406  1
  Ta  Ta139  1  0.67163974  0.05137704  0.49681573  1
  Ta  Ta140  1  0.63497889  0.35038362  -0.00411062  1
  Ta  Ta141  1  0.62208581  0.33571229  0.49798930  1
  Ta  Ta142  1  0.65884685  0.70108398  -0.00114080  1
  Ta  Ta143  1  0.65766464  0.70485363  0.49916153  1
  N  N144  1  0.84133565  0.17201394  0.37932275  1
  N  N145  1  0.83673508  0.17237433  0.12053680  1
  N  N146  1  0.16461574  0.17460485  0.62873686  1
  N  N147  1  -0.01178361  -0.02338340  0.61358647  1
  N  N148  1  0.81340966  0.47842432  0.87760829  1
  N  N149  1  0.00258436  0.35621303  0.12043791  1
  N  N150  1  0.33388053  0.33727516  0.12251939  1
  N  N151  1  0.84248413  0.16100053  0.86588205  1
  N  N152  1  0.17577441  0.49844091  0.11596396  1
  N  N153  1  0.65912275  0.33410608  0.37752770  1
  N  N154  1  0.33601249  0.66424768  0.62364772  1
  N  N155  1  0.16883288  0.81273877  0.12259736  1
  N  N156  1  0.83091918  0.82995020  0.12926365  1
  N  N157  1  0.83615763  0.48743435  0.11929582  1
  N  N158  1  0.64960545  0.65196471  0.61416042  1
  N  N159  1  0.66076844  0.33873435  0.11970499  1
  N  N160  1  0.32406296  0.33998713  0.63412941  1
  N  N161  1  0.00112234  0.31522466  0.88523009  1
  N  N162  1  0.16628516  0.17719788  0.11612369  1
  N  N163  1  0.84096821  0.19749083  0.63047508  1
  N  N164  1  0.34022849  0.01604758  0.63059663  1
  N  N165  1  0.49211300  0.14107466  0.87200279  1
  N  N166  1  0.33137142  0.67699010  0.12606598  1
  N  N167  1  0.81915446  0.83551310  0.62006206  1
  N  N168  1  0.66000166  0.65982954  0.37533213  1
  N  N169  1  0.48758633  0.48775517  0.63042735  1
  N  N170  1  0.32153862  -0.01048484  0.12988406  1
  N  N171  1  0.02012738  0.67616622  0.62775748  1
  N  N172  1  0.32673158  0.30172978  0.88612347  1
  N  N173  1  0.34207885  0.68198979  0.86849147  1
  N  N174  1  0.49460764  0.15279477  0.37539202  1
  N  N175  1  0.65690667  0.68160693  0.87227691  1
  N  N176  1  0.18975172  0.52989570  0.88058885  1
  O  O177  1  0.49132052  0.48075215  0.37821943  1
  O  O178  1  0.51102525  0.82240443  0.61335037  1
  O  O179  1  0.67134878  0.34789971  0.62245516  1
  O  O180  1  0.33324739  0.00542146  0.87659528  1
  O  O181  1  0.32128091  0.01035472  0.37890921  1
  O  O182  1  0.87297586  0.48599210  0.63739918  1
  O  O183  1  0.65953702  0.68339222  0.13967068  1
  O  O184  1  0.82125541  0.81798685  0.87126628  1
  O  O185  1  -0.00830593  -0.00078945  0.13088150  1
  O  O186  1  0.01862313  0.36464304  0.63824401  1
  O  O187  1  0.17489396  0.82200869  0.36993225  1
  O  O188  1  -0.03125594  0.68198311  0.86843410  1
  O  O189  1  0.51302062  0.81379939  0.87452000  1
  O  O190  1  -0.00420294  0.67926071  0.38587732  1
  O  O191  1  0.47864597  0.82060027  0.36056033  1
  O  O192  1  -0.00058345  0.04108777  0.37582034  1
  O  O193  1  0.17548910  0.49209920  0.37693765  1
  O  O194  1  0.33912657  0.67309023  0.37395783  1
  O  O195  1  0.68492661  0.02609689  0.36762113  1
  O  O196  1  0.17623683  0.81595629  0.62871548  1
  O  O197  1  0.17750327  0.46815080  0.63861877  1
  O  O198  1  0.49786303  0.14717445  0.11700552  1
  O  O199  1  -0.01548343  0.67394014  0.12958008  1
  O  O200  1  0.83757517  0.82161791  0.38406169  1
  O  O201  1  0.49877727  0.49847161  0.87178095  1
  O  O202  1  0.86121295  0.48584022  0.37734564  1
  O  O203  1  0.15779408  0.82272474  0.87561937  1
  O  O204  1  -0.00959368  0.02450069  0.87227259  1
  O  O205  1  0.51294587  0.82957145  0.13277150  1
  O  O206  1  0.49967298  0.48144277  0.12049621  1
  O  O207  1  0.66854475  0.02376701  0.62045191  1
  O  O208  1  0.68634080  0.01547181  0.87565003  1
  O  O209  1  0.32560862  0.33956680  0.36511956  1
  O  O210  1  0.15312204  0.13564009  0.87307516  1
  O  O211  1  0.50257414  0.15004817  0.62869860  1
  O  O212  1  0.66763660  0.01704103  0.13226717  1
  O  O213  1  0.01406220  0.35572854  0.37116598  1
  O  O214  1  0.15902748  0.16844082  0.38075639  1
  O  O215  1  0.68056695  0.34984707  0.86827856  1
