# generated using pymatgen
data_Sr24Ta24N11O13
_symmetry_space_group_name_H-M   'P 1'
_cell_length_a   16.72595501
_cell_length_b   16.94787054
_cell_length_c   15.66783802
_cell_angle_alpha   89.80304499
_cell_angle_beta   89.93607178
_cell_angle_gamma   89.38200822
_symmetry_Int_Tables_number   1
_chemical_formula_structural   Sr24Ta24N11O13
_chemical_formula_sum   'Sr72 Ta72 N33 O39'
_cell_volume   4441.06422409
_cell_formula_units_Z   3
loop_
 _symmetry_equiv_pos_site_id
 _symmetry_equiv_pos_as_xyz
  1  'x, y, z'
loop_
 _atom_site_type_symbol
 _atom_site_label
 _atom_site_symmetry_multiplicity
 _atom_site_fract_x
 _atom_site_fract_y
 _atom_site_fract_z
 _atom_site_occupancy
  Sr  Sr0  1  0.01258557  0.14538782  0.17862963  1
  Sr  Sr1  1  -0.00833371  0.16847356  0.61378121  1
  Sr  Sr2  1  0.00660067  0.48486271  0.11292536  1
  Sr  Sr3  1  -0.01058977  0.51236111  0.68110426  1
  Sr  Sr4  1  0.00163332  0.83869675  0.09085594  1
  Sr  Sr5  1  0.01035499  0.83990967  0.61444538  1
  Sr  Sr6  1  0.33701683  0.19504268  0.10456866  1
  Sr  Sr7  1  0.34424115  0.17743244  0.60919611  1
  Sr  Sr8  1  0.36115027  0.50808927  0.15443932  1
  Sr  Sr9  1  0.31555132  0.51367609  0.61356386  1
  Sr  Sr10  1  0.34095003  0.82170098  0.11710230  1
  Sr  Sr11  1  0.33773367  0.86611165  0.64531434  1
  Sr  Sr12  1  0.67095649  0.18578458  0.11076648  1
  Sr  Sr13  1  0.66420278  0.19801663  0.66043566  1
  Sr  Sr14  1  0.67762973  0.52248253  0.11636612  1
  Sr  Sr15  1  0.68226222  0.51297975  0.59417539  1
  Sr  Sr16  1  0.68422315  0.84738733  0.15481942  1
  Sr  Sr17  1  0.66681240  0.85629721  0.62405819  1
  Sr  Sr18  1  0.17106948  -0.02267027  0.11268955  1
  Sr  Sr19  1  0.15714163  -0.00324071  0.66405867  1
  Sr  Sr20  1  0.15498681  0.33077416  0.13170716  1
  Sr  Sr21  1  0.19094419  0.32240258  0.57324749  1
  Sr  Sr22  1  0.13746040  0.64663821  0.11465727  1
  Sr  Sr23  1  0.15972295  0.65462599  0.62005637  1
  Sr  Sr24  1  0.48236094  -0.03213469  0.15216500  1
  Sr  Sr25  1  0.49525932  0.00096914  0.61194704  1
  Sr  Sr26  1  0.50533378  0.32143569  0.12351488  1
  Sr  Sr27  1  0.49263272  0.32972268  0.66560198  1
  Sr  Sr28  1  0.49036553  0.65947253  0.11513153  1
  Sr  Sr29  1  0.48177390  0.63957578  0.60699205  1
  Sr  Sr30  1  0.83004846  0.01658913  0.13987561  1
  Sr  Sr31  1  0.84219179  -0.01764938  0.58759896  1
  Sr  Sr32  1  0.83195186  0.34259852  0.07104045  1
  Sr  Sr33  1  0.84376056  0.32997717  0.63676243  1
  Sr  Sr34  1  0.82359688  0.65365985  0.15848869  1
  Sr  Sr35  1  0.82190295  0.66106217  0.63350830  1
  Sr  Sr36  1  -0.00616376  0.16917420  0.38521729  1
  Sr  Sr37  1  0.00810450  0.15788155  0.83487713  1
  Sr  Sr38  1  0.00076098  0.51811743  0.32502774  1
  Sr  Sr39  1  0.00614959  0.46341332  0.89159063  1
  Sr  Sr40  1  0.00594141  0.82602612  0.40824831  1
  Sr  Sr41  1  0.00648091  0.85172897  0.88868239  1
  Sr  Sr42  1  0.34403145  0.18136461  0.39768613  1
  Sr  Sr43  1  0.33248282  0.18739987  0.89143382  1
  Sr  Sr44  1  0.32988153  0.49969235  0.38913031  1
  Sr  Sr45  1  0.35182301  0.50837064  0.83920392  1
  Sr  Sr46  1  0.33319031  0.85802339  0.34520759  1
  Sr  Sr47  1  0.33993445  0.84220676  0.88562520  1
  Sr  Sr48  1  0.66041464  0.19235350  0.34563589  1
  Sr  Sr49  1  0.67061602  0.17033082  0.89074006  1
  Sr  Sr50  1  0.68425430  0.49958677  0.38467888  1
  Sr  Sr51  1  0.66816952  0.53984799  0.90351018  1
  Sr  Sr52  1  0.67312717  0.87157429  0.37824919  1
  Sr  Sr53  1  0.67518383  0.84168081  0.85120630  1
  Sr  Sr54  1  0.16660665  -0.00891793  0.33601705  1
  Sr  Sr55  1  0.16396027  -0.00450154  0.87824852  1
  Sr  Sr56  1  0.15182614  0.33034445  0.36743739  1
  Sr  Sr57  1  0.17136640  0.32326126  0.91468086  1
  Sr  Sr58  1  0.15435451  0.66178713  0.39477573  1
  Sr  Sr59  1  0.15225025  0.62501140  0.85853308  1
  Sr  Sr60  1  0.48551350  0.00273669  0.39608638  1
  Sr  Sr61  1  0.50064074  -0.03042825  0.84802221  1
  Sr  Sr62  1  0.50257012  0.32549099  0.33462976  1
  Sr  Sr63  1  0.49172149  0.31685842  0.87526354  1
  Sr  Sr64  1  0.47397568  0.63788774  0.37948159  1
  Sr  Sr65  1  0.48531614  0.65863334  0.89643475  1
  Sr  Sr66  1  0.84596872  0.00231197  0.37079001  1
  Sr  Sr67  1  0.82141456  -0.01676299  0.91379631  1
  Sr  Sr68  1  0.81618579  0.33848034  0.41764077  1
  Sr  Sr69  1  0.84694720  0.31739918  0.86043536  1
  Sr  Sr70  1  0.82508610  0.64991624  0.36745776  1
  Sr  Sr71  1  0.82309396  0.66709591  0.84726933  1
  Ta  Ta72  1  0.14211970  0.15242566  0.00501480  1
  Ta  Ta73  1  0.16567603  0.12743549  0.49152371  1
  Ta  Ta74  1  0.21467711  0.49442997  0.00462426  1
  Ta  Ta75  1  0.10209253  0.49354923  0.49958641  1
  Ta  Ta76  1  0.17724472  0.78684194  -0.01714903  1
  Ta  Ta77  1  0.18694211  0.85384185  0.50136698  1
  Ta  Ta78  1  0.49864688  0.11456219  0.00856170  1
  Ta  Ta79  1  0.52499418  0.19065457  0.49887084  1
  Ta  Ta80  1  0.49889997  0.47605279  -0.00230101  1
  Ta  Ta81  1  0.50916218  0.45707480  0.49543586  1
  Ta  Ta82  1  0.53552265  0.83273111  0.00928324  1
  Ta  Ta83  1  0.49531812  0.80619147  0.48577983  1
  Ta  Ta84  1  0.87347412  0.16075070  0.00336329  1
  Ta  Ta85  1  0.79575349  0.16081408  0.49963242  1
  Ta  Ta86  1  0.84414841  0.53086470  -0.00742135  1
  Ta  Ta87  1  0.89707590  0.49670082  0.50141604  1
  Ta  Ta88  1  0.82189806  0.79393615  0.00309222  1
  Ta  Ta89  1  0.82394935  0.79759175  0.49721277  1
  Ta  Ta90  1  0.20469573  0.16819298  0.25751290  1
  Ta  Ta91  1  0.18543136  0.18962026  0.74514980  1
  Ta  Ta92  1  0.18807889  0.50199618  0.25762432  1
  Ta  Ta93  1  0.16999122  0.44860148  0.74576291  1
  Ta  Ta94  1  0.14655607  0.80883674  0.24379127  1
  Ta  Ta95  1  0.16562427  0.80098823  0.76045753  1
  Ta  Ta96  1  0.49105526  0.14077699  0.24564799  1
  Ta  Ta97  1  0.49168887  0.14222751  0.75311686  1
  Ta  Ta98  1  0.54185466  0.49873886  0.24757759  1
  Ta  Ta99  1  0.54776643  0.50833495  0.75481470  1
  Ta  Ta100  1  0.51511939  0.80028965  0.26418761  1
  Ta  Ta101  1  0.50148053  0.78838657  0.74491228  1
  Ta  Ta102  1  0.82906555  0.23171306  0.24605587  1
  Ta  Ta103  1  0.82964511  0.11425204  0.75030677  1
  Ta  Ta104  1  0.83421596  0.44445082  0.24461385  1
  Ta  Ta105  1  0.79734013  0.48887843  0.76071948  1
  Ta  Ta106  1  0.86930604  0.83042541  0.25714524  1
  Ta  Ta107  1  0.85685549  0.84536554  0.74451073  1
  Ta  Ta108  1  0.00157771  -0.04904145  0.24706697  1
  Ta  Ta109  1  -0.03910946  -0.01049295  0.75478011  1
  Ta  Ta110  1  -0.03989696  0.32997337  0.24387827  1
  Ta  Ta111  1  0.06359921  0.32460081  0.74370727  1
  Ta  Ta112  1  0.00066629  0.70637314  0.25023795  1
  Ta  Ta113  1  -0.00042319  0.70601988  0.75270390  1
  Ta  Ta114  1  0.33289886  0.05085172  0.25459448  1
  Ta  Ta115  1  0.33588348  0.04542889  0.74699688  1
  Ta  Ta116  1  0.31404724  0.33453852  0.25318974  1
  Ta  Ta117  1  0.29390028  0.33237508  0.75351714  1
  Ta  Ta118  1  0.29140881  0.67136774  0.24702901  1
  Ta  Ta119  1  0.32743167  0.69701387  0.74806190  1
  Ta  Ta120  1  0.64016470  0.02872673  0.24573292  1
  Ta  Ta121  1  0.68418558  0.02191310  0.75423030  1
  Ta  Ta122  1  0.69287546  0.35792595  0.23208087  1
  Ta  Ta123  1  0.66802624  0.37979437  0.76908788  1
  Ta  Ta124  1  0.63586276  0.67595576  0.26218329  1
  Ta  Ta125  1  0.63592664  0.66821997  0.74284845  1
  Ta  Ta126  1  0.00002342  0.04278303  0.00402748  1
  Ta  Ta127  1  0.04588983  0.00190740  0.49217587  1
  Ta  Ta128  1  0.00346597  0.26081113  0.00778781  1
  Ta  Ta129  1  -0.00043316  0.36107484  0.50045610  1
  Ta  Ta130  1  -0.04107311  0.66389603  0.00364293  1
  Ta  Ta131  1  -0.01997645  0.64183181  0.49837587  1
  Ta  Ta132  1  0.34861553  0.01828991  0.00158798  1
  Ta  Ta133  1  0.28909963  0.00323010  0.49820984  1
  Ta  Ta134  1  0.33996947  0.38084350  0.00368671  1
  Ta  Ta135  1  0.38780406  0.34313960  0.49748302  1
  Ta  Ta136  1  0.30159544  0.64950880  -0.00416173  1
  Ta  Ta137  1  0.32305780  0.72286165  0.50401683  1
  Ta  Ta138  1  0.62788372  -0.01087192  0.00097733  1
  Ta  Ta139  1  0.66527695  0.05596945  0.50085822  1
  Ta  Ta140  1  0.65329938  0.36870423  -0.01968054  1
  Ta  Ta141  1  0.63056261  0.33038236  0.50545809  1
  Ta  Ta142  1  0.67773262  0.70639230  0.01171506  1
  Ta  Ta143  1  0.64979564  0.70299596  0.48454226  1
  N  N144  1  0.32047104  0.66810077  0.12908058  1
  N  N145  1  0.15724972  0.17050208  0.37285915  1
  N  N146  1  0.33865769  0.34598174  0.12777104  1
  N  N147  1  0.83820604  0.83654503  0.37857521  1
  N  N148  1  -0.00139163  0.31371339  0.12253704  1
  N  N149  1  0.00835267  -0.00681307  0.37401241  1
  N  N150  1  0.51394946  0.50061542  0.12433764  1
  N  N151  1  0.66335411  -0.00122408  0.87843825  1
  N  N152  1  0.34344991  0.34128473  0.38171550  1
  N  N153  1  0.15296567  0.50012115  0.37633381  1
  N  N154  1  0.32033534  0.67331156  0.61627751  1
  N  N155  1  0.67579657  0.34603269  0.10745140  1
  N  N156  1  -0.01539751  0.66827440  0.12623749  1
  N  N157  1  0.50476480  0.50721524  0.87069148  1
  N  N158  1  0.66920208  0.64568258  0.38210413  1
  N  N159  1  0.83433526  0.82938127  0.62384084  1
  N  N160  1  0.68840140  0.31744931  0.87497472  1
  N  N161  1  0.00389803  -0.00236414  0.13110685  1
  N  N162  1  -0.00886620  0.00536118  0.87505185  1
  N  N163  1  0.66811692  0.67981088  0.13302657  1
  N  N164  1  0.51122686  0.82108008  0.12999212  1
  N  N165  1  0.50132882  0.17091769  0.37546197  1
  N  N166  1  0.50267166  0.16710626  0.63346205  1
  N  N167  1  0.49125107  0.85354447  0.37182441  1
  N  N168  1  0.33062448  0.34126264  0.87165491  1
  N  N169  1  0.32439295  0.01987092  0.62758330  1
  N  N170  1  0.32819106  0.66304467  0.87072782  1
  N  N171  1  0.51080195  0.48840821  0.37293960  1
  N  N172  1  0.49918292  0.16852967  0.11727782  1
  N  N173  1  0.32936513  0.01228664  0.37817362  1
  N  N174  1  0.16909105  0.84451636  0.87701876  1
  N  N175  1  -0.00492063  0.66725719  0.37590462  1
  N  N176  1  0.85037061  0.49069748  0.87190806  1
  O  O177  1  0.84461560  0.48773425  0.63632116  1
  O  O178  1  0.66254204  0.34087319  0.37913105  1
  O  O179  1  -0.00195319  0.68076318  0.62702325  1
  O  O180  1  0.17277674  0.47560167  0.88157340  1
  O  O181  1  0.84463867  0.48994594  0.11646143  1
  O  O182  1  0.85366235  0.48152321  0.37803347  1
  O  O183  1  0.34113017  0.33359361  0.62104955  1
  O  O184  1  0.65432115  0.03529921  0.36991634  1
  O  O185  1  0.15870708  0.81062777  0.11363803  1
  O  O186  1  0.66201045  0.02755228  0.62281956  1
  O  O187  1  0.65270563  0.66814153  0.61514638  1
  O  O188  1  0.00907501  0.33189994  0.62877911  1
  O  O189  1  0.16681893  0.16716001  0.87393514  1
  O  O190  1  0.83672308  0.81390363  0.12707657  1
  O  O191  1  0.81295363  0.19249632  0.37545225  1
  O  O192  1  0.49694182  0.80937401  0.62105207  1
  O  O193  1  0.50437817  0.16149459  0.88679036  1
  O  O194  1  0.32835018  0.01540776  0.12592432  1
  O  O195  1  0.64854133  0.34551460  0.63285871  1
  O  O196  1  0.51116914  0.81320686  0.87176882  1
  O  O197  1  -0.00490493  0.33348302  0.37607702  1
  O  O198  1  0.17196506  0.84352484  0.63251191  1
  O  O199  1  0.33049141  0.01426982  0.87746335  1
  O  O200  1  0.02309572  0.30883385  0.87016052  1
  O  O201  1  0.15711600  0.47924616  0.61329539  1
  O  O202  1  0.16838186  0.49213639  0.12567405  1
  O  O203  1  0.66222788  0.68625647  0.86853541  1
  O  O204  1  0.16468567  0.15695678  0.13101651  1
  O  O205  1  0.66886470  0.00844195  0.12312918  1
  O  O206  1  0.52724847  0.49393815  0.62468788  1
  O  O207  1  0.83643056  0.17915141  0.13076498  1
  O  O208  1  0.82660457  0.14228575  0.62208145  1
  O  O209  1  0.17736170  0.17201060  0.61819315  1
  O  O210  1  0.31427522  0.68663754  0.37965884  1
  O  O211  1  0.00331475  -0.00738407  0.61888325  1
  O  O212  1  0.16730925  0.83329272  0.37558422  1
  O  O213  1  0.83000222  0.82056472  0.87621465  1
  O  O214  1  -0.01459176  0.68773885  0.87429512  1
  O  O215  1  0.84493700  0.14129830  0.87324006  1
