# generated using pymatgen
data_Sr24Ta24N11O13
_symmetry_space_group_name_H-M   'P 1'
_cell_length_a   16.45185190
_cell_length_b   18.00903122
_cell_length_c   15.08056870
_cell_angle_alpha   88.64175786
_cell_angle_beta   89.99733054
_cell_angle_gamma   90.88482577
_symmetry_Int_Tables_number   1
_chemical_formula_structural   Sr24Ta24N11O13
_chemical_formula_sum   'Sr72 Ta72 N33 O39'
_cell_volume   4466.31134770
_cell_formula_units_Z   3
loop_
 _symmetry_equiv_pos_site_id
 _symmetry_equiv_pos_as_xyz
  1  'x, y, z'
loop_
 _atom_site_type_symbol
 _atom_site_label
 _atom_site_symmetry_multiplicity
 _atom_site_fract_x
 _atom_site_fract_y
 _atom_site_fract_z
 _atom_site_occupancy
  Sr  Sr0  1  0.00531531  0.15949662  0.10990943  1
  Sr  Sr1  1  0.01246437  0.13589647  0.63653071  1
  Sr  Sr2  1  0.00149827  0.45103267  0.15906077  1
  Sr  Sr3  1  -0.00193116  0.50233135  0.62865866  1
  Sr  Sr4  1  0.00025585  0.82797592  0.13738384  1
  Sr  Sr5  1  0.01450855  0.81636356  0.60915909  1
  Sr  Sr6  1  0.33870884  0.12942586  0.13832486  1
  Sr  Sr7  1  0.31087964  0.15427475  0.62208311  1
  Sr  Sr8  1  0.33331648  0.45042515  0.14058940  1
  Sr  Sr9  1  0.34368493  0.48972426  0.59778261  1
  Sr  Sr10  1  0.34555168  0.83969455  0.10908710  1
  Sr  Sr11  1  0.33482124  0.78338753  0.65620311  1
  Sr  Sr12  1  0.66310180  0.14737299  0.11417505  1
  Sr  Sr13  1  0.67968922  0.16406077  0.62463554  1
  Sr  Sr14  1  0.66885677  0.47774951  0.11747725  1
  Sr  Sr15  1  0.66663044  0.45894625  0.67124996  1
  Sr  Sr16  1  0.67309074  0.80429295  0.14804586  1
  Sr  Sr17  1  0.67549862  0.80128177  0.62894095  1
  Sr  Sr18  1  0.15036332  0.02840718  0.13625580  1
  Sr  Sr19  1  0.15879321  -0.01057585  0.61150479  1
  Sr  Sr20  1  0.15766794  0.32912758  0.11404399  1
  Sr  Sr21  1  0.15147276  0.37313740  0.58902512  1
  Sr  Sr22  1  0.17059798  0.72263215  0.10232802  1
  Sr  Sr23  1  0.15731206  0.67377001  0.65914450  1
  Sr  Sr24  1  0.50067226  0.01432720  0.10481427  1
  Sr  Sr25  1  0.49482412  0.05483475  0.62995698  1
  Sr  Sr26  1  0.50625267  0.34793137  0.10934009  1
  Sr  Sr27  1  0.48601813  0.35799806  0.65202416  1
  Sr  Sr28  1  0.49047812  0.71123248  0.14772103  1
  Sr  Sr29  1  0.49126110  0.66456004  0.60925812  1
  Sr  Sr30  1  0.83558302  0.03882378  0.10380203  1
  Sr  Sr31  1  0.83184142  0.01627131  0.64779791  1
  Sr  Sr32  1  0.82355058  0.35504431  0.12882505  1
  Sr  Sr33  1  0.83381777  0.35091827  0.61299105  1
  Sr  Sr34  1  0.83755754  0.68581815  0.12124139  1
  Sr  Sr35  1  0.83940020  0.69730116  0.59473765  1
  Sr  Sr36  1  0.00573601  0.12420548  0.36974981  1
  Sr  Sr37  1  0.00634703  0.15566843  0.88361244  1
  Sr  Sr38  1  -0.00890671  0.49016294  0.39038165  1
  Sr  Sr39  1  0.01540471  0.49965654  0.85702285  1
  Sr  Sr40  1  0.00978562  0.82166735  0.37417213  1
  Sr  Sr41  1  0.00244126  0.78000649  0.91798388  1
  Sr  Sr42  1  0.33321558  0.12402348  0.38919630  1
  Sr  Sr43  1  0.34083998  0.14068689  0.84128176  1
  Sr  Sr44  1  0.33859639  0.49555941  0.37688459  1
  Sr  Sr45  1  0.33462986  0.47532123  0.91067528  1
  Sr  Sr46  1  0.35374060  0.80596491  0.36717915  1
  Sr  Sr47  1  0.33899699  0.82602062  0.88854119  1
  Sr  Sr48  1  0.66127127  0.16140569  0.39152594  1
  Sr  Sr49  1  0.67001416  0.11766738  0.87611555  1
  Sr  Sr50  1  0.67054674  0.46904776  0.35403733  1
  Sr  Sr51  1  0.67032256  0.50461613  0.90034247  1
  Sr  Sr52  1  0.65828610  0.80519761  0.38908718  1
  Sr  Sr53  1  0.67765720  0.81008022  0.85046236  1
  Sr  Sr54  1  0.16503005  -0.00331298  0.39085773  1
  Sr  Sr55  1  0.16384087  0.04294617  0.83111289  1
  Sr  Sr56  1  0.16221866  0.37743787  0.34560525  1
  Sr  Sr57  1  0.15744318  0.35449477  0.90014884  1
  Sr  Sr58  1  0.16815231  0.70146474  0.33546444  1
  Sr  Sr59  1  0.17208443  0.66486545  0.87976831  1
  Sr  Sr60  1  0.50736950  0.02384021  0.38397835  1
  Sr  Sr61  1  0.49162116  0.00031443  0.88004846  1
  Sr  Sr62  1  0.49366322  0.36485627  0.35116363  1
  Sr  Sr63  1  0.50289665  0.37591644  0.88092904  1
  Sr  Sr64  1  0.49354002  0.66226044  0.38731969  1
  Sr  Sr65  1  0.48783269  0.69517356  0.85869769  1
  Sr  Sr66  1  0.81597015  0.03254779  0.37723368  1
  Sr  Sr67  1  0.83410051  0.00948482  0.86431257  1
  Sr  Sr68  1  0.82930372  0.35578301  0.37583661  1
  Sr  Sr69  1  0.83173140  0.38891310  0.84563378  1
  Sr  Sr70  1  0.84376228  0.69068361  0.36839243  1
  Sr  Sr71  1  0.81592682  0.67564339  0.90106627  1
  Ta  Ta72  1  0.19948294  0.17328102  -0.00521257  1
  Ta  Ta73  1  0.16459843  0.21308855  0.47465942  1
  Ta  Ta74  1  0.16296848  0.52956382  0.03280973  1
  Ta  Ta75  1  0.16427008  0.55369039  0.49292523  1
  Ta  Ta76  1  0.15730833  0.89300166  -0.02588599  1
  Ta  Ta77  1  0.19806970  0.81969849  0.50650927  1
  Ta  Ta78  1  0.49874557  0.20113118  -0.02268772  1
  Ta  Ta79  1  0.48879228  0.22300599  0.50906904  1
  Ta  Ta80  1  0.49456582  0.55291847  0.02054626  1
  Ta  Ta81  1  0.53676732  0.49711460  0.50291224  1
  Ta  Ta82  1  0.53810659  0.84243806  -0.00719333  1
  Ta  Ta83  1  0.50493081  0.87544951  0.52811221  1
  Ta  Ta84  1  0.82825149  0.22184702  -0.02813223  1
  Ta  Ta85  1  0.85628550  0.19052604  0.50214548  1
  Ta  Ta86  1  0.86885940  0.51780854  0.00816428  1
  Ta  Ta87  1  0.80938420  0.52555988  0.51266051  1
  Ta  Ta88  1  0.82821405  0.86781420  0.01233291  1
  Ta  Ta89  1  0.83052883  0.87652348  0.50444715  1
  Ta  Ta90  1  0.17128859  0.19919873  0.25851433  1
  Ta  Ta91  1  0.16234600  0.23143857  0.74656357  1
  Ta  Ta92  1  0.16711122  0.54739142  0.22628322  1
  Ta  Ta93  1  0.20242385  0.49778875  0.74745275  1
  Ta  Ta94  1  0.18518909  0.87454643  0.24941802  1
  Ta  Ta95  1  0.16180005  0.85680702  0.76633212  1
  Ta  Ta96  1  0.49982071  0.20098520  0.24701732  1
  Ta  Ta97  1  0.51713620  0.20984135  0.77706019  1
  Ta  Ta98  1  0.50365226  0.54031699  0.23664217  1
  Ta  Ta99  1  0.49231036  0.53486267  0.76041690  1
  Ta  Ta100  1  0.50833810  0.88058287  0.25076996  1
  Ta  Ta101  1  0.49928140  0.87114312  0.73340685  1
  Ta  Ta102  1  0.82934961  0.19968465  0.24190729  1
  Ta  Ta103  1  0.84138323  0.21363875  0.77147014  1
  Ta  Ta104  1  0.83545793  0.53744937  0.25182270  1
  Ta  Ta105  1  0.82873272  0.55685331  0.74314300  1
  Ta  Ta106  1  0.82879966  0.88264550  0.24813179  1
  Ta  Ta107  1  0.87013042  0.82842616  0.75598531  1
  Ta  Ta108  1  -0.02057056  -0.02579983  0.24524138  1
  Ta  Ta109  1  0.00634176  -0.06465838  0.77209078  1
  Ta  Ta110  1  -0.00721042  0.28375104  0.26084317  1
  Ta  Ta111  1  0.00297597  0.30949165  0.74306593  1
  Ta  Ta112  1  0.00507915  0.62703119  0.23199570  1
  Ta  Ta113  1  -0.03252495  0.66837391  0.75417322  1
  Ta  Ta114  1  0.33678067  -0.03550579  0.25551826  1
  Ta  Ta115  1  0.33319653  -0.04317988  0.73144004  1
  Ta  Ta116  1  0.33277159  0.27841321  0.24768806  1
  Ta  Ta117  1  0.29799436  0.33784646  0.74691803  1
  Ta  Ta118  1  0.33014602  0.62801857  0.23159555  1
  Ta  Ta119  1  0.33381179  0.61076427  0.75876762  1
  Ta  Ta120  1  0.66755250  -0.03090324  0.24759174  1
  Ta  Ta121  1  0.64680976  -0.03724242  0.73224522  1
  Ta  Ta122  1  0.66385345  0.29504176  0.23893809  1
  Ta  Ta123  1  0.67059097  0.29053033  0.77526991  1
  Ta  Ta124  1  0.66758902  0.63084326  0.25180824  1
  Ta  Ta125  1  0.66420951  0.63231969  0.74476201  1
  Ta  Ta126  1  0.00411826  -0.03819990  -0.02446864  1
  Ta  Ta127  1  -0.02722739  -0.02655607  0.51293665  1
  Ta  Ta128  1  -0.03158663  0.32147197  -0.00495321  1
  Ta  Ta129  1  0.00004848  0.28719773  0.47285038  1
  Ta  Ta130  1  0.01527131  0.60887014  0.03101607  1
  Ta  Ta131  1  0.02939264  0.65328963  0.48632498  1
  Ta  Ta132  1  0.29602263  -0.00407682  -0.01520133  1
  Ta  Ta133  1  0.34459845  -0.05773218  0.52697579  1
  Ta  Ta134  1  0.34128796  0.27375470  -0.01160326  1
  Ta  Ta135  1  0.33042521  0.30288556  0.48912449  1
  Ta  Ta136  1  0.32879910  0.62265944  0.03270994  1
  Ta  Ta137  1  0.29350667  0.65862785  0.49113593  1
  Ta  Ta138  1  0.67462764  -0.05271294  -0.00678721  1
  Ta  Ta139  1  0.66385311  -0.03616164  0.52320172  1
  Ta  Ta140  1  0.67023680  0.29884567  -0.02592687  1
  Ta  Ta141  1  0.63870390  0.32711242  0.51154604  1
  Ta  Ta142  1  0.63008358  0.66833304  0.00020698  1
  Ta  Ta143  1  0.66970445  0.60509336  0.51076376  1
  N  N144  1  0.65628858  0.66258847  0.86949840  1
  N  N145  1  -0.00622916  0.31091113  0.12070669  1
  N  N146  1  -0.00146297  -0.02368691  0.63944764  1
  N  N147  1  0.83485338  0.82790931  0.13734083  1
  N  N148  1  0.83616624  0.49098490  0.64316612  1
  N  N149  1  0.67385284  -0.02464415  0.86275161  1
  N  N150  1  0.50123256  0.50195270  0.63416258  1
  N  N151  1  0.32993203  0.65112106  0.35970467  1
  N  N152  1  0.32948895  -0.00622178  0.86103094  1
  N  N153  1  0.16568608  0.18416420  0.86732684  1
  N  N154  1  0.00532532  0.66087678  0.35679289  1
  N  N155  1  0.16877567  0.17473565  0.13223523  1
  N  N156  1  0.83704399  0.52759843  0.87885678  1
  N  N157  1  0.32310114  0.01581991  0.61831265  1
  N  N158  1  0.66917836  0.02879818  0.62605480  1
  N  N159  1  0.17468077  0.84636090  0.37777552  1
  N  N160  1  0.50567361  0.85568100  0.12370700  1
  N  N161  1  0.49895988  0.51759054  0.89996777  1
  N  N162  1  0.66504362  0.31966980  0.63649604  1
  N  N163  1  0.16976196  0.46559888  0.14359516  1
  N  N164  1  0.66440348  0.31771187  0.10964651  1
  N  N165  1  0.83188886  0.50396650  0.38566168  1
  N  N166  1  0.84189499  0.14728743  0.87638930  1
  N  N167  1  0.66648220  0.36751625  0.86606202  1
  N  N168  1  0.50285935  0.48180826  0.13008665  1
  N  N169  1  -0.00170844  0.35075521  0.36130974  1
  N  N170  1  0.50478003  0.13516998  0.87391783  1
  N  N171  1  0.50145686  0.50936124  0.37463574  1
  N  N172  1  0.16979727  0.83091008  0.64107038  1
  N  N173  1  0.83494643  0.83858255  0.63350377  1
  N  N174  1  0.82602025  0.49693200  0.13220547  1
  N  N175  1  0.49955492  0.84281997  0.86121174  1
  N  N176  1  0.16655637  0.51535378  0.62602156  1
  O  O177  1  0.48729647  0.20774790  0.64173307  1
  O  O178  1  0.67987422  0.65492464  0.12021239  1
  O  O179  1  0.33658721  0.32339080  0.36264306  1
  O  O180  1  0.64766799  0.67110514  0.61238128  1
  O  O181  1  0.32671953  0.33653724  0.87198223  1
  O  O182  1  0.66699200  -0.00061026  0.12017285  1
  O  O183  1  0.17205342  0.51548380  0.36530733  1
  O  O184  1  0.83850376  0.82088247  0.89297824  1
  O  O185  1  0.82384048  0.17957734  0.37796633  1
  O  O186  1  -0.00421728  0.02217811  0.85407727  1
  O  O187  1  0.66376170  0.31608767  0.37450938  1
  O  O188  1  0.33170947  0.63976612  0.62239662  1
  O  O189  1  0.17230738  0.50116592  0.88369441  1
  O  O190  1  0.16064557  0.20856508  0.60899976  1
  O  O191  1  0.33768604  0.29948031  0.11515277  1
  O  O192  1  0.34332816  -0.02327450  0.38840984  1
  O  O193  1  0.66401185  -0.01893834  0.38145123  1
  O  O194  1  0.00295790  0.35386040  0.86347292  1
  O  O195  1  0.16077351  0.86579340  0.11642333  1
  O  O196  1  0.65895973  0.65223925  0.37895880  1
  O  O197  1  -0.00571647  -0.01877977  0.11062054  1
  O  O198  1  0.01370134  0.64406785  0.88006507  1
  O  O199  1  0.16219848  0.80234082  0.89588473  1
  O  O200  1  0.33660042  -0.01318101  0.11890972  1
  O  O201  1  0.51238323  0.79846936  0.62712171  1
  O  O202  1  0.81902542  0.83809515  0.37755054  1
  O  O203  1  0.00040759  0.66273351  0.62548924  1
  O  O204  1  0.50525829  0.18009001  0.11612290  1
  O  O205  1  0.01308808  0.69605040  0.11502014  1
  O  O206  1  0.32594245  0.70448957  0.12225825  1
  O  O207  1  -0.00482091  -0.02012796  0.37458286  1
  O  O208  1  0.17015648  0.13566103  0.37788735  1
  O  O209  1  0.31656423  0.33620947  0.61441448  1
  O  O210  1  0.00202186  0.30975665  0.61107679  1
  O  O211  1  0.32570146  0.62335360  0.89210949  1
  O  O212  1  0.50058961  0.19593395  0.37797534  1
  O  O213  1  0.84824185  0.18735300  0.63485099  1
  O  O214  1  0.50959880  0.87044072  0.39227545  1
  O  O215  1  0.82654977  0.18363379  0.11195370  1
