# generated using pymatgen
data_Sr24Ta24N11O13
_symmetry_space_group_name_H-M   'P 1'
_cell_length_a   16.97499809
_cell_length_b   16.63382745
_cell_length_c   15.66560342
_cell_angle_alpha   90.06373580
_cell_angle_beta   89.97848963
_cell_angle_gamma   90.48976524
_symmetry_Int_Tables_number   1
_chemical_formula_structural   Sr24Ta24N11O13
_chemical_formula_sum   'Sr72 Ta72 N33 O39'
_cell_volume   4423.16244671
_cell_formula_units_Z   3
loop_
 _symmetry_equiv_pos_site_id
 _symmetry_equiv_pos_as_xyz
  1  'x, y, z'
loop_
 _atom_site_type_symbol
 _atom_site_label
 _atom_site_symmetry_multiplicity
 _atom_site_fract_x
 _atom_site_fract_y
 _atom_site_fract_z
 _atom_site_occupancy
  Sr  Sr0  1  -0.01409968  0.14657175  0.10904291  1
  Sr  Sr1  1  -0.00733421  0.17830932  0.67162153  1
  Sr  Sr2  1  -0.01231528  0.51479956  0.11403099  1
  Sr  Sr3  1  -0.01134687  0.49085409  0.57829520  1
  Sr  Sr4  1  -0.04499771  0.83287301  0.17057842  1
  Sr  Sr5  1  0.00225202  0.83918272  0.61489186  1
  Sr  Sr6  1  0.32394750  0.17187622  0.10109985  1
  Sr  Sr7  1  0.31002313  0.16416545  0.60921132  1
  Sr  Sr8  1  0.30567367  0.49788246  0.14354950  1
  Sr  Sr9  1  0.32563933  0.50689509  0.61928901  1
  Sr  Sr10  1  0.32381116  0.83007347  0.12661303  1
  Sr  Sr11  1  0.32835035  0.83714082  0.65628991  1
  Sr  Sr12  1  0.63836553  0.17046520  0.14665903  1
  Sr  Sr13  1  0.65873158  0.17426476  0.61415702  1
  Sr  Sr14  1  0.64454419  0.48441127  0.11516830  1
  Sr  Sr15  1  0.66575907  0.51317770  0.65756579  1
  Sr  Sr16  1  0.65896034  0.84855653  0.10443068  1
  Sr  Sr17  1  0.63093291  0.84484139  0.61060769  1
  Sr  Sr18  1  0.18199154  -0.01222558  0.11516997  1
  Sr  Sr19  1  0.17222808  -0.00881282  0.59444562  1
  Sr  Sr20  1  0.16930497  0.32583577  0.16850388  1
  Sr  Sr21  1  0.17884126  0.34899521  0.60807861  1
  Sr  Sr22  1  0.17381044  0.65774017  0.10412050  1
  Sr  Sr23  1  0.18868870  0.68119224  0.66866263  1
  Sr  Sr24  1  0.50523698  -0.01419051  0.15793763  1
  Sr  Sr25  1  0.50472932  0.01407058  0.62176118  1
  Sr  Sr26  1  0.49615290  0.32811517  0.10949417  1
  Sr  Sr27  1  0.53764334  0.33923013  0.66360294  1
  Sr  Sr28  1  0.52929498  0.65785806  0.10620509  1
  Sr  Sr29  1  0.51097967  0.64835945  0.60797166  1
  Sr  Sr30  1  0.83373559  -0.00138948  0.11518396  1
  Sr  Sr31  1  0.86935163  -0.00049861  0.64894706  1
  Sr  Sr32  1  0.86043782  0.32014790  0.10034125  1
  Sr  Sr33  1  0.84358640  0.32734459  0.61017421  1
  Sr  Sr34  1  0.84314594  0.65652209  0.15503468  1
  Sr  Sr35  1  0.85294019  0.66856098  0.62158812  1
  Sr  Sr36  1  -0.00670227  0.17205869  0.33137961  1
  Sr  Sr37  1  -0.00644503  0.14554721  0.88974149  1
  Sr  Sr38  1  -0.01801310  0.51117460  0.38169544  1
  Sr  Sr39  1  -0.00515601  0.51281984  0.90709287  1
  Sr  Sr40  1  -0.00791323  0.84672114  0.39641698  1
  Sr  Sr41  1  -0.02061440  0.82026020  0.82881503  1
  Sr  Sr42  1  0.30922230  0.17499900  0.39811422  1
  Sr  Sr43  1  0.32167038  0.17187780  0.88899651  1
  Sr  Sr44  1  0.33370027  0.49782457  0.38690663  1
  Sr  Sr45  1  0.29344442  0.50051139  0.85188701  1
  Sr  Sr46  1  0.32626951  0.84309175  0.34069718  1
  Sr  Sr47  1  0.31733653  0.83555133  0.87986482  1
  Sr  Sr48  1  0.66332115  0.16944808  0.38701158  1
  Sr  Sr49  1  0.62583316  0.16658897  0.84264356  1
  Sr  Sr50  1  0.65652152  0.51375219  0.34460079  1
  Sr  Sr51  1  0.65629769  0.49466971  0.87414120  1
  Sr  Sr52  1  0.63446571  0.84645085  0.40062367  1
  Sr  Sr53  1  0.65920527  0.84971019  0.89043773  1
  Sr  Sr54  1  0.17397970  -0.01415279  0.38676541  1
  Sr  Sr55  1  0.17448522  0.01262553  0.91753919  1
  Sr  Sr56  1  0.16593341  0.34974898  0.38547220  1
  Sr  Sr57  1  0.17080481  0.32197746  0.82393207  1
  Sr  Sr58  1  0.20845531  0.66849311  0.33576843  1
  Sr  Sr59  1  0.16009386  0.66784703  0.88132843  1
  Sr  Sr60  1  0.51168982  0.00882575  0.38400923  1
  Sr  Sr61  1  0.49964711  -0.01615156  0.83876477  1
  Sr  Sr62  1  0.53461020  0.33314108  0.34050362  1
  Sr  Sr63  1  0.49922128  0.32923198  0.89292958  1
  Sr  Sr64  1  0.50903740  0.65254142  0.39872193  1
  Sr  Sr65  1  0.53582762  0.65940315  0.89526169  1
  Sr  Sr66  1  0.85918985  -0.00046213  0.35836153  1
  Sr  Sr67  1  0.84065995  -0.00727385  0.88082595  1
  Sr  Sr68  1  0.84289226  0.32299799  0.39768674  1
  Sr  Sr69  1  0.86883716  0.32531841  0.88559860  1
  Sr  Sr70  1  0.85520290  0.67692367  0.37802136  1
  Sr  Sr71  1  0.84459775  0.66249061  0.84857199  1
  Ta  Ta72  1  0.15722228  0.21983913  -0.00482792  1
  Ta  Ta73  1  0.12501583  0.16896602  0.50145967  1
  Ta  Ta74  1  0.16287769  0.44471477  -0.00048702  1
  Ta  Ta75  1  0.16578181  0.55769804  0.50282084  1
  Ta  Ta76  1  0.11525661  0.82668769  0.00353063  1
  Ta  Ta77  1  0.18404256  0.79799837  0.49456983  1
  Ta  Ta78  1  0.49794998  0.12657289  0.00325784  1
  Ta  Ta79  1  0.48710750  0.20317438  0.50552169  1
  Ta  Ta80  1  0.44273443  0.50082438  -0.00798052  1
  Ta  Ta81  1  0.51348765  0.46316597  0.49739694  1
  Ta  Ta82  1  0.47723653  0.84070128  0.00117595  1
  Ta  Ta83  1  0.44955299  0.83057916  0.49649754  1
  Ta  Ta84  1  0.77765570  0.16400856  -0.01210161  1
  Ta  Ta85  1  0.85629363  0.14804801  0.50305063  1
  Ta  Ta86  1  0.81001723  0.51194909  -0.00191311  1
  Ta  Ta87  1  0.78785067  0.50587591  0.50108193  1
  Ta  Ta88  1  0.84187877  0.81168243  -0.00949399  1
  Ta  Ta89  1  0.80515904  0.84048463  0.50841497  1
  Ta  Ta90  1  0.17340006  0.14074985  0.24519616  1
  Ta  Ta91  1  0.16749006  0.12789396  0.75511713  1
  Ta  Ta92  1  0.12595287  0.50791606  0.25291910  1
  Ta  Ta93  1  0.11930027  0.50310123  0.73788427  1
  Ta  Ta94  1  0.13417568  0.83029632  0.24894813  1
  Ta  Ta95  1  0.16093618  0.87926201  0.75787092  1
  Ta  Ta96  1  0.45280839  0.16793935  0.25014613  1
  Ta  Ta97  1  0.44969170  0.17598273  0.74276961  1
  Ta  Ta98  1  0.47417756  0.50545455  0.24210315  1
  Ta  Ta99  1  0.47030795  0.50619684  0.76644707  1
  Ta  Ta100  1  0.50625980  0.79628011  0.24996531  1
  Ta  Ta101  1  0.50002604  0.79107635  0.75566362  1
  Ta  Ta102  1  0.80935797  0.17357953  0.23923936  1
  Ta  Ta103  1  0.80287971  0.16893268  0.76374951  1
  Ta  Ta104  1  0.83021939  0.46097684  0.25007069  1
  Ta  Ta105  1  0.85887823  0.48458159  0.74126807  1
  Ta  Ta106  1  0.77875502  0.83711861  0.26873281  1
  Ta  Ta107  1  0.79107615  0.83615335  0.73632172  1
  Ta  Ta108  1  0.03863431  -0.00502663  0.24574791  1
  Ta  Ta109  1  0.04557804  -0.00334541  0.75533253  1
  Ta  Ta110  1  -0.01110056  0.36330118  0.25594574  1
  Ta  Ta111  1  -0.00153222  0.38406172  0.74240797  1
  Ta  Ta112  1  0.03628996  0.66908185  0.24918174  1
  Ta  Ta113  1  0.00688112  0.62013211  0.74021768  1
  Ta  Ta114  1  0.32794165  0.03475072  0.24710586  1
  Ta  Ta115  1  0.30658956  0.01551570  0.75556123  1
  Ta  Ta116  1  0.35445468  0.32047050  0.25340980  1
  Ta  Ta117  1  0.36080158  0.33078107  0.74823080  1
  Ta  Ta118  1  0.38307031  0.65942601  0.24645489  1
  Ta  Ta119  1  0.37758794  0.66106789  0.75848511  1
  Ta  Ta120  1  0.68811310  -0.00179321  0.26216870  1
  Ta  Ta121  1  0.69384050  0.00121815  0.74005305  1
  Ta  Ta122  1  0.71917943  0.33251223  0.24679638  1
  Ta  Ta123  1  0.71772987  0.32814716  0.75466027  1
  Ta  Ta124  1  0.66677242  0.70266474  0.25393288  1
  Ta  Ta125  1  0.66894120  0.70299196  0.74552369  1
  Ta  Ta126  1  -0.00099190  -0.05962141  0.00002850  1
  Ta  Ta127  1  0.00322666  0.04689983  0.50041609  1
  Ta  Ta128  1  0.04035767  0.33255732  -0.00038683  1
  Ta  Ta129  1  0.00817846  0.28334750  0.49672289  1
  Ta  Ta130  1  -0.01078987  0.71300675  0.00679540  1
  Ta  Ta131  1  0.05808616  0.67782652  0.49781674  1
  Ta  Ta132  1  0.37376609  -0.00429353  0.00088845  1
  Ta  Ta133  1  0.34784618  -0.02639756  0.50456304  1
  Ta  Ta134  1  0.30366765  0.35173097  -0.00657245  1
  Ta  Ta135  1  0.39263144  0.33711453  0.50829998  1
  Ta  Ta136  1  0.35983698  0.66066774  -0.00979512  1
  Ta  Ta137  1  0.32392279  0.68775454  0.50837620  1
  Ta  Ta138  1  0.64776080  0.02991953  -0.00871839  1
  Ta  Ta139  1  0.71920989  0.00468172  0.51098916  1
  Ta  Ta140  1  0.69177969  0.31690700  -0.01146931  1
  Ta  Ta141  1  0.66615213  0.36668844  0.50597589  1
  Ta  Ta142  1  0.71663489  0.66609074  0.00051483  1
  Ta  Ta143  1  0.69674815  0.66445672  0.50306140  1
  N  N144  1  0.65905545  0.01358603  0.61634304  1
  N  N145  1  0.33646092  0.00081242  0.12859510  1
  N  N146  1  0.81724394  0.16045597  0.11633703  1
  N  N147  1  0.48362799  0.82916963  0.37567160  1
  N  N148  1  0.67693135  0.01117397  0.38578406  1
  N  N149  1  0.48575920  0.15913286  0.12446837  1
  N  N150  1  0.16236789  0.17062779  0.88051577  1
  N  N151  1  -0.00148486  0.67323155  0.12979843  1
  N  N152  1  0.00131335  0.33269996  0.37841918  1
  N  N153  1  0.16903473  0.82589741  0.37035253  1
  N  N154  1  0.84050945  0.15805034  0.88259996  1
  N  N155  1  0.33404585  -0.00198514  0.62486379  1
  N  N156  1  0.82719900  0.82793252  0.86782823  1
  N  N157  1  0.83207864  0.49974206  0.62025077  1
  N  N158  1  0.01299823  0.00785849  0.37491003  1
  N  N159  1  0.65928222  0.00792336  0.86858815  1
  N  N160  1  0.50334337  0.82484806  0.87412683  1
  N  N161  1  0.66667759  0.67271098  0.62389709  1
  N  N162  1  0.50435820  0.48882851  0.88506549  1
  N  N163  1  0.32523330  0.33619988  0.86688470  1
  N  N164  1  0.50007678  0.17272569  0.62917181  1
  N  N165  1  0.68700267  0.34046170  0.62982605  1
  N  N166  1  0.00414178  -0.01398547  0.88243742  1
  N  N167  1  0.16753745  0.51017003  0.61815610  1
  N  N168  1  0.01683787  0.00897590  0.62423955  1
  N  N169  1  0.50220794  0.48755802  0.37522279  1
  N  N170  1  0.50190710  0.82613196  0.12559048  1
  N  N171  1  0.00047787  -0.01135338  0.12467792  1
  N  N172  1  0.84928050  0.83059152  0.62928546  1
  N  N173  1  0.34315381  0.66681520  0.63115542  1
  N  N174  1  0.33429322  -0.00167013  0.87908936  1
  N  N175  1  0.83357017  0.83417436  0.37865079  1
  N  N176  1  0.48158227  0.48917066  0.11552229  1
  O  O177  1  0.01544341  0.35288732  0.86626645  1
  O  O178  1  0.15543813  0.82927302  0.87642370  1
  O  O179  1  0.83381916  0.50332368  0.87475825  1
  O  O180  1  0.48753138  0.17122435  0.37719442  1
  O  O181  1  0.16855564  0.82307662  0.11954078  1
  O  O182  1  0.68756705  0.33609642  0.37739010  1
  O  O183  1  0.84239658  0.16381504  0.63187178  1
  O  O184  1  0.14548259  0.50805941  0.37917276  1
  O  O185  1  0.16838835  0.16953422  0.12097611  1
  O  O186  1  0.33224199  0.00246455  0.37752915  1
  O  O187  1  0.65490957  0.33457831  0.86537852  1
  O  O188  1  0.33042224  0.33359784  0.12930361  1
  O  O189  1  0.48345816  0.81412830  0.62201215  1
  O  O190  1  0.01501667  0.67372880  0.62421877  1
  O  O191  1  0.50740944  0.49396349  0.63988984  1
  O  O192  1  0.82556608  0.49017193  0.12154434  1
  O  O193  1  0.14806780  0.48549818  0.87648094  1
  O  O194  1  0.15605490  0.15747522  0.36925326  1
  O  O195  1  0.33205911  0.34672839  0.61796448  1
  O  O196  1  0.81114519  0.83610932  0.13834425  1
  O  O197  1  0.31394570  0.67130385  0.86970130  1
  O  O198  1  0.14789812  0.48787117  0.12573132  1
  O  O199  1  0.00099993  0.33279979  0.61789341  1
  O  O200  1  0.35573288  0.65869479  0.37466402  1
  O  O201  1  0.36484761  0.66648735  0.11496315  1
  O  O202  1  0.00114398  0.66277133  0.86574669  1
  O  O203  1  0.70031335  0.33051781  0.11299234  1
  O  O204  1  0.17440817  0.83745300  0.63327971  1
  O  O205  1  0.69040747  0.68378975  0.12335447  1
  O  O206  1  0.66203331  0.00781768  0.13116558  1
  O  O207  1  0.65994904  0.67779101  0.37853675  1
  O  O208  1  0.15065408  0.16401346  0.63276272  1
  O  O209  1  0.01268917  0.33660218  0.13269012  1
  O  O210  1  0.47913904  0.15779684  0.86893123  1
  O  O211  1  0.35753902  0.33517214  0.37874063  1
  O  O212  1  0.83682720  0.16362242  0.37626520  1
  O  O213  1  0.69179990  0.66862626  0.87399647  1
  O  O214  1  0.82595552  0.48491358  0.37683371  1
  O  O215  1  0.00742102  0.67602127  0.38134779  1
