# generated using pymatgen
data_Sr24Ta24N11O13
_symmetry_space_group_name_H-M   'P 1'
_cell_length_a   16.83503542
_cell_length_b   16.77797367
_cell_length_c   15.76148299
_cell_angle_alpha   90.18368548
_cell_angle_beta   90.14966540
_cell_angle_gamma   90.07194041
_symmetry_Int_Tables_number   1
_chemical_formula_structural   Sr24Ta24N11O13
_chemical_formula_sum   'Sr72 Ta72 N33 O39'
_cell_volume   4451.91188867
_cell_formula_units_Z   3
loop_
 _symmetry_equiv_pos_site_id
 _symmetry_equiv_pos_as_xyz
  1  'x, y, z'
loop_
 _atom_site_type_symbol
 _atom_site_label
 _atom_site_symmetry_multiplicity
 _atom_site_fract_x
 _atom_site_fract_y
 _atom_site_fract_z
 _atom_site_occupancy
  Sr  Sr0  1  0.00389387  0.16525252  0.09715056  1
  Sr  Sr1  1  -0.00541055  0.17070607  0.59960681  1
  Sr  Sr2  1  -0.00768988  0.51117461  0.11229684  1
  Sr  Sr3  1  -0.00005153  0.49480246  0.66628893  1
  Sr  Sr4  1  -0.01631101  0.84640907  0.16683704  1
  Sr  Sr5  1  -0.01196777  0.83155396  0.60777077  1
  Sr  Sr6  1  0.31861059  0.16578381  0.15749033  1
  Sr  Sr7  1  0.33805787  0.17022819  0.62081738  1
  Sr  Sr8  1  0.33232246  0.49965620  0.12958200  1
  Sr  Sr9  1  0.29647037  0.50321064  0.58697976  1
  Sr  Sr10  1  0.31184098  0.83936082  0.11417491  1
  Sr  Sr11  1  0.32907639  0.82331785  0.63670432  1
  Sr  Sr12  1  0.67508327  0.17822835  0.11474538  1
  Sr  Sr13  1  0.68183362  0.16900995  0.66705792  1
  Sr  Sr14  1  0.64443513  0.51245570  0.14718995  1
  Sr  Sr15  1  0.66260597  0.48983718  0.60507148  1
  Sr  Sr16  1  0.64990215  0.82528523  0.09537371  1
  Sr  Sr17  1  0.66045359  0.84530430  0.62925613  1
  Sr  Sr18  1  0.16316184  0.00435920  0.11558636  1
  Sr  Sr19  1  0.18973667  -0.00503395  0.67047580  1
  Sr  Sr20  1  0.18830476  0.34368936  0.16888130  1
  Sr  Sr21  1  0.17318758  0.31841967  0.61341699  1
  Sr  Sr22  1  0.17637197  0.65894407  0.08772920  1
  Sr  Sr23  1  0.16215399  0.66748294  0.62643555  1
  Sr  Sr24  1  0.51948011  0.01870527  0.12550988  1
  Sr  Sr25  1  0.49317295  -0.01127478  0.57605741  1
  Sr  Sr26  1  0.49852810  0.34377741  0.08610393  1
  Sr  Sr27  1  0.51430842  0.32422194  0.64201756  1
  Sr  Sr28  1  0.49709226  0.67808544  0.14901148  1
  Sr  Sr29  1  0.52220381  0.66530143  0.64328123  1
  Sr  Sr30  1  0.83765316  -0.00701156  0.16083333  1
  Sr  Sr31  1  0.83396809  -0.00514190  0.61930211  1
  Sr  Sr32  1  0.83989149  0.32767788  0.12179056  1
  Sr  Sr33  1  0.84549012  0.33191416  0.61476562  1
  Sr  Sr34  1  0.84554576  0.66933427  0.12401725  1
  Sr  Sr35  1  0.84688431  0.64796121  0.60909611  1
  Sr  Sr36  1  -0.00586233  0.17743928  0.40600354  1
  Sr  Sr37  1  0.00391414  0.16303314  0.89975735  1
  Sr  Sr38  1  -0.01166312  0.48714488  0.32764070  1
  Sr  Sr39  1  -0.00957825  0.50158919  0.88239069  1
  Sr  Sr40  1  -0.00027071  0.82414129  0.38372965  1
  Sr  Sr41  1  -0.01792911  0.85679557  0.85147864  1
  Sr  Sr42  1  0.34491154  0.17010012  0.38543667  1
  Sr  Sr43  1  0.31784528  0.17588011  0.84148576  1
  Sr  Sr44  1  0.31805303  0.50177507  0.36784807  1
  Sr  Sr45  1  0.33020020  0.49536889  0.91311649  1
  Sr  Sr46  1  0.33086068  0.82693440  0.37746255  1
  Sr  Sr47  1  0.31008583  0.83052619  0.86924368  1
  Sr  Sr48  1  0.68395293  0.16086674  0.32961947  1
  Sr  Sr49  1  0.66866212  0.17945701  0.88574108  1
  Sr  Sr50  1  0.66272871  0.49824437  0.39379705  1
  Sr  Sr51  1  0.62662573  0.50391553  0.83654536  1
  Sr  Sr52  1  0.64257631  0.85433291  0.40223765  1
  Sr  Sr53  1  0.66666361  0.82685450  0.87411308  1
  Sr  Sr54  1  0.17946598  -0.01452020  0.33180244  1
  Sr  Sr55  1  0.16545463  0.00918667  0.89114332  1
  Sr  Sr56  1  0.17509852  0.32852973  0.38376646  1
  Sr  Sr57  1  0.17293224  0.33215626  0.84740503  1
  Sr  Sr58  1  0.17751636  0.67610900  0.41514923  1
  Sr  Sr59  1  0.16694127  0.65875109  0.87679342  1
  Sr  Sr60  1  0.50939754  0.02691995  0.36768607  1
  Sr  Sr61  1  0.52888541  -0.00240966  0.91507553  1
  Sr  Sr62  1  0.51528845  0.33924958  0.41228356  1
  Sr  Sr63  1  0.49479549  0.32299932  0.86657797  1
  Sr  Sr64  1  0.50488671  0.65350716  0.35496226  1
  Sr  Sr65  1  0.50514761  0.68486006  0.84873958  1
  Sr  Sr66  1  0.84176091  -0.01044070  0.38590029  1
  Sr  Sr67  1  0.82614974  -0.00804178  0.83537965  1
  Sr  Sr68  1  0.82907742  0.33391574  0.36483248  1
  Sr  Sr69  1  0.85473381  0.32690437  0.89574337  1
  Sr  Sr70  1  0.85505941  0.65956267  0.36110419  1
  Sr  Sr71  1  0.84009754  0.66012572  0.90112965  1
  Ta  Ta72  1  0.18174307  0.20254241  0.00756424  1
  Ta  Ta73  1  0.17258622  0.11898692  0.50126148  1
  Ta  Ta74  1  0.16185956  0.46060287  0.00984857  1
  Ta  Ta75  1  0.11576731  0.49593649  0.49033859  1
  Ta  Ta76  1  0.11606262  0.83641093  0.00962099  1
  Ta  Ta77  1  0.16731356  0.87172833  0.49771400  1
  Ta  Ta78  1  0.45133191  0.16510583  -0.00197536  1
  Ta  Ta79  1  0.55343655  0.17188736  0.49904784  1
  Ta  Ta80  1  0.50439600  0.53562886  -0.00033011  1
  Ta  Ta81  1  0.47054565  0.51119872  0.50424917  1
  Ta  Ta82  1  0.47097033  0.82231535  0.00142624  1
  Ta  Ta83  1  0.48773650  0.79552898  0.50563261  1
  Ta  Ta84  1  0.83338071  0.11747859  0.00283961  1
  Ta  Ta85  1  0.79913052  0.16566436  0.50134341  1
  Ta  Ta86  1  0.77649899  0.49736395  -0.00579476  1
  Ta  Ta87  1  0.86849337  0.49336954  0.49593892  1
  Ta  Ta88  1  0.84294749  0.85364260  0.00675573  1
  Ta  Ta89  1  0.80729196  0.80456993  0.49554046  1
  Ta  Ta90  1  0.12936327  0.16674523  0.25256127  1
  Ta  Ta91  1  0.12869420  0.16566838  0.74405127  1
  Ta  Ta92  1  0.16196696  0.54216501  0.25278276  1
  Ta  Ta93  1  0.19390537  0.50015678  0.75211452  1
  Ta  Ta94  1  0.16614424  0.79635373  0.24964734  1
  Ta  Ta95  1  0.13622453  0.82066477  0.75190461  1
  Ta  Ta96  1  0.50292854  0.21060272  0.25223871  1
  Ta  Ta97  1  0.50056547  0.12008211  0.74722534  1
  Ta  Ta98  1  0.49278098  0.46355344  0.25924186  1
  Ta  Ta99  1  0.44348703  0.50377962  0.74229137  1
  Ta  Ta100  1  0.49623785  0.85906470  0.24831761  1
  Ta  Ta101  1  0.49799142  0.87617709  0.74754410  1
  Ta  Ta102  1  0.87450056  0.16505647  0.24607038  1
  Ta  Ta103  1  0.86749467  0.17346730  0.74766118  1
  Ta  Ta104  1  0.80095652  0.50399268  0.25097793  1
  Ta  Ta105  1  0.81068343  0.49801348  0.74605798  1
  Ta  Ta106  1  0.78019244  0.82210029  0.24856481  1
  Ta  Ta107  1  0.82840828  0.79001003  0.74916997  1
  Ta  Ta108  1  0.00731431  0.04212505  0.25026314  1
  Ta  Ta109  1  0.00784938  0.03283792  0.75198755  1
  Ta  Ta110  1  0.00454356  0.29692542  0.25073343  1
  Ta  Ta111  1  0.00219485  0.30145296  0.75361912  1
  Ta  Ta112  1  0.04336852  0.66694411  0.25003326  1
  Ta  Ta113  1  -0.00581414  0.68595568  0.74784183  1
  Ta  Ta114  1  0.36221853  -0.01631580  0.25030288  1
  Ta  Ta115  1  0.38231032  -0.00075762  0.74714469  1
  Ta  Ta116  1  0.38053105  0.33717474  0.25042878  1
  Ta  Ta117  1  0.33498553  0.37506828  0.74841366  1
  Ta  Ta118  1  0.30099762  0.67011193  0.25175969  1
  Ta  Ta119  1  0.32767629  0.62634378  0.75140425  1
  Ta  Ta120  1  0.66657426  -0.03301047  0.25227058  1
  Ta  Ta121  1  0.62613066  0.00173828  0.74194689  1
  Ta  Ta122  1  0.63884029  0.34467761  0.25487434  1
  Ta  Ta123  1  0.70557271  0.34782517  0.74678346  1
  Ta  Ta124  1  0.68426125  0.68275790  0.24822882  1
  Ta  Ta125  1  0.71110552  0.66430418  0.74990685  1
  Ta  Ta126  1  -0.02601876  -0.01812206  0.00481767  1
  Ta  Ta127  1  0.05108810  -0.00098159  0.50066993  1
  Ta  Ta128  1  0.04722517  0.33666723  0.00243404  1
  Ta  Ta129  1  0.00208851  0.37273754  0.49502053  1
  Ta  Ta130  1  0.00359962  0.71555157  0.00708396  1
  Ta  Ta131  1  0.00344305  0.62205526  0.49463702  1
  Ta  Ta132  1  0.35230073  0.02405240  -0.00342230  1
  Ta  Ta133  1  0.29934712  -0.00686848  0.50416468  1
  Ta  Ta134  1  0.31577822  0.31269907  0.00117505  1
  Ta  Ta135  1  0.35511523  0.34714941  0.50692874  1
  Ta  Ta136  1  0.36878195  0.67350075  -0.00479121  1
  Ta  Ta137  1  0.36830028  0.66420657  0.49996485  1
  Ta  Ta138  1  0.71755966  -0.00601084  -0.00124984  1
  Ta  Ta139  1  0.67294791  0.04371350  0.49993101  1
  Ta  Ta140  1  0.67212959  0.37384309  -0.00413273  1
  Ta  Ta141  1  0.67966352  0.28852917  0.50013917  1
  Ta  Ta142  1  0.65159590  0.63698921  -0.00922260  1
  Ta  Ta143  1  0.67669144  0.68571347  0.49783586  1
  N  N144  1  0.00293594  0.66055416  0.62843840  1
  N  N145  1  0.66881441  0.32983560  0.37275862  1
  N  N146  1  0.66758351  0.66102462  0.87042918  1
  N  N147  1  0.33524718  0.32941978  0.62565407  1
  N  N148  1  0.82522137  0.49874106  0.37162931  1
  N  N149  1  0.51660152  0.18083914  0.37233454  1
  N  N150  1  0.16561487  0.49760842  0.12657346  1
  N  N151  1  0.00186480  0.00641560  0.12580388  1
  N  N152  1  0.00913421  0.66434447  0.37737324  1
  N  N153  1  0.33701158  0.66134298  0.87466675  1
  N  N154  1  0.49853467  0.83158637  0.62432264  1
  N  N155  1  0.83374070  0.49381108  0.62415935  1
  N  N156  1  0.01228239  0.33005103  0.87483058  1
  N  N157  1  0.16334770  0.83453214  0.37785310  1
  N  N158  1  0.66344487  0.00420247  0.62261342  1
  N  N159  1  0.33520770  0.66460049  0.37254847  1
  N  N160  1  0.15743608  0.49943938  0.37082067  1
  N  N161  1  0.33499799  0.33794352  0.87394020  1
  N  N162  1  0.34371499  0.33548750  0.12650941  1
  N  N163  1  0.16515012  0.17374173  0.12816415  1
  N  N164  1  0.33963482  -0.00497861  0.62244914  1
  N  N165  1  0.83911233  0.15865035  0.12653573  1
  N  N166  1  0.82166964  0.82964225  0.12572947  1
  N  N167  1  0.68210347  0.32924788  0.62889078  1
  N  N168  1  0.49389520  0.84034477  0.12365557  1
  N  N169  1  0.67209623  0.00437511  0.36906618  1
  N  N170  1  0.83881980  0.16187766  0.62806863  1
  N  N171  1  0.00315828  0.33159105  0.37156667  1
  N  N172  1  0.49184474  0.49907831  0.38169217  1
  N  N173  1  0.15181253  0.83789676  0.12988743  1
  N  N174  1  0.00362346  0.67393676  0.12371150  1
  N  N175  1  -0.00179579  0.00882066  0.87295104  1
  N  N176  1  0.16631924  0.15747854  0.62611085  1
  O  O177  1  0.34177881  0.00561119  0.87418905  1
  O  O178  1  0.51198844  0.16290754  0.62717974  1
  O  O179  1  0.67509573  0.66586469  0.62538767  1
  O  O180  1  0.49510896  0.50952867  0.12682366  1
  O  O181  1  0.49710376  0.84450988  0.87560804  1
  O  O182  1  0.67054860  0.34373521  0.87302716  1
  O  O183  1  0.00358899  0.33605376  0.62330389  1
  O  O184  1  0.17716474  0.49254879  0.87844821  1
  O  O185  1  0.14990143  0.83363777  0.62681276  1
  O  O186  1  0.35666218  0.00377335  0.12691813  1
  O  O187  1  0.82916386  0.81145728  0.62051407  1
  O  O188  1  0.84543928  0.15282793  0.87921413  1
  O  O189  1  0.14083564  0.83702679  0.87566683  1
  O  O190  1  0.34276386  0.33005179  0.37894045  1
  O  O191  1  0.80430003  0.50668886  0.11868075  1
  O  O192  1  0.49268170  0.82721110  0.38039951  1
  O  O193  1  0.32477773  0.66019367  0.62207783  1
  O  O194  1  0.16448503  0.16928997  0.87892563  1
  O  O195  1  0.66492918  0.67054067  0.37593741  1
  O  O196  1  0.67422459  -0.01514513  0.11891942  1
  O  O197  1  0.47538405  0.16375709  0.86963216  1
  O  O198  1  0.50350820  0.50591533  0.63228883  1
  O  O199  1  0.67466937  -0.00707132  0.87399364  1
  O  O200  1  0.83992219  0.16413962  0.37517023  1
  O  O201  1  0.81836263  0.82678589  0.37343076  1
  O  O202  1  0.47672019  0.17792054  0.12118686  1
  O  O203  1  0.33872215  -0.01049135  0.37477431  1
  O  O204  1  0.66822612  0.66842788  0.12232149  1
  O  O205  1  0.82917693  0.50303193  0.88151023  1
  O  O206  1  0.16513298  0.16116115  0.37852974  1
  O  O207  1  0.48119617  0.51688664  0.87404058  1
  O  O208  1  -0.00387650  0.67100418  0.88517919  1
  O  O209  1  0.02252290  0.00128824  0.62266580  1
  O  O210  1  0.00408338  0.32868939  0.12329657  1
  O  O211  1  0.33594787  0.66733875  0.12576570  1
  O  O212  1  0.65660340  0.35438037  0.11922240  1
  O  O213  1  0.83018604  0.81783544  0.87447058  1
  O  O214  1  0.15477104  0.50035713  0.62936823  1
  O  O215  1  0.02494539  0.00289298  0.37324016  1
