# generated using pymatgen
data_Sr24Ta24N11O13
_symmetry_space_group_name_H-M   'P 1'
_cell_length_a   16.80435839
_cell_length_b   16.82547005
_cell_length_c   15.73462694
_cell_angle_alpha   90.06207296
_cell_angle_beta   90.22922565
_cell_angle_gamma   90.08691583
_symmetry_Int_Tables_number   1
_chemical_formula_structural   Sr24Ta24N11O13
_chemical_formula_sum   'Sr72 Ta72 N33 O39'
_cell_volume   4448.78439313
_cell_formula_units_Z   3
loop_
 _symmetry_equiv_pos_site_id
 _symmetry_equiv_pos_as_xyz
  1  'x, y, z'
loop_
 _atom_site_type_symbol
 _atom_site_label
 _atom_site_symmetry_multiplicity
 _atom_site_fract_x
 _atom_site_fract_y
 _atom_site_fract_z
 _atom_site_occupancy
  Sr  Sr0  1  -0.00570164  0.19523945  0.13367675  1
  Sr  Sr1  1  -0.00129955  0.17258222  0.58643092  1
  Sr  Sr2  1  0.00926899  0.52315059  0.12121180  1
  Sr  Sr3  1  -0.00314647  0.49887164  0.62301607  1
  Sr  Sr4  1  -0.00085131  0.83474012  0.12607792  1
  Sr  Sr5  1  -0.00128955  0.87357143  0.63895915  1
  Sr  Sr6  1  0.34997989  0.16546761  0.08366963  1
  Sr  Sr7  1  0.33330987  0.16865099  0.62951351  1
  Sr  Sr8  1  0.33061689  0.51467074  0.12146433  1
  Sr  Sr9  1  0.34950921  0.49826165  0.66788560  1
  Sr  Sr10  1  0.35033566  0.84760929  0.16901121  1
  Sr  Sr11  1  0.33236693  0.82608923  0.61283607  1
  Sr  Sr12  1  0.66509687  0.16045825  0.15432495  1
  Sr  Sr13  1  0.67230543  0.18249580  0.64311546  1
  Sr  Sr14  1  0.67471176  0.51230737  0.14066469  1
  Sr  Sr15  1  0.64780926  0.49869404  0.57811390  1
  Sr  Sr16  1  0.66335578  0.85376717  0.08901827  1
  Sr  Sr17  1  0.67423510  0.83829542  0.64058958  1
  Sr  Sr18  1  0.17365387  -0.01501234  0.13151500  1
  Sr  Sr19  1  0.18391932  -0.00582384  0.66030188  1
  Sr  Sr20  1  0.16666804  0.33318168  0.14399521  1
  Sr  Sr21  1  0.14842042  0.31806306  0.58197852  1
  Sr  Sr22  1  0.15867995  0.66012490  0.09063074  1
  Sr  Sr23  1  0.15546861  0.64320160  0.62621755  1
  Sr  Sr24  1  0.50605612  0.00756516  0.13376602  1
  Sr  Sr25  1  0.48878813  -0.01837020  0.58097886  1
  Sr  Sr26  1  0.49211562  0.34074586  0.08913659  1
  Sr  Sr27  1  0.49090190  0.32533031  0.63436583  1
  Sr  Sr28  1  0.48568397  0.66943378  0.14907910  1
  Sr  Sr29  1  0.48784693  0.66293246  0.64013551  1
  Sr  Sr30  1  0.84278733  -0.02028714  0.09119046  1
  Sr  Sr31  1  0.82184556  -0.00246492  0.63442282  1
  Sr  Sr32  1  0.82296904  0.32615141  0.11707573  1
  Sr  Sr33  1  0.83223824  0.32536019  0.65890247  1
  Sr  Sr34  1  0.83487858  0.66344424  0.15378157  1
  Sr  Sr35  1  0.83047607  0.63811522  0.61905719  1
  Sr  Sr36  1  0.01953335  0.17786404  0.36284039  1
  Sr  Sr37  1  -0.01379625  0.19466501  0.90813186  1
  Sr  Sr38  1  0.01320255  0.51940936  0.40603627  1
  Sr  Sr39  1  -0.01618988  0.51019571  0.83773373  1
  Sr  Sr40  1  -0.00930396  0.84293799  0.35731966  1
  Sr  Sr41  1  0.01209045  0.85224156  0.89185831  1
  Sr  Sr42  1  0.34936418  0.18242495  0.41285634  1
  Sr  Sr43  1  0.33352384  0.15890339  0.86939396  1
  Sr  Sr44  1  0.33242412  0.49507992  0.33891170  1
  Sr  Sr45  1  0.34290240  0.51442646  0.88161914  1
  Sr  Sr46  1  0.34767691  0.82373222  0.38532940  1
  Sr  Sr47  1  0.33582216  0.83800290  0.84759644  1
  Sr  Sr48  1  0.66644884  0.16905281  0.35687155  1
  Sr  Sr49  1  0.68301870  0.17130058  0.83787991  1
  Sr  Sr50  1  0.66583635  0.50330543  0.36744298  1
  Sr  Sr51  1  0.66836589  0.47371380  0.92340090  1
  Sr  Sr52  1  0.67976344  0.86375139  0.41430814  1
  Sr  Sr53  1  0.66246859  0.83565305  0.87094855  1
  Sr  Sr54  1  0.16749114  -0.01390804  0.33388228  1
  Sr  Sr55  1  0.18053851  -0.00762021  0.86706109  1
  Sr  Sr56  1  0.17116150  0.33545265  0.36650444  1
  Sr  Sr57  1  0.15274006  0.31189074  0.89873663  1
  Sr  Sr58  1  0.16413989  0.67179922  0.41523494  1
  Sr  Sr59  1  0.14949044  0.64093818  0.87832711  1
  Sr  Sr60  1  0.49925751  -0.00323359  0.36758898  1
  Sr  Sr61  1  0.49990038  -0.00542762  0.91296513  1
  Sr  Sr62  1  0.50726276  0.32978665  0.41008611  1
  Sr  Sr63  1  0.48115945  0.33592447  0.86482177  1
  Sr  Sr64  1  0.49016034  0.65012752  0.36098286  1
  Sr  Sr65  1  0.49290422  0.67813694  0.85657467  1
  Sr  Sr66  1  0.85273668  -0.00683602  0.41510992  1
  Sr  Sr67  1  0.82737441  -0.01607141  0.86434955  1
  Sr  Sr68  1  0.81952686  0.30710714  0.33291945  1
  Sr  Sr69  1  0.83309020  0.33612169  0.87659221  1
  Sr  Sr70  1  0.84073893  0.65748657  0.37163274  1
  Sr  Sr71  1  0.81852226  0.65114894  0.86276893  1
  Ta  Ta72  1  0.15973283  0.14128215  0.00527213  1
  Ta  Ta73  1  0.17635971  0.12400454  0.49011532  1
  Ta  Ta74  1  0.16632668  0.47195076  0.00377513  1
  Ta  Ta75  1  0.21081609  0.49336487  0.49832710  1
  Ta  Ta76  1  0.21385801  0.83065746  0.00232133  1
  Ta  Ta77  1  0.15305005  0.85814250  0.49988641  1
  Ta  Ta78  1  0.54001111  0.16869125  -0.00526932  1
  Ta  Ta79  1  0.53223138  0.15638165  0.50175782  1
  Ta  Ta80  1  0.50715419  0.53424535  0.00107977  1
  Ta  Ta81  1  0.46229322  0.50072466  0.50314621  1
  Ta  Ta82  1  0.47386611  0.82077411  0.00097783  1
  Ta  Ta83  1  0.52091294  0.79812120  0.49810348  1
  Ta  Ta84  1  0.80418367  0.15869375  0.00287452  1
  Ta  Ta85  1  0.81699894  0.18474672  0.50237790  1
  Ta  Ta86  1  0.85602785  0.50794805  -0.00478927  1
  Ta  Ta87  1  0.82610071  0.45198681  0.49745681  1
  Ta  Ta88  1  0.83306199  0.79194839  0.00256801  1
  Ta  Ta89  1  0.84465084  0.80561176  0.50738790  1
  Ta  Ta90  1  0.22224670  0.16562235  0.25357004  1
  Ta  Ta91  1  0.14125452  0.17868882  0.74561538  1
  Ta  Ta92  1  0.15405196  0.52913206  0.25461749  1
  Ta  Ta93  1  0.16526575  0.45564489  0.74597450  1
  Ta  Ta94  1  0.16522922  0.78786384  0.24958558  1
  Ta  Ta95  1  0.16197620  0.80180142  0.75094091  1
  Ta  Ta96  1  0.48101258  0.19226402  0.24299714  1
  Ta  Ta97  1  0.49929067  0.11500827  0.74900496  1
  Ta  Ta98  1  0.50258198  0.45829562  0.25447697  1
  Ta  Ta99  1  0.54524184  0.49921829  0.75290228  1
  Ta  Ta100  1  0.54961327  0.83496689  0.25874137  1
  Ta  Ta101  1  0.49981500  0.87067303  0.75121738  1
  Ta  Ta102  1  0.83809099  0.11427457  0.24618757  1
  Ta  Ta103  1  0.87724424  0.15770489  0.74663550  1
  Ta  Ta104  1  0.86200582  0.48252838  0.25101214  1
  Ta  Ta105  1  0.77259373  0.49309207  0.75102573  1
  Ta  Ta106  1  0.80507228  0.84673057  0.25431314  1
  Ta  Ta107  1  0.85149813  0.80420677  0.74541871  1
  Ta  Ta108  1  -0.02548577  0.01447682  0.25044430  1
  Ta  Ta109  1  0.00812150  0.05160016  0.74941870  1
  Ta  Ta110  1  -0.00566687  0.37832014  0.25161683  1
  Ta  Ta111  1  0.01993627  0.31751664  0.74403239  1
  Ta  Ta112  1  0.02984784  0.66951485  0.25770037  1
  Ta  Ta113  1  -0.00487809  0.70389632  0.74199593  1
  Ta  Ta114  1  0.34218789  0.04747186  0.24880577  1
  Ta  Ta115  1  0.37559380  -0.00060510  0.74697803  1
  Ta  Ta116  1  0.35681078  0.31364370  0.25487101  1
  Ta  Ta117  1  0.27802907  0.32946258  0.74293829  1
  Ta  Ta118  1  0.28647957  0.67134964  0.25449342  1
  Ta  Ta119  1  0.30075763  0.67829014  0.74853387  1
  Ta  Ta120  1  0.69865360  -0.01555554  0.25064630  1
  Ta  Ta121  1  0.62382162  0.00196923  0.74838362  1
  Ta  Ta122  1  0.62578523  0.33683059  0.24910537  1
  Ta  Ta123  1  0.65722542  0.36977382  0.74295297  1
  Ta  Ta124  1  0.66589915  0.72101862  0.25384206  1
  Ta  Ta125  1  0.66152014  0.62009495  0.74997486  1
  Ta  Ta126  1  0.02699784  0.03299684  0.00291454  1
  Ta  Ta127  1  0.05439169  0.00097012  0.49207220  1
  Ta  Ta128  1  -0.00265704  0.38152686  -0.00694911  1
  Ta  Ta129  1  -0.05201904  0.33883215  0.49777888  1
  Ta  Ta130  1  -0.03335092  0.67125105  0.00117472  1
  Ta  Ta131  1  -0.00728416  0.70953306  0.51174287  1
  Ta  Ta132  1  0.32879671  -0.03066465  0.00216905  1
  Ta  Ta133  1  0.29502368  -0.00220711  0.49731767  1
  Ta  Ta134  1  0.31129879  0.34946104  -0.00229629  1
  Ta  Ta135  1  0.33060328  0.37046008  0.50360694  1
  Ta  Ta136  1  0.33768909  0.70364119  0.00788395  1
  Ta  Ta137  1  0.33674884  0.62918101  0.50050940  1
  Ta  Ta138  1  0.67257994  0.04484638  -0.01017230  1
  Ta  Ta139  1  0.66550052  0.04310104  0.50749859  1
  Ta  Ta140  1  0.66490005  0.28213908  -0.00405236  1
  Ta  Ta141  1  0.69505129  0.32046693  0.49727518  1
  Ta  Ta142  1  0.64987275  0.66827549  0.00234935  1
  Ta  Ta143  1  0.66000350  0.68825207  0.50013944  1
  N  N144  1  0.32670665  0.66352653  0.37649165  1
  N  N145  1  0.17246560  0.50068911  0.37938220  1
  N  N146  1  -0.00389346  0.34980355  0.87166149  1
  N  N147  1  0.50758896  0.50629165  0.88228679  1
  N  N148  1  0.83775253  0.16559924  0.62377124  1
  N  N149  1  0.50419229  0.17186993  0.12150343  1
  N  N150  1  0.83039654  0.15525126  0.12498261  1
  N  N151  1  0.00390687  0.67954800  0.38235912  1
  N  N152  1  0.32468451  0.66274918  0.62838215  1
  N  N153  1  0.31997831  0.32797747  0.62661832  1
  N  N154  1  0.33819298  0.33336039  0.37639391  1
  N  N155  1  0.34256409  0.00749323  0.12862805  1
  N  N156  1  0.32652751  0.67638095  0.12815847  1
  N  N157  1  -0.01042242  0.33490902  0.61874084  1
  N  N158  1  0.82800145  0.82281660  0.12058209  1
  N  N159  1  0.01031987  0.00756337  0.37331235  1
  N  N160  1  0.66309780  0.33145442  0.36694078  1
  N  N161  1  0.82831776  0.84136572  0.63029797  1
  N  N162  1  0.18042040  0.16778111  0.37193838  1
  N  N163  1  0.66726468  0.00446420  0.87372139  1
  N  N164  1  0.49507833  0.83778555  0.88077078  1
  N  N165  1  0.34039819  -0.00240131  0.87888881  1
  N  N166  1  0.50807652  0.83585405  0.37891094  1
  N  N167  1  0.16905105  0.49835780  0.12554090  1
  N  N168  1  0.49864232  0.48951259  0.37422178  1
  N  N169  1  0.50036712  0.49745070  0.62292178  1
  N  N170  1  0.83259067  0.83076519  0.37821746  1
  N  N171  1  0.66099628  0.33924965  0.61872248  1
  N  N172  1  0.82037825  0.49541858  0.87763649  1
  N  N173  1  0.33323418  -0.00505025  0.61625827  1
  N  N174  1  -0.00303376  0.67607404  0.12216472  1
  N  N175  1  -0.00004006  0.65661673  0.62554342  1
  N  N176  1  0.66462957  0.00510960  0.62364202  1
  O  O177  1  0.65974679  0.65585732  0.87776045  1
  O  O178  1  0.33904431  0.00337279  0.37337802  1
  O  O179  1  0.31607614  0.33366941  0.87241718  1
  O  O180  1  0.16034200  0.83623746  0.63024168  1
  O  O181  1  0.15785158  0.16031734  0.87395551  1
  O  O182  1  0.18208297  0.15385345  0.12715970  1
  O  O183  1  -0.00441058  0.35110252  0.37652751  1
  O  O184  1  0.01403528  0.01847406  0.12796890  1
  O  O185  1  0.16460071  0.48120187  0.86803696  1
  O  O186  1  0.32114909  0.66908358  0.87699501  1
  O  O187  1  0.50620963  0.83067454  0.62144036  1
  O  O188  1  0.83657932  0.50108717  0.12724288  1
  O  O189  1  0.50550963  0.15917061  0.62606933  1
  O  O190  1  0.65857474  0.69254829  0.12442262  1
  O  O191  1  0.66192266  0.31359228  0.12195757  1
  O  O192  1  0.81106599  0.48079759  0.62159613  1
  O  O193  1  0.16648918  0.81535834  0.88170007  1
  O  O194  1  0.02238821  0.02328018  0.62334240  1
  O  O195  1  0.49665387  0.15673315  0.87305643  1
  O  O196  1  -0.00166102  0.67651298  0.87211112  1
  O  O197  1  0.66451744  0.32237969  0.87372350  1
  O  O198  1  0.00251068  0.35861844  0.12618293  1
  O  O199  1  0.66149826  0.65746552  0.62232541  1
  O  O200  1  0.50595439  0.83167601  0.13381545  1
  O  O201  1  0.83891829  0.16247786  0.86966635  1
  O  O202  1  0.50886602  0.50449397  0.12804777  1
  O  O203  1  0.67828459  0.69038057  0.37626877  1
  O  O204  1  0.82530243  0.47154193  0.36812987  1
  O  O205  1  0.82219632  0.82398253  0.87028887  1
  O  O206  1  0.15989327  0.16372627  0.62001585  1
  O  O207  1  0.68262644  0.00998811  0.37616659  1
  O  O208  1  0.01326062  0.03006709  0.87822328  1
  O  O209  1  0.15955504  0.83342202  0.37521369  1
  O  O210  1  0.68130149  0.00205063  0.12297248  1
  O  O211  1  0.33106327  0.33753068  0.12098063  1
  O  O212  1  0.82617006  0.15480754  0.36920916  1
  O  O213  1  0.15668323  0.47858990  0.61986102  1
  O  O214  1  0.17139180  0.82542438  0.12387376  1
  O  O215  1  0.51145944  0.16859043  0.37603012  1
