# generated using pymatgen
data_Sr24Ta24N11O13
_symmetry_space_group_name_H-M   'P 1'
_cell_length_a   16.78163924
_cell_length_b   16.72477444
_cell_length_c   15.71367837
_cell_angle_alpha   89.85476352
_cell_angle_beta   90.09999282
_cell_angle_gamma   89.69190687
_symmetry_Int_Tables_number   1
_chemical_formula_structural   Sr24Ta24N11O13
_chemical_formula_sum   'Sr72 Ta72 N33 O39'
_cell_volume   4410.25970071
_cell_formula_units_Z   3
loop_
 _symmetry_equiv_pos_site_id
 _symmetry_equiv_pos_as_xyz
  1  'x, y, z'
loop_
 _atom_site_type_symbol
 _atom_site_label
 _atom_site_symmetry_multiplicity
 _atom_site_fract_x
 _atom_site_fract_y
 _atom_site_fract_z
 _atom_site_occupancy
  Sr  Sr0  1  0.00728798  0.15158106  0.12634345  1
  Sr  Sr1  1  0.03133363  0.17819934  0.62141606  1
  Sr  Sr2  1  0.00290955  0.50749277  0.08257582  1
  Sr  Sr3  1  0.01505645  0.48865879  0.64136873  1
  Sr  Sr4  1  0.01191914  0.81630760  0.17860980  1
  Sr  Sr5  1  -0.00743421  0.84284858  0.61902599  1
  Sr  Sr6  1  0.37449647  0.16926290  0.14923844  1
  Sr  Sr7  1  0.33546105  0.17233371  0.62034157  1
  Sr  Sr8  1  0.34147390  0.50661265  0.12854656  1
  Sr  Sr9  1  0.34518426  0.53072219  0.64555091  1
  Sr  Sr10  1  0.33511123  0.84490137  0.11232286  1
  Sr  Sr11  1  0.33739602  0.83924642  0.58539972  1
  Sr  Sr12  1  0.68052770  0.17128465  0.09407820  1
  Sr  Sr13  1  0.70586118  0.16366802  0.62241655  1
  Sr  Sr14  1  0.68371067  0.49265596  0.16664501  1
  Sr  Sr15  1  0.65979001  0.51241035  0.61429531  1
  Sr  Sr16  1  0.67026366  0.82806838  0.11378630  1
  Sr  Sr17  1  0.64414194  0.84318577  0.67760499  1
  Sr  Sr18  1  0.15930201  -0.00333871  0.12113392  1
  Sr  Sr19  1  0.15183792  -0.02891944  0.60894547  1
  Sr  Sr20  1  0.12669952  0.32497270  0.10107683  1
  Sr  Sr21  1  0.16290056  0.32775601  0.62484608  1
  Sr  Sr22  1  0.15959609  0.65150148  0.14078870  1
  Sr  Sr23  1  0.15630382  0.65320174  0.65108621  1
  Sr  Sr24  1  0.49789254  -0.00971147  0.16707655  1
  Sr  Sr25  1  0.48315952  0.00378213  0.61210159  1
  Sr  Sr26  1  0.48950187  0.34312459  0.12674325  1
  Sr  Sr27  1  0.47684547  0.32420914  0.61641451  1
  Sr  Sr28  1  0.48357177  0.68068073  0.07394906  1
  Sr  Sr29  1  0.50732393  0.66264182  0.63412143  1
  Sr  Sr30  1  0.81941827  0.00957613  0.08057803  1
  Sr  Sr31  1  0.83401973  -0.01036604  0.63580711  1
  Sr  Sr32  1  0.82792946  0.32790985  0.14833214  1
  Sr  Sr33  1  0.81389152  0.34003578  0.63510082  1
  Sr  Sr34  1  0.82226279  0.67594035  0.13959942  1
  Sr  Sr35  1  0.84046433  0.66528874  0.58266276  1
  Sr  Sr36  1  0.00947353  0.18303333  0.34405172  1
  Sr  Sr37  1  0.03351262  0.15117331  0.91090777  1
  Sr  Sr38  1  0.01916058  0.49823140  0.41954285  1
  Sr  Sr39  1  0.00013509  0.50150114  0.87096277  1
  Sr  Sr40  1  -0.02466858  0.84044726  0.39288228  1
  Sr  Sr41  1  0.01737720  0.84111971  0.83506814  1
  Sr  Sr42  1  0.35694245  0.18121459  0.38090848  1
  Sr  Sr43  1  0.35174976  0.17300982  0.84811009  1
  Sr  Sr44  1  0.32920913  0.50995829  0.34415692  1
  Sr  Sr45  1  0.36329974  0.51608374  0.89156860  1
  Sr  Sr46  1  0.35363590  0.84026916  0.38354445  1
  Sr  Sr47  1  0.32465126  0.84234772  0.90641431  1
  Sr  Sr48  1  0.69564753  0.15687879  0.40336906  1
  Sr  Sr49  1  0.68718769  0.17566570  0.88238784  1
  Sr  Sr50  1  0.66109097  0.51407101  0.38736779  1
  Sr  Sr51  1  0.67094622  0.49901413  0.83725477  1
  Sr  Sr52  1  0.65703241  0.84259991  0.33686906  1
  Sr  Sr53  1  0.67810751  0.82045884  0.89461705  1
  Sr  Sr54  1  0.13112871  -0.01380115  0.35218667  1
  Sr  Sr55  1  0.17012357  -0.01280698  0.89782064  1
  Sr  Sr56  1  0.14869799  0.32520072  0.40167248  1
  Sr  Sr57  1  0.15657966  0.31315557  0.86784981  1
  Sr  Sr58  1  0.16918139  0.65292756  0.34846327  1
  Sr  Sr59  1  0.14614046  0.65756860  0.86173121  1
  Sr  Sr60  1  0.50416604  0.00295952  0.37786055  1
  Sr  Sr61  1  0.47919321  0.00335934  0.83588808  1
  Sr  Sr62  1  0.48311480  0.35004015  0.35015711  1
  Sr  Sr63  1  0.49250007  0.31758354  0.90623557  1
  Sr  Sr64  1  0.48645181  0.66683765  0.40941298  1
  Sr  Sr65  1  0.51952592  0.66378877  0.85716724  1
  Sr  Sr66  1  0.82704990  0.00111958  0.40947831  1
  Sr  Sr67  1  0.83248696  -0.01503169  0.86470724  1
  Sr  Sr68  1  0.81972169  0.32788995  0.36514191  1
  Sr  Sr69  1  0.81245150  0.34768692  0.84397506  1
  Sr  Sr70  1  0.81741847  0.68112909  0.36196328  1
  Sr  Sr71  1  0.83602442  0.66100148  0.91901452  1
  Ta  Ta72  1  0.22498002  0.16610918  0.00787506  1
  Ta  Ta73  1  0.17528223  0.13200805  0.48749614  1
  Ta  Ta74  1  0.19336821  0.49154235  0.00202417  1
  Ta  Ta75  1  0.20008616  0.50767404  0.50268774  1
  Ta  Ta76  1  0.14157936  0.81135376  0.00980029  1
  Ta  Ta77  1  0.15993262  0.78942453  0.49942028  1
  Ta  Ta78  1  0.50540344  0.12142664  -0.00588632  1
  Ta  Ta79  1  0.53219436  0.17891103  0.50460702  1
  Ta  Ta80  1  0.54729846  0.49619156  -0.00138905  1
  Ta  Ta81  1  0.47805837  0.48357083  0.49943506  1
  Ta  Ta82  1  0.50196543  0.88247839  -0.00324240  1
  Ta  Ta83  1  0.54141197  0.83495602  0.50618732  1
  Ta  Ta84  1  0.85612846  0.19858960  -0.00631513  1
  Ta  Ta85  1  0.87690998  0.17649210  0.50155880  1
  Ta  Ta86  1  0.80900119  0.47910300  -0.00363817  1
  Ta  Ta87  1  0.84260696  0.48102118  0.49974326  1
  Ta  Ta88  1  0.88177890  0.83224115  0.00879314  1
  Ta  Ta89  1  0.76906004  0.83583859  0.50504400  1
  Ta  Ta90  1  0.19879987  0.17461775  0.23506135  1
  Ta  Ta91  1  0.17521447  0.12585821  0.75597015  1
  Ta  Ta92  1  0.14406250  0.47127689  0.25159875  1
  Ta  Ta93  1  0.19850906  0.47791776  0.75497971  1
  Ta  Ta94  1  0.20678250  0.83181279  0.25150694  1
  Ta  Ta95  1  0.20713830  0.83204237  0.74385063  1
  Ta  Ta96  1  0.55604489  0.16965366  0.25005253  1
  Ta  Ta97  1  0.53928089  0.17446188  0.74936275  1
  Ta  Ta98  1  0.50278671  0.54611053  0.24792141  1
  Ta  Ta99  1  0.49885587  0.46023410  0.75070655  1
  Ta  Ta100  1  0.49111181  0.79539467  0.23897460  1
  Ta  Ta101  1  0.44685356  0.83125375  0.74547786  1
  Ta  Ta102  1  0.82677234  0.13759962  0.24177782  1
  Ta  Ta103  1  0.88132414  0.16154769  0.75916435  1
  Ta  Ta104  1  0.87469707  0.50108736  0.25374642  1
  Ta  Ta105  1  0.84190795  0.54135978  0.75231436  1
  Ta  Ta106  1  0.82787667  0.88154842  0.24226044  1
  Ta  Ta107  1  0.83177232  0.79513147  0.75251187  1
  Ta  Ta108  1  -0.05067622  -0.00146990  0.24713395  1
  Ta  Ta109  1  0.01071311  0.03027608  0.74825955  1
  Ta  Ta110  1  -0.00313036  0.38184228  0.25747726  1
  Ta  Ta111  1  -0.01765825  0.30616140  0.75935293  1
  Ta  Ta112  1  -0.00604434  0.60992186  0.25259143  1
  Ta  Ta113  1  -0.04679378  0.67114818  0.75450676  1
  Ta  Ta114  1  0.30603646  0.00253088  0.25690280  1
  Ta  Ta115  1  0.30726769  -0.02146155  0.74059331  1
  Ta  Ta116  1  0.27592488  0.32818253  0.24444423  1
  Ta  Ta117  1  0.33099790  0.36303134  0.75471352  1
  Ta  Ta118  1  0.35580863  0.68870380  0.24452060  1
  Ta  Ta119  1  0.33036457  0.70777930  0.75152127  1
  Ta  Ta120  1  0.69048766  0.02253090  0.25181809  1
  Ta  Ta121  1  0.64982139  0.02788590  0.74974361  1
  Ta  Ta122  1  0.65182635  0.29871609  0.24970777  1
  Ta  Ta123  1  0.62383257  0.32281849  0.75206924  1
  Ta  Ta124  1  0.61777458  0.66989620  0.24026838  1
  Ta  Ta125  1  0.71520183  0.67038560  0.75043968  1
  Ta  Ta126  1  -0.00058838  -0.05437604  0.01125543  1
  Ta  Ta127  1  -0.00242201  0.03933052  0.49683120  1
  Ta  Ta128  1  -0.04841664  0.33136745  -0.01293012  1
  Ta  Ta129  1  -0.03607110  0.32759634  0.50601800  1
  Ta  Ta130  1  0.00606964  0.71074781  0.00089771  1
  Ta  Ta131  1  0.02680042  0.67323777  0.50136835  1
  Ta  Ta132  1  0.35603803  0.02337551  0.00836805  1
  Ta  Ta133  1  0.29802207  0.01600489  0.47783788  1
  Ta  Ta134  1  0.30555634  0.33354765  0.00571385  1
  Ta  Ta135  1  0.32656259  0.37575970  0.49755608  1
  Ta  Ta136  1  0.28777940  0.66695745  0.00310623  1
  Ta  Ta137  1  0.30061995  0.65971611  0.49363093  1
  Ta  Ta138  1  0.62439003  -0.00037587  -0.00628781  1
  Ta  Ta139  1  0.65807224  -0.02957173  0.50545462  1
  Ta  Ta140  1  0.67578795  0.36586195  -0.00424560  1
  Ta  Ta141  1  0.63623866  0.32969691  0.50076415  1
  Ta  Ta142  1  0.66616016  0.61978409  0.00163531  1
  Ta  Ta143  1  0.66159779  0.71011377  0.50829133  1
  N  N144  1  -0.00188598  -0.00898395  0.12563830  1
  N  N145  1  0.49799665  0.83789714  0.11881373  1
  N  N146  1  -0.00694001  0.67899752  0.87722879  1
  N  N147  1  0.67609157  0.66158408  0.88303163  1
  N  N148  1  0.83716757  0.16867481  0.12068541  1
  N  N149  1  0.32460713  0.66703084  0.12086405  1
  N  N150  1  0.83243808  0.83642752  0.12593684  1
  N  N151  1  0.34269485  0.00748097  0.13128886  1
  N  N152  1  0.16745466  0.81628695  0.62347474  1
  N  N153  1  0.83546026  0.50361219  0.87600359  1
  N  N154  1  0.33027208  0.66888645  0.37515425  1
  N  N155  1  0.35513057  0.02030420  0.36922433  1
  N  N156  1  -0.01839465  0.00494707  0.37706660  1
  N  N157  1  0.66364733  0.66692489  0.12438417  1
  N  N158  1  0.18924906  0.14787743  0.87692964  1
  N  N159  1  0.67029918  0.67501285  0.63073326  1
  N  N160  1  0.51396312  0.49299926  0.87521630  1
  N  N161  1  -0.00168241  0.00477222  0.62769586  1
  N  N162  1  0.66404333  0.00780922  0.62876438  1
  N  N163  1  0.51048027  0.16096696  0.87492524  1
  N  N164  1  0.49321153  0.83719541  0.62839934  1
  N  N165  1  0.66930961  0.00335534  0.37273758  1
  N  N166  1  0.16332279  0.15913810  0.11190258  1
  N  N167  1  0.65841695  0.33282233  0.87614099  1
  N  N168  1  -0.00774386  0.33503320  0.63301513  1
  N  N169  1  0.49715795  0.51157616  0.37114340  1
  N  N170  1  0.00521378  0.34593387  0.87810450  1
  N  N171  1  0.17436829  0.49361228  0.63296858  1
  N  N172  1  0.16898206  0.49439411  0.37727978  1
  N  N173  1  0.16556626  0.82503715  0.13378059  1
  N  N174  1  -0.00835282  0.34362722  0.37731358  1
  N  N175  1  0.16664014  0.49248164  0.12046720  1
  N  N176  1  0.50068127  0.49754604  0.62489823  1
  O  O177  1  0.32718891  -0.00423278  0.86866307  1
  O  O178  1  0.84958698  0.17237543  0.37389770  1
  O  O179  1  0.32914383  0.33639212  0.88192354  1
  O  O180  1  0.86324778  0.16718816  0.63383501  1
  O  O181  1  0.66719474  0.32509818  0.12525224  1
  O  O182  1  0.52741920  0.15660146  0.12474655  1
  O  O183  1  0.66046761  0.68053369  0.36542234  1
  O  O184  1  0.01222321  0.65178802  0.37590641  1
  O  O185  1  0.01136363  -0.00944727  0.87817652  1
  O  O186  1  0.32541227  0.35197288  0.62269585  1
  O  O187  1  0.15475074  0.49273585  0.87320269  1
  O  O188  1  0.65696921  0.33710845  0.62376882  1
  O  O189  1  0.31428742  0.34804848  0.37137138  1
  O  O190  1  0.17460076  0.81826907  0.37238879  1
  O  O191  1  0.83786910  0.82387020  0.87833459  1
  O  O192  1  0.32882585  0.34334228  0.13344210  1
  O  O193  1  0.82121256  0.82224611  0.62377305  1
  O  O194  1  0.49082941  0.16584401  0.62415751  1
  O  O195  1  0.82911809  0.48861682  0.37597412  1
  O  O196  1  0.47682509  0.85219155  0.87281931  1
  O  O197  1  -0.00224029  0.67663799  0.62505195  1
  O  O198  1  0.80940185  0.84229313  0.37880723  1
  O  O199  1  0.31917963  0.68455978  0.88043355  1
  O  O200  1  0.66176336  0.00905205  0.11701288  1
  O  O201  1  0.31768277  -0.00683651  0.61046051  1
  O  O202  1  0.67634526  0.00064477  0.87388985  1
  O  O203  1  0.53760343  0.16238950  0.38111272  1
  O  O204  1  0.84185783  0.50330708  0.62350814  1
  O  O205  1  0.16638923  0.16003571  0.36159276  1
  O  O206  1  0.85365609  0.13848653  0.88504464  1
  O  O207  1  0.83619473  0.49156617  0.12970888  1
  O  O208  1  0.50713621  0.82864622  0.37717845  1
  O  O209  1  0.50611394  0.49733738  0.12655028  1
  O  O210  1  0.00122348  0.65699781  0.13157677  1
  O  O211  1  -0.02134425  0.35515704  0.11611594  1
  O  O212  1  0.18165238  0.14526869  0.61877729  1
  O  O213  1  0.32704783  0.68364313  0.62443601  1
  O  O214  1  0.64954617  0.32941243  0.37554608  1
  O  O215  1  0.16873911  0.82868996  0.86882337  1
