# generated using pymatgen
data_Sr24Ta24N11O13
_symmetry_space_group_name_H-M   'P 1'
_cell_length_a   16.76517812
_cell_length_b   16.89267583
_cell_length_c   15.70672156
_cell_angle_alpha   90.65693725
_cell_angle_beta   90.01659739
_cell_angle_gamma   89.64891534
_symmetry_Int_Tables_number   1
_chemical_formula_structural   Sr24Ta24N11O13
_chemical_formula_sum   'Sr72 Ta72 N33 O39'
_cell_volume   4447.90449550
_cell_formula_units_Z   3
loop_
 _symmetry_equiv_pos_site_id
 _symmetry_equiv_pos_as_xyz
  1  'x, y, z'
loop_
 _atom_site_type_symbol
 _atom_site_label
 _atom_site_symmetry_multiplicity
 _atom_site_fract_x
 _atom_site_fract_y
 _atom_site_fract_z
 _atom_site_occupancy
  Sr  Sr0  1  -0.00520801  0.18917825  0.13610444  1
  Sr  Sr1  1  0.01730691  0.16974761  0.60539162  1
  Sr  Sr2  1  0.00089775  0.50080045  0.09202432  1
  Sr  Sr3  1  0.01939341  0.51348449  0.64036463  1
  Sr  Sr4  1  -0.00026274  0.82225050  0.12406727  1
  Sr  Sr5  1  -0.00060450  0.84607828  0.62792055  1
  Sr  Sr6  1  0.34060829  0.15472853  0.11215596  1
  Sr  Sr7  1  0.33650951  0.19872680  0.67330257  1
  Sr  Sr8  1  0.32382557  0.49929605  0.13516700  1
  Sr  Sr9  1  0.34607088  0.49186851  0.57944857  1
  Sr  Sr10  1  0.32716733  0.83861100  0.15760775  1
  Sr  Sr11  1  0.33410634  0.84874478  0.61952018  1
  Sr  Sr12  1  0.67688244  0.19341335  0.11831954  1
  Sr  Sr13  1  0.66355229  0.16224213  0.62609279  1
  Sr  Sr14  1  0.67256112  0.50867190  0.14218426  1
  Sr  Sr15  1  0.67431535  0.52066960  0.65219063  1
  Sr  Sr16  1  0.64575665  0.84533896  0.11386984  1
  Sr  Sr17  1  0.67229896  0.83934461  0.60623510  1
  Sr  Sr18  1  0.15574010  0.01664250  0.09087709  1
  Sr  Sr19  1  0.16456942  -0.00256883  0.60297999  1
  Sr  Sr20  1  0.18337895  0.32428328  0.17151999  1
  Sr  Sr21  1  0.16904302  0.34344163  0.61442916  1
  Sr  Sr22  1  0.15153638  0.66965113  0.10981311  1
  Sr  Sr23  1  0.16968189  0.69145399  0.67531292  1
  Sr  Sr24  1  0.48724043  -0.00908519  0.14025049  1
  Sr  Sr25  1  0.50388368  -0.01980591  0.59248979  1
  Sr  Sr26  1  0.48286113  0.31406094  0.08540657  1
  Sr  Sr27  1  0.51711441  0.32846762  0.63785589  1
  Sr  Sr28  1  0.50842920  0.64638787  0.10404539  1
  Sr  Sr29  1  0.49162112  0.65452535  0.64513828  1
  Sr  Sr30  1  0.82558083  -0.03267494  0.11864325  1
  Sr  Sr31  1  0.83212075  -0.00962815  0.66792810  1
  Sr  Sr32  1  0.82719672  0.33813856  0.13232575  1
  Sr  Sr33  1  0.82349285  0.28563129  0.58386280  1
  Sr  Sr34  1  0.82551743  0.64788699  0.15874925  1
  Sr  Sr35  1  0.83373044  0.66257897  0.60109771  1
  Sr  Sr36  1  0.00268326  0.18594221  0.37767081  1
  Sr  Sr37  1  0.00581196  0.17720327  0.87958276  1
  Sr  Sr38  1  0.00919777  0.51380127  0.41803603  1
  Sr  Sr39  1  0.01050231  0.49858413  0.86394368  1
  Sr  Sr40  1  -0.00818480  0.82608786  0.35792688  1
  Sr  Sr41  1  0.00844235  0.84358214  0.89162133  1
  Sr  Sr42  1  0.33584209  0.17079333  0.33505189  1
  Sr  Sr43  1  0.33949362  0.16548195  0.88785839  1
  Sr  Sr44  1  0.31856783  0.49548043  0.36750390  1
  Sr  Sr45  1  0.34292843  0.51241568  0.92257972  1
  Sr  Sr46  1  0.33198291  0.85551093  0.38472272  1
  Sr  Sr47  1  0.33580441  0.82196695  0.83199302  1
  Sr  Sr48  1  0.66024741  0.18645077  0.40232853  1
  Sr  Sr49  1  0.67720138  0.17306243  0.85702683  1
  Sr  Sr50  1  0.69438382  0.51268437  0.35680857  1
  Sr  Sr51  1  0.65990155  0.50669860  0.85727651  1
  Sr  Sr52  1  0.65063842  0.85020721  0.38089852  1
  Sr  Sr53  1  0.65921087  0.84329019  0.90268217  1
  Sr  Sr54  1  0.15363740  -0.00596176  0.40698905  1
  Sr  Sr55  1  0.16666057  0.01320053  0.89540191  1
  Sr  Sr56  1  0.16637558  0.33918603  0.38697783  1
  Sr  Sr57  1  0.15855883  0.32595828  0.82489233  1
  Sr  Sr58  1  0.17007766  0.69841208  0.32810259  1
  Sr  Sr59  1  0.15655216  0.66402654  0.88647262  1
  Sr  Sr60  1  0.49704549  0.00894382  0.36533545  1
  Sr  Sr61  1  0.48820591  -0.01804710  0.88467572  1
  Sr  Sr62  1  0.50421504  0.33270352  0.41525262  1
  Sr  Sr63  1  0.49578154  0.31437562  0.86333366  1
  Sr  Sr64  1  0.48956772  0.63051623  0.36320222  1
  Sr  Sr65  1  0.50716684  0.66015432  0.87988671  1
  Sr  Sr66  1  0.84472472  -0.02312539  0.33730508  1
  Sr  Sr67  1  0.82308056  -0.02245909  0.87172003  1
  Sr  Sr68  1  0.82744847  0.32062068  0.36010549  1
  Sr  Sr69  1  0.84647584  0.32134968  0.91107408  1
  Sr  Sr70  1  0.84189444  0.66529190  0.39109316  1
  Sr  Sr71  1  0.82446099  0.62171576  0.82864988  1
  Ta  Ta72  1  0.16751783  0.21056434  -0.00361641  1
  Ta  Ta73  1  0.21159417  0.17163208  0.50586277  1
  Ta  Ta74  1  0.16831437  0.45341213  -0.00685176  1
  Ta  Ta75  1  0.17501882  0.58675602  0.50234356  1
  Ta  Ta76  1  0.20267680  0.83591490  -0.00272259  1
  Ta  Ta77  1  0.16933386  0.79671287  0.50633838  1
  Ta  Ta78  1  0.52800020  0.13808704  -0.00576531  1
  Ta  Ta79  1  0.45894193  0.16340169  0.50139945  1
  Ta  Ta80  1  0.52785885  0.47418418  -0.00339345  1
  Ta  Ta81  1  0.54277578  0.50483769  0.50912892  1
  Ta  Ta82  1  0.45610384  0.82291223  0.00064849  1
  Ta  Ta83  1  0.49523107  0.78303468  0.50010587  1
  Ta  Ta84  1  0.83598655  0.13133137  -0.00493200  1
  Ta  Ta85  1  0.83910436  0.10940835  0.50254868  1
  Ta  Ta86  1  0.82143884  0.51047540  -0.00195496  1
  Ta  Ta87  1  0.83530265  0.46747486  0.52061702  1
  Ta  Ta88  1  0.82980180  0.78576361  -0.00128986  1
  Ta  Ta89  1  0.83660015  0.86405355  0.50045416  1
  Ta  Ta90  1  0.15933163  0.13212881  0.25347957  1
  Ta  Ta91  1  0.16604723  0.13623983  0.74854488  1
  Ta  Ta92  1  0.13471138  0.51217037  0.25281083  1
  Ta  Ta93  1  0.21119427  0.50700747  0.75335727  1
  Ta  Ta94  1  0.15769328  0.88417601  0.23925507  1
  Ta  Ta95  1  0.16067941  0.87673057  0.75398714  1
  Ta  Ta96  1  0.51716995  0.19177380  0.25444516  1
  Ta  Ta97  1  0.50143320  0.11809879  0.75056116  1
  Ta  Ta98  1  0.49936176  0.45824426  0.25070817  1
  Ta  Ta99  1  0.46535414  0.49223358  0.75260734  1
  Ta  Ta100  1  0.49507173  0.79108402  0.24431047  1
  Ta  Ta101  1  0.52763519  0.83090811  0.75383318  1
  Ta  Ta102  1  0.82029089  0.14074733  0.25409866  1
  Ta  Ta103  1  0.85339518  0.18101924  0.74776174  1
  Ta  Ta104  1  0.88422401  0.49263432  0.26211461  1
  Ta  Ta105  1  0.84444439  0.44078859  0.73251028  1
  Ta  Ta106  1  0.79654436  0.80775914  0.25566097  1
  Ta  Ta107  1  0.82854600  0.80127068  0.74675243  1
  Ta  Ta108  1  0.02623677  0.01294557  0.24836482  1
  Ta  Ta109  1  0.02382479  0.01641678  0.74578727  1
  Ta  Ta110  1  0.00540707  0.38187881  0.26151185  1
  Ta  Ta111  1  -0.03475892  0.32747529  0.73705106  1
  Ta  Ta112  1  -0.00250327  0.63087012  0.24972749  1
  Ta  Ta113  1  -0.01932438  0.69227786  0.75195112  1
  Ta  Ta114  1  0.28187042  0.00599208  0.24451830  1
  Ta  Ta115  1  0.31666585  0.01183184  0.75359149  1
  Ta  Ta116  1  0.38230331  0.33628286  0.25413401  1
  Ta  Ta117  1  0.33343331  0.38714873  0.75583717  1
  Ta  Ta118  1  0.34830987  0.67359286  0.24293684  1
  Ta  Ta119  1  0.33544349  0.62006386  0.75681570  1
  Ta  Ta120  1  0.67274613  0.03895977  0.25280948  1
  Ta  Ta121  1  0.63680040  -0.00999451  0.74843181  1
  Ta  Ta122  1  0.62098890  0.33989988  0.24811734  1
  Ta  Ta123  1  0.71420111  0.33552837  0.74291244  1
  Ta  Ta124  1  0.65320732  0.69641919  0.24435831  1
  Ta  Ta125  1  0.66605853  0.71011649  0.75548531  1
  Ta  Ta126  1  -0.02380709  0.02345586  -0.00159272  1
  Ta  Ta127  1  -0.03834641  -0.00363163  0.50201921  1
  Ta  Ta128  1  0.04766007  0.33626022  0.00067298  1
  Ta  Ta129  1  -0.02075455  0.35192440  0.51080394  1
  Ta  Ta130  1  -0.05732426  0.66245607  0.00081704  1
  Ta  Ta131  1  0.03641905  0.68606397  0.49651344  1
  Ta  Ta132  1  0.33138346  -0.03877841  0.00013363  1
  Ta  Ta133  1  0.33204957  0.05263824  0.50087118  1
  Ta  Ta134  1  0.28841806  0.33435234  -0.00769589  1
  Ta  Ta135  1  0.33439442  0.29319894  0.49645255  1
  Ta  Ta136  1  0.33000617  0.70553391  -0.00394856  1
  Ta  Ta137  1  0.31597676  0.68015859  0.50252343  1
  Ta  Ta138  1  0.66229040  0.03168226  -0.00555598  1
  Ta  Ta139  1  0.70835656  0.00446780  0.50122723  1
  Ta  Ta140  1  0.66206972  0.36187599  -0.00098982  1
  Ta  Ta141  1  0.67713179  0.38114640  0.50665142  1
  Ta  Ta142  1  0.70467623  0.65956955  -0.00254735  1
  Ta  Ta143  1  0.63451595  0.66371963  0.49867724  1
  N  N144  1  0.65859968  0.34607845  0.12604194  1
  N  N145  1  0.66944419  0.00184712  0.87077554  1
  N  N146  1  0.16724368  0.83776997  0.87017389  1
  N  N147  1  0.17149629  0.83885633  0.62318021  1
  N  N148  1  0.67049386  0.00000195  0.61981754  1
  N  N149  1  0.50446522  0.49153698  0.87728179  1
  N  N150  1  0.49906114  0.16918319  0.37545257  1
  N  N151  1  0.00411178  0.67208428  0.37404948  1
  N  N152  1  0.02140525  0.33110505  0.62848013  1
  N  N153  1  0.49281202  0.82140791  0.12188193  1
  N  N154  1  0.83112654  0.82649049  0.62316318  1
  N  N155  1  0.32828069  -0.00232853  0.87545864  1
  N  N156  1  0.17752206  0.17549206  0.62866655  1
  N  N157  1  0.67147461  0.33523428  0.62153469  1
  N  N158  1  0.00480556  0.34505233  0.38272087  1
  N  N159  1  0.32343133  0.00133221  0.12550481  1
  N  N160  1  0.84492252  0.51533846  0.63483717  1
  N  N161  1  0.33961326  0.33150157  0.37338626  1
  N  N162  1  0.32752885  0.34074173  0.87318931  1
  N  N163  1  0.50056127  0.15518646  0.86987908  1
  N  N164  1  0.66844315  0.67001289  0.87222039  1
  N  N165  1  0.82269835  0.82357882  0.37575856  1
  N  N166  1  0.50414234  0.49404053  0.62467524  1
  N  N167  1  0.83532789  0.15468850  0.87253675  1
  N  N168  1  0.17108001  0.49722024  0.87392869  1
  N  N169  1  0.83729199  0.14149707  0.62703516  1
  N  N170  1  0.00193607  0.00353918  0.62354717  1
  N  N171  1  0.66445484  0.67221103  0.12027362  1
  N  N172  1  0.32904111  0.66684752  0.87324536  1
  N  N173  1  0.49891841  0.82398450  0.87325382  1
  N  N174  1  0.15954787  0.84347314  0.12187710  1
  N  N175  1  -0.01570136  0.65873106  0.12103296  1
  N  N176  1  0.17052341  0.17387432  0.87610450  1
  O  O177  1  0.83547919  0.47994921  0.87336617  1
  O  O178  1  0.84069461  0.15980153  0.37697326  1
  O  O179  1  0.66479287  0.35082573  0.37452430  1
  O  O180  1  0.49850845  0.15092199  0.62596927  1
  O  O181  1  0.49206996  0.81230000  0.62500044  1
  O  O182  1  0.65825604  0.02309001  0.37755179  1
  O  O183  1  0.17181529  0.84305806  0.37882475  1
  O  O184  1  -0.00902621  0.00944647  0.87522747  1
  O  O185  1  0.83310791  0.14462830  0.13062281  1
  O  O186  1  0.48543170  0.79747677  0.37833499  1
  O  O187  1  0.17581145  0.54059285  0.62077503  1
  O  O188  1  0.67104820  0.01987457  0.12946321  1
  O  O189  1  0.84426776  0.49389335  0.12426693  1
  O  O190  1  0.33145144  0.65782521  0.11976690  1
  O  O191  1  0.16271041  0.15204262  0.38129220  1
  O  O192  1  0.33215525  0.67558121  0.36783142  1
  O  O193  1  -0.01790123  0.66135142  0.87401588  1
  O  O194  1  0.64909343  0.66153084  0.37369336  1
  O  O195  1  0.82928301  0.81860702  0.87929977  1
  O  O196  1  0.85050761  0.49996906  0.39025163  1
  O  O197  1  0.32976328  0.00473098  0.61665475  1
  O  O198  1  0.68600235  0.34195684  0.86887282  1
  O  O199  1  0.16132427  0.16923485  0.13041006  1
  O  O200  1  -0.00158108  0.68398980  0.62734277  1
  O  O201  1  0.00879140  0.33418845  0.87286016  1
  O  O202  1  0.16315955  0.54056097  0.37609141  1
  O  O203  1  0.02982478  0.34345632  0.13026857  1
  O  O204  1  0.33061641  0.34223893  0.61921825  1
  O  O205  1  0.31931246  0.01398547  0.37358796  1
  O  O206  1  0.82518885  0.80915493  0.12854931  1
  O  O207  1  0.15666650  0.49339788  0.12812682  1
  O  O208  1  0.49829276  0.48257096  0.12514692  1
  O  O209  1  0.50512524  0.16452411  0.11997425  1
  O  O210  1  0.65647151  0.67642383  0.62451842  1
  O  O211  1  0.33298711  0.34010762  0.13127168  1
  O  O212  1  0.00215517  0.00138605  0.37396988  1
  O  O213  1  0.50489673  0.48317169  0.38314955  1
  O  O214  1  -0.00277058  0.02349857  0.12745112  1
  O  O215  1  0.33285422  0.66358424  0.62874881  1
