# generated using pymatgen
data_Sr24Ta24N11O13
_symmetry_space_group_name_H-M   'P 1'
_cell_length_a   16.69083276
_cell_length_b   16.94313736
_cell_length_c   15.70894365
_cell_angle_alpha   89.95279979
_cell_angle_beta   89.95966577
_cell_angle_gamma   90.26856042
_symmetry_Int_Tables_number   1
_chemical_formula_structural   Sr24Ta24N11O13
_chemical_formula_sum   'Sr72 Ta72 N33 O39'
_cell_volume   4442.36043026
_cell_formula_units_Z   3
loop_
 _symmetry_equiv_pos_site_id
 _symmetry_equiv_pos_as_xyz
  1  'x, y, z'
loop_
 _atom_site_type_symbol
 _atom_site_label
 _atom_site_symmetry_multiplicity
 _atom_site_fract_x
 _atom_site_fract_y
 _atom_site_fract_z
 _atom_site_occupancy
  Sr  Sr0  1  0.00263433  0.19273440  0.16166790  1
  Sr  Sr1  1  -0.00138843  0.15771356  0.61662510  1
  Sr  Sr2  1  -0.00902358  0.49661555  0.09068233  1
  Sr  Sr3  1  -0.00934049  0.51286756  0.61432145  1
  Sr  Sr4  1  0.00580834  0.83916646  0.12047390  1
  Sr  Sr5  1  -0.00967185  0.83029130  0.66743293  1
  Sr  Sr6  1  0.32927818  0.17509112  0.11978332  1
  Sr  Sr7  1  0.33677406  0.20230808  0.58282087  1
  Sr  Sr8  1  0.34839886  0.51943894  0.10935943  1
  Sr  Sr9  1  0.32679614  0.50533929  0.66308117  1
  Sr  Sr10  1  0.34131740  0.86535646  0.14417805  1
  Sr  Sr11  1  0.32118886  0.84285502  0.61334223  1
  Sr  Sr12  1  0.67567114  0.18030094  0.11044913  1
  Sr  Sr13  1  0.64879649  0.17718610  0.66276581  1
  Sr  Sr14  1  0.67282092  0.52399577  0.15945613  1
  Sr  Sr15  1  0.65721113  0.50655871  0.60903686  1
  Sr  Sr16  1  0.65743532  0.84622991  0.10772114  1
  Sr  Sr17  1  0.67208652  0.85735408  0.60982115  1
  Sr  Sr18  1  0.18186317  -0.00520260  0.09328952  1
  Sr  Sr19  1  0.15278127  -0.02320117  0.65831567  1
  Sr  Sr20  1  0.17694089  0.31639340  0.15931316  1
  Sr  Sr21  1  0.14676424  0.32816933  0.61474023  1
  Sr  Sr22  1  0.16879391  0.64377842  0.12379686  1
  Sr  Sr23  1  0.17443679  0.65311608  0.60101918  1
  Sr  Sr24  1  0.50582805  0.00520587  0.17098390  1
  Sr  Sr25  1  0.49553099  -0.01803129  0.61533615  1
  Sr  Sr26  1  0.50036576  0.31988517  0.08547044  1
  Sr  Sr27  1  0.51177319  0.32682847  0.61689514  1
  Sr  Sr28  1  0.50787974  0.66544232  0.11198153  1
  Sr  Sr29  1  0.49676257  0.63950255  0.64875341  1
  Sr  Sr30  1  0.85419068  -0.01482607  0.12248167  1
  Sr  Sr31  1  0.83661025  -0.00057237  0.59356205  1
  Sr  Sr32  1  0.82994153  0.33471611  0.11691969  1
  Sr  Sr33  1  0.82359438  0.29814200  0.66348951  1
  Sr  Sr34  1  0.83528650  0.66179763  0.15687182  1
  Sr  Sr35  1  0.82687582  0.65796396  0.62169428  1
  Sr  Sr36  1  -0.00270531  0.16181182  0.38641892  1
  Sr  Sr37  1  0.01657875  0.17871597  0.83046440  1
  Sr  Sr38  1  0.00601051  0.50400644  0.41775453  1
  Sr  Sr39  1  -0.01075382  0.50574282  0.88448663  1
  Sr  Sr40  1  -0.00923345  0.81911924  0.33336540  1
  Sr  Sr41  1  0.00435527  0.84942213  0.88784856  1
  Sr  Sr42  1  0.32810087  0.18757852  0.37174333  1
  Sr  Sr43  1  0.32604019  0.17525710  0.91154912  1
  Sr  Sr44  1  0.32059158  0.51183792  0.32983630  1
  Sr  Sr45  1  0.33899574  0.50523226  0.87817433  1
  Sr  Sr46  1  0.33453740  0.83766980  0.39273364  1
  Sr  Sr47  1  0.33248675  0.86682266  0.85402221  1
  Sr  Sr48  1  0.66070044  0.17345791  0.34979647  1
  Sr  Sr49  1  0.67758787  0.17629060  0.88597123  1
  Sr  Sr50  1  0.66478611  0.49640461  0.37967448  1
  Sr  Sr51  1  0.66722788  0.54045767  0.84755284  1
  Sr  Sr52  1  0.66529613  0.86370990  0.39734643  1
  Sr  Sr53  1  0.66134557  0.84543354  0.89310209  1
  Sr  Sr54  1  0.17085733  -0.03093157  0.37362512  1
  Sr  Sr55  1  0.16471357  0.00342619  0.87355191  1
  Sr  Sr56  1  0.15280465  0.32179047  0.38505222  1
  Sr  Sr57  1  0.16746961  0.32727281  0.84284821  1
  Sr  Sr58  1  0.17072665  0.65616822  0.37780100  1
  Sr  Sr59  1  0.17241623  0.63554342  0.90160166  1
  Sr  Sr60  1  0.49288638  -0.01146386  0.37998659  1
  Sr  Sr61  1  0.51551649  -0.00320900  0.82936799  1
  Sr  Sr62  1  0.51006807  0.32846468  0.40964865  1
  Sr  Sr63  1  0.50233250  0.31456400  0.88178742  1
  Sr  Sr64  1  0.49911480  0.63182041  0.34182121  1
  Sr  Sr65  1  0.49926823  0.66275440  0.88613397  1
  Sr  Sr66  1  0.85262658  -0.00781521  0.37944943  1
  Sr  Sr67  1  0.82173102  -0.00948195  0.92400083  1
  Sr  Sr68  1  0.81863035  0.31740230  0.33315304  1
  Sr  Sr69  1  0.83571355  0.32384287  0.88669338  1
  Sr  Sr70  1  0.82680337  0.65243436  0.38626638  1
  Sr  Sr71  1  0.83972738  0.67115092  0.84056399  1
  Ta  Ta72  1  0.13651966  0.18126396  -0.00137254  1
  Ta  Ta73  1  0.17033376  0.11601933  0.50519712  1
  Ta  Ta74  1  0.16618496  0.44883220  -0.00301313  1
  Ta  Ta75  1  0.20302692  0.48956166  0.49858015  1
  Ta  Ta76  1  0.18438827  0.81093792  -0.00208409  1
  Ta  Ta77  1  0.12100437  0.82569367  0.50908407  1
  Ta  Ta78  1  0.50324173  0.12906158  -0.00001897  1
  Ta  Ta79  1  0.51957088  0.14406108  0.50176001  1
  Ta  Ta80  1  0.53579232  0.49212801  -0.00293799  1
  Ta  Ta81  1  0.46164017  0.50274243  0.49826747  1
  Ta  Ta82  1  0.48316805  0.86018925  0.00587752  1
  Ta  Ta83  1  0.50166024  0.77596268  0.48899665  1
  Ta  Ta84  1  0.88848164  0.16692634  -0.00278734  1
  Ta  Ta85  1  0.80865931  0.17816362  0.49858982  1
  Ta  Ta86  1  0.80548492  0.51842562  0.00558950  1
  Ta  Ta87  1  0.82496726  0.44713841  0.49673358  1
  Ta  Ta88  1  0.83816833  0.79247109  0.00127558  1
  Ta  Ta89  1  0.87063070  0.82473587  0.49820337  1
  Ta  Ta90  1  0.16676179  0.12444252  0.24521686  1
  Ta  Ta91  1  0.21572574  0.16231389  0.74837358  1
  Ta  Ta92  1  0.12069765  0.49100914  0.25382262  1
  Ta  Ta93  1  0.13825882  0.50327031  0.74667534  1
  Ta  Ta94  1  0.18095847  0.81228024  0.24929458  1
  Ta  Ta95  1  0.17015165  0.78008725  0.75002440  1
  Ta  Ta96  1  0.49307543  0.20011516  0.24443466  1
  Ta  Ta97  1  0.44984620  0.16910967  0.74415619  1
  Ta  Ta98  1  0.50044243  0.45261693  0.24448484  1
  Ta  Ta99  1  0.50736843  0.46332459  0.75501306  1
  Ta  Ta100  1  0.50799809  0.80918140  0.25693660  1
  Ta  Ta101  1  0.50179943  0.80946188  0.74432349  1
  Ta  Ta102  1  0.82897618  0.13311454  0.23852315  1
  Ta  Ta103  1  0.83352835  0.12026193  0.76305486  1
  Ta  Ta104  1  0.87309148  0.49237510  0.25623296  1
  Ta  Ta105  1  0.83080401  0.47442835  0.74819562  1
  Ta  Ta106  1  0.79796628  0.83678786  0.25473634  1
  Ta  Ta107  1  0.81573480  0.86344589  0.76023140  1
  Ta  Ta108  1  0.02383289  0.01064924  0.24478650  1
  Ta  Ta109  1  -0.04668974  0.00181430  0.75845408  1
  Ta  Ta110  1  -0.00373487  0.37634958  0.25560452  1
  Ta  Ta111  1  -0.01336079  0.36897817  0.74144753  1
  Ta  Ta112  1  0.00496633  0.61985817  0.25578689  1
  Ta  Ta113  1  0.03471468  0.65903017  0.74822147  1
  Ta  Ta114  1  0.31565760  0.02818248  0.24694912  1
  Ta  Ta115  1  0.33535197  0.04443181  0.74868409  1
  Ta  Ta116  1  0.37652098  0.33719842  0.24718342  1
  Ta  Ta117  1  0.34583476  0.31640460  0.75200921  1
  Ta  Ta118  1  0.33241810  0.70365896  0.24386334  1
  Ta  Ta119  1  0.32486926  0.69240948  0.75331712  1
  Ta  Ta120  1  0.69652732  0.00284921  0.24561917  1
  Ta  Ta121  1  0.71029640  0.00160359  0.75859444  1
  Ta  Ta122  1  0.62881369  0.33778807  0.24619039  1
  Ta  Ta123  1  0.66516774  0.36845581  0.76424330  1
  Ta  Ta124  1  0.66376077  0.71430151  0.25121693  1
  Ta  Ta125  1  0.65787877  0.71648705  0.75179284  1
  Ta  Ta126  1  0.00772486  0.04836400  -0.00689910  1
  Ta  Ta127  1  0.01538125  -0.03676671  0.50872707  1
  Ta  Ta128  1  0.02142409  0.31601116  -0.00299834  1
  Ta  Ta129  1  -0.05755586  0.32713891  0.50234033  1
  Ta  Ta130  1  -0.02437536  0.67823589  0.00172452  1
  Ta  Ta131  1  -0.00313069  0.70594807  0.50618615  1
  Ta  Ta132  1  0.38885683  0.00451006  0.00249612  1
  Ta  Ta133  1  0.31850946  0.02757425  0.50317158  1
  Ta  Ta134  1  0.30499669  0.34915065  -0.00221544  1
  Ta  Ta135  1  0.33276981  0.38608210  0.49667818  1
  Ta  Ta136  1  0.33241552  0.72423726  0.00817150  1
  Ta  Ta137  1  0.35291316  0.64778871  0.49158662  1
  Ta  Ta138  1  0.61553432  0.01016824  -0.00228092  1
  Ta  Ta139  1  0.66685857  0.04827759  0.50275281  1
  Ta  Ta140  1  0.66998564  0.38866299  -0.00796420  1
  Ta  Ta141  1  0.69967810  0.31730329  0.49726221  1
  Ta  Ta142  1  0.69866791  0.66913309  0.00287995  1
  Ta  Ta143  1  0.64207122  0.68406576  0.49518980  1
  N  N144  1  0.00524459  0.00829774  0.87157174  1
  N  N145  1  0.33524492  0.66673763  0.37065672  1
  N  N146  1  0.16502850  0.15984523  0.12013891  1
  N  N147  1  0.49677353  0.50355387  0.87478136  1
  N  N148  1  -0.00652592  -0.01190566  0.62800468  1
  N  N149  1  0.66991494  0.69081330  0.87193376  1
  N  N150  1  -0.01552891  0.32889444  0.62496053  1
  N  N151  1  0.17499576  0.16520574  0.86640637  1
  N  N152  1  0.83952282  0.16154363  0.12010526  1
  N  N153  1  0.16032591  0.82086559  0.62999768  1
  N  N154  1  0.50311667  0.16700304  0.12709791  1
  N  N155  1  0.66482249  0.32997421  0.37335522  1
  N  N156  1  0.83302011  0.50241469  0.12447541  1
  N  N157  1  0.49529953  0.48527185  0.37783796  1
  N  N158  1  0.16572482  0.49061821  0.62243874  1
  N  N159  1  0.66975676  0.68433429  0.12741310  1
  N  N160  1  0.83520036  0.83505604  0.37530298  1
  N  N161  1  0.66497374  0.00539975  0.88361066  1
  N  N162  1  0.33493421  0.33853314  0.87442409  1
  N  N163  1  -0.00024345  0.66741912  0.62827499  1
  N  N164  1  0.83167533  0.48594804  0.37510364  1
  N  N165  1  0.49177594  0.16541803  0.62140988  1
  N  N166  1  0.49443103  0.83625843  0.38346421  1
  N  N167  1  0.83199266  0.83504384  0.88158220  1
  N  N168  1  0.49561060  0.48781512  0.62729870  1
  N  N169  1  0.16106051  0.48409987  0.87560272  1
  N  N170  1  0.16315482  0.48997747  0.37248542  1
  N  N171  1  0.67577855  0.33187837  0.88174121  1
  N  N172  1  0.34529086  0.01759307  0.12698436  1
  N  N173  1  0.49987730  0.84239874  0.12914642  1
  N  N174  1  0.34184376  0.67299342  0.11831380  1
  N  N175  1  0.50411656  0.49498264  0.12440964  1
  N  N176  1  0.83729468  0.16427501  0.88309631  1
  O  O177  1  0.66419654  0.65907014  0.37302508  1
  O  O178  1  0.17114011  0.82318495  0.87444281  1
  O  O179  1  -0.00026048  0.66116319  0.37700087  1
  O  O180  1  0.33762132  0.34902606  0.62041443  1
  O  O181  1  0.49903607  0.17062877  0.37681513  1
  O  O182  1  0.01366092  -0.01172267  0.36942258  1
  O  O183  1  0.66478254  0.00335188  0.12320193  1
  O  O184  1  0.33554137  0.01048741  0.62462721  1
  O  O185  1  0.67007492  0.32985776  0.62622241  1
  O  O186  1  0.82570745  0.15400629  0.62496315  1
  O  O187  1  0.66846096  0.34390137  0.12284489  1
  O  O188  1  0.66475672  0.69154929  0.61932822  1
  O  O189  1  0.49176349  0.16067053  0.86621606  1
  O  O190  1  0.83129517  0.84512803  0.62014310  1
  O  O191  1  -0.00848337  0.65668303  0.12652526  1
  O  O192  1  0.16372120  0.81890605  0.12666215  1
  O  O193  1  0.84089277  0.83039026  0.13134909  1
  O  O194  1  0.14798595  0.48635365  0.12003852  1
  O  O195  1  0.33969299  0.68924025  0.87885645  1
  O  O196  1  0.67678531  0.02489445  0.62920997  1
  O  O197  1  0.00438512  0.33321228  0.86941164  1
  O  O198  1  0.33710900  0.02614997  0.37740221  1
  O  O199  1  0.34582766  0.33773550  0.12069412  1
  O  O200  1  0.49099208  0.81351347  0.61706482  1
  O  O201  1  0.15860922  0.13375772  0.38151603  1
  O  O202  1  -0.00833795  0.34238922  0.38497034  1
  O  O203  1  0.16037599  0.13960188  0.63018813  1
  O  O204  1  -0.00247823  0.66913288  0.87791004  1
  O  O205  1  0.82074522  0.49024749  0.62270071  1
  O  O206  1  0.68263392  0.01814128  0.37272973  1
  O  O207  1  0.49234108  0.83605178  0.86692773  1
  O  O208  1  0.35183999  0.34069516  0.37448646  1
  O  O209  1  0.34821115  0.01715981  0.87653454  1
  O  O210  1  0.33565648  0.67085631  0.62828997  1
  O  O211  1  0.83167413  0.50103265  0.87220535  1
  O  O212  1  0.16017784  0.81723583  0.37588327  1
  O  O213  1  0.82457229  0.16214484  0.37147418  1
  O  O214  1  0.01564713  0.00284295  0.11929650  1
  O  O215  1  0.00611354  0.34127769  0.12200690  1
