# generated using pymatgen
data_Sr24Ta24N11O13
_symmetry_space_group_name_H-M   'P 1'
_cell_length_a   16.87042533
_cell_length_b   16.78400501
_cell_length_c   15.78714201
_cell_angle_alpha   89.97007611
_cell_angle_beta   89.97728721
_cell_angle_gamma   89.72394480
_symmetry_Int_Tables_number   1
_chemical_formula_structural   Sr24Ta24N11O13
_chemical_formula_sum   'Sr72 Ta72 N33 O39'
_cell_volume   4470.12856871
_cell_formula_units_Z   3
loop_
 _symmetry_equiv_pos_site_id
 _symmetry_equiv_pos_as_xyz
  1  'x, y, z'
loop_
 _atom_site_type_symbol
 _atom_site_label
 _atom_site_symmetry_multiplicity
 _atom_site_fract_x
 _atom_site_fract_y
 _atom_site_fract_z
 _atom_site_occupancy
  Sr  Sr0  1  0.00276912  0.17855406  0.09901964  1
  Sr  Sr1  1  0.01218756  0.17173954  0.60653656  1
  Sr  Sr2  1  0.01793678  0.50589011  0.15378870  1
  Sr  Sr3  1  0.01141939  0.52845225  0.62770346  1
  Sr  Sr4  1  0.02125900  0.84215106  0.10787886  1
  Sr  Sr5  1  0.00986736  0.84710009  0.65061586  1
  Sr  Sr6  1  0.35457697  0.17034641  0.12365528  1
  Sr  Sr7  1  0.33740417  0.17957917  0.65936650  1
  Sr  Sr8  1  0.34583348  0.50703366  0.10153370  1
  Sr  Sr9  1  0.34235890  0.51086640  0.61303779  1
  Sr  Sr10  1  0.34056152  0.83894245  0.14381064  1
  Sr  Sr11  1  0.33153571  0.86478500  0.59599770  1
  Sr  Sr12  1  0.68419402  0.17523407  0.15462081  1
  Sr  Sr13  1  0.67098133  0.17473884  0.61136450  1
  Sr  Sr14  1  0.69768790  0.49662120  0.09513745  1
  Sr  Sr15  1  0.67743147  0.50078884  0.63762502  1
  Sr  Sr16  1  0.67093724  0.83025146  0.12371772  1
  Sr  Sr17  1  0.65476154  0.83628788  0.62558122  1
  Sr  Sr18  1  0.17677864  -0.01951392  0.14892244  1
  Sr  Sr19  1  0.15458225  -0.01175594  0.59606133  1
  Sr  Sr20  1  0.14764486  0.32239826  0.14391164  1
  Sr  Sr21  1  0.15779985  0.30910395  0.63834959  1
  Sr  Sr22  1  0.16581004  0.64575116  0.09366816  1
  Sr  Sr23  1  0.17135153  0.66018036  0.64164946  1
  Sr  Sr24  1  0.49946089  -0.01428782  0.08510953  1
  Sr  Sr25  1  0.48524154  0.00333020  0.63291497  1
  Sr  Sr26  1  0.49337472  0.32851235  0.13455178  1
  Sr  Sr27  1  0.47580889  0.32938647  0.60398181  1
  Sr  Sr28  1  0.48293202  0.66589540  0.14530698  1
  Sr  Sr29  1  0.49694664  0.65100190  0.64775488  1
  Sr  Sr30  1  0.81593398  0.00134704  0.14957715  1
  Sr  Sr31  1  0.83360530  -0.01017755  0.65258345  1
  Sr  Sr32  1  0.82550424  0.32281104  0.09877317  1
  Sr  Sr33  1  0.81297318  0.33290261  0.63084203  1
  Sr  Sr34  1  0.82491032  0.65603959  0.13684779  1
  Sr  Sr35  1  0.81376006  0.66751153  0.58058284  1
  Sr  Sr36  1  0.00396695  0.17939482  0.40342990  1
  Sr  Sr37  1  0.00441824  0.17616975  0.89230751  1
  Sr  Sr38  1  0.00595795  0.51662560  0.36238184  1
  Sr  Sr39  1  0.01822067  0.51131969  0.84901409  1
  Sr  Sr40  1  0.01852120  0.86210932  0.36390224  1
  Sr  Sr41  1  0.01178869  0.82547104  0.87452511  1
  Sr  Sr42  1  0.32480701  0.17832886  0.33757305  1
  Sr  Sr43  1  0.34768745  0.16651608  0.87292832  1
  Sr  Sr44  1  0.35131067  0.49771945  0.39235167  1
  Sr  Sr45  1  0.34253049  0.52329189  0.88022446  1
  Sr  Sr46  1  0.33068153  0.84715191  0.37188777  1
  Sr  Sr47  1  0.34506353  0.86127041  0.88943073  1
  Sr  Sr48  1  0.66467398  0.16823840  0.37889369  1
  Sr  Sr49  1  0.69489646  0.17650047  0.85369982  1
  Sr  Sr50  1  0.69408858  0.50686971  0.39492968  1
  Sr  Sr51  1  0.67705739  0.49910219  0.86792030  1
  Sr  Sr52  1  0.67725586  0.82446516  0.37089459  1
  Sr  Sr53  1  0.65928452  0.84064814  0.87548672  1
  Sr  Sr54  1  0.17529108  -0.00650619  0.37543967  1
  Sr  Sr55  1  0.14029151  -0.01199579  0.90146812  1
  Sr  Sr56  1  0.15086934  0.32150916  0.36067453  1
  Sr  Sr57  1  0.15263936  0.30556125  0.85621882  1
  Sr  Sr58  1  0.16229023  0.63841737  0.39831804  1
  Sr  Sr59  1  0.17177843  0.66413304  0.86921562  1
  Sr  Sr60  1  0.51319413  -0.01952811  0.42239813  1
  Sr  Sr61  1  0.49314558  0.00375497  0.87131438  1
  Sr  Sr62  1  0.48624033  0.32426300  0.36397283  1
  Sr  Sr63  1  0.46721724  0.33195941  0.90144283  1
  Sr  Sr64  1  0.47941076  0.66128171  0.35480356  1
  Sr  Sr65  1  0.50188254  0.65218941  0.85052894  1
  Sr  Sr66  1  0.82725742  -0.00122480  0.34722092  1
  Sr  Sr67  1  0.82313055  -0.00327016  0.85153016  1
  Sr  Sr68  1  0.82302008  0.31627106  0.39966175  1
  Sr  Sr69  1  0.82446617  0.33968108  0.87353125  1
  Sr  Sr70  1  0.83745828  0.65701964  0.36667180  1
  Sr  Sr71  1  0.80898816  0.67798477  0.92246700  1
  Ta  Ta72  1  0.19233587  0.15969667  0.00311859  1
  Ta  Ta73  1  0.20421348  0.16477738  0.50336435  1
  Ta  Ta74  1  0.16104561  0.45911702  0.00016234  1
  Ta  Ta75  1  0.16477317  0.45853530  0.50024570  1
  Ta  Ta76  1  0.20008362  0.82380861  0.00098076  1
  Ta  Ta77  1  0.16000853  0.80284027  0.50574932  1
  Ta  Ta78  1  0.54685196  0.16706359  0.00174451  1
  Ta  Ta79  1  0.46842767  0.16555263  0.49900682  1
  Ta  Ta80  1  0.52483201  0.50830348  -0.00390102  1
  Ta  Ta81  1  0.52880187  0.50511144  0.50531044  1
  Ta  Ta82  1  0.49858657  0.79758624  0.00147432  1
  Ta  Ta83  1  0.49427926  0.78914724  0.50202293  1
  Ta  Ta84  1  0.82812688  0.13612845  -0.00119125  1
  Ta  Ta85  1  0.83374674  0.12771620  0.50608123  1
  Ta  Ta86  1  0.88393342  0.50057878  0.00362096  1
  Ta  Ta87  1  0.86336299  0.48393492  0.50126374  1
  Ta  Ta88  1  0.84566351  0.86883131  0.00007072  1
  Ta  Ta89  1  0.85378347  0.85461490  0.49834050  1
  Ta  Ta90  1  0.13479815  0.15035318  0.25159569  1
  Ta  Ta91  1  0.16086308  0.12274311  0.74655096  1
  Ta  Ta92  1  0.20346716  0.49879547  0.24479439  1
  Ta  Ta93  1  0.19283858  0.47282435  0.75114963  1
  Ta  Ta94  1  0.16706490  0.78183589  0.24741344  1
  Ta  Ta95  1  0.19783619  0.84508298  0.75387522  1
  Ta  Ta96  1  0.50910721  0.11803870  0.25277827  1
  Ta  Ta97  1  0.52720662  0.17583899  0.74460707  1
  Ta  Ta98  1  0.54365424  0.49425024  0.24894236  1
  Ta  Ta99  1  0.49904993  0.45912480  0.75013814  1
  Ta  Ta100  1  0.50772819  0.86126817  0.24872553  1
  Ta  Ta101  1  0.47707321  0.83101130  0.74518365  1
  Ta  Ta102  1  0.87118328  0.17915177  0.24770338  1
  Ta  Ta103  1  0.87244928  0.17302509  0.74852980  1
  Ta  Ta104  1  0.83422759  0.46324540  0.25102057  1
  Ta  Ta105  1  0.84136358  0.53629171  0.74790554  1
  Ta  Ta106  1  0.86848813  0.82119479  0.24538223  1
  Ta  Ta107  1  0.82422693  0.79672087  0.74997777  1
  Ta  Ta108  1  0.00148058  0.04025708  0.25405960  1
  Ta  Ta109  1  0.00964496  0.03168844  0.74656443  1
  Ta  Ta110  1  -0.03257511  0.32412065  0.25487035  1
  Ta  Ta111  1  -0.01830367  0.33082218  0.74471279  1
  Ta  Ta112  1  0.00624029  0.69824465  0.25384304  1
  Ta  Ta113  1  -0.06538757  0.67663779  0.74906306  1
  Ta  Ta114  1  0.38424249  0.00536831  0.25669832  1
  Ta  Ta115  1  0.29812994  -0.00123233  0.74663288  1
  Ta  Ta116  1  0.31489314  0.36452760  0.25062063  1
  Ta  Ta117  1  0.32422837  0.36533156  0.74716787  1
  Ta  Ta118  1  0.29809340  0.65658225  0.24374171  1
  Ta  Ta119  1  0.33519217  0.72194871  0.75438282  1
  Ta  Ta120  1  0.62547386  -0.00352310  0.25125749  1
  Ta  Ta121  1  0.64744092  0.01631882  0.74299586  1
  Ta  Ta122  1  0.67067367  0.36719447  0.24781154  1
  Ta  Ta123  1  0.61736264  0.33165875  0.74906540  1
  Ta  Ta124  1  0.65130751  0.63750417  0.24250076  1
  Ta  Ta125  1  0.70313663  0.67242592  0.75451120  1
  Ta  Ta126  1  -0.04392436  0.00113869  0.00139120  1
  Ta  Ta127  1  -0.03593453  -0.00224302  0.50010674  1
  Ta  Ta128  1  0.00485158  0.37058890  -0.00090756  1
  Ta  Ta129  1  0.00320550  0.36999817  0.49747623  1
  Ta  Ta130  1  -0.01512820  0.64954992  0.00173204  1
  Ta  Ta131  1  -0.00368178  0.71116851  0.49688247  1
  Ta  Ta132  1  0.30944963  0.01326502  0.01015772  1
  Ta  Ta133  1  0.33344234  0.05038199  0.49740441  1
  Ta  Ta134  1  0.28522147  0.32463605  -0.00008768  1
  Ta  Ta135  1  0.30391960  0.31539282  0.49823484  1
  Ta  Ta136  1  0.34589502  0.69802521  -0.00333327  1
  Ta  Ta137  1  0.33747948  0.68902691  0.50293797  1
  Ta  Ta138  1  0.67929292  0.02567765  0.00406284  1
  Ta  Ta139  1  0.70756262  -0.00278559  0.49533296  1
  Ta  Ta140  1  0.64180726  0.31843262  0.00098749  1
  Ta  Ta141  1  0.64006409  0.34967738  0.50293795  1
  Ta  Ta142  1  0.62458462  0.66430260  -0.00072122  1
  Ta  Ta143  1  0.62443386  0.66426364  0.50123081  1
  N  N144  1  0.32564608  0.33799180  0.37007104  1
  N  N145  1  -0.00465076  0.67529388  0.37993693  1
  N  N146  1  0.16784256  0.82582294  0.62481278  1
  N  N147  1  0.32676624  0.66434877  0.12357197  1
  N  N148  1  0.66271951  0.00297007  0.12340262  1
  N  N149  1  0.84623774  0.49831097  0.37385062  1
  N  N150  1  0.83936189  0.51224159  0.62476022  1
  N  N151  1  0.50386940  0.49719721  0.62711894  1
  N  N152  1  0.49922056  0.16614611  0.62037580  1
  N  N153  1  0.17559497  0.49093853  0.12034213  1
  N  N154  1  0.32365882  0.33871194  0.62458069  1
  N  N155  1  -0.00239352  0.00502992  0.62628818  1
  N  N156  1  0.84601649  0.16637215  0.87596833  1
  N  N157  1  0.66263388  0.66739387  0.87142823  1
  N  N158  1  0.50462617  0.49557177  0.87641754  1
  N  N159  1  -0.00584399  0.33742314  0.37602013  1
  N  N160  1  0.65341389  0.33398128  0.62327492  1
  N  N161  1  0.85183536  0.49408781  0.12700805  1
  N  N162  1  0.33900902  0.00614055  0.12744827  1
  N  N163  1  0.84278877  0.16671581  0.12649674  1
  N  N164  1  0.17107374  0.15430837  0.62637035  1
  N  N165  1  0.66283420  0.33395349  0.12360970  1
  N  N166  1  0.49560014  0.83136603  0.62450039  1
  N  N167  1  0.32643786  0.01509652  0.62906178  1
  N  N168  1  0.33268246  0.67724684  0.86783874  1
  N  N169  1  0.66359323  0.66107793  0.12386105  1
  N  N170  1  0.16775362  0.83065640  0.87695868  1
  N  N171  1  0.50297716  0.83082896  0.12790661  1
  N  N172  1  0.66873806  -0.00612194  0.37955491  1
  N  N173  1  0.17265521  0.81787670  0.12728245  1
  N  N174  1  0.83945661  0.16140751  0.62523248  1
  N  N175  1  0.34372390  0.00887392  0.37535310  1
  N  N176  1  -0.00266454  0.01514863  0.37629081  1
  O  O177  1  -0.02199003  0.01138205  0.12447762  1
  O  O178  1  0.85526749  0.83829423  0.36716904  1
  O  O179  1  0.30659009  0.32634890  0.12462678  1
  O  O180  1  0.33013589  0.67917110  0.62787341  1
  O  O181  1  -0.00351075  0.34945216  0.86809431  1
  O  O182  1  0.63825556  0.66101149  0.37501399  1
  O  O183  1  0.50593473  0.16196385  0.37542456  1
  O  O184  1  0.16120078  0.15993879  0.12976580  1
  O  O185  1  -0.00655477  0.33187147  0.62165306  1
  O  O186  1  0.15905706  0.15866443  0.37725580  1
  O  O187  1  0.51572415  0.48811236  0.12781620  1
  O  O188  1  0.66462314  0.33325102  0.87198894  1
  O  O189  1  0.17606648  0.49213547  0.87417680  1
  O  O190  1  0.83490489  0.83403996  0.62137825  1
  O  O191  1  -0.00068671  0.66425113  0.12455702  1
  O  O192  1  0.51558691  0.50055465  0.37159249  1
  O  O193  1  0.84509341  0.16166516  0.37786454  1
  O  O194  1  0.31018776  0.32000298  0.87509005  1
  O  O195  1  0.33535913  0.01440319  0.87440768  1
  O  O196  1  0.17359137  0.81673147  0.37112027  1
  O  O197  1  0.52214662  0.15918689  0.12765945  1
  O  O198  1  -0.00215655  0.34709400  0.12425998  1
  O  O199  1  0.52507731  0.16277235  0.87902485  1
  O  O200  1  0.82791052  0.83725449  0.87888582  1
  O  O201  1  0.50253438  0.84320978  0.88027833  1
  O  O202  1  0.32439330  0.67012785  0.37845102  1
  O  O203  1  0.65887047  0.33260174  0.37074988  1
  O  O204  1  0.17662525  0.48326529  0.37651278  1
  O  O205  1  0.85488098  0.83096310  0.11806124  1
  O  O206  1  0.17063300  0.47723848  0.62343390  1
  O  O207  1  0.65850383  0.66874327  0.62659781  1
  O  O208  1  0.65944409  -0.00005138  0.61852751  1
  O  O209  1  0.66303064  0.01269878  0.86729062  1
  O  O210  1  0.17742803  0.15309446  0.87780495  1
  O  O211  1  -0.03487423  0.68234201  0.61751394  1
  O  O212  1  0.49845052  0.82648124  0.37903351  1
  O  O213  1  -0.03525625  0.66908299  0.87969325  1
  O  O214  1  -0.01704304  0.00658681  0.87544590  1
  O  O215  1  0.84314678  0.50664498  0.88132886  1
