# generated using pymatgen
data_Sr24Ta24N11O13
_symmetry_space_group_name_H-M   'P 1'
_cell_length_a   15.74985667
_cell_length_b   20.25544979
_cell_length_c   13.84424918
_cell_angle_alpha   89.09206435
_cell_angle_beta   90.00603794
_cell_angle_gamma   89.90112716
_symmetry_Int_Tables_number   1
_chemical_formula_structural   Sr24Ta24N11O13
_chemical_formula_sum   'Sr72 Ta72 N33 O39'
_cell_volume   4416.03720993
_cell_formula_units_Z   3
loop_
 _symmetry_equiv_pos_site_id
 _symmetry_equiv_pos_as_xyz
  1  'x, y, z'
loop_
 _atom_site_type_symbol
 _atom_site_label
 _atom_site_symmetry_multiplicity
 _atom_site_fract_x
 _atom_site_fract_y
 _atom_site_fract_z
 _atom_site_occupancy
  Sr  Sr0  1  -0.00008455  0.10979213  0.18041712  1
  Sr  Sr1  1  -0.00021053  0.10715973  0.69107120  1
  Sr  Sr2  1  0.00123191  0.45617291  0.06433560  1
  Sr  Sr3  1  -0.00276081  0.44940606  0.55872053  1
  Sr  Sr4  1  0.00553729  0.82827743  0.12259493  1
  Sr  Sr5  1  0.00124986  0.82390642  0.62387045  1
  Sr  Sr6  1  0.33424521  0.11099622  0.18598299  1
  Sr  Sr7  1  0.33416289  0.10963273  0.69400472  1
  Sr  Sr8  1  0.32866240  0.45855098  0.06495565  1
  Sr  Sr9  1  0.33389899  0.45161377  0.55811369  1
  Sr  Sr10  1  0.33087759  0.82421632  0.11846079  1
  Sr  Sr11  1  0.33326936  0.82612137  0.62042912  1
  Sr  Sr12  1  0.66586497  0.10658749  0.19231415  1
  Sr  Sr13  1  0.66616332  0.10237692  0.68554952  1
  Sr  Sr14  1  0.66736941  0.45793425  0.06109109  1
  Sr  Sr15  1  0.66936197  0.45065950  0.56202154  1
  Sr  Sr16  1  0.66621984  0.82187167  0.12317982  1
  Sr  Sr17  1  0.66606503  0.82322912  0.62199175  1
  Sr  Sr18  1  0.16892915  0.00777368  0.12738834  1
  Sr  Sr19  1  0.16783741  0.00888903  0.62939961  1
  Sr  Sr20  1  0.16619140  0.37550611  0.18683085  1
  Sr  Sr21  1  0.16640917  0.37703971  0.68927863  1
  Sr  Sr22  1  0.16751392  0.72320665  0.05938731  1
  Sr  Sr23  1  0.16807057  0.72372477  0.56314255  1
  Sr  Sr24  1  0.49926140  0.01065614  0.12995183  1
  Sr  Sr25  1  0.49625254  0.00479320  0.62869934  1
  Sr  Sr26  1  0.50165152  0.38411049  0.19663928  1
  Sr  Sr27  1  0.50044056  0.37602584  0.68953755  1
  Sr  Sr28  1  0.49953137  0.72183574  0.05590803  1
  Sr  Sr29  1  0.50029922  0.72230618  0.55750834  1
  Sr  Sr30  1  0.83168607  0.01131820  0.12381119  1
  Sr  Sr31  1  0.83531872  0.00662741  0.62622319  1
  Sr  Sr32  1  0.83081710  0.37973365  0.19601553  1
  Sr  Sr33  1  0.83162760  0.37415267  0.68931760  1
  Sr  Sr34  1  0.83570417  0.72427693  0.06286909  1
  Sr  Sr35  1  0.83322381  0.72179010  0.56084565  1
  Sr  Sr36  1  -0.00664307  0.15073884  0.43359111  1
  Sr  Sr37  1  -0.00292290  0.14719980  0.92998819  1
  Sr  Sr38  1  0.00138099  0.49948132  0.30902887  1
  Sr  Sr39  1  -0.00085397  0.49300350  0.80722143  1
  Sr  Sr40  1  0.00022150  0.78510288  0.38282381  1
  Sr  Sr41  1  0.00082925  0.78370890  0.88472107  1
  Sr  Sr42  1  0.33310517  0.15048585  0.43323531  1
  Sr  Sr43  1  0.33595079  0.15001782  0.93200561  1
  Sr  Sr44  1  0.32887518  0.50185571  0.30926789  1
  Sr  Sr45  1  0.32674053  0.49660089  0.80602739  1
  Sr  Sr46  1  0.33546585  0.78134250  0.37513846  1
  Sr  Sr47  1  0.33298669  0.77947162  0.87925747  1
  Sr  Sr48  1  0.67242025  0.17027091  0.43609313  1
  Sr  Sr49  1  0.66267930  0.13917606  0.93713929  1
  Sr  Sr50  1  0.67082076  0.50086075  0.30710875  1
  Sr  Sr51  1  0.66792847  0.47257455  0.81308047  1
  Sr  Sr52  1  0.66713821  0.78533205  0.38211189  1
  Sr  Sr53  1  0.66638241  0.78261319  0.88369000  1
  Sr  Sr54  1  0.16467889  0.05083159  0.37273754  1
  Sr  Sr55  1  0.16659281  0.05249123  0.86958769  1
  Sr  Sr56  1  0.16698763  0.33136524  0.43976322  1
  Sr  Sr57  1  0.16402506  0.33325473  0.93708679  1
  Sr  Sr58  1  0.16720254  0.68364849  0.31934523  1
  Sr  Sr59  1  0.16638088  0.68044478  0.81849684  1
  Sr  Sr60  1  0.50583983  0.05358780  0.37495094  1
  Sr  Sr61  1  0.49824661  0.04624402  0.86491331  1
  Sr  Sr62  1  0.52483183  0.32659074  0.44205385  1
  Sr  Sr63  1  0.48659938  0.36002197  0.94759220  1
  Sr  Sr64  1  0.50382483  0.68195002  0.31337408  1
  Sr  Sr65  1  0.49860296  0.68223655  0.81687025  1
  Sr  Sr66  1  0.82881173  0.04787982  0.36695404  1
  Sr  Sr67  1  0.83382155  0.04564290  0.86525888  1
  Sr  Sr68  1  0.81583692  0.32707598  0.44118025  1
  Sr  Sr69  1  0.84616756  0.35448402  0.94398884  1
  Sr  Sr70  1  0.83221836  0.68387295  0.31817608  1
  Sr  Sr71  1  0.83438874  0.68090437  0.81822335  1
  Ta  Ta72  1  0.16659796  0.19880480  0.06707941  1
  Ta  Ta73  1  0.16543140  0.19160952  0.57032859  1
  Ta  Ta74  1  0.16261776  0.54757331  -0.03997050  1
  Ta  Ta75  1  0.16479934  0.55037628  0.46293883  1
  Ta  Ta76  1  0.17071905  0.89064045  -0.03845857  1
  Ta  Ta77  1  0.17144026  0.88946505  0.46421116  1
  Ta  Ta78  1  0.50820167  0.20580965  0.07593053  1
  Ta  Ta79  1  0.49990335  0.19379031  0.57781018  1
  Ta  Ta80  1  0.50079089  0.54217246  -0.04797226  1
  Ta  Ta81  1  0.50247598  0.54487889  0.45467283  1
  Ta  Ta82  1  0.49772177  0.88657075  -0.03252392  1
  Ta  Ta83  1  0.49711558  0.88783329  0.46326116  1
  Ta  Ta84  1  0.82278590  0.20360695  0.06366302  1
  Ta  Ta85  1  0.83583281  0.19901987  0.59860940  1
  Ta  Ta86  1  0.82904592  0.54805147  -0.03882952  1
  Ta  Ta87  1  0.83447786  0.54629491  0.45910487  1
  Ta  Ta88  1  0.83343697  0.88582164  -0.02492504  1
  Ta  Ta89  1  0.83342557  0.88552553  0.46472839  1
  Ta  Ta90  1  0.16578241  0.21078556  0.28000566  1
  Ta  Ta91  1  0.16709455  0.21216629  0.77731828  1
  Ta  Ta92  1  0.16451774  0.56358108  0.16191184  1
  Ta  Ta93  1  0.15799476  0.56254344  0.65798577  1
  Ta  Ta94  1  0.17272375  0.87544227  0.26859823  1
  Ta  Ta95  1  0.16728173  0.86984315  0.76719403  1
  Ta  Ta96  1  0.49131581  0.21040085  0.28454326  1
  Ta  Ta97  1  0.50972728  0.21260108  0.78666755  1
  Ta  Ta98  1  0.49956796  0.55911111  0.15261242  1
  Ta  Ta99  1  0.50399150  0.55916039  0.66247313  1
  Ta  Ta100  1  0.49813393  0.86823597  0.26319927  1
  Ta  Ta101  1  0.49889972  0.86646582  0.76792660  1
  Ta  Ta102  1  0.84327947  0.20976856  0.27175353  1
  Ta  Ta103  1  0.81813562  0.21241248  0.80231168  1
  Ta  Ta104  1  0.83861520  0.56220043  0.15744080  1
  Ta  Ta105  1  0.83395269  0.55649911  0.66371089  1
  Ta  Ta106  1  0.83372152  0.87051161  0.25784346  1
  Ta  Ta107  1  0.83384655  0.86973648  0.76624374  1
  Ta  Ta108  1  0.00117726  -0.05030699  0.27627964  1
  Ta  Ta109  1  0.00201680  -0.05446721  0.77906743  1
  Ta  Ta110  1  0.00011914  0.28685138  0.29036892  1
  Ta  Ta111  1  -0.00764705  0.28275182  0.79058968  1
  Ta  Ta112  1  0.00043958  0.64058098  0.17512441  1
  Ta  Ta113  1  0.00127498  0.63704499  0.67264523  1
  Ta  Ta114  1  0.33426493  -0.05754063  0.28723965  1
  Ta  Ta115  1  0.32839019  -0.05751316  0.78599503  1
  Ta  Ta116  1  0.33588531  0.28719722  0.29393822  1
  Ta  Ta117  1  0.33811536  0.28711194  0.79140568  1
  Ta  Ta118  1  0.33316874  0.63942343  0.17633283  1
  Ta  Ta119  1  0.33274063  0.63250917  0.67807802  1
  Ta  Ta120  1  0.66461928  -0.05407946  0.27811860  1
  Ta  Ta121  1  0.66785141  -0.05698538  0.77795632  1
  Ta  Ta122  1  0.66410273  0.27105812  0.24204593  1
  Ta  Ta123  1  0.66387575  0.29848444  0.83666297  1
  Ta  Ta124  1  0.67055047  0.63544579  0.16583493  1
  Ta  Ta125  1  0.66431195  0.62795256  0.67813635  1
  Ta  Ta126  1  0.00207573  -0.03448704  -0.01270556  1
  Ta  Ta127  1  0.00160803  -0.04043930  0.48883790  1
  Ta  Ta128  1  -0.00333596  0.27096767  0.08688695  1
  Ta  Ta129  1  0.00403193  0.27406389  0.58847988  1
  Ta  Ta130  1  0.00163453  0.61748714  -0.02550900  1
  Ta  Ta131  1  0.00408756  0.61837103  0.47621647  1
  Ta  Ta132  1  0.33420268  -0.03377870  -0.01625212  1
  Ta  Ta133  1  0.33027169  -0.03902881  0.48004451  1
  Ta  Ta134  1  0.33454412  0.27358811  0.08609048  1
  Ta  Ta135  1  0.33114776  0.27209425  0.59020932  1
  Ta  Ta136  1  0.33301543  0.61865675  -0.03104392  1
  Ta  Ta137  1  0.33611709  0.62118148  0.46632330  1
  Ta  Ta138  1  0.66392896  -0.04193375  -0.00936744  1
  Ta  Ta139  1  0.66641025  -0.03651131  0.48757827  1
  Ta  Ta140  1  0.66538642  0.28784230  0.04697238  1
  Ta  Ta141  1  0.66579275  0.26621794  0.64870274  1
  Ta  Ta142  1  0.66735046  0.61643350  -0.03489156  1
  Ta  Ta143  1  0.66519340  0.62031847  0.47380595  1
  N  N144  1  0.66309891  0.36215835  0.94381607  1
  N  N145  1  0.50479139  0.18692851  0.43246092  1
  N  N146  1  0.82879962  0.16501016  0.93578784  1
  N  N147  1  0.16875930  0.18741015  0.92748818  1
  N  N148  1  0.49892778  0.80465805  0.88565158  1
  N  N149  1  0.66669224  0.02379274  0.36640981  1
  N  N150  1  0.33387623  0.02585378  0.86182405  1
  N  N151  1  0.33492639  0.64523953  0.32838336  1
  N  N152  1  0.83410396  0.13567769  0.18462465  1
  N  N153  1  0.49927524  0.13379310  0.70538249  1
  N  N154  1  0.00446063  -0.02679726  0.13815057  1
  N  N155  1  0.66621567  0.69656203  0.56100670  1
  N  N156  1  0.83220074  0.48231311  0.57463367  1
  N  N157  1  0.16551280  0.18599779  0.41747212  1
  N  N158  1  0.83523574  0.85404847  0.10982382  1
  N  N159  1  0.16696405  0.13278515  0.69467306  1
  N  N160  1  0.00034977  0.02409322  0.86185372  1
  N  N161  1  0.49758932  0.47871101  0.06651075  1
  N  N162  1  0.33351217  0.35077979  0.67810013  1
  N  N163  1  0.66811492  0.69739109  0.05127861  1
  N  N164  1  0.33242853  0.64404192  0.81732167  1
  N  N165  1  0.00239985  0.70057455  0.05590475  1
  N  N166  1  0.49792376  0.13760057  0.18237842  1
  N  N167  1  0.83359552  0.13491880  0.70779372  1
  N  N168  1  0.00225683  -0.02825118  0.62845930  1
  N  N169  1  0.66519365  0.35696419  0.71265302  1
  N  N170  1  0.33254107  0.69893961  0.05285869  1
  N  N171  1  0.83503108  0.80808243  0.37627432  1
  N  N172  1  -0.00061431  0.34853918  0.68200438  1
  N  N173  1  0.00214656  0.70043760  0.55780658  1
  N  N174  1  0.66204249  -0.02492002  0.12892574  1
  N  N175  1  0.49995484  0.80677914  0.38252810  1
  N  N176  1  0.66432413  -0.03237393  0.63982122  1
  O  O177  1  0.49586212  0.53240264  0.80260020  1
  O  O178  1  0.66931683  0.64414706  0.31676527  1
  O  O179  1  0.66861187  0.35890106  0.17038682  1
  O  O180  1  0.83871480  0.47452298  0.07158624  1
  O  O181  1  0.50715655  0.54201719  0.30903745  1
  O  O182  1  0.16475986  0.80109980  0.88517073  1
  O  O183  1  0.50139420  0.47601715  0.56636650  1
  O  O184  1  0.66278834  0.02708494  0.86521476  1
  O  O185  1  0.17348991  0.87333260  0.11912273  1
  O  O186  1  0.33315619  -0.03718230  0.62889504  1
  O  O187  1  0.49295482  0.85015380  0.11844288  1
  O  O188  1  0.83633360  0.80023499  0.88301516  1
  O  O189  1  0.50029564  0.17102496  0.93650839  1
  O  O190  1  0.67166266  0.30057893  0.37475684  1
  O  O191  1  0.17049034  0.86318468  0.61831427  1
  O  O192  1  0.00168687  0.03182816  0.37131288  1
  O  O193  1  0.16403286  0.55021803  0.31007128  1
  O  O194  1  -0.00057550  0.29280324  0.94338513  1
  O  O195  1  0.33399611  -0.02120599  0.13107088  1
  O  O196  1  0.16847579  0.47895415  0.57354643  1
  O  O197  1  0.16966056  0.80372393  0.38305159  1
  O  O198  1  0.83907180  0.54771242  0.81633449  1
  O  O199  1  0.32798976  0.03090664  0.36465918  1
  O  O200  1  0.83221876  0.19773733  0.42725069  1
  O  O201  1  0.33175242  0.35761136  0.18123394  1
  O  O202  1  0.16156976  0.54582452  0.81287553  1
  O  O203  1  -0.00314918  0.65492057  0.83529863  1
  O  O204  1  0.16364140  0.47664824  0.07178935  1
  O  O205  1  -0.00075842  0.65270726  0.32278485  1
  O  O206  1  0.33265001  0.70509876  0.56280867  1
  O  O207  1  -0.00064142  0.28580411  0.43585113  1
  O  O208  1  0.49501040  0.85806325  0.61907645  1
  O  O209  1  0.16858724  0.12795055  0.18651606  1
  O  O210  1  0.66918781  0.66120286  0.81428023  1
  O  O211  1  0.83500833  0.54640726  0.31039360  1
  O  O212  1  0.83427167  0.85817691  0.62082041  1
  O  O213  1  -0.00147304  0.35709444  0.17998717  1
  O  O214  1  0.33505941  0.29400784  0.94302627  1
  O  O215  1  0.32953186  0.29003483  0.43679101  1
