# generated using pymatgen
data_Sr24Ta24N11O13
_symmetry_space_group_name_H-M   'P 1'
_cell_length_a   18.11655888
_cell_length_b   16.48165393
_cell_length_c   14.84353037
_cell_angle_alpha   90.30070138
_cell_angle_beta   88.03568231
_cell_angle_gamma   90.91061932
_symmetry_Int_Tables_number   1
_chemical_formula_structural   Sr24Ta24N11O13
_chemical_formula_sum   'Sr72 Ta72 N33 O39'
_cell_volume   4428.92944344
_cell_formula_units_Z   3
loop_
 _symmetry_equiv_pos_site_id
 _symmetry_equiv_pos_as_xyz
  1  'x, y, z'
loop_
 _atom_site_type_symbol
 _atom_site_label
 _atom_site_symmetry_multiplicity
 _atom_site_fract_x
 _atom_site_fract_y
 _atom_site_fract_z
 _atom_site_occupancy
  Sr  Sr0  1  0.01370737  0.15060539  0.13689605  1
  Sr  Sr1  1  0.01619983  0.17348693  0.60646334  1
  Sr  Sr2  1  0.00789716  0.49970623  0.11510309  1
  Sr  Sr3  1  0.03120658  0.48840477  0.59810031  1
  Sr  Sr4  1  0.05202591  0.83162890  0.07750269  1
  Sr  Sr5  1  -0.00863610  0.82883204  0.63761976  1
  Sr  Sr6  1  0.34157663  0.16639480  0.11935358  1
  Sr  Sr7  1  0.38440098  0.15318255  0.61159110  1
  Sr  Sr8  1  0.37912265  0.50006682  0.09202703  1
  Sr  Sr9  1  0.33642696  0.51026697  0.63995288  1
  Sr  Sr10  1  0.34313861  0.81904696  0.14645982  1
  Sr  Sr11  1  0.38063053  0.83275656  0.60740383  1
  Sr  Sr12  1  0.71732750  0.16762924  0.08137970  1
  Sr  Sr13  1  0.68081381  0.16639031  0.63669241  1
  Sr  Sr14  1  0.68173139  0.48439688  0.14068130  1
  Sr  Sr15  1  0.69495534  0.50273611  0.60536507  1
  Sr  Sr16  1  0.67029119  0.83109521  0.11993784  1
  Sr  Sr17  1  0.69583898  0.81356462  0.59599701  1
  Sr  Sr18  1  0.16116751  0.01327789  0.09497622  1
  Sr  Sr19  1  0.11108248  -0.00138676  0.66232808  1
  Sr  Sr20  1  0.12015858  0.33475418  0.16808593  1
  Sr  Sr21  1  0.15562861  0.34045934  0.63650560  1
  Sr  Sr22  1  0.16012946  0.67196465  0.14162044  1
  Sr  Sr23  1  0.12511643  0.67760703  0.61812131  1
  Sr  Sr24  1  0.45070365  0.00401928  0.15786064  1
  Sr  Sr25  1  0.50758961  -0.00580738  0.63302087  1
  Sr  Sr26  1  0.49292118  0.34177258  0.14796887  1
  Sr  Sr27  1  0.46970306  0.35665328  0.61572874  1
  Sr  Sr28  1  0.48561305  0.68123863  0.10648664  1
  Sr  Sr29  1  0.47694777  0.65902848  0.63559042  1
  Sr  Sr30  1  0.83130266  0.00731283  0.13682854  1
  Sr  Sr31  1  0.80694530  0.01433297  0.61333933  1
  Sr  Sr32  1  0.83145706  0.35104423  0.10046710  1
  Sr  Sr33  1  0.80860057  0.33376570  0.63035764  1
  Sr  Sr34  1  0.78593013  0.67022084  0.16693051  1
  Sr  Sr35  1  0.83161963  0.66404086  0.62815444  1
  Sr  Sr36  1  0.01530368  0.16444140  0.36041070  1
  Sr  Sr37  1  0.05105457  0.16285947  0.83128574  1
  Sr  Sr38  1  0.05126383  0.50139024  0.34246330  1
  Sr  Sr39  1  0.01338905  0.48619288  0.89852887  1
  Sr  Sr40  1  0.02869174  0.82542818  0.39131042  1
  Sr  Sr41  1  0.00720113  0.83076706  0.85625042  1
  Sr  Sr42  1  0.35198838  0.16548232  0.36835058  1
  Sr  Sr43  1  0.33871537  0.15064644  0.90012997  1
  Sr  Sr44  1  0.35835314  0.47876323  0.38380716  1
  Sr  Sr45  1  0.33203661  0.49593996  0.86453701  1
  Sr  Sr46  1  0.32892386  0.84015109  0.37496575  1
  Sr  Sr47  1  0.37873589  0.82693942  0.83834817  1
  Sr  Sr48  1  0.70103929  0.15169040  0.37794506  1
  Sr  Sr49  1  0.67086306  0.16261078  0.85991006  1
  Sr  Sr50  1  0.67348926  0.48580168  0.36013343  1
  Sr  Sr51  1  0.71381209  0.49922388  0.84703968  1
  Sr  Sr52  1  0.71385959  0.84301991  0.34534049  1
  Sr  Sr53  1  0.67169492  0.81935046  0.90265773  1
  Sr  Sr54  1  0.13813889  0.01053642  0.41274483  1
  Sr  Sr55  1  0.16029106  0.00161911  0.88100654  1
  Sr  Sr56  1  0.15692038  0.33022263  0.39295321  1
  Sr  Sr57  1  0.16248330  0.34956499  0.85719475  1
  Sr  Sr58  1  0.16162817  0.67430528  0.36704895  1
  Sr  Sr59  1  0.11535698  0.66849210  0.91660140  1
  Sr  Sr60  1  0.46838826  0.00040913  0.39035628  1
  Sr  Sr61  1  0.48459318  0.01852454  0.85598400  1
  Sr  Sr62  1  0.49072129  0.31871992  0.36737395  1
  Sr  Sr63  1  0.44879644  0.33461661  0.92780278  1
  Sr  Sr64  1  0.44385489  0.67632073  0.40013251  1
  Sr  Sr65  1  0.48231699  0.66424383  0.88147602  1
  Sr  Sr66  1  0.83868054  0.00303019  0.35560161  1
  Sr  Sr67  1  0.78192665  0.00210977  0.92364712  1
  Sr  Sr68  1  0.79259971  0.33552005  0.38881988  1
  Sr  Sr69  1  0.82267936  0.33681989  0.88069510  1
  Sr  Sr70  1  0.81537126  0.67350750  0.38713126  1
  Sr  Sr71  1  0.82138114  0.68617045  0.85954472  1
  Ta  Ta72  1  0.16769790  0.20326619  -0.00015950  1
  Ta  Ta73  1  0.21105378  0.16546077  0.53558427  1
  Ta  Ta74  1  0.19357469  0.49734499  0.02358777  1
  Ta  Ta75  1  0.20454999  0.51420730  0.50023360  1
  Ta  Ta76  1  0.22355247  0.82682776  -0.02545259  1
  Ta  Ta77  1  0.19903203  0.84555967  0.53506653  1
  Ta  Ta78  1  0.53642217  0.16525523  0.02687569  1
  Ta  Ta79  1  0.54627743  0.16264872  0.49776513  1
  Ta  Ta80  1  0.55479113  0.49716097  -0.01180956  1
  Ta  Ta81  1  0.53104822  0.50766735  0.48631792  1
  Ta  Ta82  1  0.49738446  0.86833385  0.01036799  1
  Ta  Ta83  1  0.54734708  0.82805152  0.47699146  1
  Ta  Ta84  1  0.89338612  0.16098019  -0.02663905  1
  Ta  Ta85  1  0.86792937  0.17358854  0.49145004  1
  Ta  Ta86  1  0.83839140  0.54137403  0.01230427  1
  Ta  Ta87  1  0.88112791  0.49752197  0.48189181  1
  Ta  Ta88  1  0.86534318  0.83176791  0.02485268  1
  Ta  Ta89  1  0.86697452  0.84550525  0.48918896  1
  Ta  Ta90  1  0.19321295  0.15873477  0.25559330  1
  Ta  Ta91  1  0.22489903  0.16034474  0.73839760  1
  Ta  Ta92  1  0.22345912  0.49422281  0.23347790  1
  Ta  Ta93  1  0.16458985  0.53801316  0.75993251  1
  Ta  Ta94  1  0.17233671  0.87213196  0.25162091  1
  Ta  Ta95  1  0.20240273  0.82727878  0.76391192  1
  Ta  Ta96  1  0.55800081  0.15702688  0.22906775  1
  Ta  Ta97  1  0.50514522  0.21295715  0.76167371  1
  Ta  Ta98  1  0.51206406  0.53646265  0.25418725  1
  Ta  Ta99  1  0.54166857  0.49677669  0.76666560  1
  Ta  Ta100  1  0.52822802  0.83312760  0.26882803  1
  Ta  Ta101  1  0.55451814  0.82317133  0.74217864  1
  Ta  Ta102  1  0.84830824  0.19885042  0.23637676  1
  Ta  Ta103  1  0.87297636  0.16890474  0.76704781  1
  Ta  Ta104  1  0.87147147  0.50494478  0.26668677  1
  Ta  Ta105  1  0.88588988  0.49473513  0.74012929  1
  Ta  Ta106  1  0.89963039  0.82807093  0.22603663  1
  Ta  Ta107  1  0.82059026  0.86989800  0.76145775  1
  Ta  Ta108  1  0.01458482  -0.03487308  0.23775712  1
  Ta  Ta109  1  -0.06784085  0.01027146  0.77333299  1
  Ta  Ta110  1  -0.05198810  0.34138339  0.26168720  1
  Ta  Ta111  1  -0.02904806  0.33587239  0.74071612  1
  Ta  Ta112  1  -0.03032688  0.67447080  0.22731669  1
  Ta  Ta113  1  -0.01512864  0.62898947  0.75022367  1
  Ta  Ta114  1  0.27662456  0.00158316  0.25654279  1
  Ta  Ta115  1  0.29757376  -0.01127613  0.73459033  1
  Ta  Ta116  1  0.29857655  0.33414749  0.22791771  1
  Ta  Ta117  1  0.33084412  0.29903156  0.76170025  1
  Ta  Ta118  1  0.32346575  0.63463038  0.24117800  1
  Ta  Ta119  1  0.27564554  0.67913127  0.75855389  1
  Ta  Ta120  1  0.63275145  0.00705439  0.21983803  1
  Ta  Ta121  1  0.66378502  -0.04064050  0.75372217  1
  Ta  Ta122  1  0.66069871  0.29451899  0.23931692  1
  Ta  Ta123  1  0.60992308  0.34280294  0.76635650  1
  Ta  Ta124  1  0.60659083  0.67429361  0.27303624  1
  Ta  Ta125  1  0.63659314  0.66334291  0.74281594  1
  Ta  Ta126  1  -0.02907640  0.00160795  -0.02862097  1
  Ta  Ta127  1  -0.03695054  -0.00234461  0.50852081  1
  Ta  Ta128  1  0.00346308  0.29827476  0.00061337  1
  Ta  Ta129  1  -0.03988997  0.33681340  0.46458087  1
  Ta  Ta130  1  -0.06067696  0.68011013  0.02440375  1
  Ta  Ta131  1  -0.02768103  0.65069778  0.48535909  1
  Ta  Ta132  1  0.33101731  -0.04027718  -0.01264750  1
  Ta  Ta133  1  0.28444939  -0.00225657  0.53515705  1
  Ta  Ta134  1  0.27525241  0.34007948  0.02579612  1
  Ta  Ta135  1  0.30445199  0.32018299  0.50932286  1
  Ta  Ta136  1  0.29717249  0.67131926  -0.01855478  1
  Ta  Ta137  1  0.28456794  0.67830636  0.52465953  1
  Ta  Ta138  1  0.60597694  0.00596965  0.02403150  1
  Ta  Ta139  1  0.64059000  -0.01036153  0.48457750  1
  Ta  Ta140  1  0.62722755  0.33988919  -0.02268592  1
  Ta  Ta141  1  0.62685703  0.32088230  0.50318932  1
  Ta  Ta142  1  0.66141472  0.63599173  0.00338311  1
  Ta  Ta143  1  0.61653813  0.65911693  0.46995463  1
  N  N144  1  0.33680160  -0.00626195  0.85493130  1
  N  N145  1  0.14651897  0.16508290  0.64953770  1
  N  N146  1  0.52342304  0.50236590  0.11645128  1
  N  N147  1  0.02089941  -0.00459290  0.85228271  1
  N  N148  1  0.17332778  0.49708045  0.63496878  1
  N  N149  1  0.14261035  0.50669251  0.15067896  1
  N  N150  1  0.18810627  0.16514834  0.87187712  1
  N  N151  1  -0.02986523  0.00426565  0.63905117  1
  N  N152  1  0.85871977  0.83338886  0.35990256  1
  N  N153  1  0.69241591  -0.00272177  0.10567076  1
  N  N154  1  0.85045433  0.49452445  0.61143579  1
  N  N155  1  0.34491348  0.65957663  0.85844941  1
  N  N156  1  0.33454564  0.66382984  0.11383294  1
  N  N157  1  0.50734283  0.47161140  0.36289403  1
  N  N158  1  0.16358343  0.50580222  0.89564106  1
  N  N159  1  0.85890320  0.16556271  0.10137607  1
  N  N160  1  0.31344656  0.33199930  0.88606084  1
  N  N161  1  0.47899611  0.17332413  0.13950120  1
  N  N162  1  0.65029570  0.32258328  0.36791294  1
  N  N163  1  0.02449259  0.33117358  0.35213209  1
  N  N164  1  0.35720247  0.33093874  0.11127916  1
  N  N165  1  -0.01629357  0.33301688  0.12349412  1
  N  N166  1  0.14696225  0.83577725  0.88113292  1
  N  N167  1  0.18965320  0.49638975  0.37034856  1
  N  N168  1  0.16277375  0.16655383  0.13254762  1
  N  N169  1  0.52434024  0.82536300  0.61526344  1
  N  N170  1  0.33672411  0.67587355  0.63589803  1
  N  N171  1  0.02276768  0.67106243  0.10925745  1
  N  N172  1  0.46930417  0.84004234  0.38627246  1
  N  N173  1  -0.01650535  0.66339240  0.61687156  1
  N  N174  1  0.83481160  0.50784553  0.14367917  1
  N  N175  1  0.84667317  0.15816939  0.36553139  1
  N  N176  1  0.49263174  0.83907490  0.13952552  1
  O  O177  1  0.52016664  0.15638434  0.36937539  1
  O  O178  1  0.65920204  -0.01796760  0.61848507  1
  O  O179  1  0.51747552  0.82664208  0.88068461  1
  O  O180  1  0.18644961  0.16166618  0.40220821  1
  O  O181  1  0.01783865  0.67093599  0.35923284  1
  O  O182  1  -0.02492388  0.33238956  0.60642244  1
  O  O183  1  0.30907839  0.32228225  0.37369491  1
  O  O184  1  0.00811068  0.33281900  0.86452939  1
  O  O185  1  0.63513493  0.65886521  0.60978212  1
  O  O186  1  0.68994063  0.32319461  0.85547500  1
  O  O187  1  0.28912760  0.00282673  0.39132197  1
  O  O188  1  0.50297617  0.17356540  0.88961399  1
  O  O189  1  0.18641919  0.84044701  0.11887353  1
  O  O190  1  0.68702860  0.64819866  0.35912322  1
  O  O191  1  0.30690194  0.68228839  0.37099768  1
  O  O192  1  0.84908258  0.49561141  0.88403688  1
  O  O193  1  0.66253326  -0.00408688  0.35453761  1
  O  O194  1  0.17653363  0.85364245  0.39649107  1
  O  O195  1  0.47694920  0.50444059  0.88076340  1
  O  O196  1  0.37119329  -0.00574138  0.61808929  1
  O  O197  1  0.67324429  0.65702063  0.87234833  1
  O  O198  1  0.52958704  0.16184051  0.63482339  1
  O  O199  1  0.66196250  0.33180497  0.10418279  1
  O  O200  1  0.64690100  -0.01599743  0.88557298  1
  O  O201  1  0.80518564  0.18053029  0.88528388  1
  O  O202  1  0.30774234  -0.00425645  0.11752038  1
  O  O203  1  -0.00123696  -0.01310672  0.36824148  1
  O  O204  1  0.01630525  -0.01161683  0.10346588  1
  O  O205  1  0.64655152  0.66708395  0.13285858  1
  O  O206  1  0.32000967  0.35538039  0.63562048  1
  O  O207  1  0.65831654  0.34145712  0.63068267  1
  O  O208  1  0.80656248  0.83245651  0.15257111  1
  O  O209  1  -0.02691609  0.67418489  0.87819849  1
  O  O210  1  0.85299860  0.17506531  0.63485412  1
  O  O211  1  0.13336220  0.83718879  0.64600752  1
  O  O212  1  0.83527401  0.84990881  0.63055086  1
  O  O213  1  0.82236952  0.84410504  0.89896604  1
  O  O214  1  0.52885876  0.50295148  0.62999754  1
  O  O215  1  0.80360533  0.51482607  0.38706722  1
