# generated using pymatgen
data_Sr24Ta24N11O13
_symmetry_space_group_name_H-M   'P 1'
_cell_length_a   16.95071467
_cell_length_b   16.78263745
_cell_length_c   15.76463176
_cell_angle_alpha   90.03569422
_cell_angle_beta   90.12551421
_cell_angle_gamma   89.98994565
_symmetry_Int_Tables_number   1
_chemical_formula_structural   Sr24Ta24N11O13
_chemical_formula_sum   'Sr72 Ta72 N33 O39'
_cell_volume   4484.67446672
_cell_formula_units_Z   3
loop_
 _symmetry_equiv_pos_site_id
 _symmetry_equiv_pos_as_xyz
  1  'x, y, z'
loop_
 _atom_site_type_symbol
 _atom_site_label
 _atom_site_symmetry_multiplicity
 _atom_site_fract_x
 _atom_site_fract_y
 _atom_site_fract_z
 _atom_site_occupancy
  Sr  Sr0  1  0.01493648  0.17100331  0.13887257  1
  Sr  Sr1  1  0.01945645  0.18424229  0.61288490  1
  Sr  Sr2  1  -0.00493649  0.51478754  0.09258453  1
  Sr  Sr3  1  0.02483217  0.50013065  0.62805498  1
  Sr  Sr4  1  0.01371232  0.84380512  0.14671663  1
  Sr  Sr5  1  0.00550447  0.83737859  0.62135123  1
  Sr  Sr6  1  0.33952265  0.16853064  0.09079108  1
  Sr  Sr7  1  0.33599527  0.16941603  0.63509262  1
  Sr  Sr8  1  0.33587078  0.49738226  0.12801417  1
  Sr  Sr9  1  0.35700935  0.51599063  0.62033439  1
  Sr  Sr10  1  0.33811313  0.84860871  0.14018128  1
  Sr  Sr11  1  0.36555356  0.83401196  0.62858164  1
  Sr  Sr12  1  0.66658427  0.16915317  0.12107774  1
  Sr  Sr13  1  0.68944410  0.15134405  0.64409919  1
  Sr  Sr14  1  0.69432892  0.50790017  0.16620743  1
  Sr  Sr15  1  0.67157524  0.49936618  0.62357074  1
  Sr  Sr16  1  0.68385967  0.82103139  0.11476483  1
  Sr  Sr17  1  0.69056516  0.83489482  0.60369512  1
  Sr  Sr18  1  0.17240293  0.00558828  0.12142490  1
  Sr  Sr19  1  0.14819493  -0.02280855  0.62660164  1
  Sr  Sr20  1  0.16048233  0.33958215  0.16535393  1
  Sr  Sr21  1  0.15673994  0.33072438  0.61995098  1
  Sr  Sr22  1  0.15352070  0.63976984  0.08758141  1
  Sr  Sr23  1  0.14096967  0.67025069  0.62982754  1
  Sr  Sr24  1  0.50285708  0.00170113  0.16548622  1
  Sr  Sr25  1  0.47793083  0.00818445  0.62041836  1
  Sr  Sr26  1  0.47722627  0.33363159  0.10886623  1
  Sr  Sr27  1  0.47648602  0.33092583  0.60503250  1
  Sr  Sr28  1  0.47647272  0.66492909  0.11915775  1
  Sr  Sr29  1  0.49416012  0.65978006  0.65198733  1
  Sr  Sr30  1  0.79971409  -0.00450888  0.08329062  1
  Sr  Sr31  1  0.83720484  -0.00322050  0.63070727  1
  Sr  Sr32  1  0.82797796  0.31594636  0.12256861  1
  Sr  Sr33  1  0.79996636  0.33197921  0.63657233  1
  Sr  Sr34  1  0.84053507  0.67826471  0.13120312  1
  Sr  Sr35  1  0.80352658  0.65110367  0.61118268  1
  Sr  Sr36  1  0.00983561  0.18102918  0.35913747  1
  Sr  Sr37  1  0.01764121  0.17606250  0.88582267  1
  Sr  Sr38  1  0.02213222  0.50086774  0.39713884  1
  Sr  Sr39  1  0.00784227  0.50148274  0.87589817  1
  Sr  Sr40  1  0.00669646  0.83039620  0.37309575  1
  Sr  Sr41  1  0.01519828  0.85110958  0.84338944  1
  Sr  Sr42  1  0.34927429  0.17347800  0.41460236  1
  Sr  Sr43  1  0.33056590  0.17119995  0.86835965  1
  Sr  Sr44  1  0.33991491  0.49366753  0.34928706  1
  Sr  Sr45  1  0.35120813  0.51101114  0.90576592  1
  Sr  Sr46  1  0.35317941  0.84299187  0.36076491  1
  Sr  Sr47  1  0.36163086  0.83858440  0.86737838  1
  Sr  Sr48  1  0.67039797  0.15700350  0.35601914  1
  Sr  Sr49  1  0.68239186  0.15893462  0.87931614  1
  Sr  Sr50  1  0.68702937  0.50197955  0.38614111  1
  Sr  Sr51  1  0.67635244  0.51204901  0.83313408  1
  Sr  Sr52  1  0.68883847  0.82947310  0.38136213  1
  Sr  Sr53  1  0.68934802  0.82719037  0.90786493  1
  Sr  Sr54  1  0.15148171  -0.01851397  0.34686429  1
  Sr  Sr55  1  0.17142323  0.00331284  0.90968703  1
  Sr  Sr56  1  0.15729499  0.32939706  0.38197678  1
  Sr  Sr57  1  0.16158565  0.32594137  0.83440989  1
  Sr  Sr58  1  0.14097467  0.66625671  0.40727873  1
  Sr  Sr59  1  0.14237692  0.65584416  0.86552924  1
  Sr  Sr60  1  0.49169937  0.00335915  0.37820878  1
  Sr  Sr61  1  0.48533865  0.01306913  0.83413379  1
  Sr  Sr62  1  0.47874211  0.33917285  0.38542740  1
  Sr  Sr63  1  0.48051782  0.32092673  0.90575823  1
  Sr  Sr64  1  0.47085332  0.65965868  0.36777414  1
  Sr  Sr65  1  0.50229560  0.66854044  0.88130990  1
  Sr  Sr66  1  0.82013650  -0.00485868  0.41205423  1
  Sr  Sr67  1  0.82308293  -0.00772469  0.85874387  1
  Sr  Sr68  1  0.80781203  0.32010300  0.35527533  1
  Sr  Sr69  1  0.82061154  0.32991080  0.88172045  1
  Sr  Sr70  1  0.82073639  0.66784348  0.35102381  1
  Sr  Sr71  1  0.82681012  0.66088643  0.89408614  1
  Ta  Ta72  1  0.16722564  0.20848417  0.00486908  1
  Ta  Ta73  1  0.17030440  0.12695344  0.49583555  1
  Ta  Ta74  1  0.16976030  0.45492017  -0.00298197  1
  Ta  Ta75  1  0.20462059  0.50195892  0.50189936  1
  Ta  Ta76  1  0.17102447  0.81397977  0.00129229  1
  Ta  Ta77  1  0.20821078  0.83131385  0.49560442  1
  Ta  Ta78  1  0.50518125  0.12593899  0.00165534  1
  Ta  Ta79  1  0.54079245  0.16710291  0.50572470  1
  Ta  Ta80  1  0.54603048  0.50201975  0.00690303  1
  Ta  Ta81  1  0.51801692  0.50787746  0.50405048  1
  Ta  Ta82  1  0.50545935  0.87532061  0.00162500  1
  Ta  Ta83  1  0.52745719  0.82406053  0.50033250  1
  Ta  Ta84  1  0.86636849  0.15038566  0.00088242  1
  Ta  Ta85  1  0.85642576  0.17678958  0.50124616  1
  Ta  Ta86  1  0.79694609  0.49286633  -0.00360061  1
  Ta  Ta87  1  0.85869961  0.48881387  0.50663617  1
  Ta  Ta88  1  0.88025083  0.83912824  -0.00202186  1
  Ta  Ta89  1  0.85704286  0.81200063  0.49399776  1
  Ta  Ta90  1  0.21054481  0.16382746  0.24756939  1
  Ta  Ta91  1  0.16403515  0.13306664  0.75584210  1
  Ta  Ta92  1  0.15555320  0.52643456  0.24419717  1
  Ta  Ta93  1  0.21189784  0.50467983  0.75837819  1
  Ta  Ta94  1  0.17174150  0.77950731  0.24675553  1
  Ta  Ta95  1  0.20369564  0.82676307  0.75264691  1
  Ta  Ta96  1  0.48151262  0.18409848  0.24614286  1
  Ta  Ta97  1  0.51829599  0.19678272  0.74770838  1
  Ta  Ta98  1  0.52498467  0.48889435  0.24297229  1
  Ta  Ta99  1  0.49892849  0.46217192  0.75457096  1
  Ta  Ta100  1  0.53730555  0.82150991  0.24949767  1
  Ta  Ta101  1  0.54745874  0.83423347  0.75485178  1
  Ta  Ta102  1  0.83553842  0.11844262  0.24498503  1
  Ta  Ta103  1  0.87773439  0.17277526  0.74666882  1
  Ta  Ta104  1  0.87530006  0.49151429  0.24924736  1
  Ta  Ta105  1  0.86215832  0.49947241  0.74872361  1
  Ta  Ta106  1  0.83912210  0.87352767  0.24469902  1
  Ta  Ta107  1  0.83069559  0.80681724  0.75236150  1
  Ta  Ta108  1  -0.05027272  0.00460976  0.24868853  1
  Ta  Ta109  1  0.00212610  0.03935711  0.74615921  1
  Ta  Ta110  1  -0.01614963  0.36967087  0.25054661  1
  Ta  Ta111  1  -0.03163862  0.33460772  0.74238000  1
  Ta  Ta112  1  0.01856874  0.65261920  0.24810713  1
  Ta  Ta113  1  -0.04500608  0.66702362  0.74177010  1
  Ta  Ta114  1  0.33131440  0.04622988  0.24816106  1
  Ta  Ta115  1  0.29585694  -0.00493084  0.75357453  1
  Ta  Ta116  1  0.33281940  0.29635990  0.24887922  1
  Ta  Ta117  1  0.34144292  0.36389494  0.75790537  1
  Ta  Ta118  1  0.28199281  0.66607935  0.24406958  1
  Ta  Ta119  1  0.30369863  0.66845983  0.75514580  1
  Ta  Ta120  1  0.68642181  -0.01689231  0.24716340  1
  Ta  Ta121  1  0.65365433  -0.03548176  0.75662200  1
  Ta  Ta122  1  0.62175440  0.33610465  0.24552186  1
  Ta  Ta123  1  0.62056945  0.33109094  0.75554777  1
  Ta  Ta124  1  0.63127848  0.67498265  0.25725696  1
  Ta  Ta125  1  0.66895894  0.70070162  0.75295425  1
  Ta  Ta126  1  -0.02212376  0.00192779  -0.00063720  1
  Ta  Ta127  1  0.00071815  0.02874879  0.49998482  1
  Ta  Ta128  1  0.03065487  0.33508543  -0.00083159  1
  Ta  Ta129  1  -0.04784573  0.33809149  0.50504440  1
  Ta  Ta130  1  -0.00206807  0.71216490  -0.00154114  1
  Ta  Ta131  1  -0.04214644  0.66374445  0.49763832  1
  Ta  Ta132  1  0.37120889  -0.00399983  0.00051555  1
  Ta  Ta133  1  0.29731954  -0.00700710  0.50272182  1
  Ta  Ta134  1  0.28676127  0.33743805  0.00241011  1
  Ta  Ta135  1  0.30922403  0.36085003  0.49812908  1
  Ta  Ta136  1  0.30649612  0.69905839  0.00439831  1
  Ta  Ta137  1  0.30858085  0.67378239  0.49894567  1
  Ta  Ta138  1  0.61768943  -0.00118173  -0.00127610  1
  Ta  Ta139  1  0.64088091  0.00459132  0.49848652  1
  Ta  Ta140  1  0.65988610  0.38484845  0.00225101  1
  Ta  Ta141  1  0.64260763  0.31473048  0.50043050  1
  Ta  Ta142  1  0.66379680  0.62592146  0.00206553  1
  Ta  Ta143  1  0.62600866  0.66716389  0.50088754  1
  N  N144  1  0.50926687  0.49494722  0.62804223  1
  N  N145  1  0.32201997  0.33480718  0.37811492  1
  N  N146  1  0.84542656  0.83455756  0.37221672  1
  N  N147  1  0.82718132  0.49336202  0.62635982  1
  N  N148  1  0.66014753  0.65951707  0.37670443  1
  N  N149  1  0.33701019  0.00876129  0.12711104  1
  N  N150  1  0.50127395  0.16325119  0.12659960  1
  N  N151  1  0.84418885  0.83350302  0.87072834  1
  N  N152  1  -0.00854471  0.66481134  0.37098453  1
  N  N153  1  0.17607455  0.49767913  0.87512037  1
  N  N154  1  -0.00064178  0.34045543  0.62306681  1
  N  N155  1  0.17173826  0.16765158  0.12297354  1
  N  N156  1  0.65449943  -0.00259837  0.12799550  1
  N  N157  1  0.50533069  0.16370968  0.62936109  1
  N  N158  1  0.32222885  -0.00099556  0.62411057  1
  N  N159  1  0.32136267  0.66668340  0.12249763  1
  N  N160  1  -0.01118716  0.66654240  0.62500538  1
  N  N161  1  0.65278816  0.66803570  0.63108116  1
  N  N162  1  0.65882602  -0.00182720  0.37777597  1
  N  N163  1  0.49630119  0.50367482  0.12401451  1
  N  N164  1  0.66302620  0.66391976  0.88053348  1
  N  N165  1  0.33263631  0.00011244  0.87681010  1
  N  N166  1  -0.00544674  0.00591524  0.62251160  1
  N  N167  1  0.32356619  0.33561956  0.13196420  1
  N  N168  1  0.83172968  0.49257412  0.87816261  1
  N  N169  1  -0.00196421  0.67770248  0.11777619  1
  N  N170  1  0.66306766  -0.00265650  0.87560834  1
  N  N171  1  0.16283113  0.49225201  0.12681336  1
  N  N172  1  0.32827058  0.33682103  0.87556471  1
  N  N173  1  0.84014332  0.15758847  0.12050640  1
  N  N174  1  0.84306972  0.16594338  0.62270339  1
  N  N175  1  0.17099354  0.16431247  0.87489287  1
  N  N176  1  0.84226616  0.83839597  0.12173761  1
  O  O177  1  0.16881146  0.82954181  0.12802194  1
  O  O178  1  0.84560776  0.16779285  0.87306924  1
  O  O179  1  0.52001892  0.83022253  0.88309882  1
  O  O180  1  0.85086757  0.49653709  0.37223503  1
  O  O181  1  0.32342653  0.34178891  0.62593028  1
  O  O182  1  0.83663122  0.16112019  0.36742027  1
  O  O183  1  0.20072729  0.82538077  0.62795570  1
  O  O184  1  0.64138959  0.33228411  0.62430492  1
  O  O185  1  0.64114269  0.32675714  0.37467265  1
  O  O186  1  0.17236048  0.83181996  0.87857407  1
  O  O187  1  0.64627580  0.33646883  0.12315460  1
  O  O188  1  0.66149930  -0.00601508  0.63048051  1
  O  O189  1  -0.01177806  0.00866498  0.37225737  1
  O  O190  1  0.17308281  0.14451555  0.61990025  1
  O  O191  1  0.16762211  0.15125965  0.37177412  1
  O  O192  1  0.18069700  0.50685578  0.37559908  1
  O  O193  1  0.31688792  0.66388429  0.37353273  1
  O  O194  1  0.52190834  0.83251285  0.12452000  1
  O  O195  1  0.64529179  0.34280276  0.88065625  1
  O  O196  1  0.50217162  0.49979840  0.37115294  1
  O  O197  1  0.00566090  0.33733364  0.87386841  1
  O  O198  1  -0.00904002  0.67690095  0.87010289  1
  O  O199  1  0.31565617  0.67234140  0.62428704  1
  O  O200  1  0.50413982  0.16752864  0.38144850  1
  O  O201  1  0.18195353  0.82373378  0.37136108  1
  O  O202  1  0.66199616  0.65859019  0.12926329  1
  O  O203  1  0.51038085  0.50376090  0.87416773  1
  O  O204  1  0.32164868  0.66963028  0.87937128  1
  O  O205  1  -0.01650081  0.34489069  0.37596357  1
  O  O206  1  0.00431572  0.35056119  0.12177174  1
  O  O207  1  0.52734416  0.83175650  0.62479585  1
  O  O208  1  -0.00811894  0.00368867  0.12399964  1
  O  O209  1  0.84372947  0.49322116  0.12245265  1
  O  O210  1  -0.00500068  0.00530138  0.87285091  1
  O  O211  1  0.18733090  0.50367180  0.62698900  1
  O  O212  1  0.50674773  0.16438355  0.87448134  1
  O  O213  1  0.33164085  0.00247055  0.37192437  1
  O  O214  1  0.51460075  0.83548188  0.37485976  1
  O  O215  1  0.84448436  0.83841261  0.62060763  1
