# generated using pymatgen
data_Sr24Ta24N11O13
_symmetry_space_group_name_H-M   'P 1'
_cell_length_a   16.95040637
_cell_length_b   16.82920806
_cell_length_c   15.76869762
_cell_angle_alpha   90.10871816
_cell_angle_beta   89.86056698
_cell_angle_gamma   89.98833292
_symmetry_Int_Tables_number   1
_chemical_formula_structural   Sr24Ta24N11O13
_chemical_formula_sum   'Sr72 Ta72 N33 O39'
_cell_volume   4498.18737107
_cell_formula_units_Z   3
loop_
 _symmetry_equiv_pos_site_id
 _symmetry_equiv_pos_as_xyz
  1  'x, y, z'
loop_
 _atom_site_type_symbol
 _atom_site_label
 _atom_site_symmetry_multiplicity
 _atom_site_fract_x
 _atom_site_fract_y
 _atom_site_fract_z
 _atom_site_occupancy
  Sr  Sr0  1  -0.00006786  0.16511543  0.12425101  1
  Sr  Sr1  1  0.02133172  0.19517500  0.63194049  1
  Sr  Sr2  1  -0.00305719  0.52480513  0.11599085  1
  Sr  Sr3  1  0.02792065  0.49977112  0.61977095  1
  Sr  Sr4  1  0.02374808  0.84987317  0.08957346  1
  Sr  Sr5  1  -0.00143461  0.83383240  0.63085261  1
  Sr  Sr6  1  0.33799911  0.14768556  0.08281332  1
  Sr  Sr7  1  0.32562931  0.17400886  0.63653331  1
  Sr  Sr8  1  0.34141023  0.50292024  0.12267839  1
  Sr  Sr9  1  0.35668258  0.52401260  0.62694685  1
  Sr  Sr10  1  0.31112664  0.84358611  0.17856820  1
  Sr  Sr11  1  0.36001565  0.82490385  0.61887240  1
  Sr  Sr12  1  0.65969470  0.19347805  0.13926980  1
  Sr  Sr13  1  0.69518108  0.16388338  0.61776223  1
  Sr  Sr14  1  0.68058933  0.51881524  0.15253938  1
  Sr  Sr15  1  0.66741584  0.50779782  0.61846300  1
  Sr  Sr16  1  0.66291687  0.83099213  0.12142607  1
  Sr  Sr17  1  0.68935107  0.86022701  0.62663456  1
  Sr  Sr18  1  0.15425159  0.01467503  0.12367552  1
  Sr  Sr19  1  0.14178654  -0.02210160  0.62200927  1
  Sr  Sr20  1  0.15675041  0.31517297  0.16131766  1
  Sr  Sr21  1  0.17129607  0.32914249  0.61598242  1
  Sr  Sr22  1  0.17894878  0.65602963  0.12510433  1
  Sr  Sr23  1  0.13968739  0.67067756  0.62262861  1
  Sr  Sr24  1  0.50129319  -0.01022044  0.13821643  1
  Sr  Sr25  1  0.46768509  0.00244123  0.62661417  1
  Sr  Sr26  1  0.49415113  0.33399365  0.12543967  1
  Sr  Sr27  1  0.47697851  0.30804439  0.62310252  1
  Sr  Sr28  1  0.49666112  0.66180293  0.09322993  1
  Sr  Sr29  1  0.50569225  0.66386225  0.63569326  1
  Sr  Sr30  1  0.81673872  -0.03128169  0.12492463  1
  Sr  Sr31  1  0.83912832  -0.00840251  0.62134168  1
  Sr  Sr32  1  0.83386240  0.31264741  0.11345205  1
  Sr  Sr33  1  0.80644687  0.33490516  0.62811659  1
  Sr  Sr34  1  0.81956969  0.67143944  0.13232987  1
  Sr  Sr35  1  0.81358763  0.64065230  0.62279732  1
  Sr  Sr36  1  0.02257042  0.17883323  0.34234991  1
  Sr  Sr37  1  0.00554549  0.17674640  0.89052756  1
  Sr  Sr38  1  0.02268784  0.51477870  0.38215923  1
  Sr  Sr39  1  0.01715265  0.50778095  0.88226579  1
  Sr  Sr40  1  0.00550635  0.85395667  0.41708271  1
  Sr  Sr41  1  0.01069005  0.84616738  0.85528107  1
  Sr  Sr42  1  0.34298188  0.17510233  0.42220697  1
  Sr  Sr43  1  0.33120965  0.16704536  0.86421487  1
  Sr  Sr44  1  0.34333285  0.49835429  0.34901682  1
  Sr  Sr45  1  0.34533134  0.52028911  0.90063240  1
  Sr  Sr46  1  0.35415373  0.83428540  0.38427297  1
  Sr  Sr47  1  0.36256384  0.82909485  0.83658399  1
  Sr  Sr48  1  0.66806519  0.17447375  0.36911627  1
  Sr  Sr49  1  0.68509926  0.18486580  0.87496517  1
  Sr  Sr50  1  0.67059457  0.51684659  0.39535797  1
  Sr  Sr51  1  0.67630619  0.51260784  0.83262433  1
  Sr  Sr52  1  0.68684398  0.84297565  0.34986749  1
  Sr  Sr53  1  0.67236523  0.83417076  0.90787049  1
  Sr  Sr54  1  0.15260659  -0.00525436  0.35331848  1
  Sr  Sr55  1  0.14655825  0.00236578  0.90538832  1
  Sr  Sr56  1  0.16259203  0.32552015  0.39128998  1
  Sr  Sr57  1  0.16094055  0.32484118  0.82934203  1
  Sr  Sr58  1  0.17179723  0.66059300  0.35437601  1
  Sr  Sr59  1  0.15222494  0.66324496  0.89130069  1
  Sr  Sr60  1  0.48860275  -0.00493905  0.36624336  1
  Sr  Sr61  1  0.47926248  0.00043326  0.87677392  1
  Sr  Sr62  1  0.49101047  0.33023994  0.35397516  1
  Sr  Sr63  1  0.47836043  0.32390312  0.90001401  1
  Sr  Sr64  1  0.49239516  0.65363176  0.41840682  1
  Sr  Sr65  1  0.50354771  0.66637279  0.86461069  1
  Sr  Sr66  1  0.82693631  -0.01686564  0.39889941  1
  Sr  Sr67  1  0.81824512  -0.02215537  0.84758098  1
  Sr  Sr68  1  0.82213086  0.31217858  0.37023804  1
  Sr  Sr69  1  0.83157123  0.32787757  0.88314841  1
  Sr  Sr70  1  0.81459251  0.65733250  0.35079240  1
  Sr  Sr71  1  0.82055109  0.65628676  0.88293457  1
  Ta  Ta72  1  0.16838119  0.21058891  -0.00656006  1
  Ta  Ta73  1  0.16283347  0.13423739  0.50190233  1
  Ta  Ta74  1  0.17246434  0.45004088  -0.00146733  1
  Ta  Ta75  1  0.20986235  0.50597488  0.49658543  1
  Ta  Ta76  1  0.20693620  0.83092185  -0.00436693  1
  Ta  Ta77  1  0.19456413  0.82685001  0.49662389  1
  Ta  Ta78  1  0.52487284  0.14934563  0.00761494  1
  Ta  Ta79  1  0.52657717  0.16002344  0.49235284  1
  Ta  Ta80  1  0.54521215  0.49879167  -0.00351457  1
  Ta  Ta81  1  0.50039212  0.46347117  0.50298237  1
  Ta  Ta82  1  0.46938775  0.83685272  0.00008754  1
  Ta  Ta83  1  0.54076586  0.83989659  0.50721062  1
  Ta  Ta84  1  0.82872893  0.12268463  0.00023473  1
  Ta  Ta85  1  0.88015318  0.16498720  0.49681946  1
  Ta  Ta86  1  0.80658000  0.49373339  -0.00092561  1
  Ta  Ta87  1  0.86406169  0.48942811  0.50061256  1
  Ta  Ta88  1  0.86123611  0.82294877  -0.00915465  1
  Ta  Ta89  1  0.83234601  0.79575508  0.50166366  1
  Ta  Ta90  1  0.22264625  0.16191150  0.26021720  1
  Ta  Ta91  1  0.16200881  0.12892827  0.75026272  1
  Ta  Ta92  1  0.16374257  0.47896381  0.24980092  1
  Ta  Ta93  1  0.20245886  0.50900371  0.75557520  1
  Ta  Ta94  1  0.11685759  0.82578737  0.25152448  1
  Ta  Ta95  1  0.19409056  0.83089767  0.75833557  1
  Ta  Ta96  1  0.45675730  0.16226058  0.25003585  1
  Ta  Ta97  1  0.53187898  0.16450969  0.75253996  1
  Ta  Ta98  1  0.51567086  0.52208941  0.25593816  1
  Ta  Ta99  1  0.50153914  0.46085785  0.74450659  1
  Ta  Ta100  1  0.50515492  0.79612925  0.25326974  1
  Ta  Ta101  1  0.54509659  0.84492899  0.75346484  1
  Ta  Ta102  1  0.83363541  0.12506345  0.25059431  1
  Ta  Ta103  1  0.86717753  0.16112441  0.74993454  1
  Ta  Ta104  1  0.84509893  0.46904886  0.25155355  1
  Ta  Ta105  1  0.86895463  0.49207958  0.74632352  1
  Ta  Ta106  1  0.88774648  0.82997157  0.25598221  1
  Ta  Ta107  1  0.83442386  0.79533620  0.74346818  1
  Ta  Ta108  1  -0.02416825  -0.01348155  0.24674393  1
  Ta  Ta109  1  -0.00413341  0.03274862  0.75161736  1
  Ta  Ta110  1  -0.01390654  0.37125718  0.25141389  1
  Ta  Ta111  1  -0.02702077  0.34988283  0.75072231  1
  Ta  Ta112  1  -0.00003506  0.70498723  0.25230289  1
  Ta  Ta113  1  -0.03623224  0.65894584  0.74436591  1
  Ta  Ta114  1  0.32744256  0.03782226  0.25674582  1
  Ta  Ta115  1  0.28735536  -0.00791591  0.75524469  1
  Ta  Ta116  1  0.32564291  0.30002921  0.25565947  1
  Ta  Ta117  1  0.33679459  0.37332133  0.74655650  1
  Ta  Ta118  1  0.37585841  0.66938365  0.24931244  1
  Ta  Ta119  1  0.29672057  0.66668613  0.75421627  1
  Ta  Ta120  1  0.68025849  0.02409954  0.24889823  1
  Ta  Ta121  1  0.63457284  0.01166319  0.75304214  1
  Ta  Ta122  1  0.66932649  0.36684793  0.24877163  1
  Ta  Ta123  1  0.62365330  0.33009031  0.75281779  1
  Ta  Ta124  1  0.61985067  0.67371327  0.25444335  1
  Ta  Ta125  1  0.67069578  0.70463586  0.74825077  1
  Ta  Ta126  1  -0.04292227  0.00516549  -0.00323513  1
  Ta  Ta127  1  -0.00100898  0.04556574  0.49460509  1
  Ta  Ta128  1  0.03666916  0.34254929  0.00238544  1
  Ta  Ta129  1  -0.02973715  0.33673947  0.49091539  1
  Ta  Ta130  1  -0.02317317  0.68933128  -0.00408584  1
  Ta  Ta131  1  -0.04035478  0.66561543  0.49933747  1
  Ta  Ta132  1  0.32898381  -0.05489462  0.00363652  1
  Ta  Ta133  1  0.29276400  -0.00751879  0.49626996  1
  Ta  Ta134  1  0.29222862  0.33188102  -0.00078499  1
  Ta  Ta135  1  0.33576178  0.36973437  0.49944429  1
  Ta  Ta136  1  0.33278432  0.72120624  0.00707881  1
  Ta  Ta137  1  0.30261366  0.66620336  0.49308111  1
  Ta  Ta138  1  0.66275052  0.03196373  0.00808992  1
  Ta  Ta139  1  0.63364601  0.00309600  0.49390482  1
  Ta  Ta140  1  0.66327404  0.37993495  0.00102406  1
  Ta  Ta141  1  0.62921586  0.33254697  0.49971910  1
  Ta  Ta142  1  0.66532201  0.63702982  -0.00112082  1
  Ta  Ta143  1  0.66810679  0.70536212  0.50236844  1
  N  N144  1  0.65859518  0.00037364  0.37164929  1
  N  N145  1  0.16930275  0.17043844  0.87597459  1
  N  N146  1  0.33340579  0.66913881  0.37348541  1
  N  N147  1  0.32524347  -0.00234463  0.37839416  1
  N  N148  1  0.33205264  0.32921250  0.37699514  1
  N  N149  1  0.17796015  0.49240782  0.87547425  1
  N  N150  1  0.65826843  0.67184249  0.12327077  1
  N  N151  1  0.65679981  -0.00457930  0.12490489  1
  N  N152  1  0.51108445  0.50029454  0.62690793  1
  N  N153  1  0.49923773  0.16470126  0.37220621  1
  N  N154  1  0.65960230  0.66863993  0.62574516  1
  N  N155  1  0.66314049  0.67105950  0.87505670  1
  N  N156  1  0.49468112  0.16586189  0.12448856  1
  N  N157  1  -0.00861252  0.00480015  0.87066771  1
  N  N158  1  0.51289088  0.83798742  0.62709470  1
  N  N159  1  0.16269155  0.83121121  0.87680352  1
  N  N160  1  0.32495519  0.34041570  0.62802384  1
  N  N161  1  0.51002270  0.83603023  0.88028296  1
  N  N162  1  -0.01188235  0.66300853  0.62210166  1
  N  N163  1  0.17874449  0.16544373  0.37862613  1
  N  N164  1  0.50638265  0.50057118  0.37691282  1
  N  N165  1  0.17628346  0.49661907  0.37026082  1
  N  N166  1  0.65867717  0.67440336  0.37530400  1
  N  N167  1  0.84750500  0.82555607  0.37459590  1
  N  N168  1  0.84504270  0.83569636  0.62261975  1
  N  N169  1  0.83965685  0.48787451  0.62250380  1
  N  N170  1  0.66502751  0.34979202  0.12662332  1
  N  N171  1  -0.00503938  0.00486362  0.12092767  1
  N  N172  1  -0.00268692  0.00975727  0.37560283  1
  N  N173  1  0.17242534  0.16461398  0.62906911  1
  N  N174  1  0.83917057  0.82659313  0.87026168  1
  N  N175  1  0.00116310  0.33456904  0.37226664  1
  N  N176  1  0.33685756  0.67983560  0.12778530  1
  O  O177  1  0.16478571  0.82543386  0.13085717  1
  O  O178  1  0.32724693  -0.00914247  0.12443273  1
  O  O179  1  -0.02087201  0.34215942  0.62622503  1
  O  O180  1  0.32472246  0.67545941  0.88022232  1
  O  O181  1  0.85056645  0.15210053  0.37014025  1
  O  O182  1  0.83514570  0.49161390  0.37342271  1
  O  O183  1  0.84731608  0.82223829  0.13100455  1
  O  O184  1  -0.00750446  -0.00353590  0.61876412  1
  O  O185  1  0.64595262  0.01381530  0.62792604  1
  O  O186  1  0.00836400  0.34142472  0.12609225  1
  O  O187  1  0.00680879  0.34640684  0.87780925  1
  O  O188  1  0.31955396  0.33464035  0.87032122  1
  O  O189  1  0.18254878  0.49587197  0.12070351  1
  O  O190  1  0.64640371  0.33861104  0.87623841  1
  O  O191  1  0.52156294  0.49847956  0.86818518  1
  O  O192  1  0.50650263  0.82178997  0.12323224  1
  O  O193  1  0.52123290  0.15809804  0.62833652  1
  O  O194  1  0.83697793  0.15010529  0.87162814  1
  O  O195  1  0.30646290  0.67344059  0.62981047  1
  O  O196  1  0.18520148  0.16810394  0.11704309  1
  O  O197  1  -0.00192053  0.67675610  0.37833008  1
  O  O198  1  0.51203648  0.16942088  0.87773014  1
  O  O199  1  0.64350846  0.32326105  0.62373102  1
  O  O200  1  0.18174432  0.50238295  0.62129925  1
  O  O201  1  -0.00724076  0.66704995  0.87214833  1
  O  O202  1  0.83399211  0.48444792  0.12021483  1
  O  O203  1  0.31393993  0.32426302  0.12258798  1
  O  O204  1  0.30357837  -0.00681204  0.63141353  1
  O  O205  1  0.51849285  0.50384546  0.11999121  1
  O  O206  1  0.18809167  0.82503370  0.62178124  1
  O  O207  1  0.65212704  0.33828721  0.37475498  1
  O  O208  1  0.83312297  0.14234613  0.12290425  1
  O  O209  1  0.50871018  0.82282823  0.37781022  1
  O  O210  1  0.86124892  0.17486438  0.62492825  1
  O  O211  1  0.82715879  0.49294188  0.87411411  1
  O  O212  1  0.31724659  -0.00989276  0.88053181  1
  O  O213  1  0.65540376  0.01172977  0.87581544  1
  O  O214  1  0.16143996  0.82718535  0.37240140  1
  O  O215  1  -0.00810019  0.68625849  0.12054965  1
