# generated using pymatgen
data_Sr24Ta24N11O13
_symmetry_space_group_name_H-M   'P 1'
_cell_length_a   16.94517088
_cell_length_b   16.72041820
_cell_length_c   15.71281817
_cell_angle_alpha   89.72192385
_cell_angle_beta   89.79843903
_cell_angle_gamma   90.16639343
_symmetry_Int_Tables_number   1
_chemical_formula_structural   Sr24Ta24N11O13
_chemical_formula_sum   'Sr72 Ta72 N33 O39'
_cell_volume   4451.81919884
_cell_formula_units_Z   3
loop_
 _symmetry_equiv_pos_site_id
 _symmetry_equiv_pos_as_xyz
  1  'x, y, z'
loop_
 _atom_site_type_symbol
 _atom_site_label
 _atom_site_symmetry_multiplicity
 _atom_site_fract_x
 _atom_site_fract_y
 _atom_site_fract_z
 _atom_site_occupancy
  Sr  Sr0  1  0.00565294  0.16511283  0.12741566  1
  Sr  Sr1  1  0.02063306  0.16126657  0.59939672  1
  Sr  Sr2  1  0.01837882  0.50418271  0.08942016  1
  Sr  Sr3  1  0.00297552  0.48354760  0.65144460  1
  Sr  Sr4  1  0.01643060  0.82445588  0.16510975  1
  Sr  Sr5  1  -0.02447535  0.84084594  0.61234320  1
  Sr  Sr6  1  0.37276014  0.16128080  0.08707944  1
  Sr  Sr7  1  0.32952649  0.16185042  0.63514876  1
  Sr  Sr8  1  0.34701892  0.48512806  0.15325393  1
  Sr  Sr9  1  0.34309031  0.49641400  0.62346774  1
  Sr  Sr10  1  0.34358886  0.83467574  0.11298937  1
  Sr  Sr11  1  0.35784975  0.82905742  0.60513269  1
  Sr  Sr12  1  0.67526770  0.16959242  0.15715671  1
  Sr  Sr13  1  0.66833904  0.16304547  0.61487782  1
  Sr  Sr14  1  0.68718430  0.49929384  0.12653655  1
  Sr  Sr15  1  0.67853786  0.51022903  0.58549334  1
  Sr  Sr16  1  0.68387589  0.84339652  0.11219769  1
  Sr  Sr17  1  0.66352406  0.82135905  0.66601523  1
  Sr  Sr18  1  0.14341157  0.00617463  0.13013217  1
  Sr  Sr19  1  0.17568990  0.00913298  0.66453527  1
  Sr  Sr20  1  0.15676174  0.33797462  0.13864017  1
  Sr  Sr21  1  0.16164804  0.33668314  0.59189194  1
  Sr  Sr22  1  0.16058734  0.67929916  0.09670361  1
  Sr  Sr23  1  0.12759508  0.68961023  0.64342971  1
  Sr  Sr24  1  0.52144599  -0.00303098  0.13725571  1
  Sr  Sr25  1  0.48519721  0.01090932  0.58218898  1
  Sr  Sr26  1  0.49909514  0.34931255  0.09782685  1
  Sr  Sr27  1  0.47869726  0.32130465  0.67089896  1
  Sr  Sr28  1  0.46157652  0.66419178  0.15508244  1
  Sr  Sr29  1  0.49284412  0.66725457  0.62079189  1
  Sr  Sr30  1  0.83819717  0.01558599  0.08640331  1
  Sr  Sr31  1  0.81049895  -0.00320292  0.64341387  1
  Sr  Sr32  1  0.81249864  0.31952209  0.15881639  1
  Sr  Sr33  1  0.80594707  0.33897652  0.62506923  1
  Sr  Sr34  1  0.83028134  0.66490057  0.13601784  1
  Sr  Sr35  1  0.82146437  0.65805359  0.59321838  1
  Sr  Sr36  1  0.01838948  0.17076417  0.36347865  1
  Sr  Sr37  1  0.00370763  0.15246777  0.90908218  1
  Sr  Sr38  1  0.02880493  0.47514117  0.38065227  1
  Sr  Sr39  1  -0.00867762  0.50453943  0.87105151  1
  Sr  Sr40  1  -0.01882036  0.82858493  0.38904170  1
  Sr  Sr41  1  0.02115761  0.83870893  0.82958778  1
  Sr  Sr42  1  0.34995949  0.15170701  0.39583231  1
  Sr  Sr43  1  0.34013025  0.16627260  0.86233798  1
  Sr  Sr44  1  0.32695208  0.49138591  0.37539789  1
  Sr  Sr45  1  0.36653468  0.49652466  0.85233369  1
  Sr  Sr46  1  0.35339741  0.83440910  0.38071585  1
  Sr  Sr47  1  0.34051763  0.82429879  0.89851941  1
  Sr  Sr48  1  0.67336402  0.16194752  0.38691775  1
  Sr  Sr49  1  0.68290118  0.18246592  0.82721475  1
  Sr  Sr50  1  0.69026709  0.50671138  0.37249995  1
  Sr  Sr51  1  0.67156669  0.49528392  0.90967147  1
  Sr  Sr52  1  0.67256162  0.83129100  0.33537039  1
  Sr  Sr53  1  0.67794879  0.83992079  0.88579077  1
  Sr  Sr54  1  0.15188182  0.00079682  0.33863964  1
  Sr  Sr55  1  0.15852511  0.01268813  0.86527696  1
  Sr  Sr56  1  0.17911284  0.32064121  0.37507485  1
  Sr  Sr57  1  0.12994789  0.33921861  0.90125850  1
  Sr  Sr58  1  0.14162583  0.70254542  0.38442453  1
  Sr  Sr59  1  0.15520846  0.66803200  0.88069626  1
  Sr  Sr60  1  0.51295649  0.00366332  0.36190684  1
  Sr  Sr61  1  0.48266325  -0.00767199  0.92156456  1
  Sr  Sr62  1  0.48277192  0.34682933  0.34929051  1
  Sr  Sr63  1  0.49159309  0.32517542  0.88096152  1
  Sr  Sr64  1  0.48249802  0.65303287  0.39172830  1
  Sr  Sr65  1  0.48907909  0.68144424  0.84158656  1
  Sr  Sr66  1  0.85537290  0.00470226  0.42756231  1
  Sr  Sr67  1  0.82861878  0.00088877  0.86735490  1
  Sr  Sr68  1  0.80539970  0.32961463  0.37449909  1
  Sr  Sr69  1  0.82446713  0.33749198  0.83913782  1
  Sr  Sr70  1  0.82624088  0.66999596  0.36224263  1
  Sr  Sr71  1  0.81193986  0.64874765  0.91902123  1
  Ta  Ta72  1  0.19427968  0.16947641  -0.00107591  1
  Ta  Ta73  1  0.17869333  0.13368455  0.49697561  1
  Ta  Ta74  1  0.22203010  0.49342791  -0.00040066  1
  Ta  Ta75  1  0.16760118  0.54311100  0.50698002  1
  Ta  Ta76  1  0.15093842  0.85545471  -0.00530371  1
  Ta  Ta77  1  0.17717277  0.86930525  0.50376746  1
  Ta  Ta78  1  0.55779602  0.16880549  -0.01053638  1
  Ta  Ta79  1  0.50014907  0.21082621  0.50550297  1
  Ta  Ta80  1  0.49952126  0.54364426  0.00631874  1
  Ta  Ta81  1  0.50041694  0.45696841  0.50335708  1
  Ta  Ta82  1  0.51394643  0.79576921  0.00641774  1
  Ta  Ta83  1  0.54873157  0.83506148  0.50184953  1
  Ta  Ta84  1  0.81401795  0.19109424  -0.01142793  1
  Ta  Ta85  1  0.85625725  0.18538274  0.51024025  1
  Ta  Ta86  1  0.84204253  0.45487635  0.00413032  1
  Ta  Ta87  1  0.87177451  0.48833318  0.49621737  1
  Ta  Ta88  1  0.87256126  0.83243926  0.00350389  1
  Ta  Ta89  1  0.78322420  0.83178298  0.49692827  1
  Ta  Ta90  1  0.21998651  0.16183442  0.24478611  1
  Ta  Ta91  1  0.15298505  0.19828928  0.74900529  1
  Ta  Ta92  1  0.16383666  0.53991586  0.24670509  1
  Ta  Ta93  1  0.18734963  0.49575392  0.75609727  1
  Ta  Ta94  1  0.20295822  0.83505824  0.24223616  1
  Ta  Ta95  1  0.21749580  0.83280654  0.75356417  1
  Ta  Ta96  1  0.49412364  0.19020806  0.24597837  1
  Ta  Ta97  1  0.50342622  0.11843951  0.75646880  1
  Ta  Ta98  1  0.53184229  0.50454329  0.24764288  1
  Ta  Ta99  1  0.54519992  0.50825178  0.74809042  1
  Ta  Ta100  1  0.51073080  0.81729787  0.24564823  1
  Ta  Ta101  1  0.49622171  0.87932448  0.74801135  1
  Ta  Ta102  1  0.84497131  0.12860221  0.26264771  1
  Ta  Ta103  1  0.87673509  0.16631531  0.73988451  1
  Ta  Ta104  1  0.87889827  0.49327727  0.24748443  1
  Ta  Ta105  1  0.81298391  0.52191184  0.74940342  1
  Ta  Ta106  1  0.83830812  0.88312383  0.25403018  1
  Ta  Ta107  1  0.83588655  0.78506757  0.75557397  1
  Ta  Ta108  1  -0.03986313  -0.00058484  0.24698313  1
  Ta  Ta109  1  -0.00876104  0.02828544  0.75050173  1
  Ta  Ta110  1  -0.02116675  0.34691646  0.24372101  1
  Ta  Ta111  1  0.00094824  0.29468901  0.74845599  1
  Ta  Ta112  1  0.00869179  0.62924753  0.24246455  1
  Ta  Ta113  1  -0.05629721  0.66257811  0.75404662  1
  Ta  Ta114  1  0.32526296  0.00876112  0.24386737  1
  Ta  Ta115  1  0.35840436  -0.01942068  0.75091746  1
  Ta  Ta116  1  0.33758251  0.28924171  0.24623630  1
  Ta  Ta117  1  0.28080879  0.33952409  0.75834251  1
  Ta  Ta118  1  0.28801145  0.67346228  0.24524822  1
  Ta  Ta119  1  0.30213474  0.67081954  0.75316284  1
  Ta  Ta120  1  0.71590879  0.00201577  0.24984390  1
  Ta  Ta121  1  0.62106006  -0.00070957  0.74972358  1
  Ta  Ta122  1  0.63205001  0.34350325  0.25167014  1
  Ta  Ta123  1  0.65021965  0.38248554  0.74369805  1
  Ta  Ta124  1  0.62986396  0.66338804  0.24095704  1
  Ta  Ta125  1  0.67717685  0.63788985  0.75402734  1
  Ta  Ta126  1  -0.00041556  -0.04605702  -0.00228390  1
  Ta  Ta127  1  0.05814285  -0.00690719  0.50181097  1
  Ta  Ta128  1  -0.05616875  0.32490662  0.00360925  1
  Ta  Ta129  1  -0.03389140  0.32709597  0.49967758  1
  Ta  Ta130  1  -0.01123649  0.71104732  0.00074905  1
  Ta  Ta131  1  -0.00473178  0.62643003  0.49993686  1
  Ta  Ta132  1  0.29254359  0.00311072  -0.00442995  1
  Ta  Ta133  1  0.28971124  -0.00485212  0.50306667  1
  Ta  Ta134  1  0.30577190  0.34077775  -0.00935073  1
  Ta  Ta135  1  0.36264297  0.32636547  0.49979051  1
  Ta  Ta136  1  0.33963720  0.63433791  -0.00003426  1
  Ta  Ta137  1  0.29116350  0.65841838  0.50389726  1
  Ta  Ta138  1  0.66957075  0.04302901  -0.00322968  1
  Ta  Ta139  1  0.66595792  -0.04061103  0.50362585  1
  Ta  Ta140  1  0.68289670  0.30890606  0.00111436  1
  Ta  Ta141  1  0.61622642  0.33393170  0.50119534  1
  Ta  Ta142  1  0.62141419  0.66767494  0.01610742  1
  Ta  Ta143  1  0.65626610  0.70366598  0.48924971  1
  N  N144  1  0.33400425  0.31951164  0.37642009  1
  N  N145  1  0.17480007  0.83540313  0.86975355  1
  N  N146  1  0.16886705  0.17333949  0.88059812  1
  N  N147  1  0.65569432  -0.00585021  0.62557677  1
  N  N148  1  0.83197756  0.49294888  0.87469875  1
  N  N149  1  0.50510540  0.84180361  0.12493044  1
  N  N150  1  0.31402210  0.66623386  0.12156004  1
  N  N151  1  0.83494770  0.17020994  0.86858668  1
  N  N152  1  0.65258399  0.33831256  0.62826126  1
  N  N153  1  0.32939964  -0.00290852  0.62249694  1
  N  N154  1  0.65793712  0.67012854  0.36979021  1
  N  N155  1  0.17341191  0.16920451  0.62541665  1
  N  N156  1  0.68287525  0.01208748  0.12280255  1
  N  N157  1  0.83455979  0.49660037  0.62333227  1
  N  N158  1  0.84409951  0.49781133  0.37237736  1
  N  N159  1  0.84132744  0.16065470  0.38438928  1
  N  N160  1  0.81982078  0.16168074  0.63269813  1
  N  N161  1  0.67858556  0.66996860  0.12419434  1
  N  N162  1  0.33597181  0.33110218  0.86564595  1
  N  N163  1  0.50923066  0.84191728  0.62791457  1
  N  N164  1  0.17309992  0.83824770  0.12447933  1
  N  N165  1  0.32931614  -0.00081560  0.88010550  1
  N  N166  1  0.32809996  0.66367815  0.87262947  1
  N  N167  1  0.00027830  0.66780801  0.12164593  1
  N  N168  1  0.82725847  0.84202543  0.38011722  1
  N  N169  1  0.18530068  0.16095710  0.36863634  1
  N  N170  1  -0.00847534  -0.00810136  0.12262546  1
  N  N171  1  0.66286770  0.33204623  0.12041863  1
  N  N172  1  0.84214811  0.49702512  0.12178143  1
  N  N173  1  -0.00390651  -0.00241348  0.86993555  1
  N  N174  1  0.51018990  0.16503312  0.87153068  1
  N  N175  1  0.65341664  0.33388706  0.37436898  1
  N  N176  1  0.50236949  0.50329241  0.12513832  1
  O  O177  1  0.32114215  0.33740463  0.62736409  1
  O  O178  1  -0.03233403  0.66221443  0.88494448  1
  O  O179  1  0.51926972  0.17638138  0.12136933  1
  O  O180  1  0.82950205  0.16611099  0.13597671  1
  O  O181  1  0.50082316  0.17179196  0.63125366  1
  O  O182  1  0.32966609  0.32574694  0.12081866  1
  O  O183  1  0.00178172  0.32875839  0.11740661  1
  O  O184  1  0.17711548  0.50287605  0.88085992  1
  O  O185  1  0.51911873  0.52204414  0.87320361  1
  O  O186  1  0.83894294  0.81753407  0.87710436  1
  O  O187  1  0.16896830  0.50957505  0.63265411  1
  O  O188  1  0.16923873  0.53552972  0.37239197  1
  O  O189  1  0.00633405  -0.01006071  0.38261408  1
  O  O190  1  -0.00305060  0.65064037  0.37446756  1
  O  O191  1  0.00214737  0.32614834  0.62478365  1
  O  O192  1  0.50100943  0.49906054  0.38118598  1
  O  O193  1  0.19101507  0.84856955  0.37791796  1
  O  O194  1  0.01882390  -0.00303135  0.62453067  1
  O  O195  1  0.30072216  0.67222639  0.37964470  1
  O  O196  1  0.66742396  0.66385676  0.62658928  1
  O  O197  1  -0.02760856  0.32645634  0.36678304  1
  O  O198  1  0.50114638  0.18737377  0.37242230  1
  O  O199  1  0.66182226  0.65281085  0.88157577  1
  O  O200  1  0.81945348  0.80996079  0.62948657  1
  O  O201  1  -0.01862865  0.31234558  0.87488858  1
  O  O202  1  0.17722899  0.50576818  0.12256627  1
  O  O203  1  0.50305730  0.83365681  0.88201848  1
  O  O204  1  0.33759131  0.00166904  0.11952902  1
  O  O205  1  0.32796243  -0.00631145  0.37035625  1
  O  O206  1  0.66785015  0.34314752  0.86752907  1
  O  O207  1  0.32592259  0.65711108  0.62311099  1
  O  O208  1  0.51615897  0.50632704  0.62001316  1
  O  O209  1  0.50912747  0.84351651  0.37341213  1
  O  O210  1  0.16192850  0.17101115  0.13224895  1
  O  O211  1  0.17776828  0.84526388  0.63309232  1
  O  O212  1  -0.02314060  0.64482618  0.62477251  1
  O  O213  1  0.84713421  0.84093024  0.12803027  1
  O  O214  1  0.66912584  0.00072808  0.37035458  1
  O  O215  1  0.67046040  -0.00327569  0.87627915  1
