# generated using pymatgen
data_Sr24Ta24N11O13
_symmetry_space_group_name_H-M   'P 1'
_cell_length_a   16.81281660
_cell_length_b   16.79848384
_cell_length_c   15.75953573
_cell_angle_alpha   89.90652352
_cell_angle_beta   89.74307945
_cell_angle_gamma   90.02570498
_symmetry_Int_Tables_number   1
_chemical_formula_structural   Sr24Ta24N11O13
_chemical_formula_sum   'Sr72 Ta72 N33 O39'
_cell_volume   4450.91182970
_cell_formula_units_Z   3
loop_
 _symmetry_equiv_pos_site_id
 _symmetry_equiv_pos_as_xyz
  1  'x, y, z'
loop_
 _atom_site_type_symbol
 _atom_site_label
 _atom_site_symmetry_multiplicity
 _atom_site_fract_x
 _atom_site_fract_y
 _atom_site_fract_z
 _atom_site_occupancy
  Sr  Sr0  1  0.00429956  0.16909410  0.12120566  1
  Sr  Sr1  1  -0.01388733  0.14972263  0.67020157  1
  Sr  Sr2  1  -0.03028966  0.50288785  0.12670611  1
  Sr  Sr3  1  0.00096091  0.50365474  0.62640795  1
  Sr  Sr4  1  -0.01636827  0.82822263  0.12562948  1
  Sr  Sr5  1  0.00121476  0.84757073  0.58795206  1
  Sr  Sr6  1  0.32997967  0.16932514  0.08701984  1
  Sr  Sr7  1  0.33541632  0.15332189  0.63788705  1
  Sr  Sr8  1  0.31057979  0.48635271  0.13703561  1
  Sr  Sr9  1  0.32112566  0.50133374  0.65265568  1
  Sr  Sr10  1  0.33839128  0.85226055  0.13199496  1
  Sr  Sr11  1  0.32597191  0.82249837  0.60709443  1
  Sr  Sr12  1  0.65254861  0.17223711  0.14234352  1
  Sr  Sr13  1  0.68057837  0.16835933  0.58255862  1
  Sr  Sr14  1  0.65342745  0.51176376  0.09376799  1
  Sr  Sr15  1  0.63597768  0.49066238  0.62462302  1
  Sr  Sr16  1  0.67036864  0.82835434  0.16254755  1
  Sr  Sr17  1  0.66814620  0.83915874  0.62290722  1
  Sr  Sr18  1  0.15027855  -0.00413921  0.16689825  1
  Sr  Sr19  1  0.18392072  -0.01238005  0.60599204  1
  Sr  Sr20  1  0.17167003  0.32557012  0.12739763  1
  Sr  Sr21  1  0.16388771  0.34195558  0.58567686  1
  Sr  Sr22  1  0.19555919  0.68633199  0.11240869  1
  Sr  Sr23  1  0.17745589  0.65503718  0.66044443  1
  Sr  Sr24  1  0.49470160  0.01428900  0.10995846  1
  Sr  Sr25  1  0.50484857  0.00137587  0.66085224  1
  Sr  Sr26  1  0.50650123  0.34649474  0.14622622  1
  Sr  Sr27  1  0.49165964  0.32911603  0.62189726  1
  Sr  Sr28  1  0.51401718  0.66523830  0.09861607  1
  Sr  Sr29  1  0.52223713  0.67848160  0.61305897  1
  Sr  Sr30  1  0.84189292  0.02135010  0.07843366  1
  Sr  Sr31  1  0.83054441  -0.00296805  0.62989473  1
  Sr  Sr32  1  0.83383448  0.31591649  0.17126310  1
  Sr  Sr33  1  0.85044243  0.33428667  0.62238055  1
  Sr  Sr34  1  0.83089674  0.65660745  0.12034170  1
  Sr  Sr35  1  0.85896792  0.65588788  0.62773071  1
  Sr  Sr36  1  0.01487091  0.16797258  0.33420794  1
  Sr  Sr37  1  -0.00809850  0.16078260  0.88005554  1
  Sr  Sr38  1  -0.01286857  0.49326782  0.40128193  1
  Sr  Sr39  1  -0.01282350  0.50467507  0.86209005  1
  Sr  Sr40  1  -0.00711264  0.84293757  0.37719572  1
  Sr  Sr41  1  -0.00963908  0.83042416  0.91194903  1
  Sr  Sr42  1  0.32407344  0.17759755  0.42115737  1
  Sr  Sr43  1  0.34899226  0.15750340  0.86241959  1
  Sr  Sr44  1  0.32040577  0.49082218  0.34281173  1
  Sr  Sr45  1  0.31061624  0.49546011  0.86747960  1
  Sr  Sr46  1  0.32773146  0.84424861  0.36753970  1
  Sr  Sr47  1  0.33485427  0.82284836  0.90514263  1
  Sr  Sr48  1  0.66923270  0.17340442  0.36609488  1
  Sr  Sr49  1  0.67326297  0.14381279  0.92467878  1
  Sr  Sr50  1  0.63348911  0.51042939  0.40108239  1
  Sr  Sr51  1  0.64746600  0.49574050  0.88467831  1
  Sr  Sr52  1  0.66287734  0.83104714  0.37361121  1
  Sr  Sr53  1  0.67222538  0.83917790  0.83128535  1
  Sr  Sr54  1  0.16519878  -0.00911090  0.38298925  1
  Sr  Sr55  1  0.16881296  0.01913704  0.82753889  1
  Sr  Sr56  1  0.17169581  0.33658529  0.37448505  1
  Sr  Sr57  1  0.16239396  0.32792576  0.92111935  1
  Sr  Sr58  1  0.19925808  0.65973788  0.34821894  1
  Sr  Sr59  1  0.18483816  0.67815326  0.87232582  1
  Sr  Sr60  1  0.51036294  -0.01066178  0.32352299  1
  Sr  Sr61  1  0.49492015  0.00824899  0.88609050  1
  Sr  Sr62  1  0.50059140  0.33487482  0.38017195  1
  Sr  Sr63  1  0.49934053  0.34288354  0.84645283  1
  Sr  Sr64  1  0.51244588  0.67609649  0.40826393  1
  Sr  Sr65  1  0.51950563  0.67410002  0.88331477  1
  Sr  Sr66  1  0.81595092  -0.00241621  0.41863268  1
  Sr  Sr67  1  0.83874010  -0.00297339  0.86879767  1
  Sr  Sr68  1  0.84658797  0.32516233  0.37676050  1
  Sr  Sr69  1  0.85661112  0.33331703  0.83317741  1
  Sr  Sr70  1  0.84952420  0.66836200  0.34837979  1
  Sr  Sr71  1  0.84036341  0.66131000  0.88509549  1
  Ta  Ta72  1  0.16354110  0.12259472  -0.00033593  1
  Ta  Ta73  1  0.12918294  0.16158129  0.50237802  1
  Ta  Ta74  1  0.14346950  0.52021384  -0.00122472  1
  Ta  Ta75  1  0.18143754  0.52638313  0.50094080  1
  Ta  Ta76  1  0.16266355  0.87741347  -0.00710352  1
  Ta  Ta77  1  0.16726978  0.78794164  0.50005867  1
  Ta  Ta78  1  0.50199822  0.21079275  -0.00125415  1
  Ta  Ta79  1  0.50477154  0.12701301  0.49717378  1
  Ta  Ta80  1  0.46255543  0.49139670  -0.00125124  1
  Ta  Ta81  1  0.44806077  0.50260008  0.50124975  1
  Ta  Ta82  1  0.54531051  0.83806196  0.00154010  1
  Ta  Ta83  1  0.49717439  0.87230298  0.49423456  1
  Ta  Ta84  1  0.83591414  0.22574078  0.00221926  1
  Ta  Ta85  1  0.87030220  0.16812297  0.49898838  1
  Ta  Ta86  1  0.82181949  0.43798767  0.00561838  1
  Ta  Ta87  1  0.79856549  0.50046505  0.49687129  1
  Ta  Ta88  1  0.79529098  0.83520714  -0.00312863  1
  Ta  Ta89  1  0.82331272  0.80855620  0.49599075  1
  Ta  Ta90  1  0.20583603  0.16757127  0.25782687  1
  Ta  Ta91  1  0.16773257  0.21073459  0.74910714  1
  Ta  Ta92  1  0.12636459  0.50013134  0.25372499  1
  Ta  Ta93  1  0.15345515  0.45833305  0.75152083  1
  Ta  Ta94  1  0.14417311  0.81538933  0.25459181  1
  Ta  Ta95  1  0.14044586  0.83868179  0.74824085  1
  Ta  Ta96  1  0.45691069  0.17115973  0.24571700  1
  Ta  Ta97  1  0.56062047  0.17128275  0.75502286  1
  Ta  Ta98  1  0.50159158  0.53149196  0.25496763  1
  Ta  Ta99  1  0.48767923  0.53607854  0.74664811  1
  Ta  Ta100  1  0.49423441  0.79221942  0.25262866  1
  Ta  Ta101  1  0.47233246  0.82626058  0.75110031  1
  Ta  Ta102  1  0.83744646  0.12118840  0.25700263  1
  Ta  Ta103  1  0.78663488  0.16663929  0.74737373  1
  Ta  Ta104  1  0.78698740  0.49713114  0.24682891  1
  Ta  Ta105  1  0.79373584  0.50306666  0.75225725  1
  Ta  Ta106  1  0.83344500  0.89444410  0.24701237  1
  Ta  Ta107  1  0.86790453  0.82404278  0.75279378  1
  Ta  Ta108  1  -0.04255772  0.00005164  0.25488855  1
  Ta  Ta109  1  -0.00008335  -0.04628716  0.75293548  1
  Ta  Ta110  1  0.01700597  0.35416372  0.25725564  1
  Ta  Ta111  1  0.04797150  0.32748827  0.75083156  1
  Ta  Ta112  1  0.03516654  0.66102327  0.25099470  1
  Ta  Ta113  1  0.00804272  0.71347722  0.74700838  1
  Ta  Ta114  1  0.32920264  0.04450012  0.24759456  1
  Ta  Ta115  1  0.33857030  -0.04244407  0.75289218  1
  Ta  Ta116  1  0.33606754  0.29391999  0.25045284  1
  Ta  Ta117  1  0.28795030  0.32871333  0.75232253  1
  Ta  Ta118  1  0.37917391  0.66890858  0.24797239  1
  Ta  Ta119  1  0.37178667  0.67799524  0.75460601  1
  Ta  Ta120  1  0.70393888  0.00441553  0.24358670  1
  Ta  Ta121  1  0.67092721  0.03572077  0.75454555  1
  Ta  Ta122  1  0.66782829  0.37877628  0.25002227  1
  Ta  Ta123  1  0.67672016  0.30652453  0.75114531  1
  Ta  Ta124  1  0.65303415  0.64380619  0.24874343  1
  Ta  Ta125  1  0.68231949  0.64647786  0.75232843  1
  Ta  Ta126  1  0.04298057  0.00235875  -0.00644710  1
  Ta  Ta127  1  -0.00083352  0.04342859  0.49579712  1
  Ta  Ta128  1  -0.03608281  0.33764803  0.00417373  1
  Ta  Ta129  1  0.00313901  0.27746098  0.49957579  1
  Ta  Ta130  1  0.02792550  0.65344053  -0.00184886  1
  Ta  Ta131  1  0.04267627  0.66799829  0.50297700  1
  Ta  Ta132  1  0.28297681  0.00032837  -0.00144298  1
  Ta  Ta133  1  0.38052899  -0.00179815  0.50118042  1
  Ta  Ta134  1  0.36336663  0.34251109  0.00243735  1
  Ta  Ta135  1  0.33579190  0.36961646  0.49654156  1
  Ta  Ta136  1  0.35170025  0.62974118  -0.00408033  1
  Ta  Ta137  1  0.32565813  0.64303080  0.50191258  1
  Ta  Ta138  1  0.66414639  -0.04317434  0.00172888  1
  Ta  Ta139  1  0.62336152  -0.00168929  0.49057842  1
  Ta  Ta140  1  0.68861640  0.32574061  0.00764691  1
  Ta  Ta141  1  0.69033580  0.34831615  0.49682125  1
  Ta  Ta142  1  0.67833866  0.71381335  -0.00112815  1
  Ta  Ta143  1  0.70977672  0.67026124  0.49514235  1
  N  N144  1  0.32149487  0.00860392  0.12942212  1
  N  N145  1  0.00209447  -0.00223620  0.86778696  1
  N  N146  1  0.66543808  0.33750846  0.13158757  1
  N  N147  1  0.16668792  0.83839695  0.87584463  1
  N  N148  1  0.49509930  0.17559567  0.12334465  1
  N  N149  1  0.17229339  0.16484041  0.37822450  1
  N  N150  1  0.66701761  0.00118885  0.12406197  1
  N  N151  1  0.15761040  0.50141782  0.37368128  1
  N  N152  1  0.32621039  -0.00470771  0.86964491  1
  N  N153  1  0.15471035  0.49375719  0.87844789  1
  N  N154  1  0.34240474  -0.00695305  0.62482977  1
  N  N155  1  0.00515396  0.32526696  0.37546769  1
  N  N156  1  0.16091180  0.49656453  0.62476724  1
  N  N157  1  0.34279106  0.66596124  0.87768750  1
  N  N158  1  0.33276851  0.33588159  0.37779809  1
  N  N159  1  0.48314058  0.50780820  0.37463359  1
  N  N160  1  0.67597985  0.67230346  0.87174801  1
  N  N161  1  0.83078497  0.16438493  0.63144611  1
  N  N162  1  0.52013616  0.17798970  0.87489182  1
  N  N163  1  0.66644065  -0.00487253  0.87143325  1
  N  N164  1  -0.00558080  0.00188842  0.38054388  1
  N  N165  1  0.83288621  0.83336211  0.87146965  1
  N  N166  1  0.67280278  0.67268177  0.12745920  1
  N  N167  1  0.33300278  0.33102693  0.12267999  1
  N  N168  1  0.81448342  0.48748483  0.12041655  1
  N  N169  1  0.16906265  0.82751541  0.61865345  1
  N  N170  1  0.16435368  0.83114612  0.37450608  1
  N  N171  1  0.48400675  0.50783686  0.62743676  1
  N  N172  1  0.65994624  0.00121849  0.37251512  1
  N  N173  1  0.83432526  0.15973617  0.37714142  1
  N  N174  1  0.50029515  0.83251226  0.37411805  1
  N  N175  1  0.01550830  0.67309678  0.62608753  1
  N  N176  1  0.67636400  0.66824264  0.37676149  1
  O  O177  1  0.31387738  0.33195926  0.87870451  1
  O  O178  1  0.84482738  0.17177669  0.12105562  1
  O  O179  1  -0.00071767  0.00761401  0.11652207  1
  O  O180  1  0.16919038  0.17281136  0.62508738  1
  O  O181  1  0.81744717  0.50626133  0.37457803  1
  O  O182  1  0.48749959  0.49543271  0.87001933  1
  O  O183  1  0.68426947  0.32976147  0.62018109  1
  O  O184  1  0.67357753  0.32479708  0.87316681  1
  O  O185  1  0.01825441  0.66749727  0.12220058  1
  O  O186  1  -0.00058660  0.33705797  0.12585313  1
  O  O187  1  0.16461714  0.16399989  0.12296040  1
  O  O188  1  0.80645666  0.47804064  0.87622822  1
  O  O189  1  0.16202972  0.16964375  0.87937961  1
  O  O190  1  0.82761325  0.84237651  0.37363612  1
  O  O191  1  0.48844245  0.83359233  0.62249181  1
  O  O192  1  0.00873444  0.31339246  0.62730629  1
  O  O193  1  0.52172662  0.15316484  0.62394963  1
  O  O194  1  -0.00939816  -0.00103639  0.62842708  1
  O  O195  1  0.67862223  0.67802986  0.62532869  1
  O  O196  1  0.65984735  -0.00517253  0.62677698  1
  O  O197  1  0.15550653  0.84043047  0.12741387  1
  O  O198  1  0.51489587  0.82274128  0.12897626  1
  O  O199  1  0.50482066  0.83253816  0.87348822  1
  O  O200  1  0.83144457  0.18852651  0.87780301  1
  O  O201  1  0.33475893  0.66247852  0.62823597  1
  O  O202  1  0.01586616  0.67000467  0.87183265  1
  O  O203  1  0.48311686  0.50155289  0.12459106  1
  O  O204  1  0.00759175  0.33051163  0.88283163  1
  O  O205  1  0.35487058  0.66381834  0.12029749  1
  O  O206  1  0.01453005  0.65768560  0.37348280  1
  O  O207  1  0.15622705  0.48424754  0.12106520  1
  O  O208  1  0.83224325  0.86241514  0.11946871  1
  O  O209  1  0.80393482  0.49897742  0.62804980  1
  O  O210  1  0.83768681  0.81681676  0.62095552  1
  O  O211  1  0.33987201  0.00667122  0.37916012  1
  O  O212  1  0.67381667  0.33704515  0.37262076  1
  O  O213  1  0.31388831  0.34155864  0.62756182  1
  O  O214  1  0.35016006  0.66006651  0.37884735  1
  O  O215  1  0.49171843  0.14986114  0.37379247  1
