# generated using pymatgen
data_Sr24Ta24N11O13
_symmetry_space_group_name_H-M   'P 1'
_cell_length_a   16.65412375
_cell_length_b   17.62450349
_cell_length_c   15.11306161
_cell_angle_alpha   88.54570855
_cell_angle_beta   89.51570020
_cell_angle_gamma   90.90408559
_symmetry_Int_Tables_number   1
_chemical_formula_structural   Sr24Ta24N11O13
_chemical_formula_sum   'Sr72 Ta72 N33 O39'
_cell_volume   4433.84099477
_cell_formula_units_Z   3
loop_
 _symmetry_equiv_pos_site_id
 _symmetry_equiv_pos_as_xyz
  1  'x, y, z'
loop_
 _atom_site_type_symbol
 _atom_site_label
 _atom_site_symmetry_multiplicity
 _atom_site_fract_x
 _atom_site_fract_y
 _atom_site_fract_z
 _atom_site_occupancy
  Sr  Sr0  1  0.02573524  0.14105884  0.13626510  1
  Sr  Sr1  1  0.00341847  0.15783527  0.62700718  1
  Sr  Sr2  1  0.00514210  0.46483052  0.13852641  1
  Sr  Sr3  1  0.01397172  0.50183808  0.60241373  1
  Sr  Sr4  1  0.00194539  0.85020578  0.11220981  1
  Sr  Sr5  1  -0.00623742  0.79314397  0.67626812  1
  Sr  Sr6  1  0.32809905  0.13803440  0.13231209  1
  Sr  Sr7  1  0.34810007  0.15855067  0.60191186  1
  Sr  Sr8  1  0.33092534  0.50854804  0.12109151  1
  Sr  Sr9  1  0.33263192  0.45706347  0.66170573  1
  Sr  Sr10  1  0.36981912  0.80201135  0.11477476  1
  Sr  Sr11  1  0.32728938  0.83235560  0.62697475  1
  Sr  Sr12  1  0.67831416  0.18036671  0.12469671  1
  Sr  Sr13  1  0.67315512  0.11265543  0.67467216  1
  Sr  Sr14  1  0.69389220  0.45033700  0.13113398  1
  Sr  Sr15  1  0.66794462  0.49361792  0.63727053  1
  Sr  Sr16  1  0.66801035  0.81310351  0.13748352  1
  Sr  Sr17  1  0.68939274  0.82511393  0.60843965  1
  Sr  Sr18  1  0.15886728  -0.00361119  0.12858253  1
  Sr  Sr19  1  0.17322577  0.03859885  0.56476937  1
  Sr  Sr20  1  0.17308830  0.35683716  0.11682438  1
  Sr  Sr21  1  0.14820084  0.34664906  0.63925479  1
  Sr  Sr22  1  0.13355653  0.69809900  0.11330629  1
  Sr  Sr23  1  0.15730348  0.67309096  0.61898939  1
  Sr  Sr24  1  0.51608380  0.04121423  0.10911661  1
  Sr  Sr25  1  0.48596068  -0.00281080  0.67371438  1
  Sr  Sr26  1  0.46158334  0.35943051  0.13077474  1
  Sr  Sr27  1  0.49594029  0.34854731  0.61339990  1
  Sr  Sr28  1  0.49577309  0.65655750  0.13051440  1
  Sr  Sr29  1  0.49713963  0.70707027  0.60450319  1
  Sr  Sr30  1  0.81093488  0.03243790  0.11437876  1
  Sr  Sr31  1  0.84072006  -0.00222954  0.62181829  1
  Sr  Sr32  1  0.84802219  0.32783421  0.13235042  1
  Sr  Sr33  1  0.82773500  0.37793107  0.58765375  1
  Sr  Sr34  1  0.84678867  0.71032304  0.09814018  1
  Sr  Sr35  1  0.82175723  0.67496480  0.65243248  1
  Sr  Sr36  1  0.00264492  0.11548309  0.41285485  1
  Sr  Sr37  1  0.01254380  0.16172718  0.84334363  1
  Sr  Sr38  1  -0.00768367  0.49664041  0.38393224  1
  Sr  Sr39  1  0.00269710  0.45374283  0.90350387  1
  Sr  Sr40  1  0.01412820  0.81811087  0.33415021  1
  Sr  Sr41  1  0.00566450  0.84186136  0.89025368  1
  Sr  Sr42  1  0.32963189  0.13415953  0.38039697  1
  Sr  Sr43  1  0.33892941  0.12746761  0.89216404  1
  Sr  Sr44  1  0.35188467  0.49951341  0.34946699  1
  Sr  Sr45  1  0.33511216  0.49183105  0.89361058  1
  Sr  Sr46  1  0.33703455  0.80346346  0.40475809  1
  Sr  Sr47  1  0.35214143  0.81821064  0.84483368  1
  Sr  Sr48  1  0.68132651  0.15103724  0.36011600  1
  Sr  Sr49  1  0.67780851  0.16812077  0.89545444  1
  Sr  Sr50  1  0.66764362  0.46120535  0.40797308  1
  Sr  Sr51  1  0.67887949  0.48873648  0.85273656  1
  Sr  Sr52  1  0.66832078  0.82614648  0.38571595  1
  Sr  Sr53  1  0.67324440  0.77958415  0.92290054  1
  Sr  Sr54  1  0.16537434  -0.00813875  0.35306266  1
  Sr  Sr55  1  0.15279561  0.01199420  0.90423118  1
  Sr  Sr56  1  0.15745803  0.38468999  0.34909550  1
  Sr  Sr57  1  0.16429144  0.34403014  0.86137173  1
  Sr  Sr58  1  0.15194306  0.68009515  0.39855645  1
  Sr  Sr59  1  0.16420704  0.71684494  0.84257907  1
  Sr  Sr60  1  0.50641918  0.03241024  0.34223392  1
  Sr  Sr61  1  0.51003012  0.03081365  0.87371799  1
  Sr  Sr62  1  0.48125309  0.34961373  0.40076692  1
  Sr  Sr63  1  0.49103535  0.37704815  0.83766304  1
  Sr  Sr64  1  0.49894364  0.67107465  0.36002263  1
  Sr  Sr65  1  0.48383105  0.66571531  0.90764816  1
  Sr  Sr66  1  0.81559144  0.00807766  0.40787508  1
  Sr  Sr67  1  0.83744655  0.04838588  0.82840835  1
  Sr  Sr68  1  0.82389072  0.33618480  0.36060916  1
  Sr  Sr69  1  0.81441137  0.34526300  0.89878837  1
  Sr  Sr70  1  0.82423930  0.70368288  0.34588793  1
  Sr  Sr71  1  0.82773459  0.66585835  0.86728687  1
  Ta  Ta72  1  0.17085128  0.19562753  0.00164472  1
  Ta  Ta73  1  0.16168041  0.22210917  0.47272357  1
  Ta  Ta74  1  0.15636336  0.55454377  -0.02221973  1
  Ta  Ta75  1  0.20625202  0.50668771  0.51150518  1
  Ta  Ta76  1  0.21074827  0.84334014  0.00543988  1
  Ta  Ta77  1  0.13861687  0.84796634  0.50393687  1
  Ta  Ta78  1  0.49077324  0.22564858  -0.01261389  1
  Ta  Ta79  1  0.52992079  0.15052407  0.51431672  1
  Ta  Ta80  1  0.53395711  0.49786792  0.00393717  1
  Ta  Ta81  1  0.49503371  0.53332987  0.51336152  1
  Ta  Ta82  1  0.51326553  0.87775254  -0.01660294  1
  Ta  Ta83  1  0.50521116  0.87984586  0.50774717  1
  Ta  Ta84  1  0.87347003  0.17602574  -0.00784935  1
  Ta  Ta85  1  0.82695949  0.19236777  0.52331972  1
  Ta  Ta86  1  0.83979743  0.52635113  0.01016650  1
  Ta  Ta87  1  0.82720413  0.55698825  0.49632290  1
  Ta  Ta88  1  0.82696437  0.89224169  -0.02450451  1
  Ta  Ta89  1  0.87760027  0.82711643  0.50643361  1
  Ta  Ta90  1  0.16626843  0.20004890  0.27845252  1
  Ta  Ta91  1  0.19382717  0.15955566  0.74107110  1
  Ta  Ta92  1  0.16019132  0.55354670  0.24654433  1
  Ta  Ta93  1  0.16144987  0.53453846  0.76679839  1
  Ta  Ta94  1  0.20854825  0.82792650  0.24466398  1
  Ta  Ta95  1  0.16227885  0.88862039  0.73523386  1
  Ta  Ta96  1  0.49255745  0.20849039  0.25518233  1
  Ta  Ta97  1  0.50052161  0.20518241  0.76118919  1
  Ta  Ta98  1  0.53913583  0.49765873  0.25087531  1
  Ta  Ta99  1  0.49503438  0.55184407  0.74308489  1
  Ta  Ta100  1  0.50344800  0.86986449  0.24963121  1
  Ta  Ta101  1  0.54721219  0.82522859  0.77047500  1
  Ta  Ta102  1  0.86852019  0.16145072  0.26625148  1
  Ta  Ta103  1  0.83091034  0.22524018  0.73140045  1
  Ta  Ta104  1  0.83272332  0.53681470  0.24101619  1
  Ta  Ta105  1  0.87137192  0.49874672  0.75437213  1
  Ta  Ta106  1  0.82983905  0.88155951  0.24759387  1
  Ta  Ta107  1  0.81919200  0.85520340  0.78248888  1
  Ta  Ta108  1  -0.04398182  -0.00662976  0.24665844  1
  Ta  Ta109  1  0.03022194  -0.01627723  0.72940821  1
  Ta  Ta110  1  0.00759782  0.28047302  0.26996294  1
  Ta  Ta111  1  -0.03550235  0.33544153  0.73783289  1
  Ta  Ta112  1  -0.00843564  0.63573525  0.24498698  1
  Ta  Ta113  1  0.00619270  0.61318280  0.77581696  1
  Ta  Ta114  1  0.34529651  -0.05262736  0.24565335  1
  Ta  Ta115  1  0.28364276  0.00356852  0.73738190  1
  Ta  Ta116  1  0.32092292  0.29270874  0.26546385  1
  Ta  Ta117  1  0.33163855  0.27884830  0.76184557  1
  Ta  Ta118  1  0.29457039  0.66595796  0.25320607  1
  Ta  Ta119  1  0.33310717  0.63531610  0.73867964  1
  Ta  Ta120  1  0.67297707  -0.02747209  0.24933688  1
  Ta  Ta121  1  0.67467519  -0.06139006  0.78136039  1
  Ta  Ta122  1  0.61874587  0.31706893  0.26192408  1
  Ta  Ta123  1  0.66567975  0.30010373  0.72704549  1
  Ta  Ta124  1  0.67687129  0.61178962  0.23371681  1
  Ta  Ta125  1  0.63609081  0.66507979  0.75906959  1
  Ta  Ta126  1  -0.03564737  0.01387102  -0.01377750  1
  Ta  Ta127  1  0.00423351  -0.06298967  0.51076619  1
  Ta  Ta128  1  0.00952693  0.28352624  0.00740690  1
  Ta  Ta129  1  0.00044816  0.30134693  0.47505441  1
  Ta  Ta130  1  -0.00045393  0.62730985  -0.02725926  1
  Ta  Ta131  1  -0.03378569  0.68397742  0.49802625  1
  Ta  Ta132  1  0.34359608  -0.04430603  -0.00878245  1
  Ta  Ta133  1  0.37948360  -0.01755162  0.49923675  1
  Ta  Ta134  1  0.32774293  0.29502209  -0.01955733  1
  Ta  Ta135  1  0.29558573  0.33046937  0.48984370  1
  Ta  Ta136  1  0.29169652  0.66862094  -0.00962093  1
  Ta  Ta137  1  0.33493283  0.61932236  0.51337824  1
  Ta  Ta138  1  0.67378893  -0.03122830  -0.02678648  1
  Ta  Ta139  1  0.62463384  -0.00293314  0.50694002  1
  Ta  Ta140  1  0.61760089  0.33443906  -0.01012887  1
  Ta  Ta141  1  0.66349946  0.26986847  0.52740366  1
  Ta  Ta142  1  0.67506870  0.60691837  0.01664762  1
  Ta  Ta143  1  0.67009386  0.64014245  0.49515976  1
  N  N144  1  0.51370654  0.16686614  0.88104062  1
  N  N145  1  0.84067028  0.19045326  0.86871442  1
  N  N146  1  0.48887893  0.50646391  0.13193776  1
  N  N147  1  0.00220380  0.00735684  0.85895423  1
  N  N148  1  0.16997782  0.83300178  0.37967999  1
  N  N149  1  0.83899317  0.52299555  0.61948108  1
  N  N150  1  0.00239485  0.01512522  0.60179924  1
  N  N151  1  0.83678439  0.16423770  0.39227880  1
  N  N152  1  0.83996734  0.14221630  0.64669682  1
  N  N153  1  0.33307552  0.00470957  0.61867362  1
  N  N154  1  0.32666692  0.65669008  0.37784194  1
  N  N155  1  0.32754600  0.35678509  0.36654717  1
  N  N156  1  -0.01677877  0.35512232  0.36242154  1
  N  N157  1  0.17396000  0.48252475  0.88356783  1
  N  N158  1  0.32472420  0.34651325  0.86197901  1
  N  N159  1  0.16721241  0.13527673  0.38963494  1
  N  N160  1  0.16031911  0.84736346  0.12477102  1
  N  N161  1  0.00963279  0.30877077  0.13447178  1
  N  N162  1  0.17057097  0.49809855  0.63472455  1
  N  N163  1  0.67062494  0.02852680  0.85958267  1
  N  N164  1  0.65697047  0.35351330  0.61025876  1
  N  N165  1  0.85080274  0.47917617  0.13469810  1
  N  N166  1  0.83524402  0.49662152  0.87952824  1
  N  N167  1  0.50182111  0.51595253  0.87659750  1
  N  N168  1  0.50917504  0.50509548  0.38434392  1
  N  N169  1  0.66654635  0.64005830  0.88163827  1
  N  N170  1  0.50208944  0.80604924  0.89128382  1
  N  N171  1  0.66041943  -0.00642052  0.37999230  1
  N  N172  1  0.50386763  0.48895462  0.64005149  1
  N  N173  1  -0.00778607  -0.00343909  0.11978427  1
  N  N174  1  0.32611459  0.66926705  0.86046042  1
  N  N175  1  0.84330726  0.80495424  0.89663149  1
  N  N176  1  -0.00931422  0.66783529  0.37042604  1
  O  O177  1  0.62551052  0.32174442  0.12311173  1
  O  O178  1  -0.00954942  0.64527107  0.10446718  1
  O  O179  1  0.32253928  0.31082097  0.62328691  1
  O  O180  1  0.50712993  0.85011339  0.64538970  1
  O  O181  1  0.17573282  0.18940485  0.13330196  1
  O  O182  1  0.64913312  0.67587429  0.11658710  1
  O  O183  1  0.50398592  0.17501146  0.38906009  1
  O  O184  1  0.31481857  0.69237694  0.61162141  1
  O  O185  1  0.82815508  0.86260779  0.11621289  1
  O  O186  1  0.66599704  0.64371196  0.35964444  1
  O  O187  1  0.16224111  0.52817777  0.38101643  1
  O  O188  1  0.65452886  0.33512584  0.85985566  1
  O  O189  1  0.84228715  0.82913728  0.64847565  1
  O  O190  1  0.51729340  0.86027510  0.11854984  1
  O  O191  1  0.33621716  -0.02558181  0.37536180  1
  O  O192  1  0.83343969  0.50108341  0.37745906  1
  O  O193  1  0.33695216  -0.01917032  0.86067422  1
  O  O194  1  0.17390236  0.81663928  0.63307652  1
  O  O195  1  0.50676691  0.14127034  0.64443301  1
  O  O196  1  0.00091006  0.65413290  0.62813035  1
  O  O197  1  -0.01041188  0.34395516  0.60632243  1
  O  O198  1  0.33683709  0.65732425  0.11656083  1
  O  O199  1  0.17242005  0.17998733  0.61149975  1
  O  O200  1  0.51005138  0.85214868  0.37631445  1
  O  O201  1  0.66474398  0.67105014  0.62060807  1
  O  O202  1  0.48477557  0.19445131  0.12374128  1
  O  O203  1  0.66323793  -0.01096538  0.11448656  1
  O  O204  1  0.65012260  0.30650440  0.39050820  1
  O  O205  1  -0.00457162  0.31515274  0.86440394  1
  O  O206  1  0.34856353  -0.02379672  0.12105519  1
  O  O207  1  0.17178317  0.16075255  0.87161513  1
  O  O208  1  0.31889873  0.30880756  0.12712078  1
  O  O209  1  0.16682944  0.85992476  0.87680277  1
  O  O210  1  0.83119338  0.85122423  0.38299892  1
  O  O211  1  0.00279284  0.70102274  0.86083630  1
  O  O212  1  0.15754451  0.53341869  0.11644249  1
  O  O213  1  0.67004180  -0.02632356  0.63302064  1
  O  O214  1  0.83579225  0.17690545  0.13400588  1
  O  O215  1  0.00384002  -0.02313679  0.37110420  1
