# generated using pymatgen
data_Sr24Ta24N11O13
_symmetry_space_group_name_H-M   'P 1'
_cell_length_a   19.23592174
_cell_length_b   16.18435284
_cell_length_c   14.43863858
_cell_angle_alpha   90.08130662
_cell_angle_beta   90.10960547
_cell_angle_gamma   90.69150603
_symmetry_Int_Tables_number   1
_chemical_formula_structural   Sr24Ta24N11O13
_chemical_formula_sum   'Sr72 Ta72 N33 O39'
_cell_volume   4494.71032735
_cell_formula_units_Z   3
loop_
 _symmetry_equiv_pos_site_id
 _symmetry_equiv_pos_as_xyz
  1  'x, y, z'
loop_
 _atom_site_type_symbol
 _atom_site_label
 _atom_site_symmetry_multiplicity
 _atom_site_fract_x
 _atom_site_fract_y
 _atom_site_fract_z
 _atom_site_occupancy
  Sr  Sr0  1  -0.03966474  0.16705725  0.11868940  1
  Sr  Sr1  1  -0.04114835  0.16556155  0.62576829  1
  Sr  Sr2  1  -0.04109556  0.50120749  0.11924620  1
  Sr  Sr3  1  -0.03207577  0.49671920  0.62829712  1
  Sr  Sr4  1  -0.04099757  0.83258616  0.12138394  1
  Sr  Sr5  1  -0.04372466  0.83506966  0.62769885  1
  Sr  Sr6  1  0.32273571  0.16662815  0.12752403  1
  Sr  Sr7  1  0.32196902  0.16735007  0.62474041  1
  Sr  Sr8  1  0.32055384  0.50158720  0.13559135  1
  Sr  Sr9  1  0.32020660  0.49939349  0.62271531  1
  Sr  Sr10  1  0.32051485  0.83447101  0.12958502  1
  Sr  Sr11  1  0.32183510  0.83556440  0.62307598  1
  Sr  Sr12  1  0.62682907  0.16355835  0.11917891  1
  Sr  Sr13  1  0.64576326  0.14994565  0.62901065  1
  Sr  Sr14  1  0.64178927  0.50772736  0.11552383  1
  Sr  Sr15  1  0.61611233  0.49613742  0.62996741  1
  Sr  Sr16  1  0.65009731  0.82732122  0.11949182  1
  Sr  Sr17  1  0.65333345  0.84903908  0.62919340  1
  Sr  Sr18  1  0.21215539  0.00164420  0.12313815  1
  Sr  Sr19  1  0.21319633  0.00076329  0.62159130  1
  Sr  Sr20  1  0.21683283  0.33242262  0.12708308  1
  Sr  Sr21  1  0.21620420  0.33254093  0.62079080  1
  Sr  Sr22  1  0.21454983  0.66736993  0.12806032  1
  Sr  Sr23  1  0.21512401  0.66834506  0.62351722  1
  Sr  Sr24  1  0.51951015  -0.01095778  0.12533880  1
  Sr  Sr25  1  0.50235791  -0.00368006  0.62841799  1
  Sr  Sr26  1  0.51821444  0.33571498  0.12714818  1
  Sr  Sr27  1  0.51860269  0.31440551  0.62600352  1
  Sr  Sr28  1  0.50504356  0.67091930  0.13150806  1
  Sr  Sr29  1  0.51420632  0.68378551  0.62922045  1
  Sr  Sr30  1  0.85006541  -0.00295560  0.12155857  1
  Sr  Sr31  1  0.84703645  -0.00286325  0.63262437  1
  Sr  Sr32  1  0.85170449  0.33607168  0.11722767  1
  Sr  Sr33  1  0.85173781  0.33278089  0.63107201  1
  Sr  Sr34  1  0.84969029  0.67050098  0.11545384  1
  Sr  Sr35  1  0.85486725  0.66803422  0.62971401  1
  Sr  Sr36  1  -0.01322042  0.17869099  0.37177835  1
  Sr  Sr37  1  -0.00242168  0.17246144  0.87245879  1
  Sr  Sr38  1  -0.01025356  0.48943271  0.37438321  1
  Sr  Sr39  1  -0.00668021  0.49331711  0.87180485  1
  Sr  Sr40  1  -0.01077954  0.82674577  0.37456548  1
  Sr  Sr41  1  -0.00547084  0.83342289  0.87273278  1
  Sr  Sr42  1  0.28245262  0.16638776  0.37384982  1
  Sr  Sr43  1  0.28583294  0.16511287  0.87727877  1
  Sr  Sr44  1  0.28097381  0.50020311  0.38047060  1
  Sr  Sr45  1  0.28646620  0.50063824  0.87760177  1
  Sr  Sr46  1  0.28321539  0.83301862  0.37591945  1
  Sr  Sr47  1  0.28110381  0.83380492  0.87550980  1
  Sr  Sr48  1  0.65138116  0.16964209  0.37320877  1
  Sr  Sr49  1  0.63284325  0.16765713  0.87102596  1
  Sr  Sr50  1  0.65305608  0.49799239  0.37445370  1
  Sr  Sr51  1  0.63616895  0.49855686  0.87385751  1
  Sr  Sr52  1  0.64310204  0.83378087  0.37775459  1
  Sr  Sr53  1  0.64377272  0.83022487  0.87039162  1
  Sr  Sr54  1  0.17194056  -0.00172769  0.37486718  1
  Sr  Sr55  1  0.17763493  -0.00019923  0.87265983  1
  Sr  Sr56  1  0.17596886  0.33263596  0.37349599  1
  Sr  Sr57  1  0.18203310  0.33382814  0.87256260  1
  Sr  Sr58  1  0.17436442  0.66702731  0.37479026  1
  Sr  Sr59  1  0.17932151  0.66531596  0.87384454  1
  Sr  Sr60  1  0.53814691  0.00027281  0.37839584  1
  Sr  Sr61  1  0.52518937  0.00073563  0.87621405  1
  Sr  Sr62  1  0.54369857  0.33723180  0.37500051  1
  Sr  Sr63  1  0.52850586  0.33247072  0.87795300  1
  Sr  Sr64  1  0.53929965  0.66618608  0.37918150  1
  Sr  Sr65  1  0.52948354  0.66514241  0.88247915  1
  Sr  Sr66  1  0.88157793  -0.00183125  0.37524891  1
  Sr  Sr67  1  0.88963363  0.00188477  0.87737902  1
  Sr  Sr68  1  0.84555832  0.34044352  0.37731180  1
  Sr  Sr69  1  0.87298144  0.33165565  0.87248901  1
  Sr  Sr70  1  0.87160179  0.65888533  0.37576510  1
  Sr  Sr71  1  0.89048049  0.66321397  0.87139755  1
  Ta  Ta72  1  0.12659159  0.16892761  0.02300023  1
  Ta  Ta73  1  0.12256026  0.16538870  0.51232043  1
  Ta  Ta74  1  0.12633710  0.50160721  0.01242281  1
  Ta  Ta75  1  0.12431678  0.50013547  0.51770435  1
  Ta  Ta76  1  0.12530332  0.83241282  0.01283079  1
  Ta  Ta77  1  0.12030735  0.83308027  0.52654821  1
  Ta  Ta78  1  0.45215245  0.16664077  -0.01037000  1
  Ta  Ta79  1  0.45029718  0.16580098  0.47255523  1
  Ta  Ta80  1  0.44636810  0.49706489  -0.01178636  1
  Ta  Ta81  1  0.45296340  0.49909068  0.48256468  1
  Ta  Ta82  1  0.44681592  0.83293170  -0.01943564  1
  Ta  Ta83  1  0.45167839  0.83453900  0.48173915  1
  Ta  Ta84  1  0.78244263  0.16135313  -0.02140081  1
  Ta  Ta85  1  0.79347132  0.16767492  0.50103628  1
  Ta  Ta86  1  0.79557872  0.49902803  -0.03325042  1
  Ta  Ta87  1  0.77686505  0.50526589  0.52934218  1
  Ta  Ta88  1  0.79901683  0.83933155  -0.02474777  1
  Ta  Ta89  1  0.79517256  0.82753729  0.49102238  1
  Ta  Ta90  1  0.12259780  0.16613186  0.23379290  1
  Ta  Ta91  1  0.12786696  0.16739150  0.72129988  1
  Ta  Ta92  1  0.12231221  0.50033176  0.23478391  1
  Ta  Ta93  1  0.12999998  0.50028594  0.73150073  1
  Ta  Ta94  1  0.12250478  0.83291114  0.22544599  1
  Ta  Ta95  1  0.12581247  0.83227173  0.73339817  1
  Ta  Ta96  1  0.45870289  0.16523434  0.26058762  1
  Ta  Ta97  1  0.44745436  0.16375578  0.77151011  1
  Ta  Ta98  1  0.45045456  0.49899359  0.27712463  1
  Ta  Ta99  1  0.44554781  0.49759624  0.77014942  1
  Ta  Ta100  1  0.45355194  0.83599309  0.27148396  1
  Ta  Ta101  1  0.44298894  0.83336134  0.77669567  1
  Ta  Ta102  1  0.78543497  0.16661316  0.23329105  1
  Ta  Ta103  1  0.79070954  0.16327426  0.77713792  1
  Ta  Ta104  1  0.79263710  0.50524721  0.24620042  1
  Ta  Ta105  1  0.78301088  0.50790868  0.75999396  1
  Ta  Ta106  1  0.79645139  0.83186714  0.26778481  1
  Ta  Ta107  1  0.79683179  0.82836024  0.76558889  1
  Ta  Ta108  1  0.04193261  -0.00073189  0.23424758  1
  Ta  Ta109  1  0.04761371  0.00210024  0.73092167  1
  Ta  Ta110  1  0.04814637  0.33412015  0.22328165  1
  Ta  Ta111  1  0.05228389  0.33131161  0.72428298  1
  Ta  Ta112  1  0.04648931  0.66566645  0.22667987  1
  Ta  Ta113  1  0.05077160  0.66594000  0.72689239  1
  Ta  Ta114  1  0.37613656  0.00211870  0.26440069  1
  Ta  Ta115  1  0.36584779  -0.00160360  0.76903472  1
  Ta  Ta116  1  0.37720789  0.33238666  0.26913475  1
  Ta  Ta117  1  0.37565845  0.33724548  0.76210484  1
  Ta  Ta118  1  0.37239985  0.66686115  0.27090519  1
  Ta  Ta119  1  0.37220305  0.66843614  0.77295127  1
  Ta  Ta120  1  0.71211124  -0.00023128  0.24934041  1
  Ta  Ta121  1  0.72464179  0.00371940  0.78159183  1
  Ta  Ta122  1  0.70383690  0.33390377  0.23543149  1
  Ta  Ta123  1  0.70775772  0.33285726  0.75618276  1
  Ta  Ta124  1  0.71330586  0.66682998  0.24618254  1
  Ta  Ta125  1  0.71462484  0.65979570  0.75456692  1
  Ta  Ta126  1  0.04660841  0.00096242  0.01245441  1
  Ta  Ta127  1  0.04111343  -0.00037611  0.51380984  1
  Ta  Ta128  1  0.05180155  0.33563760  0.01839194  1
  Ta  Ta129  1  0.04829756  0.33215876  0.51979761  1
  Ta  Ta130  1  0.04954723  0.66556742  0.02039383  1
  Ta  Ta131  1  0.04689807  0.66762042  0.52134169  1
  Ta  Ta132  1  0.37133054  -0.00294636  -0.01147146  1
  Ta  Ta133  1  0.37195001  0.00196771  0.48313038  1
  Ta  Ta134  1  0.37378886  0.33793773  -0.00798726  1
  Ta  Ta135  1  0.37759699  0.33384192  0.48309405  1
  Ta  Ta136  1  0.37014068  0.66722060  -0.00990537  1
  Ta  Ta137  1  0.37326612  0.66532151  0.47745631  1
  Ta  Ta138  1  0.71117512  0.00284405  -0.00368924  1
  Ta  Ta139  1  0.72035603  0.00208197  0.48606451  1
  Ta  Ta140  1  0.70807069  0.33046536  -0.00837294  1
  Ta  Ta141  1  0.70225888  0.33267095  0.51382036  1
  Ta  Ta142  1  0.72343578  0.66748168  -0.03749861  1
  Ta  Ta143  1  0.70585345  0.66411213  0.51719366  1
  N  N144  1  0.48197027  0.16631934  0.13021068  1
  N  N145  1  0.65519276  0.32472239  0.63888480  1
  N  N146  1  0.14397519  0.16806369  0.36869642  1
  N  N147  1  0.65712306  0.33826055  0.10728165  1
  N  N148  1  0.85688390  0.82310001  0.37674125  1
  N  N149  1  0.03073601  0.00443966  0.87618168  1
  N  N150  1  0.81911981  0.83461964  0.63100217  1
  N  N151  1  0.02394724  -0.00161877  0.37757358  1
  N  N152  1  0.85781859  0.50005266  0.85939835  1
  N  N153  1  0.51054138  0.16643669  0.87858096  1
  N  N154  1  0.65288700  0.66331761  0.86721053  1
  N  N155  1  0.68187674  0.33563286  0.37349757  1
  N  N156  1  0.35603205  -0.00035586  0.61662452  1
  N  N157  1  0.19156709  0.50254750  0.62164139  1
  N  N158  1  0.14748999  0.50085034  0.87942965  1
  N  N159  1  0.65354725  0.33371548  0.87296028  1
  N  N160  1  0.86533916  0.83505174  0.87430877  1
  N  N161  1  0.19192364  0.17037990  0.12602142  1
  N  N162  1  0.30356821  0.66620759  0.38017548  1
  N  N163  1  0.66954757  -0.00905103  0.11867867  1
  N  N164  1  0.19054105  0.83561063  0.62702538  1
  N  N165  1  0.51744097  0.83070236  0.37870423  1
  N  N166  1  0.35283510  0.66656527  0.13627091  1
  N  N167  1  0.30846097  0.66064114  0.87896054  1
  N  N168  1  0.36136939  0.33052094  0.62363173  1
  N  N169  1  0.30712682  0.00280848  0.88281075  1
  N  N170  1  0.66484324  -0.00228756  0.37192418  1
  N  N171  1  0.35135819  -0.00078370  0.13418745  1
  N  N172  1  0.18991897  0.83470970  0.12576631  1
  N  N173  1  0.14676744  0.83304282  0.87779623  1
  N  N174  1  0.14056517  0.50033569  0.36786427  1
  N  N175  1  0.19133739  0.16680579  0.61300682  1
  N  N176  1  0.35749509  0.33286685  0.13471695  1
  O  O177  1  -0.02276005  0.65770694  0.62586949  1
  O  O178  1  0.46169727  0.83499990  0.63155146  1
  O  O179  1  0.30402955  0.32973522  0.38244870  1
  O  O180  1  0.51491399  0.50371738  0.87865863  1
  O  O181  1  0.30984821  0.33435162  0.87793294  1
  O  O182  1  0.70552543  -0.00078820  0.63305763  1
  O  O183  1  0.68284276  0.66363580  0.38107428  1
  O  O184  1  0.14273605  0.83337084  0.37101201  1
  O  O185  1  0.82139659  0.16709248  0.63455794  1
  O  O186  1  0.83119176  0.16741463  0.10509839  1
  O  O187  1  0.14111529  0.17206994  0.87871989  1
  O  O188  1  -0.02434168  -0.00015297  0.12473410  1
  O  O189  1  0.52577082  0.17785606  0.37666597  1
  O  O190  1  -0.02246086  0.33480698  0.11805939  1
  O  O191  1  0.52243280  0.83157852  0.87511822  1
  O  O192  1  0.82315562  0.83399377  0.12229679  1
  O  O193  1  0.46754253  0.83187250  0.12268053  1
  O  O194  1  0.84286474  0.49697635  0.63626499  1
  O  O195  1  0.52408194  0.50143672  0.37790368  1
  O  O196  1  -0.02576443  0.00772661  0.63195083  1
  O  O197  1  0.19409328  0.50094192  0.12431268  1
  O  O198  1  0.03400451  0.67044170  0.37543273  1
  O  O199  1  0.64771424  0.68448561  0.63226429  1
  O  O200  1  0.03719813  0.33264555  0.37703145  1
  O  O201  1  0.64762750  -0.00748657  0.87389380  1
  O  O202  1  0.46130764  0.50479783  0.13011948  1
  O  O203  1  0.81941588  0.50471503  0.11155029  1
  O  O204  1  -0.02330485  0.66589048  0.12133949  1
  O  O205  1  -0.02314458  0.32835201  0.62478293  1
  O  O206  1  0.79895319  0.49751213  0.38357618  1
  O  O207  1  0.70901043  0.67155162  0.10836748  1
  O  O208  1  0.46351760  0.50631305  0.62749234  1
  O  O209  1  0.80539960  0.17983540  0.36367557  1
  O  O210  1  0.30105863  0.00101523  0.37180107  1
  O  O211  1  0.03721700  0.66226881  0.87423153  1
  O  O212  1  0.04384528  0.33122070  0.86969184  1
  O  O213  1  0.86603364  0.16739864  0.87871460  1
  O  O214  1  0.46472462  0.16278516  0.62082599  1
  O  O215  1  0.35569893  0.66501864  0.62522038  1
