# generated using pymatgen
data_Sr24Ta24N11O13
_symmetry_space_group_name_H-M   'P 1'
_cell_length_a   16.73009361
_cell_length_b   16.77430201
_cell_length_c   15.74271908
_cell_angle_alpha   89.90365465
_cell_angle_beta   89.93152329
_cell_angle_gamma   89.65493989
_symmetry_Int_Tables_number   1
_chemical_formula_structural   Sr24Ta24N11O13
_chemical_formula_sum   'Sr72 Ta72 N33 O39'
_cell_volume   4417.87862298
_cell_formula_units_Z   3
loop_
 _symmetry_equiv_pos_site_id
 _symmetry_equiv_pos_as_xyz
  1  'x, y, z'
loop_
 _atom_site_type_symbol
 _atom_site_label
 _atom_site_symmetry_multiplicity
 _atom_site_fract_x
 _atom_site_fract_y
 _atom_site_fract_z
 _atom_site_occupancy
  Sr  Sr0  1  -0.00875742  0.17470773  0.16343469  1
  Sr  Sr1  1  0.01316839  0.16084686  0.60934609  1
  Sr  Sr2  1  0.00762034  0.49036128  0.09982632  1
  Sr  Sr3  1  -0.00848370  0.50950909  0.59715058  1
  Sr  Sr4  1  0.00127759  0.83793732  0.11628271  1
  Sr  Sr5  1  0.00349677  0.82719957  0.66046974  1
  Sr  Sr6  1  0.33571352  0.17287441  0.11737214  1
  Sr  Sr7  1  0.33468638  0.16816279  0.66080090  1
  Sr  Sr8  1  0.32539347  0.51418088  0.16409963  1
  Sr  Sr9  1  0.34834822  0.48364672  0.61180564  1
  Sr  Sr10  1  0.33908505  0.82680082  0.09333319  1
  Sr  Sr11  1  0.33351032  0.84673456  0.62154570  1
  Sr  Sr12  1  0.67452483  0.15744384  0.09595082  1
  Sr  Sr13  1  0.65630902  0.16364521  0.62178634  1
  Sr  Sr14  1  0.65973334  0.50264968  0.11763753  1
  Sr  Sr15  1  0.67508301  0.49173717  0.65648292  1
  Sr  Sr16  1  0.65572015  0.83987679  0.13928280  1
  Sr  Sr17  1  0.68442573  0.81062691  0.61398654  1
  Sr  Sr18  1  0.17130423  0.02186259  0.13783498  1
  Sr  Sr19  1  0.16575703  0.00027074  0.58754209  1
  Sr  Sr20  1  0.15917641  0.34316907  0.09015629  1
  Sr  Sr21  1  0.17956259  0.32029084  0.64185644  1
  Sr  Sr22  1  0.17801162  0.65789248  0.15665723  1
  Sr  Sr23  1  0.16342470  0.68510687  0.63942661  1
  Sr  Sr24  1  0.50510704  -0.00319422  0.15382178  1
  Sr  Sr25  1  0.48580352  0.02017829  0.63741781  1
  Sr  Sr26  1  0.47965791  0.35928281  0.14518782  1
  Sr  Sr27  1  0.50316235  0.33347633  0.58721770  1
  Sr  Sr28  1  0.49641156  0.68663084  0.08591856  1
  Sr  Sr29  1  0.52053565  0.65683340  0.64017351  1
  Sr  Sr30  1  0.81641365  -0.00027330  0.08021710  1
  Sr  Sr31  1  0.83639151  -0.02338713  0.63832990  1
  Sr  Sr32  1  0.84067279  0.32093992  0.14741510  1
  Sr  Sr33  1  0.81670935  0.33581846  0.65341727  1
  Sr  Sr34  1  0.84030324  0.66072432  0.13385427  1
  Sr  Sr35  1  0.84228208  0.65225153  0.58723864  1
  Sr  Sr36  1  0.00663661  0.16639914  0.38268811  1
  Sr  Sr37  1  -0.00423915  0.18381308  0.83386077  1
  Sr  Sr38  1  -0.00220776  0.50117260  0.39827767  1
  Sr  Sr39  1  0.00219138  0.49633794  0.89860826  1
  Sr  Sr40  1  0.01067417  0.82112229  0.32840623  1
  Sr  Sr41  1  -0.00042382  0.84007561  0.88563029  1
  Sr  Sr42  1  0.34126462  0.15610966  0.33145383  1
  Sr  Sr43  1  0.32581127  0.17875851  0.88947894  1
  Sr  Sr44  1  0.34433548  0.49218144  0.38140636  1
  Sr  Sr45  1  0.31653865  0.50898664  0.83172275  1
  Sr  Sr46  1  0.32825364  0.83533881  0.41044218  1
  Sr  Sr47  1  0.33693882  0.83357495  0.87456046  1
  Sr  Sr48  1  0.65793365  0.16251892  0.40653603  1
  Sr  Sr49  1  0.67041985  0.16089061  0.87219810  1
  Sr  Sr50  1  0.67670312  0.48659626  0.33688254  1
  Sr  Sr51  1  0.66556732  0.50290967  0.88258442  1
  Sr  Sr52  1  0.67635588  0.82298959  0.38185130  1
  Sr  Sr53  1  0.67326433  0.82484521  0.86466479  1
  Sr  Sr54  1  0.15663294  0.00884431  0.36347741  1
  Sr  Sr55  1  0.17117446  -0.01619879  0.92395830  1
  Sr  Sr56  1  0.14659707  0.34517199  0.42305287  1
  Sr  Sr57  1  0.17668810  0.32998755  0.86724967  1
  Sr  Sr58  1  0.17113985  0.67313513  0.36189876  1
  Sr  Sr59  1  0.16876464  0.66944594  0.84365518  1
  Sr  Sr60  1  0.49977553  0.00699257  0.36278756  1
  Sr  Sr61  1  0.47338376  0.02210389  0.83580826  1
  Sr  Sr62  1  0.49282496  0.33765643  0.36872277  1
  Sr  Sr63  1  0.50758988  0.32265662  0.92743351  1
  Sr  Sr64  1  0.49175489  0.68344811  0.41696565  1
  Sr  Sr65  1  0.51880665  0.66321721  0.86659937  1
  Sr  Sr66  1  0.82127352  0.01213515  0.41910923  1
  Sr  Sr67  1  0.84305480  -0.01611814  0.86522619  1
  Sr  Sr68  1  0.82771706  0.32772154  0.34754110  1
  Sr  Sr69  1  0.83357001  0.32881694  0.85248947  1
  Sr  Sr70  1  0.82336810  0.67386182  0.36054340  1
  Sr  Sr71  1  0.85542997  0.64067475  0.91451061  1
  Ta  Ta72  1  0.11930295  0.17040771  -0.00096145  1
  Ta  Ta73  1  0.21200755  0.16898313  0.49565228  1
  Ta  Ta74  1  0.19115793  0.52716147  -0.00287219  1
  Ta  Ta75  1  0.17851003  0.53432450  0.50488875  1
  Ta  Ta76  1  0.16780099  0.79003076  -0.00014254  1
  Ta  Ta77  1  0.13213056  0.83008006  0.49581775  1
  Ta  Ta78  1  0.50184194  0.12666771  -0.00436201  1
  Ta  Ta79  1  0.46358922  0.16334624  0.49817735  1
  Ta  Ta80  1  0.45539764  0.51111367  0.00022195  1
  Ta  Ta81  1  0.54252581  0.50248061  0.50008283  1
  Ta  Ta82  1  0.50831168  0.87836878  -0.01567789  1
  Ta  Ta83  1  0.51198690  0.86820039  0.50634833  1
  Ta  Ta84  1  0.85857485  0.18089303  0.00038849  1
  Ta  Ta85  1  0.83335888  0.20615707  0.50088738  1
  Ta  Ta86  1  0.82692831  0.45694798  0.00170173  1
  Ta  Ta87  1  0.81018175  0.47384805  0.50093053  1
  Ta  Ta88  1  0.81319317  0.81202607  0.00517127  1
  Ta  Ta89  1  0.88435835  0.82810188  0.49151390  1
  Ta  Ta90  1  0.16499648  0.22037119  0.25754819  1
  Ta  Ta91  1  0.16560279  0.12312971  0.74837553  1
  Ta  Ta92  1  0.14469071  0.47318734  0.25497576  1
  Ta  Ta93  1  0.12065504  0.49679662  0.74381601  1
  Ta  Ta94  1  0.20782350  0.83938807  0.25128375  1
  Ta  Ta95  1  0.17278132  0.86917633  0.74603072  1
  Ta  Ta96  1  0.53513182  0.17476433  0.24860264  1
  Ta  Ta97  1  0.50373892  0.20875181  0.75236255  1
  Ta  Ta98  1  0.49989974  0.55333468  0.24856389  1
  Ta  Ta99  1  0.50138832  0.46313555  0.75111223  1
  Ta  Ta100  1  0.47875511  0.81669083  0.25208584  1
  Ta  Ta101  1  0.51122906  0.84746731  0.75951109  1
  Ta  Ta102  1  0.80974456  0.13204582  0.24684941  1
  Ta  Ta103  1  0.82607977  0.14804723  0.74122654  1
  Ta  Ta104  1  0.87222725  0.49879916  0.24357904  1
  Ta  Ta105  1  0.85663779  0.51677130  0.75242265  1
  Ta  Ta106  1  0.82636737  0.88306684  0.25492281  1
  Ta  Ta107  1  0.84081201  0.77528445  0.75190930  1
  Ta  Ta108  1  -0.05253999  0.00053564  0.24739093  1
  Ta  Ta109  1  0.04127347  0.00212159  0.75643778  1
  Ta  Ta110  1  0.02301284  0.35520509  0.25497987  1
  Ta  Ta111  1  0.00424942  0.37259947  0.74424473  1
  Ta  Ta112  1  0.00178417  0.62381344  0.24634128  1
  Ta  Ta113  1  -0.01931498  0.64675621  0.74643614  1
  Ta  Ta114  1  0.33406325  -0.04275463  0.24536198  1
  Ta  Ta115  1  0.28713477  -0.00130043  0.75550123  1
  Ta  Ta116  1  0.27814840  0.33814845  0.25714594  1
  Ta  Ta117  1  0.38343797  0.33592734  0.75968931  1
  Ta  Ta118  1  0.36214236  0.69492696  0.25217237  1
  Ta  Ta119  1  0.34992668  0.68375010  0.74296979  1
  Ta  Ta120  1  0.69068273  0.01324763  0.25091314  1
  Ta  Ta121  1  0.65315330  -0.01373787  0.76106460  1
  Ta  Ta122  1  0.65705343  0.29169356  0.25167007  1
  Ta  Ta123  1  0.62464672  0.32627891  0.74810272  1
  Ta  Ta124  1  0.61945359  0.67158339  0.25614027  1
  Ta  Ta125  1  0.71909170  0.65955627  0.75092915  1
  Ta  Ta126  1  -0.00435689  0.05325648  -0.00443153  1
  Ta  Ta127  1  -0.00479778  -0.04471125  0.49781219  1
  Ta  Ta128  1  -0.01888187  0.30561292  0.00263882  1
  Ta  Ta129  1  -0.05052787  0.32935593  0.49806990  1
  Ta  Ta130  1  0.04762589  0.66904234  0.00518806  1
  Ta  Ta131  1  0.01522453  0.69662231  0.49905204  1
  Ta  Ta132  1  0.36617240  0.00243738  0.00019394  1
  Ta  Ta133  1  0.34048090  0.03018509  0.50296784  1
  Ta  Ta134  1  0.32971641  0.39417482  -0.00298402  1
  Ta  Ta135  1  0.32905727  0.29038425  0.49325310  1
  Ta  Ta136  1  0.31318639  0.64378044  0.00214032  1
  Ta  Ta137  1  0.30920391  0.65300592  0.49877893  1
  Ta  Ta138  1  0.62732720  -0.00973876  -0.01641034  1
  Ta  Ta139  1  0.63816015  -0.01745164  0.50731123  1
  Ta  Ta140  1  0.70111106  0.33033836  -0.00089510  1
  Ta  Ta141  1  0.68439065  0.34901395  0.49895853  1
  Ta  Ta142  1  0.68525903  0.68395024  0.00028454  1
  Ta  Ta143  1  0.67004360  0.62034325  0.49839394  1
  N  N144  1  0.33404123  0.67002688  0.12378005  1
  N  N145  1  0.49842630  0.17110843  0.88116081  1
  N  N146  1  0.49580690  0.17539156  0.61864834  1
  N  N147  1  0.68256235  0.65151720  0.62488385  1
  N  N148  1  0.66201944  0.66332761  0.37539550  1
  N  N149  1  0.33270774  0.66853032  0.37792608  1
  N  N150  1  0.65838309  0.32710069  0.62629013  1
  N  N151  1  0.49836259  0.81717450  0.87799742  1
  N  N152  1  0.33914092  0.34691934  0.87940806  1
  N  N153  1  0.32762496  0.00674975  0.62382923  1
  N  N154  1  0.32219928  0.00387541  0.87946938  1
  N  N155  1  0.33735899  0.00052348  0.12945786  1
  N  N156  1  0.01303737  0.65797633  0.12615432  1
  N  N157  1  0.17047402  0.83738569  0.37075924  1
  N  N158  1  0.68843053  -0.00100265  0.87702204  1
  N  N159  1  0.51030153  0.49330514  0.62509949  1
  N  N160  1  0.17328442  0.16114205  0.62930793  1
  N  N161  1  0.82990802  0.16118616  0.12433603  1
  N  N162  1  0.00456532  0.00880842  0.87679195  1
  N  N163  1  0.66246841  0.32179068  0.37261582  1
  N  N164  1  0.83353636  0.49126345  0.62124556  1
  N  N165  1  0.32241280  0.33194419  0.37504147  1
  N  N166  1  0.16406712  0.84279708  0.62350328  1
  N  N167  1  0.84142554  0.49240574  0.12261304  1
  N  N168  1  0.16694735  0.17718716  0.37669746  1
  N  N169  1  0.48759340  0.52170396  0.12404445  1
  N  N170  1  -0.01008065  0.33499019  0.37722482  1
  N  N171  1  0.50211887  0.16626071  0.36917057  1
  N  N172  1  -0.00117462  0.33077908  0.12246332  1
  N  N173  1  0.83893488  0.83974695  0.37355573  1
  N  N174  1  0.68218421  0.66020038  0.87876021  1
  N  N175  1  0.83800738  0.48880279  0.87444912  1
  N  N176  1  0.00460216  0.66772694  0.62341575  1
  O  O177  1  0.14334043  0.18391163  0.12529588  1
  O  O178  1  0.14817153  0.17102331  0.87411228  1
  O  O179  1  0.49897434  0.84108320  0.12184692  1
  O  O180  1  0.82369538  0.16734321  0.37734742  1
  O  O181  1  0.35256671  0.67182685  0.61946522  1
  O  O182  1  -0.03111398  0.01478167  0.12238460  1
  O  O183  1  0.66254193  -0.00020634  0.38202224  1
  O  O184  1  0.84706825  0.80944083  0.62393600  1
  O  O185  1  0.01052576  0.66012741  0.36971741  1
  O  O186  1  0.16607668  0.82263567  0.87513788  1
  O  O187  1  -0.01224981  0.35134278  0.62067030  1
  O  O188  1  0.81487086  0.84078773  0.12805352  1
  O  O189  1  0.49521311  0.50414391  0.87563494  1
  O  O190  1  0.68426326  0.31473465  0.12178229  1
  O  O191  1  0.49580654  0.85537659  0.62811379  1
  O  O192  1  -0.00464929  0.34231269  0.86944431  1
  O  O193  1  0.83557054  0.48793014  0.36595945  1
  O  O194  1  0.83597564  0.15213104  0.61751392  1
  O  O195  1  0.50223085  0.14994988  0.12700877  1
  O  O196  1  0.33156962  0.66860662  0.86633684  1
  O  O197  1  0.16072478  0.52360281  0.63167015  1
  O  O198  1  0.65537527  -0.00618409  0.62907873  1
  O  O199  1  0.65393459  0.68117784  0.13099513  1
  O  O200  1  -0.02176185  -0.01078629  0.37243412  1
  O  O201  1  0.83810214  0.16321520  0.86501218  1
  O  O202  1  0.33840922  0.32833664  0.63455277  1
  O  O203  1  0.84180890  0.80307145  0.88171901  1
  O  O204  1  0.50518335  0.51285351  0.37521233  1
  O  O205  1  0.18000156  0.81067746  0.12566657  1
  O  O206  1  0.49846785  0.84459133  0.38114278  1
  O  O207  1  0.34330459  -0.00341101  0.36927037  1
  O  O208  1  0.16556573  0.50935083  0.38165187  1
  O  O209  1  0.16890082  0.50120670  0.13013033  1
  O  O210  1  0.67347302  0.32882068  0.87432312  1
  O  O211  1  0.16269003  0.51390465  0.86563159  1
  O  O212  1  0.31657411  0.36180613  0.12426926  1
  O  O213  1  0.01370961  0.65629967  0.88046510  1
  O  O214  1  0.00520632  -0.01922531  0.62423269  1
  O  O215  1  0.66558212  0.00047261  0.12092159  1
