# generated using pymatgen
data_Sr24Ta24N11O13
_symmetry_space_group_name_H-M   'P 1'
_cell_length_a   16.82939118
_cell_length_b   16.91906770
_cell_length_c   15.69855137
_cell_angle_alpha   89.74669055
_cell_angle_beta   90.02710600
_cell_angle_gamma   89.88134517
_symmetry_Int_Tables_number   1
_chemical_formula_structural   Sr24Ta24N11O13
_chemical_formula_sum   'Sr72 Ta72 N33 O39'
_cell_volume   4469.91418626
_cell_formula_units_Z   3
loop_
 _symmetry_equiv_pos_site_id
 _symmetry_equiv_pos_as_xyz
  1  'x, y, z'
loop_
 _atom_site_type_symbol
 _atom_site_label
 _atom_site_symmetry_multiplicity
 _atom_site_fract_x
 _atom_site_fract_y
 _atom_site_fract_z
 _atom_site_occupancy
  Sr  Sr0  1  -0.00178459  0.18398423  0.13343082  1
  Sr  Sr1  1  0.02771920  0.18477160  0.59939355  1
  Sr  Sr2  1  0.01546993  0.51198395  0.15766406  1
  Sr  Sr3  1  -0.00871638  0.51503651  0.61737445  1
  Sr  Sr4  1  0.00740439  0.84874422  0.11062134  1
  Sr  Sr5  1  0.00192121  0.86644459  0.64919286  1
  Sr  Sr6  1  0.34308108  0.14910767  0.11547510  1
  Sr  Sr7  1  0.33602941  0.19188802  0.66339896  1
  Sr  Sr8  1  0.33479801  0.51520888  0.08575083  1
  Sr  Sr9  1  0.35486467  0.50578011  0.61125756  1
  Sr  Sr10  1  0.34743727  0.81654364  0.17269876  1
  Sr  Sr11  1  0.33028673  0.83451205  0.61232388  1
  Sr  Sr12  1  0.67794653  0.17044973  0.14245373  1
  Sr  Sr13  1  0.65740109  0.17418795  0.61686193  1
  Sr  Sr14  1  0.66516386  0.49551463  0.11702361  1
  Sr  Sr15  1  0.67416155  0.53800040  0.65563378  1
  Sr  Sr16  1  0.67844989  0.86756293  0.10493655  1
  Sr  Sr17  1  0.69295431  0.84446723  0.60838504  1
  Sr  Sr18  1  0.16404838  -0.01256482  0.08905220  1
  Sr  Sr19  1  0.16785351  -0.02007995  0.62979199  1
  Sr  Sr20  1  0.17079623  0.31682483  0.13918266  1
  Sr  Sr21  1  0.16248809  0.34034516  0.62567807  1
  Sr  Sr22  1  0.16189997  0.66914916  0.12500041  1
  Sr  Sr23  1  0.14097751  0.64987407  0.63135936  1
  Sr  Sr24  1  0.48530060  -0.00929772  0.11705843  1
  Sr  Sr25  1  0.47825007  -0.02534623  0.61854546  1
  Sr  Sr26  1  0.49955645  0.30477865  0.15645016  1
  Sr  Sr27  1  0.49709762  0.31942997  0.61304085  1
  Sr  Sr28  1  0.50526654  0.65328131  0.12094835  1
  Sr  Sr29  1  0.48014779  0.66692982  0.63608977  1
  Sr  Sr30  1  0.84318795  -0.00370758  0.13850038  1
  Sr  Sr31  1  0.81409726  0.00019078  0.63691015  1
  Sr  Sr32  1  0.82064485  0.32631017  0.08808129  1
  Sr  Sr33  1  0.81190697  0.31397526  0.62231004  1
  Sr  Sr34  1  0.82546988  0.62556348  0.15080887  1
  Sr  Sr35  1  0.83203344  0.66342049  0.61592630  1
  Sr  Sr36  1  0.01392217  0.17435233  0.37059796  1
  Sr  Sr37  1  0.00197127  0.20191353  0.89455661  1
  Sr  Sr38  1  -0.00935660  0.52093298  0.37961892  1
  Sr  Sr39  1  0.01198960  0.51368091  0.84541402  1
  Sr  Sr40  1  -0.00074013  0.85593769  0.36019702  1
  Sr  Sr41  1  0.00354876  0.84768766  0.88864716  1
  Sr  Sr42  1  0.34063554  0.18296773  0.33556728  1
  Sr  Sr43  1  0.33940925  0.15239828  0.89690589  1
  Sr  Sr44  1  0.35498524  0.49156107  0.41021722  1
  Sr  Sr45  1  0.34690438  0.51670604  0.88464276  1
  Sr  Sr46  1  0.32037637  0.82519743  0.38674195  1
  Sr  Sr47  1  0.34650797  0.83307297  0.82861044  1
  Sr  Sr48  1  0.67120428  0.16980427  0.38623609  1
  Sr  Sr49  1  0.67840243  0.17461798  0.83972812  1
  Sr  Sr50  1  0.66435463  0.52540579  0.33777224  1
  Sr  Sr51  1  0.67517018  0.50066460  0.89417363  1
  Sr  Sr52  1  0.69677162  0.84808440  0.38614426  1
  Sr  Sr53  1  0.67904327  0.85661713  0.89599900  1
  Sr  Sr54  1  0.15795432  -0.01265984  0.41743604  1
  Sr  Sr55  1  0.16936400  -0.02366154  0.86671633  1
  Sr  Sr56  1  0.16156314  0.33598386  0.37118382  1
  Sr  Sr57  1  0.17423147  0.32453896  0.86518134  1
  Sr  Sr58  1  0.15018366  0.67239154  0.34383094  1
  Sr  Sr59  1  0.15478175  0.65321753  0.89988463  1
  Sr  Sr60  1  0.46604934  -0.02517007  0.37336880  1
  Sr  Sr61  1  0.49849242  -0.01291104  0.89615448  1
  Sr  Sr62  1  0.50406805  0.32451043  0.38052244  1
  Sr  Sr63  1  0.49259982  0.29606178  0.84153259  1
  Sr  Sr64  1  0.48030140  0.67162084  0.37114824  1
  Sr  Sr65  1  0.51091166  0.65579360  0.87818371  1
  Sr  Sr66  1  0.82422707  0.01009901  0.35326336  1
  Sr  Sr67  1  0.83403292  -0.01337219  0.86553478  1
  Sr  Sr68  1  0.81352054  0.32261501  0.40804866  1
  Sr  Sr69  1  0.81476989  0.32025933  0.88339053  1
  Sr  Sr70  1  0.82417342  0.65848341  0.38565611  1
  Sr  Sr71  1  0.82517783  0.64037499  0.85977496  1
  Ta  Ta72  1  0.15589403  0.15549404  0.00252318  1
  Ta  Ta73  1  0.21069541  0.16758243  0.49772519  1
  Ta  Ta74  1  0.14814103  0.47205398  -0.00152092  1
  Ta  Ta75  1  0.17623083  0.51333808  0.49592227  1
  Ta  Ta76  1  0.21086002  0.82149116  -0.00266137  1
  Ta  Ta77  1  0.14701016  0.79869304  0.50414543  1
  Ta  Ta78  1  0.53043831  0.16767586  -0.00192398  1
  Ta  Ta79  1  0.47397597  0.14443659  0.50545390  1
  Ta  Ta80  1  0.50017583  0.42969814  -0.00132039  1
  Ta  Ta81  1  0.54300538  0.51485084  0.49999719  1
  Ta  Ta82  1  0.46524329  0.81825592  -0.00079829  1
  Ta  Ta83  1  0.53233165  0.82011516  0.50461095  1
  Ta  Ta84  1  0.82965076  0.14035682  -0.00499244  1
  Ta  Ta85  1  0.85620789  0.14998963  0.49823233  1
  Ta  Ta86  1  0.87388145  0.49736828  0.00196075  1
  Ta  Ta87  1  0.81235516  0.48614080  0.49587861  1
  Ta  Ta88  1  0.83940317  0.78445520  0.00980088  1
  Ta  Ta89  1  0.87124510  0.84152808  0.50547661  1
  Ta  Ta90  1  0.17200805  0.11081399  0.25046220  1
  Ta  Ta91  1  0.16160689  0.14233044  0.75124811  1
  Ta  Ta92  1  0.21840054  0.49829302  0.24867155  1
  Ta  Ta93  1  0.20271349  0.50209745  0.75338067  1
  Ta  Ta94  1  0.16390479  0.86638921  0.25326686  1
  Ta  Ta95  1  0.16317151  0.79308402  0.75116891  1
  Ta  Ta96  1  0.51774949  0.12936084  0.25167592  1
  Ta  Ta97  1  0.49883084  0.11884355  0.74955339  1
  Ta  Ta98  1  0.46978158  0.49269878  0.24651839  1
  Ta  Ta99  1  0.50536269  0.47359576  0.75076412  1
  Ta  Ta100  1  0.54366402  0.83384897  0.24616360  1
  Ta  Ta101  1  0.54247793  0.82932394  0.74730746  1
  Ta  Ta102  1  0.83861569  0.21174032  0.25486260  1
  Ta  Ta103  1  0.87717905  0.16728091  0.74972991  1
  Ta  Ta104  1  0.83108222  0.44889502  0.25049411  1
  Ta  Ta105  1  0.83641314  0.46188577  0.75273770  1
  Ta  Ta106  1  0.83501671  0.80428603  0.23264505  1
  Ta  Ta107  1  0.83304817  0.80720077  0.75890816  1
  Ta  Ta108  1  0.03671318  0.01115056  0.24817373  1
  Ta  Ta109  1  0.00724848  0.05040916  0.74947174  1
  Ta  Ta110  1  -0.04520582  0.34010536  0.25268121  1
  Ta  Ta111  1  -0.03083409  0.33813377  0.74881876  1
  Ta  Ta112  1  -0.02576343  0.70026420  0.24338191  1
  Ta  Ta113  1  -0.00798434  0.69961179  0.74926593  1
  Ta  Ta114  1  0.29376738  -0.00540078  0.24726084  1
  Ta  Ta115  1  0.33361865  0.01928171  0.75232375  1
  Ta  Ta116  1  0.33689280  0.37789229  0.25185244  1
  Ta  Ta117  1  0.33571954  0.37464643  0.74329800  1
  Ta  Ta118  1  0.32956841  0.62373036  0.24957872  1
  Ta  Ta119  1  0.29815991  0.65740766  0.74917335  1
  Ta  Ta120  1  0.63468462  0.00000923  0.25637443  1
  Ta  Ta121  1  0.63450013  -0.00593506  0.74603388  1
  Ta  Ta122  1  0.68935420  0.33656802  0.25353272  1
  Ta  Ta123  1  0.65701077  0.36653741  0.74391980  1
  Ta  Ta124  1  0.66971648  0.71338740  0.23733268  1
  Ta  Ta125  1  0.66581692  0.71474606  0.75477580  1
  Ta  Ta126  1  -0.00709623  0.04025603  0.00160046  1
  Ta  Ta127  1  -0.03052427  0.01021588  0.49552518  1
  Ta  Ta128  1  0.00870732  0.37402548  0.00342346  1
  Ta  Ta129  1  -0.02512476  0.35156900  0.49448712  1
  Ta  Ta130  1  -0.03059195  0.65922099  0.00759434  1
  Ta  Ta131  1  -0.00038041  0.71120346  0.50346638  1
  Ta  Ta132  1  0.33130975  -0.05622536  -0.00015405  1
  Ta  Ta133  1  0.32703738  0.04618318  0.50910497  1
  Ta  Ta134  1  0.35221124  0.33580444  -0.00058429  1
  Ta  Ta135  1  0.32412299  0.30441783  0.49760334  1
  Ta  Ta136  1  0.33650903  0.70915693  0.00350482  1
  Ta  Ta137  1  0.28291334  0.65888507  0.49232458  1
  Ta  Ta138  1  0.67622053  0.04516869  -0.00777090  1
  Ta  Ta139  1  0.62614523  0.00586318  0.49816606  1
  Ta  Ta140  1  0.62955216  0.31934549  -0.00818944  1
  Ta  Ta141  1  0.65738340  0.39225874  0.50858998  1
  Ta  Ta142  1  0.68687408  0.68857806  0.01581291  1
  Ta  Ta143  1  0.64188653  0.66932042  0.49630816  1
  N  N144  1  0.32115142  -0.00299378  0.62252089  1
  N  N145  1  -0.01252749  0.67566011  0.62766168  1
  N  N146  1  0.66456799  0.65030346  0.13362717  1
  N  N147  1  0.49979942  0.14741581  0.87628691  1
  N  N148  1  0.32478787  -0.01848503  0.12666205  1
  N  N149  1  0.65748517  0.33209784  0.86981563  1
  N  N150  1  0.82333333  0.49780358  0.37345404  1
  N  N151  1  0.50438355  0.15081917  0.12815736  1
  N  N152  1  0.49240114  0.16152632  0.62553490  1
  N  N153  1  0.33483423  0.66611481  0.12422334  1
  N  N154  1  0.83972483  0.84701506  0.11558173  1
  N  N155  1  0.66768404  0.00341998  0.37608480  1
  N  N156  1  0.66852719  0.00975560  0.87278859  1
  N  N157  1  0.65755785  0.33474221  0.61748572  1
  N  N158  1  0.00571104  0.66674042  0.12866041  1
  N  N159  1  0.17502422  0.82090114  0.87551137  1
  N  N160  1  0.83816353  0.16918384  0.37632936  1
  N  N161  1  0.33599552  0.33650688  0.37302229  1
  N  N162  1  -0.00013887  0.01275265  0.12293682  1
  N  N163  1  0.17529301  0.49535375  0.87673673  1
  N  N164  1  0.16318125  0.83554205  0.37384312  1
  N  N165  1  0.83781603  0.48502353  0.87630245  1
  N  N166  1  0.66027865  0.00547542  0.61907019  1
  N  N167  1  0.33271402  0.34720355  0.62225383  1
  N  N168  1  -0.00382543  0.01277226  0.37476368  1
  N  N169  1  0.50290596  0.82003579  0.62751340  1
  N  N170  1  0.84594989  0.83682373  0.62645612  1
  N  N171  1  0.31999149  0.66327470  0.37493160  1
  N  N172  1  0.84000287  0.82508771  0.88429460  1
  N  N173  1  0.84125647  0.16223272  0.87190423  1
  N  N174  1  0.83627068  0.47908161  0.12066864  1
  N  N175  1  0.33138648  -0.01444148  0.87485003  1
  N  N176  1  0.16834350  0.82724689  0.62434988  1
  O  O177  1  0.17106718  0.15693375  0.12768778  1
  O  O178  1  -0.00392989  0.35395641  0.87113893  1
  O  O179  1  0.66255849  0.67794038  0.36911553  1
  O  O180  1  0.66278101  0.34868036  0.37830591  1
  O  O181  1  0.66661482  0.32672757  0.12713241  1
  O  O182  1  0.50882502  0.83098487  0.12074284  1
  O  O183  1  0.33502389  0.34092881  0.87455009  1
  O  O184  1  0.32197416  0.66830264  0.87404280  1
  O  O185  1  0.17272125  0.49668278  0.62152828  1
  O  O186  1  0.00257101  0.35205263  0.37306404  1
  O  O187  1  0.16731745  0.16005073  0.87934993  1
  O  O188  1  0.66598830  0.69347417  0.88811749  1
  O  O189  1  -0.02187385  0.33559939  0.61751973  1
  O  O190  1  0.51486140  0.51116547  0.63090946  1
  O  O191  1  0.50641036  0.50854121  0.36821300  1
  O  O192  1  0.83567700  0.17556086  0.13000985  1
  O  O193  1  0.17457562  0.49673442  0.37203777  1
  O  O194  1  0.66127383  0.68507084  0.62225252  1
  O  O195  1  0.00893092  0.02896736  0.62215262  1
  O  O196  1  0.17051029  0.82721034  0.12836510  1
  O  O197  1  0.18660218  0.15743979  0.37158447  1
  O  O198  1  0.31715509  0.66328389  0.62283760  1
  O  O199  1  -0.00219737  0.66836332  0.88082355  1
  O  O200  1  0.48940897  0.47701364  0.12165648  1
  O  O201  1  0.17878926  0.15965659  0.62813195  1
  O  O202  1  0.84499944  0.83180149  0.37372235  1
  O  O203  1  0.50028323  0.82234415  0.87452650  1
  O  O204  1  0.52928491  0.82795965  0.37025076  1
  O  O205  1  0.50277629  0.47584797  0.88002547  1
  O  O206  1  0.00014863  0.35162384  0.12935978  1
  O  O207  1  0.83136845  0.50318549  0.63056137  1
  O  O208  1  0.33566938  0.33401926  0.12434665  1
  O  O209  1  0.83513595  0.16102910  0.62899160  1
  O  O210  1  0.00250389  0.02234088  0.87168939  1
  O  O211  1  -0.01288475  0.68057330  0.37313016  1
  O  O212  1  0.49207265  0.16673445  0.37013965  1
  O  O213  1  0.31632508  -0.00370917  0.38969707  1
  O  O214  1  0.66325666  0.01513670  0.12032915  1
  O  O215  1  0.18036728  0.49146894  0.12035123  1
