# generated using pymatgen
data_Sr24Ta24N11O13
_symmetry_space_group_name_H-M   'P 1'
_cell_length_a   16.76148101
_cell_length_b   16.76405954
_cell_length_c   15.73870425
_cell_angle_alpha   89.93023485
_cell_angle_beta   89.74606738
_cell_angle_gamma   90.12843800
_symmetry_Int_Tables_number   1
_chemical_formula_structural   Sr24Ta24N11O13
_chemical_formula_sum   'Sr72 Ta72 N33 O39'
_cell_volume   4422.36795815
_cell_formula_units_Z   3
loop_
 _symmetry_equiv_pos_site_id
 _symmetry_equiv_pos_as_xyz
  1  'x, y, z'
loop_
 _atom_site_type_symbol
 _atom_site_label
 _atom_site_symmetry_multiplicity
 _atom_site_fract_x
 _atom_site_fract_y
 _atom_site_fract_z
 _atom_site_occupancy
  Sr  Sr0  1  0.00962318  0.15965785  0.13385824  1
  Sr  Sr1  1  -0.00108061  0.14870595  0.58193713  1
  Sr  Sr2  1  0.00467382  0.52929604  0.10125180  1
  Sr  Sr3  1  0.00727852  0.50786265  0.62935643  1
  Sr  Sr4  1  0.00323890  0.83571567  0.14732750  1
  Sr  Sr5  1  0.01377756  0.84645645  0.65803551  1
  Sr  Sr6  1  0.36658466  0.16541974  0.07779830  1
  Sr  Sr7  1  0.32381056  0.16641539  0.63789707  1
  Sr  Sr8  1  0.32835203  0.48755530  0.13424443  1
  Sr  Sr9  1  0.35767218  0.50217610  0.60760175  1
  Sr  Sr10  1  0.32845848  0.84718704  0.13321776  1
  Sr  Sr11  1  0.32539901  0.82963272  0.58760057  1
  Sr  Sr12  1  0.65179734  0.16821250  0.16647510  1
  Sr  Sr13  1  0.66809553  0.18429648  0.61365017  1
  Sr  Sr14  1  0.68638182  0.49422731  0.10837676  1
  Sr  Sr15  1  0.66774876  0.50524115  0.65567138  1
  Sr  Sr16  1  0.67936390  0.83752131  0.10314774  1
  Sr  Sr17  1  0.65813109  0.81615268  0.62349577  1
  Sr  Sr18  1  0.14929598  -0.00799341  0.15731758  1
  Sr  Sr19  1  0.18007279  0.01078166  0.61114691  1
  Sr  Sr20  1  0.15538607  0.32291351  0.13404771  1
  Sr  Sr21  1  0.17069758  0.34042181  0.65658867  1
  Sr  Sr22  1  0.17194027  0.65981998  0.07937907  1
  Sr  Sr23  1  0.14709023  0.66737658  0.63425072  1
  Sr  Sr24  1  0.49878295  -0.01169260  0.11824155  1
  Sr  Sr25  1  0.49667352  0.02820074  0.67909975  1
  Sr  Sr26  1  0.51068643  0.34201770  0.13094780  1
  Sr  Sr27  1  0.48900004  0.32723126  0.57578572  1
  Sr  Sr28  1  0.44991968  0.67337376  0.18137616  1
  Sr  Sr29  1  0.49866628  0.67368983  0.61584047  1
  Sr  Sr30  1  0.82934698  -0.00120106  0.08646472  1
  Sr  Sr31  1  0.82524770  -0.00284121  0.63515106  1
  Sr  Sr32  1  0.84475828  0.30228111  0.12717370  1
  Sr  Sr33  1  0.83108794  0.34031702  0.63223260  1
  Sr  Sr34  1  0.83571858  0.67458276  0.14409158  1
  Sr  Sr35  1  0.82327528  0.67307443  0.59175006  1
  Sr  Sr36  1  0.01496729  0.16745384  0.35819691  1
  Sr  Sr37  1  -0.01346132  0.16348246  0.92300906  1
  Sr  Sr38  1  -0.00449130  0.51972088  0.40498416  1
  Sr  Sr39  1  0.01577038  0.51296357  0.85914338  1
  Sr  Sr40  1  -0.00044484  0.83289397  0.34788894  1
  Sr  Sr41  1  0.00985101  0.84644691  0.85031633  1
  Sr  Sr42  1  0.33330701  0.16421646  0.41550646  1
  Sr  Sr43  1  0.33149858  0.16036993  0.85566570  1
  Sr  Sr44  1  0.34651930  0.49120328  0.36178583  1
  Sr  Sr45  1  0.34539093  0.50091916  0.88469295  1
  Sr  Sr46  1  0.33084714  0.83732514  0.36662964  1
  Sr  Sr47  1  0.32912207  0.82834257  0.91153721  1
  Sr  Sr48  1  0.65874329  0.17751306  0.38143722  1
  Sr  Sr49  1  0.67499117  0.16208038  0.82302485  1
  Sr  Sr50  1  0.68780182  0.50841578  0.33806112  1
  Sr  Sr51  1  0.66372064  0.49102216  0.88550084  1
  Sr  Sr52  1  0.68002922  0.81894036  0.39829687  1
  Sr  Sr53  1  0.66219209  0.82513938  0.88741008  1
  Sr  Sr54  1  0.17002851  0.00219729  0.38040288  1
  Sr  Sr55  1  0.15867121  0.00029423  0.85390814  1
  Sr  Sr56  1  0.16861256  0.34288004  0.34364795  1
  Sr  Sr57  1  0.16374054  0.32052801  0.86155305  1
  Sr  Sr58  1  0.15311978  0.65574019  0.41385732  1
  Sr  Sr59  1  0.15498664  0.67153864  0.86782229  1
  Sr  Sr60  1  0.51021205  0.00200321  0.33880960  1
  Sr  Sr61  1  0.48263499  -0.01515893  0.89756918  1
  Sr  Sr62  1  0.50879378  0.33637696  0.36567655  1
  Sr  Sr63  1  0.49084225  0.34635852  0.91845950  1
  Sr  Sr64  1  0.49049245  0.67741083  0.39010169  1
  Sr  Sr65  1  0.51563735  0.65070467  0.83002189  1
  Sr  Sr66  1  0.80657323  0.00083957  0.41956918  1
  Sr  Sr67  1  0.83334093  -0.00766578  0.86897667  1
  Sr  Sr68  1  0.84626979  0.32461991  0.38381077  1
  Sr  Sr69  1  0.81991787  0.32833650  0.85269251  1
  Sr  Sr70  1  0.83703345  0.66623779  0.36150428  1
  Sr  Sr71  1  0.81991374  0.65472345  0.92727262  1
  Ta  Ta72  1  0.18080619  0.15443255  -0.00365305  1
  Ta  Ta73  1  0.16323942  0.20996254  0.49993985  1
  Ta  Ta74  1  0.17084488  0.46729829  -0.00096329  1
  Ta  Ta75  1  0.18257696  0.47557375  0.49920599  1
  Ta  Ta76  1  0.14689310  0.85159241  0.00176656  1
  Ta  Ta77  1  0.13312404  0.83463915  0.49544964  1
  Ta  Ta78  1  0.55305162  0.16823588  -0.00817057  1
  Ta  Ta79  1  0.50277175  0.13316068  0.50501221  1
  Ta  Ta80  1  0.49811572  0.55381268  0.00970454  1
  Ta  Ta81  1  0.54584193  0.50555924  0.49098240  1
  Ta  Ta82  1  0.49614828  0.76582391  0.00505766  1
  Ta  Ta83  1  0.50262189  0.87648309  0.50684764  1
  Ta  Ta84  1  0.77901454  0.16341927  -0.00942183  1
  Ta  Ta85  1  0.83387742  0.17467380  0.50522447  1
  Ta  Ta86  1  0.85638045  0.46280547  -0.00744871  1
  Ta  Ta87  1  0.80313625  0.49903689  0.49482162  1
  Ta  Ta88  1  0.87496624  0.83041581  -0.00302973  1
  Ta  Ta89  1  0.87885725  0.83981999  0.50638529  1
  Ta  Ta90  1  0.21765079  0.16461945  0.25180020  1
  Ta  Ta91  1  0.12090089  0.16222566  0.74637813  1
  Ta  Ta92  1  0.14612672  0.52119422  0.25055357  1
  Ta  Ta93  1  0.21055696  0.51265990  0.74342863  1
  Ta  Ta94  1  0.16918852  0.79200090  0.24991263  1
  Ta  Ta95  1  0.20864152  0.82973412  0.75252153  1
  Ta  Ta96  1  0.46043710  0.17174619  0.25665621  1
  Ta  Ta97  1  0.49723805  0.22739989  0.74584809  1
  Ta  Ta98  1  0.52882245  0.51505506  0.24907427  1
  Ta  Ta99  1  0.49710992  0.45084568  0.74655316  1
  Ta  Ta100  1  0.53950876  0.82804161  0.24894766  1
  Ta  Ta101  1  0.46472267  0.83430847  0.74795972  1
  Ta  Ta102  1  0.82406156  0.12157380  0.25092072  1
  Ta  Ta103  1  0.87267235  0.16254642  0.75032638  1
  Ta  Ta104  1  0.85994791  0.47281248  0.24962532  1
  Ta  Ta105  1  0.83632458  0.54316037  0.75156216  1
  Ta  Ta106  1  0.82175252  0.87418802  0.25230021  1
  Ta  Ta107  1  0.82236880  0.80681019  0.75876113  1
  Ta  Ta108  1  -0.05502491  0.00227319  0.24966947  1
  Ta  Ta109  1  -0.00387135  0.04307570  0.75481822  1
  Ta  Ta110  1  -0.00442125  0.38372856  0.25037462  1
  Ta  Ta111  1  -0.00318632  0.27683793  0.74723635  1
  Ta  Ta112  1  0.04788583  0.65996438  0.24989328  1
  Ta  Ta113  1  -0.05519815  0.67405228  0.75428130  1
  Ta  Ta114  1  0.33693982  0.03953847  0.24904450  1
  Ta  Ta115  1  0.33025423  -0.04115561  0.75162610  1
  Ta  Ta116  1  0.33945162  0.29073288  0.24759620  1
  Ta  Ta117  1  0.36064917  0.34877595  0.74828836  1
  Ta  Ta118  1  0.26860318  0.65683156  0.25726023  1
  Ta  Ta119  1  0.32492543  0.68575262  0.74636264  1
  Ta  Ta120  1  0.69537438  -0.01560740  0.24998356  1
  Ta  Ta121  1  0.66167904  -0.02986745  0.75358208  1
  Ta  Ta122  1  0.69063192  0.34812551  0.24942689  1
  Ta  Ta123  1  0.62450968  0.33926309  0.74721584  1
  Ta  Ta124  1  0.63966467  0.67490297  0.23933532  1
  Ta  Ta125  1  0.71340857  0.66673546  0.76306523  1
  Ta  Ta126  1  0.01051653  -0.02451140  0.00201766  1
  Ta  Ta127  1  -0.00470443  -0.03491803  0.49863671  1
  Ta  Ta128  1  0.00200992  0.35846933  -0.00745319  1
  Ta  Ta129  1  0.03186037  0.33637929  0.50332817  1
  Ta  Ta130  1  -0.00436350  0.71187017  -0.00815766  1
  Ta  Ta131  1  -0.00863107  0.71401193  0.50965797  1
  Ta  Ta132  1  0.28601427  0.00579825  -0.00213261  1
  Ta  Ta133  1  0.38576879  -0.00088052  0.50924225  1
  Ta  Ta134  1  0.29834600  0.32986041  -0.00624244  1
  Ta  Ta135  1  0.29683252  0.33729928  0.50276774  1
  Ta  Ta136  1  0.36491398  0.65862493  0.00151217  1
  Ta  Ta137  1  0.31668058  0.65217794  0.48885205  1
  Ta  Ta138  1  0.65844484  0.04163159  -0.00328991  1
  Ta  Ta139  1  0.61596176  0.00241917  0.50852787  1
  Ta  Ta140  1  0.67557421  0.29978473  -0.00348325  1
  Ta  Ta141  1  0.67458632  0.37221442  0.49707815  1
  Ta  Ta142  1  0.62808249  0.66160266  0.01312153  1
  Ta  Ta143  1  0.66317968  0.62731653  0.48803417  1
  N  N144  1  0.15954830  0.16354400  0.87645496  1
  N  N145  1  0.16239334  0.83206999  0.37606757  1
  N  N146  1  -0.00508020  0.67406972  0.87362793  1
  N  N147  1  0.32889063  0.33339834  0.62143581  1
  N  N148  1  0.50593982  0.50451988  0.36861355  1
  N  N149  1  0.17477045  0.17218487  0.36935267  1
  N  N150  1  0.66825556  0.66089835  0.87979043  1
  N  N151  1  0.66029139  0.33238027  0.87307784  1
  N  N152  1  0.34261493  -0.00114861  0.62790745  1
  N  N153  1  0.84189256  0.49853440  0.37691587  1
  N  N154  1  0.49369321  0.83261745  0.62867948  1
  N  N155  1  -0.01219585  0.68021685  0.63016448  1
  N  N156  1  -0.01267547  0.00113226  0.12928896  1
  N  N157  1  0.32789371  0.32913316  0.87512248  1
  N  N158  1  0.83099406  0.83414094  0.88006911  1
  N  N159  1  0.66882861  0.33232042  0.37358891  1
  N  N160  1  0.17224403  0.82983775  0.87136752  1
  N  N161  1  0.67016279  0.32793932  0.12525637  1
  N  N162  1  0.66299708  0.34206661  0.62148764  1
  N  N163  1  0.17198535  0.50710162  0.62917775  1
  N  N164  1  0.49590325  0.17970034  0.63058872  1
  N  N165  1  0.66930326  0.66484841  0.36959907  1
  N  N166  1  0.16903753  0.82723325  0.12320274  1
  N  N167  1  0.16685623  0.49345906  0.11805720  1
  N  N168  1  0.82617353  0.16457965  0.87508373  1
  N  N169  1  0.33028685  0.66250922  0.36642675  1
  N  N170  1  0.49526433  0.16645388  0.37625750  1
  N  N171  1  0.16073490  0.16976127  0.61741678  1
  N  N172  1  0.82767943  0.16605535  0.62573651  1
  N  N173  1  0.32407904  -0.00565472  0.88092946  1
  N  N174  1  0.68604405  0.66777879  0.12237013  1
  N  N175  1  0.16561715  0.49697778  0.37570381  1
  N  N176  1  -0.00524692  0.00821051  0.87743791  1
  O  O177  1  0.33498937  0.01456178  0.12090554  1
  O  O178  1  0.51131928  0.48815743  0.62173773  1
  O  O179  1  0.31459219  0.65157643  0.12642522  1
  O  O180  1  0.84506714  0.47021223  0.11582928  1
  O  O181  1  0.01220362  0.35901963  0.38188255  1
  O  O182  1  0.84431183  0.48778845  0.86798097  1
  O  O183  1  -0.00328059  -0.00343803  0.62377289  1
  O  O184  1  0.67304127  0.66066280  0.63470553  1
  O  O185  1  0.82750879  0.51309216  0.62566167  1
  O  O186  1  0.66216727  -0.01750014  0.62879361  1
  O  O187  1  0.32934362  0.67300463  0.62059222  1
  O  O188  1  0.83550094  0.83776021  0.62678004  1
  O  O189  1  0.34022399  0.66947166  0.87127659  1
  O  O190  1  0.83316355  0.84532872  0.12610169  1
  O  O191  1  -0.00980532  -0.01217173  0.37289700  1
  O  O192  1  0.50992882  0.17395352  0.11984030  1
  O  O193  1  0.50047130  0.50361820  0.88175142  1
  O  O194  1  -0.00127704  0.67505820  0.37108924  1
  O  O195  1  0.16824177  0.83102791  0.62591881  1
  O  O196  1  0.83260613  0.85114908  0.38092879  1
  O  O197  1  0.48936108  0.50263364  0.12508598  1
  O  O198  1  0.00865732  0.32698694  0.62822350  1
  O  O199  1  0.65759390  -0.00330909  0.38339552  1
  O  O200  1  0.01630664  0.67840122  0.12445658  1
  O  O201  1  0.18185100  0.50010382  0.86819036  1
  O  O202  1  0.66073152  0.00670016  0.12722206  1
  O  O203  1  0.34926264  0.01235490  0.37375914  1
  O  O204  1  0.81588150  0.14805585  0.12403230  1
  O  O205  1  0.00362744  0.36457008  0.11920927  1
  O  O206  1  0.65800248  -0.01130482  0.87705372  1
  O  O207  1  0.32945001  0.31987531  0.37192356  1
  O  O208  1  0.33481320  0.31467280  0.11951932  1
  O  O209  1  0.52488288  0.84504891  0.37344673  1
  O  O210  1  0.16415683  0.16632940  0.13404194  1
  O  O211  1  0.48766279  0.80367858  0.87978187  1
  O  O212  1  0.00120255  0.32117394  0.87276409  1
  O  O213  1  0.51027630  0.19058727  0.87547312  1
  O  O214  1  0.50893728  0.82064977  0.12475732  1
  O  O215  1  0.82407003  0.15030864  0.37404455  1
