# generated using pymatgen
data_Sr24Ta24N11O13
_symmetry_space_group_name_H-M   'P 1'
_cell_length_a   16.79037384
_cell_length_b   16.77625372
_cell_length_c   15.67388951
_cell_angle_alpha   89.86401655
_cell_angle_beta   89.58995760
_cell_angle_gamma   89.95820116
_symmetry_Int_Tables_number   1
_chemical_formula_structural   Sr24Ta24N11O13
_chemical_formula_sum   'Sr72 Ta72 N33 O39'
_cell_volume   4414.88786956
_cell_formula_units_Z   3
loop_
 _symmetry_equiv_pos_site_id
 _symmetry_equiv_pos_as_xyz
  1  'x, y, z'
loop_
 _atom_site_type_symbol
 _atom_site_label
 _atom_site_symmetry_multiplicity
 _atom_site_fract_x
 _atom_site_fract_y
 _atom_site_fract_z
 _atom_site_occupancy
  Sr  Sr0  1  0.01614789  0.16995865  0.10949100  1
  Sr  Sr1  1  0.00356519  0.16534066  0.65880582  1
  Sr  Sr2  1  -0.01966226  0.49772138  0.16752677  1
  Sr  Sr3  1  -0.00083096  0.48953384  0.61475389  1
  Sr  Sr4  1  0.02101975  0.82149794  0.09440814  1
  Sr  Sr5  1  -0.00128592  0.84046260  0.62562527  1
  Sr  Sr6  1  0.35749891  0.13595327  0.07490899  1
  Sr  Sr7  1  0.33262365  0.17684868  0.63173942  1
  Sr  Sr8  1  0.33578216  0.50429642  0.13612095  1
  Sr  Sr9  1  0.33197137  0.50531630  0.58720064  1
  Sr  Sr10  1  0.34052346  0.83792964  0.15585944  1
  Sr  Sr11  1  0.35176790  0.81592592  0.64035264  1
  Sr  Sr12  1  0.67069863  0.16524541  0.14433736  1
  Sr  Sr13  1  0.68921225  0.15482398  0.61919758  1
  Sr  Sr14  1  0.67515335  0.49770926  0.07586534  1
  Sr  Sr15  1  0.65359915  0.49751059  0.63671867  1
  Sr  Sr16  1  0.68803861  0.81924162  0.13472945  1
  Sr  Sr17  1  0.67365065  0.83257333  0.58716350  1
  Sr  Sr18  1  0.16203797  -0.01672905  0.13710328  1
  Sr  Sr19  1  0.17344038  0.00400172  0.58314261  1
  Sr  Sr20  1  0.14936835  0.35220949  0.13849946  1
  Sr  Sr21  1  0.14509760  0.32543111  0.65112591  1
  Sr  Sr22  1  0.16976192  0.66644055  0.08977985  1
  Sr  Sr23  1  0.15601469  0.67189866  0.63380181  1
  Sr  Sr24  1  0.51750309  0.00695859  0.09564755  1
  Sr  Sr25  1  0.48523312  0.02075062  0.65720885  1
  Sr  Sr26  1  0.48397248  0.34957541  0.12263004  1
  Sr  Sr27  1  0.47988280  0.33958336  0.63039499  1
  Sr  Sr28  1  0.48302889  0.67921982  0.16682352  1
  Sr  Sr29  1  0.50500794  0.66364552  0.61336295  1
  Sr  Sr30  1  0.82112295  -0.00243973  0.16884762  1
  Sr  Sr31  1  0.83680032  -0.01113620  0.61288308  1
  Sr  Sr32  1  0.82119796  0.31827533  0.12478854  1
  Sr  Sr33  1  0.81808187  0.33800920  0.57969937  1
  Sr  Sr34  1  0.83793133  0.67547759  0.11823755  1
  Sr  Sr35  1  0.82933507  0.63426906  0.68267392  1
  Sr  Sr36  1  0.04886356  0.15479912  0.33501520  1
  Sr  Sr37  1  0.00131746  0.17824510  0.88464138  1
  Sr  Sr38  1  -0.01069530  0.49283789  0.38121172  1
  Sr  Sr39  1  0.00514223  0.50179529  0.83051752  1
  Sr  Sr40  1  0.02015803  0.84339124  0.40603869  1
  Sr  Sr41  1  -0.00296096  0.83640873  0.87319027  1
  Sr  Sr42  1  0.33739450  0.15821918  0.41031059  1
  Sr  Sr43  1  0.34796607  0.16509289  0.86022632  1
  Sr  Sr44  1  0.33458453  0.49351167  0.35867304  1
  Sr  Sr45  1  0.31217635  0.50651613  0.92210436  1
  Sr  Sr46  1  0.35099672  0.83425339  0.35808991  1
  Sr  Sr47  1  0.35168278  0.82293748  0.84067877  1
  Sr  Sr48  1  0.67217447  0.16661353  0.36159962  1
  Sr  Sr49  1  0.68276888  0.14620952  0.86352713  1
  Sr  Sr50  1  0.66275593  0.50055319  0.41214996  1
  Sr  Sr51  1  0.65089276  0.51337665  0.85813505  1
  Sr  Sr52  1  0.68764665  0.81302601  0.36405410  1
  Sr  Sr53  1  0.66693914  0.84245464  0.91582328  1
  Sr  Sr54  1  0.18073442  -0.01147881  0.36458906  1
  Sr  Sr55  1  0.15325924  0.00951055  0.92337897  1
  Sr  Sr56  1  0.15449864  0.34063352  0.34834861  1
  Sr  Sr57  1  0.14859321  0.33410808  0.86648985  1
  Sr  Sr58  1  0.13047712  0.65756552  0.42281993  1
  Sr  Sr59  1  0.16748994  0.67418102  0.87029815  1
  Sr  Sr60  1  0.49463616  0.02104785  0.36723098  1
  Sr  Sr61  1  0.49829996  0.00342418  0.87586607  1
  Sr  Sr62  1  0.47652311  0.33110134  0.36457100  1
  Sr  Sr63  1  0.48055321  0.35957445  0.88819036  1
  Sr  Sr64  1  0.50724179  0.67478058  0.38706674  1
  Sr  Sr65  1  0.49132945  0.67360055  0.84129633  1
  Sr  Sr66  1  0.82001543  -0.01607289  0.39292535  1
  Sr  Sr67  1  0.85304804  0.01330753  0.82684528  1
  Sr  Sr68  1  0.81409903  0.33539439  0.37458251  1
  Sr  Sr69  1  0.82208403  0.32012172  0.91391427  1
  Sr  Sr70  1  0.84209001  0.66002586  0.33408557  1
  Sr  Sr71  1  0.81614209  0.68203080  0.89893664  1
  Ta  Ta72  1  0.19046850  0.19228949  0.00905832  1
  Ta  Ta73  1  0.15435855  0.18731617  0.50477287  1
  Ta  Ta74  1  0.11795616  0.49786694  -0.00320267  1
  Ta  Ta75  1  0.17137687  0.47087893  0.49600409  1
  Ta  Ta76  1  0.22388621  0.83384556  -0.00341021  1
  Ta  Ta77  1  0.21562259  0.82462146  0.49812826  1
  Ta  Ta78  1  0.53090554  0.19246357  -0.00670922  1
  Ta  Ta79  1  0.52255537  0.17265029  0.49782118  1
  Ta  Ta80  1  0.49233271  0.54926420  0.00090647  1
  Ta  Ta81  1  0.49637175  0.48654014  0.49928102  1
  Ta  Ta82  1  0.48074801  0.81321224  -0.00255959  1
  Ta  Ta83  1  0.49804884  0.87408095  0.50277206  1
  Ta  Ta84  1  0.83493333  0.12844263  0.00854598  1
  Ta  Ta85  1  0.88266328  0.16541599  0.48976353  1
  Ta  Ta86  1  0.86992218  0.49925713  -0.00706039  1
  Ta  Ta87  1  0.82957438  0.52804585  0.50384363  1
  Ta  Ta88  1  0.84300883  0.87514372  0.00249285  1
  Ta  Ta89  1  0.84366938  0.78952742  0.50359695  1
  Ta  Ta90  1  0.22313520  0.15961147  0.22934573  1
  Ta  Ta91  1  0.17183976  0.12732565  0.75279458  1
  Ta  Ta92  1  0.15959298  0.54737648  0.25468695  1
  Ta  Ta93  1  0.20035437  0.50117027  0.75113843  1
  Ta  Ta94  1  0.16284134  0.78780793  0.25958881  1
  Ta  Ta95  1  0.16992055  0.87348488  0.74995827  1
  Ta  Ta96  1  0.46874922  0.16897014  0.24102446  1
  Ta  Ta97  1  0.53186231  0.20127512  0.75979610  1
  Ta  Ta98  1  0.54073319  0.50515266  0.24344747  1
  Ta  Ta99  1  0.44825031  0.50280354  0.75213082  1
  Ta  Ta100  1  0.52438124  0.86755303  0.24877122  1
  Ta  Ta101  1  0.54756482  0.84379948  0.75272056  1
  Ta  Ta102  1  0.87092888  0.16317653  0.25750573  1
  Ta  Ta103  1  0.83202846  0.22213083  0.74468006  1
  Ta  Ta104  1  0.78793072  0.49010020  0.25047441  1
  Ta  Ta105  1  0.82474253  0.43792749  0.74816017  1
  Ta  Ta106  1  0.88895406  0.83569122  0.25137022  1
  Ta  Ta107  1  0.80772760  0.82836105  0.75087875  1
  Ta  Ta108  1  -0.01147183  -0.01171551  0.25217454  1
  Ta  Ta109  1  0.05029783  -0.00318322  0.74580922  1
  Ta  Ta110  1  -0.02942889  0.31220621  0.25004567  1
  Ta  Ta111  1  -0.04385559  0.33239883  0.74803572  1
  Ta  Ta112  1  0.02544550  0.68189906  0.24710136  1
  Ta  Ta113  1  -0.00574668  0.68252021  0.75110365  1
  Ta  Ta114  1  0.34768195  0.02724600  0.24768748  1
  Ta  Ta115  1  0.28666032  -0.00264478  0.75552511  1
  Ta  Ta116  1  0.32351837  0.28559164  0.23391581  1
  Ta  Ta117  1  0.31957276  0.37539710  0.75445097  1
  Ta  Ta118  1  0.28658963  0.66642588  0.25782512  1
  Ta  Ta119  1  0.32416213  0.62279808  0.74407556  1
  Ta  Ta120  1  0.64513023  -0.01554174  0.25215935  1
  Ta  Ta121  1  0.67127483  -0.04044374  0.74536367  1
  Ta  Ta122  1  0.65401612  0.37828386  0.24723854  1
  Ta  Ta123  1  0.67718265  0.31866551  0.74571574  1
  Ta  Ta124  1  0.66743492  0.62486157  0.24611935  1
  Ta  Ta125  1  0.66483158  0.71622972  0.75428009  1
  Ta  Ta126  1  -0.04892378  0.00463317  0.00209763  1
  Ta  Ta127  1  0.00166721  0.04637451  0.50196662  1
  Ta  Ta128  1  -0.00496126  0.37213955  -0.00075939  1
  Ta  Ta129  1  0.00465639  0.29115205  0.49781266  1
  Ta  Ta130  1  -0.00523154  0.62102453  0.00117774  1
  Ta  Ta131  1  -0.05886622  0.65860946  0.50906359  1
  Ta  Ta132  1  0.33447522  -0.04628633  -0.00894259  1
  Ta  Ta133  1  0.35121437  -0.03004741  0.49978474  1
  Ta  Ta134  1  0.30454386  0.31534822  0.01223821  1
  Ta  Ta135  1  0.28973306  0.33638386  0.49705931  1
  Ta  Ta136  1  0.35433758  0.69274507  0.00802874  1
  Ta  Ta137  1  0.31925430  0.67865638  0.49381610  1
  Ta  Ta138  1  0.72417221  0.00788226  0.00017938  1
  Ta  Ta139  1  0.62443646  0.00353954  0.50592207  1
  Ta  Ta140  1  0.64404421  0.31215615  -0.00287950  1
  Ta  Ta141  1  0.62587157  0.32167263  0.50201528  1
  Ta  Ta142  1  0.61384248  0.67300113  -0.00164098  1
  Ta  Ta143  1  0.73087027  0.66125350  0.50776169  1
  N  N144  1  0.15710208  0.50105835  0.37515230  1
  N  N145  1  0.50801968  0.17162549  0.12169192  1
  N  N146  1  0.50379959  0.15868365  0.86965591  1
  N  N147  1  0.65562572  0.67754978  0.88043302  1
  N  N148  1  0.83666566  0.84161562  0.87600176  1
  N  N149  1  0.84913617  0.82547876  0.37013255  1
  N  N150  1  0.50145328  0.17560448  0.37506088  1
  N  N151  1  0.81997527  0.49537490  0.37043036  1
  N  N152  1  -0.01420567  0.66027802  0.63182655  1
  N  N153  1  0.33815162  -0.00083486  0.37427385  1
  N  N154  1  0.17183079  0.16412966  0.62672401  1
  N  N155  1  0.33528027  -0.00306771  0.87202217  1
  N  N156  1  0.17579920  0.82757891  0.37879907  1
  N  N157  1  0.17319675  0.13736574  0.11818555  1
  N  N158  1  0.32452758  0.35107196  0.12867783  1
  N  N159  1  0.83856201  0.83200291  0.62295412  1
  N  N160  1  0.32870291  0.67358800  0.13000899  1
  N  N161  1  0.66953482  -0.00350420  0.62019388  1
  N  N162  1  -0.01084924  0.33485014  0.88015790  1
  N  N163  1  -0.00924118  0.32776657  0.61411571  1
  N  N164  1  0.84236954  0.15763402  0.13759051  1
  N  N165  1  0.15868081  0.50183793  0.87618912  1
  N  N166  1  0.32886531  0.66077535  0.61541280  1
  N  N167  1  -0.00040822  0.66045436  0.12431504  1
  N  N168  1  0.48211626  0.51456545  0.87462335  1
  N  N169  1  -0.01175233  0.33469648  0.13015102  1
  N  N170  1  0.50617494  0.83947963  0.87782085  1
  N  N171  1  0.82551147  0.48469605  0.63360313  1
  N  N172  1  0.01239479  0.00786172  0.62373684  1
  N  N173  1  0.84971727  0.83293971  0.12743866  1
  N  N174  1  0.49770098  0.51175648  0.12609182  1
  N  N175  1  0.49151820  0.50351483  0.62131129  1
  N  N176  1  0.65783838  0.33569534  0.61910445  1
  O  O177  1  0.68504553  0.67571834  0.63047088  1
  O  O178  1  0.50597907  0.17466462  0.63718138  1
  O  O179  1  0.83056753  0.47940039  0.87564888  1
  O  O180  1  0.67301945  -0.00134078  0.12605061  1
  O  O181  1  0.50227288  0.85486832  0.63036964  1
  O  O182  1  0.83704481  0.17335593  0.86619284  1
  O  O183  1  0.49418319  0.51256162  0.36959902  1
  O  O184  1  -0.00501321  0.00026096  0.12518456  1
  O  O185  1  0.50624510  0.84833826  0.12535202  1
  O  O186  1  0.16184075  0.49199434  0.62509372  1
  O  O187  1  0.30981914  0.34449103  0.62573509  1
  O  O188  1  -0.01254103  0.65180818  0.37228531  1
  O  O189  1  -0.00115687  0.67168919  0.88233450  1
  O  O190  1  0.82428739  0.14992078  0.38155473  1
  O  O191  1  0.14772223  0.51148478  0.13087988  1
  O  O192  1  0.18048117  0.83379204  0.87351706  1
  O  O193  1  0.66018280  0.00307441  0.37884121  1
  O  O194  1  0.18877986  0.83466148  0.62899635  1
  O  O195  1  0.18194724  0.82282727  0.12077081  1
  O  O196  1  0.32025268  0.35368874  0.88240731  1
  O  O197  1  0.18914369  0.15541124  0.37933953  1
  O  O198  1  0.69651507  -0.00383275  0.86924747  1
  O  O199  1  0.65433650  0.33041758  0.12705706  1
  O  O200  1  0.31014315  0.31883628  0.37048854  1
  O  O201  1  0.84330021  0.18192151  0.61978615  1
  O  O202  1  0.66215362  0.65335238  0.12089522  1
  O  O203  1  0.51023688  0.84915433  0.37737767  1
  O  O204  1  0.00792308  0.00148163  0.37775615  1
  O  O205  1  0.34612013  -0.01099824  0.12221857  1
  O  O206  1  0.17239975  0.16063811  0.88093550  1
  O  O207  1  -0.00071735  0.00064816  0.87855546  1
  O  O208  1  0.00016063  0.34173095  0.37366850  1
  O  O209  1  0.32829760  0.66677107  0.86621519  1
  O  O210  1  0.66444095  0.33561221  0.87760494  1
  O  O211  1  0.65147156  0.34273376  0.37245488  1
  O  O212  1  0.35173152  0.65797384  0.36388591  1
  O  O213  1  0.82764687  0.49483555  0.11728783  1
  O  O214  1  0.32937656  -0.00181457  0.62555377  1
  O  O215  1  0.68698155  0.65150150  0.37259441  1
