# generated using pymatgen
data_Sr24Ta24N11O13
_symmetry_space_group_name_H-M   'P 1'
_cell_length_a   16.94624833
_cell_length_b   16.74476263
_cell_length_c   15.68839259
_cell_angle_alpha   90.15287622
_cell_angle_beta   89.82321787
_cell_angle_gamma   89.85178963
_symmetry_Int_Tables_number   1
_chemical_formula_structural   Sr24Ta24N11O13
_chemical_formula_sum   'Sr72 Ta72 N33 O39'
_cell_volume   4451.70046391
_cell_formula_units_Z   3
loop_
 _symmetry_equiv_pos_site_id
 _symmetry_equiv_pos_as_xyz
  1  'x, y, z'
loop_
 _atom_site_type_symbol
 _atom_site_label
 _atom_site_symmetry_multiplicity
 _atom_site_fract_x
 _atom_site_fract_y
 _atom_site_fract_z
 _atom_site_occupancy
  Sr  Sr0  1  0.03081909  0.17473421  0.10245316  1
  Sr  Sr1  1  0.00261338  0.18826327  0.64798291  1
  Sr  Sr2  1  0.00019062  0.50090408  0.12129675  1
  Sr  Sr3  1  0.00996542  0.51285924  0.60711545  1
  Sr  Sr4  1  0.01078082  0.84865506  0.15335978  1
  Sr  Sr5  1  0.00063370  0.83371557  0.61237415  1
  Sr  Sr6  1  0.34412563  0.18104972  0.14701839  1
  Sr  Sr7  1  0.35416535  0.16796389  0.63336611  1
  Sr  Sr8  1  0.36484470  0.50252864  0.07603641  1
  Sr  Sr9  1  0.33021666  0.50217719  0.63464492  1
  Sr  Sr10  1  0.34093749  0.82529828  0.12972899  1
  Sr  Sr11  1  0.36073787  0.83697419  0.60639357  1
  Sr  Sr12  1  0.69239272  0.15994324  0.12740897  1
  Sr  Sr13  1  0.67565298  0.15407173  0.58569662  1
  Sr  Sr14  1  0.66176126  0.48962469  0.16340093  1
  Sr  Sr15  1  0.67399821  0.49732842  0.61906087  1
  Sr  Sr16  1  0.67776040  0.81543169  0.10771360  1
  Sr  Sr17  1  0.66659965  0.84632001  0.66596955  1
  Sr  Sr18  1  0.15787218  -0.00564337  0.09029181  1
  Sr  Sr19  1  0.12979993  0.00086606  0.63780267  1
  Sr  Sr20  1  0.15747732  0.33357036  0.14120627  1
  Sr  Sr21  1  0.15686175  0.33327656  0.59342491  1
  Sr  Sr22  1  0.14931911  0.65289116  0.13306694  1
  Sr  Sr23  1  0.17172507  0.66069116  0.65981712  1
  Sr  Sr24  1  0.45657951  0.00583241  0.16132794  1
  Sr  Sr25  1  0.49987581  0.00268769  0.61836961  1
  Sr  Sr26  1  0.49353236  0.32496440  0.10689042  1
  Sr  Sr27  1  0.48257984  0.35129674  0.67936198  1
  Sr  Sr28  1  0.51528171  0.66882388  0.13575470  1
  Sr  Sr29  1  0.48389674  0.65354866  0.57887610  1
  Sr  Sr30  1  0.82007764  -0.01150711  0.14201699  1
  Sr  Sr31  1  0.81128320  -0.00061197  0.60526883  1
  Sr  Sr32  1  0.81004406  0.33755672  0.14578934  1
  Sr  Sr33  1  0.81388249  0.32633044  0.63300139  1
  Sr  Sr34  1  0.84351744  0.65338817  0.08424195  1
  Sr  Sr35  1  0.82221956  0.66619295  0.63153295  1
  Sr  Sr36  1  0.03313084  0.19191492  0.38872746  1
  Sr  Sr37  1  0.00023429  0.16917203  0.86328301  1
  Sr  Sr38  1  0.02434951  0.50046323  0.36080410  1
  Sr  Sr39  1  -0.00090101  0.51443455  0.90428555  1
  Sr  Sr40  1  -0.01110733  0.83864177  0.38309996  1
  Sr  Sr41  1  0.02586781  0.84763395  0.84998919  1
  Sr  Sr42  1  0.34523000  0.16849389  0.36599509  1
  Sr  Sr43  1  0.36029949  0.16680112  0.85625906  1
  Sr  Sr44  1  0.34590427  0.50326380  0.40945465  1
  Sr  Sr45  1  0.34163329  0.50207247  0.86116550  1
  Sr  Sr46  1  0.35278561  0.82866090  0.37190878  1
  Sr  Sr47  1  0.34280932  0.83938035  0.88866857  1
  Sr  Sr48  1  0.68438148  0.14958495  0.37770929  1
  Sr  Sr49  1  0.67084993  0.17029604  0.91760973  1
  Sr  Sr50  1  0.66246872  0.50352096  0.38395005  1
  Sr  Sr51  1  0.67729036  0.48438022  0.83155029  1
  Sr  Sr52  1  0.67878999  0.83018564  0.33494176  1
  Sr  Sr53  1  0.66541637  0.82614732  0.88380387  1
  Sr  Sr54  1  0.14358349  -0.01948900  0.40543441  1
  Sr  Sr55  1  0.14865065  0.00957415  0.87748798  1
  Sr  Sr56  1  0.18514846  0.32977494  0.37358113  1
  Sr  Sr57  1  0.12746885  0.32754620  0.89854924  1
  Sr  Sr58  1  0.16522294  0.67449744  0.33446260  1
  Sr  Sr59  1  0.15743278  0.65069285  0.86099399  1
  Sr  Sr60  1  0.48228262  0.00711618  0.39239691  1
  Sr  Sr61  1  0.48458494  -0.01282090  0.83736192  1
  Sr  Sr62  1  0.48599146  0.33031187  0.34761799  1
  Sr  Sr63  1  0.49225256  0.32963066  0.88692648  1
  Sr  Sr64  1  0.50487394  0.66621580  0.36469318  1
  Sr  Sr65  1  0.48435967  0.67576925  0.92460463  1
  Sr  Sr66  1  0.82726674  -0.00626584  0.36356697  1
  Sr  Sr67  1  0.79745059  -0.00422067  0.90278535  1
  Sr  Sr68  1  0.80160460  0.32790624  0.37392024  1
  Sr  Sr69  1  0.82110830  0.32852261  0.85072104  1
  Sr  Sr70  1  0.85756214  0.65704431  0.41889390  1
  Sr  Sr71  1  0.81739868  0.66790113  0.86853244  1
  Ta  Ta72  1  0.21435704  0.17522487  0.00058927  1
  Ta  Ta73  1  0.19326545  0.14520944  0.49900372  1
  Ta  Ta74  1  0.19097188  0.49395550  -0.00436500  1
  Ta  Ta75  1  0.17415241  0.53744095  0.49616616  1
  Ta  Ta76  1  0.16871091  0.80530064  -0.00068525  1
  Ta  Ta77  1  0.18098174  0.79793130  0.50049920  1
  Ta  Ta78  1  0.49569115  0.12270605  0.00062446  1
  Ta  Ta79  1  0.50258545  0.20891521  0.50135560  1
  Ta  Ta80  1  0.54679979  0.49810552  -0.00590493  1
  Ta  Ta81  1  0.50127199  0.45123711  0.50822688  1
  Ta  Ta82  1  0.50187504  0.87487282  0.00933491  1
  Ta  Ta83  1  0.54941531  0.82752118  0.49198382  1
  Ta  Ta84  1  0.85833800  0.17410239  0.00367859  1
  Ta  Ta85  1  0.86812271  0.16991812  0.49745898  1
  Ta  Ta86  1  0.80693670  0.47857594  -0.00391603  1
  Ta  Ta87  1  0.84953137  0.47709008  0.50529791  1
  Ta  Ta88  1  0.88029634  0.83844765  0.00202559  1
  Ta  Ta89  1  0.79151825  0.83098328  0.49482842  1
  Ta  Ta90  1  0.16982604  0.12480990  0.25586730  1
  Ta  Ta91  1  0.19058844  0.17586903  0.74960919  1
  Ta  Ta92  1  0.23102500  0.49913670  0.24398568  1
  Ta  Ta93  1  0.15479449  0.46676729  0.75192400  1
  Ta  Ta94  1  0.17915318  0.86181072  0.25134991  1
  Ta  Ta95  1  0.20574679  0.84074466  0.74559985  1
  Ta  Ta96  1  0.53376939  0.16275214  0.25410959  1
  Ta  Ta97  1  0.54433203  0.16217157  0.75357800  1
  Ta  Ta98  1  0.46821826  0.49467993  0.24260617  1
  Ta  Ta99  1  0.50264278  0.55558507  0.75799781  1
  Ta  Ta100  1  0.51916599  0.85238675  0.24570858  1
  Ta  Ta101  1  0.49764744  0.77654780  0.75207103  1
  Ta  Ta102  1  0.88536728  0.17003855  0.25821937  1
  Ta  Ta103  1  0.80671679  0.14696685  0.74607129  1
  Ta  Ta104  1  0.84172620  0.52485906  0.24914937  1
  Ta  Ta105  1  0.86899613  0.50561351  0.75008441  1
  Ta  Ta106  1  0.84136381  0.78391106  0.25129194  1
  Ta  Ta107  1  0.85400327  0.84637603  0.74959152  1
  Ta  Ta108  1  0.01486454  0.03547881  0.25033337  1
  Ta  Ta109  1  -0.06330111  0.00201157  0.75443717  1
  Ta  Ta110  1  -0.02676056  0.32631969  0.24878000  1
  Ta  Ta111  1  -0.00204982  0.37392427  0.74958860  1
  Ta  Ta112  1  -0.03351023  0.66745227  0.24925786  1
  Ta  Ta113  1  -0.01817115  0.66704222  0.74234297  1
  Ta  Ta114  1  0.28209477  -0.00575091  0.25335205  1
  Ta  Ta115  1  0.29931602  -0.00486216  0.74820919  1
  Ta  Ta116  1  0.33550055  0.37541016  0.24088952  1
  Ta  Ta117  1  0.28221455  0.33142403  0.75667638  1
  Ta  Ta118  1  0.34093798  0.63183366  0.24875328  1
  Ta  Ta119  1  0.35757400  0.68228260  0.74848812  1
  Ta  Ta120  1  0.62874718  -0.00200478  0.24514863  1
  Ta  Ta121  1  0.66375100  0.03852996  0.75820748  1
  Ta  Ta122  1  0.63845448  0.30750614  0.24742140  1
  Ta  Ta123  1  0.65541828  0.27861227  0.74648055  1
  Ta  Ta124  1  0.72073604  0.66068856  0.24994938  1
  Ta  Ta125  1  0.62494138  0.66484267  0.75554445  1
  Ta  Ta126  1  -0.03339284  -0.00081671  -0.00335698  1
  Ta  Ta127  1  -0.02317910  0.04090005  0.50362985  1
  Ta  Ta128  1  -0.05434086  0.33080642  -0.00482299  1
  Ta  Ta129  1  -0.03777701  0.34384272  0.50467250  1
  Ta  Ta130  1  0.01191655  0.71160464  0.00108722  1
  Ta  Ta131  1  0.04885088  0.67115378  0.49453677  1
  Ta  Ta132  1  0.34046890  0.01879846  0.00149973  1
  Ta  Ta133  1  0.30318971  0.00958445  0.49980275  1
  Ta  Ta134  1  0.30094909  0.32821114  -0.01545616  1
  Ta  Ta135  1  0.36358695  0.32963708  0.51233701  1
  Ta  Ta136  1  0.29219689  0.66928887  -0.00445528  1
  Ta  Ta137  1  0.29357337  0.67172835  0.49821180  1
  Ta  Ta138  1  0.61354400  -0.00438434  0.00518103  1
  Ta  Ta139  1  0.65814197  -0.04366057  0.48848433  1
  Ta  Ta140  1  0.66879760  0.36372063  -0.00001208  1
  Ta  Ta141  1  0.61993151  0.33222656  0.50814807  1
  Ta  Ta142  1  0.66644326  0.61285599  -0.00530835  1
  Ta  Ta143  1  0.67218410  0.70406726  0.50057425  1
  N  N144  1  0.16137630  0.49469557  0.87669953  1
  N  N145  1  0.83605630  0.16669864  0.36989314  1
  N  N146  1  0.50027480  0.82324908  0.12016469  1
  N  N147  1  0.18317148  0.16745224  0.37239324  1
  N  N148  1  0.32489227  -0.00243826  0.37854428  1
  N  N149  1  -0.02325085  0.33984064  0.87571356  1
  N  N150  1  0.31825489  0.00019224  0.86937545  1
  N  N151  1  0.51005104  0.15752471  0.88241182  1
  N  N152  1  0.32747843  0.33666639  0.63071015  1
  N  N153  1  0.50881569  0.49642814  0.12633216  1
  N  N154  1  0.31120633  -0.00168086  0.12152561  1
  N  N155  1  0.65512551  0.32623649  0.63185315  1
  N  N156  1  0.66220161  0.65795316  0.87806854  1
  N  N157  1  0.83241656  0.50198217  0.87338663  1
  N  N158  1  0.33098687  0.66730137  0.62072994  1
  N  N159  1  0.33623056  0.66257032  0.36969492  1
  N  N160  1  0.83343824  0.49896743  0.12881578  1
  N  N161  1  -0.01016391  0.33986096  0.62694970  1
  N  N162  1  0.82852592  0.16561014  0.62511304  1
  N  N163  1  -0.02078146  0.01092887  0.87315354  1
  N  N164  1  0.51016004  0.82621492  0.37295191  1
  N  N165  1  0.83437941  0.82318587  0.37787052  1
  N  N166  1  -0.00075589  0.67520725  0.12206070  1
  N  N167  1  0.50980125  0.16870008  0.37890642  1
  N  N168  1  0.64764532  0.00004080  0.87635060  1
  N  N169  1  0.32400004  0.66703404  0.87591374  1
  N  N170  1  0.82963693  0.50393877  0.62525679  1
  N  N171  1  0.00475219  0.67407948  0.62276798  1
  N  N172  1  0.50210196  0.50679923  0.87165272  1
  N  N173  1  0.01054636  0.67226917  0.37517581  1
  N  N174  1  0.66162995  -0.00528309  0.36577590  1
  N  N175  1  0.65518331  0.32695010  0.12235185  1
  N  N176  1  0.34054982  0.33651018  0.86341851  1
  O  O177  1  0.82314102  0.49966813  0.38190464  1
  O  O178  1  0.82660703  0.83796656  0.62642338  1
  O  O179  1  0.33638891  0.34800946  0.38081622  1
  O  O180  1  0.50736436  0.15769411  0.61842861  1
  O  O181  1  0.64661883  0.33754777  0.37232102  1
  O  O182  1  -0.02005787  0.34395133  0.37134065  1
  O  O183  1  0.67274802  0.00226519  0.11786455  1
  O  O184  1  0.18788426  0.51589311  0.36978798  1
  O  O185  1  0.18830548  0.16416994  0.87896978  1
  O  O186  1  0.84913339  0.16356512  0.13075554  1
  O  O187  1  0.16828991  0.50527603  0.62117224  1
  O  O188  1  0.49533406  0.16252114  0.12629958  1
  O  O189  1  -0.01986843  0.34060968  0.12213878  1
  O  O190  1  0.18596122  0.82597747  0.86952276  1
  O  O191  1  0.49990255  0.82650175  0.87665252  1
  O  O192  1  0.51269482  0.80874312  0.62637975  1
  O  O193  1  0.49673159  0.48576938  0.38118822  1
  O  O194  1  0.00140516  0.01745686  0.12558564  1
  O  O195  1  0.17601013  0.82972843  0.37227094  1
  O  O196  1  0.00160578  0.68225758  0.87529216  1
  O  O197  1  0.33373788  0.34676559  0.11035508  1
  O  O198  1  0.69100925  0.65161221  0.12474708  1
  O  O199  1  -0.00166168  0.02384602  0.38099598  1
  O  O200  1  0.69199801  0.66835672  0.37504398  1
  O  O201  1  0.19105987  0.16950725  0.12874959  1
  O  O202  1  0.16811389  0.83514885  0.12320694  1
  O  O203  1  0.17330916  0.16877545  0.62613522  1
  O  O204  1  0.18384769  0.83077179  0.62487029  1
  O  O205  1  0.85851711  0.83332072  0.87919553  1
  O  O206  1  -0.02420495  0.02242499  0.63319036  1
  O  O207  1  0.66389900  0.68759369  0.62663866  1
  O  O208  1  0.65628099  -0.00357068  0.61877254  1
  O  O209  1  0.33180155  0.66394846  0.11810360  1
  O  O210  1  0.49781815  0.50395853  0.62771965  1
  O  O211  1  0.66369680  0.32143640  0.87644748  1
  O  O212  1  0.85420870  0.83125475  0.12904931  1
  O  O213  1  0.34794028  -0.00309210  0.62119946  1
  O  O214  1  0.17959180  0.49501329  0.13013883  1
  O  O215  1  0.83345327  0.16604593  0.87991253  1
