# generated using pymatgen
data_Sr24Ta24N11O13
_symmetry_space_group_name_H-M   'P 1'
_cell_length_a   16.86262500
_cell_length_b   16.70524256
_cell_length_c   15.76671201
_cell_angle_alpha   89.77445562
_cell_angle_beta   89.98773161
_cell_angle_gamma   90.01667555
_symmetry_Int_Tables_number   1
_chemical_formula_structural   Sr24Ta24N11O13
_chemical_formula_sum   'Sr72 Ta72 N33 O39'
_cell_volume   4441.35726513
_cell_formula_units_Z   3
loop_
 _symmetry_equiv_pos_site_id
 _symmetry_equiv_pos_as_xyz
  1  'x, y, z'
loop_
 _atom_site_type_symbol
 _atom_site_label
 _atom_site_symmetry_multiplicity
 _atom_site_fract_x
 _atom_site_fract_y
 _atom_site_fract_z
 _atom_site_occupancy
  Sr  Sr0  1  0.01620805  0.16359136  0.15070956  1
  Sr  Sr1  1  0.00354569  0.17806441  0.62058163  1
  Sr  Sr2  1  0.00835703  0.50343792  0.10976537  1
  Sr  Sr3  1  0.02286710  0.50122810  0.59164418  1
  Sr  Sr4  1  0.02566890  0.83443407  0.15877413  1
  Sr  Sr5  1  -0.00134664  0.82884243  0.61807964  1
  Sr  Sr6  1  0.34323289  0.15115342  0.13920472  1
  Sr  Sr7  1  0.34708861  0.17771129  0.58173913  1
  Sr  Sr8  1  0.35102918  0.50501457  0.12469443  1
  Sr  Sr9  1  0.32923541  0.49198040  0.67127254  1
  Sr  Sr10  1  0.33689910  0.83177281  0.08738010  1
  Sr  Sr11  1  0.34382446  0.83715267  0.62842742  1
  Sr  Sr12  1  0.68349121  0.18021434  0.10604844  1
  Sr  Sr13  1  0.66912345  0.15822857  0.64823624  1
  Sr  Sr14  1  0.70222201  0.49763412  0.17466540  1
  Sr  Sr15  1  0.66783003  0.50397061  0.60699648  1
  Sr  Sr16  1  0.67186733  0.82144246  0.12014504  1
  Sr  Sr17  1  0.67984346  0.83739143  0.63931324  1
  Sr  Sr18  1  0.18698174  -0.00399608  0.10964497  1
  Sr  Sr19  1  0.14962724  -0.00451886  0.66887669  1
  Sr  Sr20  1  0.14848799  0.34135438  0.10333995  1
  Sr  Sr21  1  0.16626100  0.33108503  0.63161504  1
  Sr  Sr22  1  0.15497754  0.65509692  0.15221331  1
  Sr  Sr23  1  0.14929590  0.67836498  0.59611205  1
  Sr  Sr24  1  0.51990849  -0.00249216  0.17415449  1
  Sr  Sr25  1  0.49510351  0.00239666  0.62078926  1
  Sr  Sr26  1  0.47837301  0.32594403  0.11760203  1
  Sr  Sr27  1  0.49079050  0.33234946  0.60774803  1
  Sr  Sr28  1  0.48988384  0.67851458  0.09931340  1
  Sr  Sr29  1  0.47747411  0.65878326  0.62709689  1
  Sr  Sr30  1  0.81903061  -0.00283319  0.09262658  1
  Sr  Sr31  1  0.83390999  0.00238687  0.59593232  1
  Sr  Sr32  1  0.83794261  0.32638615  0.12625564  1
  Sr  Sr33  1  0.80840304  0.33724492  0.65187163  1
  Sr  Sr34  1  0.82516981  0.67365898  0.12155934  1
  Sr  Sr35  1  0.81324583  0.66666316  0.64794296  1
  Sr  Sr36  1  -0.00309862  0.17327532  0.37903060  1
  Sr  Sr37  1  0.02567770  0.16797837  0.83835075  1
  Sr  Sr38  1  0.02715663  0.50155772  0.38964904  1
  Sr  Sr39  1  0.00362971  0.50158235  0.90574596  1
  Sr  Sr40  1  0.00949348  0.83050509  0.37756798  1
  Sr  Sr41  1  0.01665486  0.83655888  0.84988932  1
  Sr  Sr42  1  0.33979632  0.15938867  0.36708011  1
  Sr  Sr43  1  0.33622195  0.16593925  0.91177265  1
  Sr  Sr44  1  0.33439501  0.51705150  0.33466535  1
  Sr  Sr45  1  0.34548451  0.49610192  0.87486844  1
  Sr  Sr46  1  0.34442753  0.82411487  0.41726073  1
  Sr  Sr47  1  0.34462159  0.84671895  0.86742037  1
  Sr  Sr48  1  0.68596069  0.15841748  0.35985842  1
  Sr  Sr49  1  0.66466883  0.16804743  0.87569022  1
  Sr  Sr50  1  0.66437763  0.49763268  0.39556696  1
  Sr  Sr51  1  0.70695737  0.49982989  0.82773629  1
  Sr  Sr52  1  0.66188081  0.83679140  0.34506306  1
  Sr  Sr53  1  0.67865120  0.82361053  0.88968332  1
  Sr  Sr54  1  0.15364203  0.01303576  0.32753512  1
  Sr  Sr55  1  0.18025031  -0.00414064  0.88612108  1
  Sr  Sr56  1  0.14492874  0.32541291  0.41965439  1
  Sr  Sr57  1  0.16035432  0.34279627  0.85785997  1
  Sr  Sr58  1  0.16030971  0.67106385  0.37613293  1
  Sr  Sr59  1  0.14478769  0.66208735  0.87741135  1
  Sr  Sr60  1  0.48272999  -0.00195987  0.38552693  1
  Sr  Sr61  1  0.51326224  -0.00231407  0.83240216  1
  Sr  Sr62  1  0.47695314  0.33186729  0.37757753  1
  Sr  Sr63  1  0.49152811  0.32038769  0.90133268  1
  Sr  Sr64  1  0.48750145  0.66641535  0.39431797  1
  Sr  Sr65  1  0.47663700  0.66684969  0.88352767  1
  Sr  Sr66  1  0.84356912  -0.00087628  0.40345348  1
  Sr  Sr67  1  0.81934273  -0.00209972  0.89978764  1
  Sr  Sr68  1  0.81655232  0.33322576  0.34529091  1
  Sr  Sr69  1  0.82540082  0.32135510  0.87593835  1
  Sr  Sr70  1  0.79702004  0.66831728  0.34705608  1
  Sr  Sr71  1  0.83503841  0.67293803  0.87533846  1
  Ta  Ta72  1  0.15293564  0.18234503  -0.00601324  1
  Ta  Ta73  1  0.16696439  0.12887177  0.50253816  1
  Ta  Ta74  1  0.19322561  0.50565734  -0.00467796  1
  Ta  Ta75  1  0.21285217  0.50253125  0.50238007  1
  Ta  Ta76  1  0.15732002  0.80743405  0.00223749  1
  Ta  Ta77  1  0.16867768  0.87650689  0.49873432  1
  Ta  Ta78  1  0.50932149  0.12339691  0.00504814  1
  Ta  Ta79  1  0.54364844  0.16435824  0.48977601  1
  Ta  Ta80  1  0.52942555  0.49815178  -0.00072588  1
  Ta  Ta81  1  0.45146092  0.49819328  0.50535883  1
  Ta  Ta82  1  0.51044105  0.87447684  0.00236797  1
  Ta  Ta83  1  0.53993074  0.83545480  0.49891151  1
  Ta  Ta84  1  0.89170036  0.16249516  -0.00188313  1
  Ta  Ta85  1  0.82238095  0.19762069  0.50581230  1
  Ta  Ta86  1  0.81466283  0.49924359  0.00639377  1
  Ta  Ta87  1  0.84940079  0.50312338  0.49741993  1
  Ta  Ta88  1  0.89006661  0.83290448  0.00450586  1
  Ta  Ta89  1  0.82179718  0.80536760  0.49944121  1
  Ta  Ta90  1  0.17364301  0.21393685  0.25806200  1
  Ta  Ta91  1  0.21589114  0.16673251  0.74484679  1
  Ta  Ta92  1  0.16450766  0.45877776  0.25655994  1
  Ta  Ta93  1  0.14019755  0.51976965  0.74642894  1
  Ta  Ta94  1  0.21347536  0.83179000  0.25342726  1
  Ta  Ta95  1  0.18380089  0.81104642  0.74875918  1
  Ta  Ta96  1  0.52968678  0.18300722  0.25116058  1
  Ta  Ta97  1  0.47818595  0.18002554  0.75377089  1
  Ta  Ta98  1  0.52122066  0.50036370  0.25385883  1
  Ta  Ta99  1  0.52247067  0.48652638  0.74613780  1
  Ta  Ta100  1  0.47388321  0.81587806  0.24911607  1
  Ta  Ta101  1  0.52239735  0.81180860  0.75524394  1
  Ta  Ta102  1  0.84269131  0.12775124  0.24040798  1
  Ta  Ta103  1  0.84297515  0.12863403  0.74871187  1
  Ta  Ta104  1  0.87941096  0.50377969  0.25551605  1
  Ta  Ta105  1  0.88678385  0.50370963  0.74045062  1
  Ta  Ta106  1  0.84323879  0.86825395  0.24448200  1
  Ta  Ta107  1  0.84261252  0.86741945  0.74709637  1
  Ta  Ta108  1  -0.04569876  -0.00020004  0.24607351  1
  Ta  Ta109  1  -0.04409443  0.00080024  0.74770081  1
  Ta  Ta110  1  0.01071963  0.35056540  0.25301619  1
  Ta  Ta111  1  -0.00980531  0.37018659  0.74552564  1
  Ta  Ta112  1  -0.02525543  0.64969903  0.26039468  1
  Ta  Ta113  1  -0.00349906  0.63890446  0.74296173  1
  Ta  Ta114  1  0.33811272  -0.04838948  0.24843900  1
  Ta  Ta115  1  0.33600796  0.04093563  0.74661773  1
  Ta  Ta116  1  0.29232792  0.33421765  0.25614991  1
  Ta  Ta117  1  0.34271936  0.29717126  0.74691173  1
  Ta  Ta118  1  0.33607664  0.70957228  0.25000083  1
  Ta  Ta119  1  0.29297835  0.67445677  0.74708557  1
  Ta  Ta120  1  0.71297998  0.00310449  0.24688935  1
  Ta  Ta121  1  0.70214083  -0.00766332  0.75272237  1
  Ta  Ta122  1  0.63107944  0.33228895  0.24817795  1
  Ta  Ta123  1  0.62354459  0.33792398  0.75254429  1
  Ta  Ta124  1  0.61501190  0.65385789  0.25122333  1
  Ta  Ta125  1  0.63030871  0.66530477  0.75175635  1
  Ta  Ta126  1  -0.00159978  0.00618685  -0.00237753  1
  Ta  Ta127  1  0.04065385  0.00275451  0.49855896  1
  Ta  Ta128  1  -0.00445593  0.30366144  -0.00020746  1
  Ta  Ta129  1  -0.05708075  0.34066347  0.49521162  1
  Ta  Ta130  1  -0.00162116  0.69499933  0.01158056  1
  Ta  Ta131  1  -0.05607016  0.66249484  0.48700778  1
  Ta  Ta132  1  0.39503886  -0.00097374  0.00617192  1
  Ta  Ta133  1  0.28054086  0.00275894  0.49841761  1
  Ta  Ta134  1  0.30353450  0.34206477  0.00026699  1
  Ta  Ta135  1  0.32608088  0.37783155  0.50417950  1
  Ta  Ta136  1  0.29327416  0.65829280  0.00085315  1
  Ta  Ta137  1  0.32350644  0.62537292  0.50622041  1
  Ta  Ta138  1  0.62604066  -0.00170696  -0.00278357  1
  Ta  Ta139  1  0.65337644  -0.00309866  0.50239329  1
  Ta  Ta140  1  0.66217547  0.39996886  0.00070772  1
  Ta  Ta141  1  0.66468313  0.30092727  0.49865710  1
  Ta  Ta142  1  0.66128276  0.59929041  0.00157948  1
  Ta  Ta143  1  0.66137558  0.69704964  0.49704296  1
  N  N144  1  0.16590699  0.17177283  0.37487701  1
  N  N145  1  0.50993345  0.16114464  0.12914228  1
  N  N146  1  0.17462551  0.16663974  0.62642319  1
  N  N147  1  0.83252186  0.16815739  0.62626036  1
  N  N148  1  0.17287178  0.83719644  0.87594571  1
  N  N149  1  0.66838540  -0.00070835  0.62293553  1
  N  N150  1  0.17614554  0.16986286  0.87538025  1
  N  N151  1  0.66464914  -0.00056836  0.87149138  1
  N  N152  1  0.49776046  0.15934348  0.37675948  1
  N  N153  1  0.17267489  0.50046457  0.62976828  1
  N  N154  1  0.31908015  0.66287828  0.62748571  1
  N  N155  1  0.16959828  0.50121051  0.87557108  1
  N  N156  1  -0.00505920  0.32911097  0.12064784  1
  N  N157  1  0.17204979  0.83830748  0.37248239  1
  N  N158  1  -0.00256478  0.67223672  0.13386238  1
  N  N159  1  0.64558049  0.66648823  0.37390431  1
  N  N160  1  0.50820318  0.83503223  0.13072548  1
  N  N161  1  -0.01715411  0.33307773  0.37737487  1
  N  N162  1  0.50978843  0.83318893  0.87419094  1
  N  N163  1  0.35257500  -0.01009848  0.13127594  1
  N  N164  1  0.85028249  0.49892128  0.12513949  1
  N  N165  1  0.84758029  0.15856347  0.11763399  1
  N  N166  1  0.50415479  0.83446522  0.38116253  1
  N  N167  1  0.49508118  0.49807558  0.62457930  1
  N  N168  1  0.17749122  0.83318673  0.12363345  1
  N  N169  1  0.50065379  0.16288040  0.87276006  1
  N  N170  1  0.17837859  0.49600791  0.37214334  1
  N  N171  1  0.83733329  0.83653031  0.62195529  1
  N  N172  1  0.32942794  0.33403092  0.62945623  1
  N  N173  1  0.83782876  0.50488248  0.62063323  1
  N  N174  1  0.16887472  0.83946235  0.62450349  1
  N  N175  1  0.00489035  0.67175198  0.38486304  1
  N  N176  1  0.84578805  0.83860606  0.12232612  1
  O  O177  1  0.83648215  0.15768323  0.38166940  1
  O  O178  1  0.16687714  0.18294475  0.13113545  1
  O  O179  1  -0.01639876  0.34512872  0.61803067  1
  O  O180  1  0.31544228  0.65833484  0.87741827  1
  O  O181  1  0.64942247  0.35428971  0.87791317  1
  O  O182  1  0.64884554  0.66256693  0.62307026  1
  O  O183  1  0.32553114  -0.00396753  0.37791941  1
  O  O184  1  0.50517228  0.84100553  0.62565976  1
  O  O185  1  -0.00177505  0.00170954  0.37597469  1
  O  O186  1  0.64738660  0.35380725  0.12367973  1
  O  O187  1  0.85622286  0.83927170  0.87932999  1
  O  O188  1  0.81662124  0.49619966  0.36308506  1
  O  O189  1  0.31830266  0.33630598  0.37963060  1
  O  O190  1  0.65849449  0.32706452  0.37576936  1
  O  O191  1  -0.00807345  0.66025639  0.87167271  1
  O  O192  1  0.64850254  0.31849866  0.62863669  1
  O  O193  1  -0.00245435  0.00001340  0.61977143  1
  O  O194  1  0.32605194  0.33273272  0.87589914  1
  O  O195  1  0.50277536  0.50028291  0.87541424  1
  O  O196  1  0.33106897  0.66833210  0.37360189  1
  O  O197  1  0.31174978  0.33978723  0.12453575  1
  O  O198  1  0.85106138  0.16230691  0.87472406  1
  O  O199  1  0.35376141  0.01421021  0.87065848  1
  O  O200  1  0.83173074  0.84055470  0.37764487  1
  O  O201  1  0.65009392  0.64310711  0.12327880  1
  O  O202  1  -0.00201452  0.00123816  0.12289380  1
  O  O203  1  -0.01493108  0.66127285  0.61510941  1
  O  O204  1  0.50793355  0.49493949  0.12951504  1
  O  O205  1  0.67222539  -0.00163816  0.12642214  1
  O  O206  1  0.31770337  0.66465592  0.12830833  1
  O  O207  1  0.00004372  -0.00061032  0.87113150  1
  O  O208  1  0.16815781  0.49688518  0.13026400  1
  O  O209  1  0.64973404  0.64239779  0.87501383  1
  O  O210  1  0.84962467  0.50785762  0.87781252  1
  O  O211  1  0.68889567  -0.00038837  0.37112132  1
  O  O212  1  0.50252672  0.16248479  0.61370192  1
  O  O213  1  -0.00502361  0.34430972  0.86966777  1
  O  O214  1  0.49695175  0.49670351  0.37952681  1
  O  O215  1  0.32764404  0.01762541  0.62122335  1
