# generated using pymatgen
data_Sr24Ta24N11O13
_symmetry_space_group_name_H-M   'P 1'
_cell_length_a   16.64427215
_cell_length_b   17.33888513
_cell_length_c   15.20475789
_cell_angle_alpha   88.93940220
_cell_angle_beta   90.80536151
_cell_angle_gamma   90.31747168
_symmetry_Int_Tables_number   1
_chemical_formula_structural   Sr24Ta24N11O13
_chemical_formula_sum   'Sr72 Ta72 N33 O39'
_cell_volume   4386.74220208
_cell_formula_units_Z   3
loop_
 _symmetry_equiv_pos_site_id
 _symmetry_equiv_pos_as_xyz
  1  'x, y, z'
loop_
 _atom_site_type_symbol
 _atom_site_label
 _atom_site_symmetry_multiplicity
 _atom_site_fract_x
 _atom_site_fract_y
 _atom_site_fract_z
 _atom_site_occupancy
  Sr  Sr0  1  -0.01092168  0.17294855  0.12974327  1
  Sr  Sr1  1  -0.02363930  0.10285627  0.65536123  1
  Sr  Sr2  1  -0.00543997  0.48130133  0.12249280  1
  Sr  Sr3  1  0.02129978  0.50695737  0.65253868  1
  Sr  Sr4  1  0.02093662  0.79659585  0.15635166  1
  Sr  Sr5  1  -0.01149337  0.81020363  0.58519989  1
  Sr  Sr6  1  0.34568760  0.16839096  0.17689270  1
  Sr  Sr7  1  0.33530372  0.16981241  0.61044255  1
  Sr  Sr8  1  0.33353660  0.49797901  0.14760568  1
  Sr  Sr9  1  0.33575341  0.50249397  0.57412305  1
  Sr  Sr10  1  0.31884061  0.88320160  0.05732037  1
  Sr  Sr11  1  0.33526575  0.83316277  0.63386985  1
  Sr  Sr12  1  0.64988208  0.16230583  0.08584498  1
  Sr  Sr13  1  0.66363360  0.12458087  0.63027202  1
  Sr  Sr14  1  0.69043905  0.44461695  0.17418244  1
  Sr  Sr15  1  0.67915933  0.52143047  0.61290062  1
  Sr  Sr16  1  0.64846672  0.81434438  0.11990206  1
  Sr  Sr17  1  0.66604727  0.82691261  0.66564282  1
  Sr  Sr18  1  0.14997213  0.01801174  0.11597532  1
  Sr  Sr19  1  0.17230044  0.00144202  0.67434019  1
  Sr  Sr20  1  0.15591223  0.35924239  0.08270434  1
  Sr  Sr21  1  0.17794547  0.36010222  0.62870592  1
  Sr  Sr22  1  0.17126194  0.63931354  0.19399677  1
  Sr  Sr23  1  0.18496226  0.68046044  0.61729398  1
  Sr  Sr24  1  0.49776988  0.01542253  0.13079160  1
  Sr  Sr25  1  0.48140835  0.01198874  0.58207393  1
  Sr  Sr26  1  0.48847033  0.33893122  0.12652115  1
  Sr  Sr27  1  0.51551466  0.36390909  0.62636421  1
  Sr  Sr28  1  0.48640444  0.68557426  0.10054214  1
  Sr  Sr29  1  0.51984285  0.68169775  0.66734044  1
  Sr  Sr30  1  0.81691272  0.05203628  0.08004995  1
  Sr  Sr31  1  0.82327235  -0.02182384  0.63190647  1
  Sr  Sr32  1  0.85489358  0.33792854  0.15857986  1
  Sr  Sr33  1  0.84616627  0.38973286  0.59885140  1
  Sr  Sr34  1  0.86086443  0.66629534  0.13289503  1
  Sr  Sr35  1  0.83796045  0.68116386  0.58644300  1
  Sr  Sr36  1  -0.01841449  0.14802605  0.36089451  1
  Sr  Sr37  1  -0.00758614  0.14506311  0.88727240  1
  Sr  Sr38  1  0.00398934  0.43534106  0.42244603  1
  Sr  Sr39  1  -0.00473250  0.49965179  0.88394019  1
  Sr  Sr40  1  0.00556920  0.83694394  0.36650305  1
  Sr  Sr41  1  -0.00455065  0.80780895  0.92070951  1
  Sr  Sr42  1  0.33588895  0.15777543  0.38516746  1
  Sr  Sr43  1  0.31286729  0.18559942  0.81960882  1
  Sr  Sr44  1  0.33326412  0.53216278  0.35675940  1
  Sr  Sr45  1  0.36084152  0.47607682  0.93787903  1
  Sr  Sr46  1  0.34500016  0.84816320  0.41011647  1
  Sr  Sr47  1  0.32044643  0.80492059  0.85667309  1
  Sr  Sr48  1  0.66898069  0.12647920  0.41199190  1
  Sr  Sr49  1  0.66360933  0.17116921  0.86797909  1
  Sr  Sr50  1  0.67276104  0.47834369  0.39691611  1
  Sr  Sr51  1  0.66048836  0.48965788  0.83505654  1
  Sr  Sr52  1  0.64534736  0.83585982  0.32483626  1
  Sr  Sr53  1  0.67494391  0.79537627  0.88705353  1
  Sr  Sr54  1  0.14748785  0.01508611  0.33278574  1
  Sr  Sr55  1  0.15635739  0.00357940  0.88674085  1
  Sr  Sr56  1  0.17952094  0.31087834  0.43268571  1
  Sr  Sr57  1  0.15519790  0.34828531  0.86083258  1
  Sr  Sr58  1  0.18629525  0.70741368  0.39699976  1
  Sr  Sr59  1  0.15297109  0.64709557  0.83485203  1
  Sr  Sr60  1  0.49477327  0.00184093  0.36511050  1
  Sr  Sr61  1  0.48841398  0.03153671  0.91304859  1
  Sr  Sr62  1  0.49787691  0.37078662  0.35358612  1
  Sr  Sr63  1  0.51658055  0.32942277  0.86311338  1
  Sr  Sr64  1  0.51007433  0.68622036  0.33466402  1
  Sr  Sr65  1  0.50597435  0.65413472  0.88835227  1
  Sr  Sr66  1  0.83762588  0.01047420  0.40153600  1
  Sr  Sr67  1  0.81758480  0.02297659  0.85079226  1
  Sr  Sr68  1  0.84606643  0.31958889  0.37451534  1
  Sr  Sr69  1  0.83668334  0.36853838  0.83757172  1
  Sr  Sr70  1  0.82739336  0.71216932  0.34554211  1
  Sr  Sr71  1  0.84607611  0.66602366  0.92639841  1
  Ta  Ta72  1  0.17918075  0.18337450  -0.01191584  1
  Ta  Ta73  1  0.13995792  0.13014625  0.51399250  1
  Ta  Ta74  1  0.17711151  0.54816846  0.00863292  1
  Ta  Ta75  1  0.15276673  0.53095216  0.48497869  1
  Ta  Ta76  1  0.16898951  0.75502760  0.01146712  1
  Ta  Ta77  1  0.16358396  0.88339337  0.49707895  1
  Ta  Ta78  1  0.46005614  0.18777635  0.00025235  1
  Ta  Ta79  1  0.51038583  0.21163944  0.49273187  1
  Ta  Ta80  1  0.56044609  0.49418533  0.01760218  1
  Ta  Ta81  1  0.50911927  0.55552175  0.49349888  1
  Ta  Ta82  1  0.50419456  0.85919389  -0.02959228  1
  Ta  Ta83  1  0.52603275  0.81623117  0.50093788  1
  Ta  Ta84  1  0.83052256  0.22717832  -0.01160546  1
  Ta  Ta85  1  0.83423027  0.18998191  0.52438854  1
  Ta  Ta86  1  0.80435769  0.48493176  0.00563840  1
  Ta  Ta87  1  0.86343358  0.54630294  0.45768697  1
  Ta  Ta88  1  0.82491106  0.86899606  0.02015778  1
  Ta  Ta89  1  0.77970260  0.84058942  0.48778562  1
  Ta  Ta90  1  0.16024768  0.20378707  0.25088039  1
  Ta  Ta91  1  0.12704743  0.19297844  0.72712461  1
  Ta  Ta92  1  0.14998240  0.45694967  0.27469757  1
  Ta  Ta93  1  0.24420157  0.50510035  0.75573598  1
  Ta  Ta94  1  0.21621101  0.84753043  0.24651387  1
  Ta  Ta95  1  0.12345367  0.82186853  0.75141642  1
  Ta  Ta96  1  0.53324030  0.18098430  0.26253667  1
  Ta  Ta97  1  0.49790335  0.14445395  0.74449838  1
  Ta  Ta98  1  0.53466308  0.53141558  0.21970040  1
  Ta  Ta99  1  0.44971072  0.50554989  0.75044847  1
  Ta  Ta100  1  0.44457377  0.84883928  0.22537128  1
  Ta  Ta101  1  0.49326884  0.87598303  0.76870007  1
  Ta  Ta102  1  0.79655167  0.16314257  0.25079462  1
  Ta  Ta103  1  0.82936730  0.20532888  0.73083734  1
  Ta  Ta104  1  0.84399406  0.52384151  0.26528821  1
  Ta  Ta105  1  0.83983316  0.55275607  0.75233800  1
  Ta  Ta106  1  0.82150850  0.89332573  0.21801676  1
  Ta  Ta107  1  0.85370203  0.80203709  0.75973805  1
  Ta  Ta108  1  -0.04354486  -0.01780931  0.22453444  1
  Ta  Ta109  1  -0.00714733  -0.07505580  0.75539312  1
  Ta  Ta110  1  0.05170405  0.32024445  0.26753137  1
  Ta  Ta111  1  -0.01029809  0.29420246  0.72060784  1
  Ta  Ta112  1  0.00261173  0.60132206  0.29090064  1
  Ta  Ta113  1  -0.03023469  0.68252735  0.75949780  1
  Ta  Ta114  1  0.32499257  -0.02101047  0.24601503  1
  Ta  Ta115  1  0.36589204  0.00217778  0.75481148  1
  Ta  Ta116  1  0.27007826  0.33008700  0.25218098  1
  Ta  Ta117  1  0.34551209  0.37464473  0.74757536  1
  Ta  Ta118  1  0.33640278  0.72145063  0.24141746  1
  Ta  Ta119  1  0.34296946  0.63160923  0.75098389  1
  Ta  Ta120  1  0.68681450  0.01379807  0.23928807  1
  Ta  Ta121  1  0.61312874  -0.01234096  0.76785027  1
  Ta  Ta122  1  0.66707903  0.27505780  0.26248415  1
  Ta  Ta123  1  0.68776363  0.30853943  0.71000956  1
  Ta  Ta124  1  0.67816329  0.62520849  0.23153853  1
  Ta  Ta125  1  0.72752542  0.66141732  0.75960125  1
  Ta  Ta126  1  -0.02996178  -0.03685257  0.01869436  1
  Ta  Ta127  1  0.03373153  -0.00998864  0.50580491  1
  Ta  Ta128  1  -0.02394073  0.31812483  -0.01264119  1
  Ta  Ta129  1  0.00628125  0.26355036  0.52922856  1
  Ta  Ta130  1  0.04253466  0.64398717  0.01984145  1
  Ta  Ta131  1  0.01097895  0.63206865  0.48267565  1
  Ta  Ta132  1  0.31737471  0.08023046  0.00115435  1
  Ta  Ta133  1  0.28115427  0.00282664  0.50025830  1
  Ta  Ta134  1  0.32018767  0.27873482  -0.00108616  1
  Ta  Ta135  1  0.36834877  0.32757403  0.49650459  1
  Ta  Ta136  1  0.30216020  0.66377689  0.01705898  1
  Ta  Ta137  1  0.38626810  0.67787580  0.49966920  1
  Ta  Ta138  1  0.66086915  -0.03650012  -0.00939080  1
  Ta  Ta139  1  0.65641616  -0.05555759  0.49390204  1
  Ta  Ta140  1  0.68849501  0.34495438  -0.00722236  1
  Ta  Ta141  1  0.67682628  0.29589932  0.51433511  1
  Ta  Ta142  1  0.67391137  0.60529929  0.02638435  1
  Ta  Ta143  1  0.65313056  0.69393995  0.49107311  1
  N  N144  1  0.65768785  -0.01735521  0.37001602  1
  N  N145  1  0.18717785  0.15905790  0.62826165  1
  N  N146  1  0.49908875  0.14883707  0.38699278  1
  N  N147  1  -0.00062966  0.65655163  0.88421687  1
  N  N148  1  0.19073979  0.46285063  0.39889936  1
  N  N149  1  0.16854421  0.85320706  0.36469082  1
  N  N150  1  0.50108929  0.16517697  0.61282742  1
  N  N151  1  0.01571127  0.63307258  0.16563653  1
  N  N152  1  0.34061367  0.34233530  0.61828669  1
  N  N153  1  0.82691767  0.16490399  0.39747753  1
  N  N154  1  0.32250380  0.02824746  0.11657224  1
  N  N155  1  0.33737557  0.64871931  0.14573862  1
  N  N156  1  0.01729469  0.29127813  0.40234268  1
  N  N157  1  0.84090081  0.49802048  0.14023426  1
  N  N158  1  0.49768490  0.79535847  0.86153781  1
  N  N159  1  0.82748468  0.18523359  0.86787335  1
  N  N160  1  0.15272656  0.17685448  0.86207782  1
  N  N161  1  0.49389811  0.18130109  0.87071757  1
  N  N162  1  0.32090973  0.00858293  0.37741476  1
  N  N163  1  0.34534068  0.68778739  0.37447902  1
  N  N164  1  0.66193205  0.02219876  0.87982880  1
  N  N165  1  0.49846112  0.17705018  0.13133343  1
  N  N166  1  0.32995881  0.00350069  0.63303645  1
  N  N167  1  0.47800901  0.50522624  0.10802682  1
  N  N168  1  0.82323765  0.19150075  0.12611976  1
  N  N169  1  0.34817600  0.67559850  0.62863464  1
  N  N170  1  -0.00457874  -0.03922822  0.62654648  1
  N  N171  1  0.68541712  0.37693242  0.60226141  1
  N  N172  1  0.65264936  0.00549065  0.11468628  1
  N  N173  1  -0.00878751  0.03375071  0.11481963  1
  N  N174  1  0.82113370  0.12579957  0.63955620  1
  N  N175  1  0.83452041  0.51422599  0.88318722  1
  N  N176  1  0.47879343  0.84554740  0.10089337  1
  O  O177  1  0.81592229  0.82623969  0.61777325  1
  O  O178  1  0.00657213  0.32681969  0.12050216  1
  O  O179  1  0.49793503  0.83351432  0.36700408  1
  O  O180  1  0.14747469  0.16903618  0.12555527  1
  O  O181  1  0.30638381  0.32307778  0.12297102  1
  O  O182  1  0.65098031  -0.02456488  0.63682528  1
  O  O183  1  0.83992413  0.53605099  0.59686942  1
  O  O184  1  0.82406922  0.45924876  0.38310772  1
  O  O185  1  0.49507072  0.52737368  0.62462285  1
  O  O186  1  0.32732675  0.32930968  0.36980865  1
  O  O187  1  0.14766730  0.83079237  0.62262417  1
  O  O188  1  0.17158941  0.49978787  0.13561971  1
  O  O189  1  0.34635838  0.66291589  0.88924578  1
  O  O190  1  -0.00756415  -0.01077945  0.35805324  1
  O  O191  1  0.17016092  0.81298196  0.12459418  1
  O  O192  1  0.68904984  0.64653667  0.88913878  1
  O  O193  1  0.67839647  0.34046675  0.85624003  1
  O  O194  1  0.50691518  0.50000032  0.88795307  1
  O  O195  1  -0.00163454  -0.03944021  0.88690599  1
  O  O196  1  0.16225059  0.16203041  0.37885446  1
  O  O197  1  0.80010101  0.85387282  0.35465032  1
  O  O198  1  0.31592490  0.03719896  0.87230853  1
  O  O199  1  0.02832287  0.69501857  0.36405993  1
  O  O200  1  0.18745567  0.51325979  0.61669927  1
  O  O201  1  0.50998068  0.82931760  0.63339209  1
  O  O202  1  0.68018062  0.67834658  0.62211678  1
  O  O203  1  0.15096161  0.79225324  0.87732762  1
  O  O204  1  0.68474125  0.32956518  0.37809430  1
  O  O205  1  -0.00336407  0.65906891  0.61330605  1
  O  O206  1  0.00289830  0.36391571  0.60916147  1
  O  O207  1  0.66812080  0.67100000  0.36228452  1
  O  O208  1  0.83241627  0.82869022  0.89036652  1
  O  O209  1  0.20567560  0.50880981  0.88543970  1
  O  O210  1  0.81359804  0.80577514  0.13299740  1
  O  O211  1  0.51953152  0.53550555  0.36369823  1
  O  O212  1  0.33065682  0.32904347  0.87339012  1
  O  O213  1  0.67089703  0.31202571  0.12152352  1
  O  O214  1  0.70592204  0.68196516  0.11949423  1
  O  O215  1  -0.00973450  0.31888273  0.85638283  1
