# generated using pymatgen
data_Sr24Ta24N11O13
_symmetry_space_group_name_H-M   'P 1'
_cell_length_a   16.95425334
_cell_length_b   16.69164949
_cell_length_c   15.66744207
_cell_angle_alpha   89.87793986
_cell_angle_beta   90.38064272
_cell_angle_gamma   89.95424441
_symmetry_Int_Tables_number   1
_chemical_formula_structural   Sr24Ta24N11O13
_chemical_formula_sum   'Sr72 Ta72 N33 O39'
_cell_volume   4433.68984426
_cell_formula_units_Z   3
loop_
 _symmetry_equiv_pos_site_id
 _symmetry_equiv_pos_as_xyz
  1  'x, y, z'
loop_
 _atom_site_type_symbol
 _atom_site_label
 _atom_site_symmetry_multiplicity
 _atom_site_fract_x
 _atom_site_fract_y
 _atom_site_fract_z
 _atom_site_occupancy
  Sr  Sr0  1  0.01137874  0.17433992  0.08024224  1
  Sr  Sr1  1  -0.02339260  0.16555671  0.63441944  1
  Sr  Sr2  1  0.02000170  0.48588768  0.16771390  1
  Sr  Sr3  1  -0.00053556  0.50739380  0.61619545  1
  Sr  Sr4  1  -0.01020444  0.83111626  0.12044326  1
  Sr  Sr5  1  0.04724068  0.82839536  0.65594254  1
  Sr  Sr6  1  0.33756492  0.15835495  0.14146915  1
  Sr  Sr7  1  0.35134865  0.15741056  0.65599160  1
  Sr  Sr8  1  0.34557494  0.50122574  0.09662734  1
  Sr  Sr9  1  0.34522725  0.50051046  0.63633651  1
  Sr  Sr10  1  0.37471250  0.83588771  0.14490496  1
  Sr  Sr11  1  0.33779113  0.84391425  0.58137293  1
  Sr  Sr12  1  0.67983796  0.15912278  0.13914818  1
  Sr  Sr13  1  0.65778010  0.17358456  0.57845908  1
  Sr  Sr14  1  0.68511084  0.50461598  0.13273332  1
  Sr  Sr15  1  0.68991920  0.49153721  0.61733057  1
  Sr  Sr16  1  0.68817837  0.83056746  0.11261975  1
  Sr  Sr17  1  0.66354232  0.83671433  0.64230917  1
  Sr  Sr18  1  0.12998692  -0.00686906  0.10262602  1
  Sr  Sr19  1  0.17140829  0.00742067  0.63457158  1
  Sr  Sr20  1  0.17220792  0.33200399  0.13400847  1
  Sr  Sr21  1  0.15278577  0.34387585  0.58048023  1
  Sr  Sr22  1  0.13497794  0.66741630  0.13306597  1
  Sr  Sr23  1  0.15758835  0.65426909  0.65799057  1
  Sr  Sr24  1  0.51322431  0.00957885  0.11466030  1
  Sr  Sr25  1  0.48837178  -0.00380976  0.63655533  1
  Sr  Sr26  1  0.47403262  0.34426061  0.09589850  1
  Sr  Sr27  1  0.49004492  0.33321976  0.62729103  1
  Sr  Sr28  1  0.49886901  0.65563513  0.15032613  1
  Sr  Sr29  1  0.47661068  0.67333362  0.62529468  1
  Sr  Sr30  1  0.82968984  -0.01345137  0.16614429  1
  Sr  Sr31  1  0.80006425  0.00713313  0.60139878  1
  Sr  Sr32  1  0.83090800  0.32840731  0.10924667  1
  Sr  Sr33  1  0.85030332  0.34444116  0.67210607  1
  Sr  Sr34  1  0.82164398  0.67722363  0.09348312  1
  Sr  Sr35  1  0.81224617  0.67515812  0.61573749  1
  Sr  Sr36  1  0.01277895  0.15690285  0.42033260  1
  Sr  Sr37  1  -0.01670683  0.16579725  0.86121444  1
  Sr  Sr38  1  0.00408662  0.49989808  0.38280746  1
  Sr  Sr39  1  0.00645693  0.50104859  0.84291148  1
  Sr  Sr40  1  0.01193176  0.84532928  0.34495565  1
  Sr  Sr41  1  0.01255109  0.82390728  0.88920643  1
  Sr  Sr42  1  0.33078394  0.16949086  0.34131310  1
  Sr  Sr43  1  0.34558892  0.14705020  0.85391357  1
  Sr  Sr44  1  0.35103731  0.48833730  0.40456899  1
  Sr  Sr45  1  0.32771420  0.49727946  0.87655751  1
  Sr  Sr46  1  0.34035052  0.83511895  0.37342310  1
  Sr  Sr47  1  0.35708717  0.83712449  0.92244807  1
  Sr  Sr48  1  0.66893942  0.16261034  0.36366942  1
  Sr  Sr49  1  0.66108058  0.17067703  0.91317821  1
  Sr  Sr50  1  0.67577907  0.50811057  0.36160115  1
  Sr  Sr51  1  0.70081545  0.49275694  0.89709192  1
  Sr  Sr52  1  0.70871822  0.83017924  0.41932019  1
  Sr  Sr53  1  0.67026663  0.83234584  0.85822072  1
  Sr  Sr54  1  0.15220187  -0.01446337  0.40456075  1
  Sr  Sr55  1  0.14155642  -0.00171749  0.86453652  1
  Sr  Sr56  1  0.17020990  0.33663798  0.36462684  1
  Sr  Sr57  1  0.16252996  0.33218062  0.91232695  1
  Sr  Sr58  1  0.13585954  0.66479338  0.34541202  1
  Sr  Sr59  1  0.15180263  0.66592192  0.86773142  1
  Sr  Sr60  1  0.46786170  0.00743369  0.33862119  1
  Sr  Sr61  1  0.50684369  -0.00491501  0.88351171  1
  Sr  Sr62  1  0.50694058  0.33239734  0.41329488  1
  Sr  Sr63  1  0.47555697  0.34009545  0.85746810  1
  Sr  Sr64  1  0.47912603  0.66631622  0.36547272  1
  Sr  Sr65  1  0.48278788  0.65849974  0.87196219  1
  Sr  Sr66  1  0.83367539  0.00410156  0.38170168  1
  Sr  Sr67  1  0.81681947  0.00192974  0.83328247  1
  Sr  Sr68  1  0.81612644  0.34661564  0.31582503  1
  Sr  Sr69  1  0.83722820  0.32111129  0.88598249  1
  Sr  Sr70  1  0.82876647  0.65254614  0.41379160  1
  Sr  Sr71  1  0.81951993  0.68828844  0.88602702  1
  Ta  Ta72  1  0.19970032  0.15386130  -0.00640661  1
  Ta  Ta73  1  0.21114186  0.16482107  0.50076529  1
  Ta  Ta74  1  0.14436858  0.51073633  0.00152234  1
  Ta  Ta75  1  0.17950970  0.53500338  0.49773147  1
  Ta  Ta76  1  0.19363564  0.82671242  0.00708764  1
  Ta  Ta77  1  0.16188710  0.79454549  0.49258840  1
  Ta  Ta78  1  0.48546730  0.18460296  -0.00196193  1
  Ta  Ta79  1  0.47475087  0.14869968  0.49333278  1
  Ta  Ta80  1  0.53504537  0.50314408  0.00581420  1
  Ta  Ta81  1  0.53273934  0.51638626  0.50071816  1
  Ta  Ta82  1  0.53148354  0.81214229  0.00547339  1
  Ta  Ta83  1  0.52544181  0.84093329  0.48554587  1
  Ta  Ta84  1  0.83206406  0.11892490  -0.00357404  1
  Ta  Ta85  1  0.83114549  0.23717593  0.49345072  1
  Ta  Ta86  1  0.88348375  0.50080390  0.00894606  1
  Ta  Ta87  1  0.83673211  0.44591322  0.48897636  1
  Ta  Ta88  1  0.83580303  0.87750925  -0.01591424  1
  Ta  Ta89  1  0.88893232  0.83536773  0.51716728  1
  Ta  Ta90  1  0.14419870  0.14629197  0.24966958  1
  Ta  Ta91  1  0.16465948  0.20754123  0.74575640  1
  Ta  Ta92  1  0.21967896  0.50588241  0.24311443  1
  Ta  Ta93  1  0.17195232  0.46057821  0.75303513  1
  Ta  Ta94  1  0.19325022  0.83558106  0.24251460  1
  Ta  Ta95  1  0.22238414  0.83542340  0.76088059  1
  Ta  Ta96  1  0.50459146  0.21589338  0.25042324  1
  Ta  Ta97  1  0.54561433  0.17185553  0.74196435  1
  Ta  Ta98  1  0.49679229  0.46341321  0.24858762  1
  Ta  Ta99  1  0.54926007  0.50109836  0.75149675  1
  Ta  Ta100  1  0.55933660  0.83290729  0.26821375  1
  Ta  Ta101  1  0.45374775  0.83028975  0.74998388  1
  Ta  Ta102  1  0.87816671  0.17055746  0.24874890  1
  Ta  Ta103  1  0.77507656  0.17267048  0.74985651  1
  Ta  Ta104  1  0.84350282  0.53796644  0.24630235  1
  Ta  Ta105  1  0.83555094  0.53292598  0.75042731  1
  Ta  Ta106  1  0.83315217  0.80154437  0.26514945  1
  Ta  Ta107  1  0.86462244  0.83606737  0.73196307  1
  Ta  Ta108  1  0.00185503  0.03956766  0.25443707  1
  Ta  Ta109  1  -0.02813161  -0.01880844  0.72847036  1
  Ta  Ta110  1  0.00267500  0.28465909  0.24667369  1
  Ta  Ta111  1  0.04179306  0.33012348  0.75141877  1
  Ta  Ta112  1  -0.04837866  0.66727430  0.24713249  1
  Ta  Ta113  1  -0.03970730  0.67169325  0.75066273  1
  Ta  Ta114  1  0.27167732  -0.00798530  0.25245522  1
  Ta  Ta115  1  0.33484530  -0.04897596  0.75482857  1
  Ta  Ta116  1  0.35549971  0.35071028  0.25532747  1
  Ta  Ta117  1  0.28376516  0.32775642  0.74918276  1
  Ta  Ta118  1  0.30446196  0.66102847  0.23926004  1
  Ta  Ta119  1  0.32764690  0.71295790  0.75549211  1
  Ta  Ta120  1  0.65404314  -0.03158419  0.26401951  1
  Ta  Ta121  1  0.65329375  0.04199961  0.74420100  1
  Ta  Ta122  1  0.62157488  0.33692026  0.23696408  1
  Ta  Ta123  1  0.65836494  0.31702138  0.75166907  1
  Ta  Ta124  1  0.68919812  0.68789189  0.25535183  1
  Ta  Ta125  1  0.66044361  0.63720909  0.75687528  1
  Ta  Ta126  1  -0.04882923  -0.00007285  -0.00015226  1
  Ta  Ta127  1  -0.01284519  -0.02937020  0.51140144  1
  Ta  Ta128  1  0.00020569  0.37096782  0.00031897  1
  Ta  Ta129  1  -0.03177957  0.33438575  0.49986320  1
  Ta  Ta130  1  -0.00571948  0.62853478  0.00047335  1
  Ta  Ta131  1  0.01192736  0.69389063  0.50760522  1
  Ta  Ta132  1  0.30554721  0.01088491  0.00414221  1
  Ta  Ta133  1  0.33077953  0.03754514  0.49401399  1
  Ta  Ta134  1  0.32526962  0.28546500  -0.00649703  1
  Ta  Ta135  1  0.32937306  0.28570584  0.49977058  1
  Ta  Ta136  1  0.29397823  0.67694263  0.01580530  1
  Ta  Ta137  1  0.28887326  0.66393603  0.49732579  1
  Ta  Ta138  1  0.69687863  -0.00517682  0.00685833  1
  Ta  Ta139  1  0.61365597  -0.00753903  0.48145220  1
  Ta  Ta140  1  0.63286736  0.33886814  0.01169239  1
  Ta  Ta141  1  0.70050143  0.34353844  0.49219407  1
  Ta  Ta142  1  0.63362706  0.66451658  0.00399640  1
  Ta  Ta143  1  0.62953379  0.66498433  0.49953679  1
  N  N144  1  0.32247677  0.32347136  0.87447402  1
  N  N145  1  -0.00913080  0.66702405  0.87711255  1
  N  N146  1  0.50556936  0.16974713  0.62134275  1
  N  N147  1  0.49895999  0.17636302  0.36792035  1
  N  N148  1  0.49013471  0.82612159  0.36651824  1
  N  N149  1  0.68009812  0.00618775  0.38279120  1
  N  N150  1  0.67691089  0.32999322  0.12649607  1
  N  N151  1  0.81420550  0.83591140  0.61234401  1
  N  N152  1  -0.01918177  0.00572088  0.12510489  1
  N  N153  1  0.31283117  0.00365847  0.37166837  1
  N  N154  1  0.00208435  0.33442256  0.87833637  1
  N  N155  1  0.81729945  0.16114886  0.87170770  1
  N  N156  1  0.67370688  -0.00775519  0.12921075  1
  N  N157  1  0.84304990  0.49421111  0.12865810  1
  N  N158  1  0.17012617  0.49349616  0.87474285  1
  N  N159  1  0.83758909  0.84486738  0.86292882  1
  N  N160  1  0.17005679  0.82351005  0.36847352  1
  N  N161  1  0.00107270  0.33507383  0.62544522  1
  N  N162  1  0.33786841  0.32856031  0.37730148  1
  N  N163  1  0.02193155  0.01396222  0.62177497  1
  N  N164  1  0.17758821  0.49497107  0.12719286  1
  N  N165  1  0.50330221  0.50170025  0.12829562  1
  N  N166  1  0.00700355  0.32606669  0.12884949  1
  N  N167  1  -0.00422924  0.00199541  0.37667548  1
  N  N168  1  0.66815514  0.66534487  0.12986791  1
  N  N169  1  0.66638780  0.66478630  0.38269376  1
  N  N170  1  0.17814779  0.83662518  0.88506502  1
  N  N171  1  0.00203161  0.66532294  0.62767603  1
  N  N172  1  0.83783464  0.49378276  0.37287354  1
  N  N173  1  0.34904696  0.67334114  0.12345720  1
  N  N174  1  0.85498836  0.82638137  0.38448511  1
  N  N175  1  0.66643444  0.66527573  0.87680684  1
  N  N176  1  -0.01664106  0.66854182  0.12630442  1
  O  O177  1  0.83711333  0.83391139  0.12362913  1
  O  O178  1  0.01418395  0.31662652  0.37804532  1
  O  O179  1  0.65238225  0.32763035  0.88079123  1
  O  O180  1  0.50202526  0.82201563  0.87992423  1
  O  O181  1  0.85183532  0.15942941  0.12194516  1
  O  O182  1  0.51084172  0.50541324  0.37293540  1
  O  O183  1  0.84723027  0.51330976  0.87607400  1
  O  O184  1  0.49317079  0.17072677  0.12359505  1
  O  O185  1  0.53016461  0.49120338  0.62281843  1
  O  O186  1  0.32904454  0.68467781  0.88975946  1
  O  O187  1  0.65824490  0.67832120  0.63071262  1
  O  O188  1  -0.01126106  0.65931262  0.38216336  1
  O  O189  1  0.31408605  0.68262071  0.62310021  1
  O  O190  1  0.48698285  0.83199708  0.62114020  1
  O  O191  1  0.64316554  0.01716390  0.61208571  1
  O  O192  1  0.50378479  0.17783157  0.87177242  1
  O  O193  1  0.52865795  0.49405536  0.87266265  1
  O  O194  1  -0.01452477  0.00754786  0.85408357  1
  O  O195  1  0.83864538  0.49656227  0.62467533  1
  O  O196  1  0.66811239  0.34313102  0.36512148  1
  O  O197  1  0.16563265  0.15278168  0.12285784  1
  O  O198  1  0.52911354  0.82391302  0.13441649  1
  O  O199  1  0.81885348  0.19673096  0.63064346  1
  O  O200  1  0.32705944  0.31819817  0.12244516  1
  O  O201  1  0.17336871  0.50289490  0.62182447  1
  O  O202  1  0.33016972  0.31800066  0.62687314  1
  O  O203  1  0.18008593  0.51218036  0.37060234  1
  O  O204  1  0.16352217  0.16218814  0.37683487  1
  O  O205  1  0.18488122  0.15761504  0.86606715  1
  O  O206  1  0.33174635  -0.00369292  0.62027600  1
  O  O207  1  0.13802840  0.83295684  0.12769086  1
  O  O208  1  0.84997466  0.19070649  0.37382764  1
  O  O209  1  0.18935539  0.82894434  0.61540870  1
  O  O210  1  0.30990473  0.00556812  0.12963944  1
  O  O211  1  0.31339181  0.66834467  0.37224949  1
  O  O212  1  0.16869283  0.16878577  0.62324680  1
  O  O213  1  0.67618084  0.33308285  0.62775012  1
  O  O214  1  0.32818365  -0.00809055  0.88128301  1
  O  O215  1  0.66190987  0.01521349  0.87284422  1
