# generated using pymatgen
data_Sr24Ta24N11O13
_symmetry_space_group_name_H-M   'P 1'
_cell_length_a   16.67836827
_cell_length_b   17.01909736
_cell_length_c   15.67599839
_cell_angle_alpha   90.21125595
_cell_angle_beta   89.75173350
_cell_angle_gamma   89.48927227
_symmetry_Int_Tables_number   1
_chemical_formula_structural   Sr24Ta24N11O13
_chemical_formula_sum   'Sr72 Ta72 N33 O39'
_cell_volume   4449.39483412
_cell_formula_units_Z   3
loop_
 _symmetry_equiv_pos_site_id
 _symmetry_equiv_pos_as_xyz
  1  'x, y, z'
loop_
 _atom_site_type_symbol
 _atom_site_label
 _atom_site_symmetry_multiplicity
 _atom_site_fract_x
 _atom_site_fract_y
 _atom_site_fract_z
 _atom_site_occupancy
  Sr  Sr0  1  0.00391773  0.17964925  0.08753729  1
  Sr  Sr1  1  -0.02235488  0.17659476  0.63986741  1
  Sr  Sr2  1  -0.00605783  0.50220458  0.13063366  1
  Sr  Sr3  1  0.00796170  0.53550051  0.60744547  1
  Sr  Sr4  1  0.01168998  0.86887862  0.14350556  1
  Sr  Sr5  1  0.01423206  0.84754748  0.64672861  1
  Sr  Sr6  1  0.33428380  0.19579263  0.14504922  1
  Sr  Sr7  1  0.34502884  0.17366792  0.65059980  1
  Sr  Sr8  1  0.34243328  0.50247819  0.08271530  1
  Sr  Sr9  1  0.33167216  0.51785956  0.63031636  1
  Sr  Sr10  1  0.34034659  0.83124996  0.13943032  1
  Sr  Sr11  1  0.33767112  0.86479311  0.59758739  1
  Sr  Sr12  1  0.67187385  0.16996545  0.13584493  1
  Sr  Sr13  1  0.65662506  0.19268788  0.59086983  1
  Sr  Sr14  1  0.65600417  0.51702885  0.16192446  1
  Sr  Sr15  1  0.67695605  0.51153832  0.63466084  1
  Sr  Sr16  1  0.68607615  0.83205276  0.09852415  1
  Sr  Sr17  1  0.66801778  0.84225043  0.62743685  1
  Sr  Sr18  1  0.18134292  -0.01486776  0.13589901  1
  Sr  Sr19  1  0.16177431  -0.00936833  0.58944566  1
  Sr  Sr20  1  0.15261342  0.32289678  0.14690911  1
  Sr  Sr21  1  0.14548594  0.30624548  0.63767932  1
  Sr  Sr22  1  0.16608194  0.62432592  0.09750796  1
  Sr  Sr23  1  0.16739525  0.66223373  0.63799722  1
  Sr  Sr24  1  0.50969358  -0.04049073  0.08462065  1
  Sr  Sr25  1  0.49361082  -0.00246915  0.63574935  1
  Sr  Sr26  1  0.50541393  0.32668599  0.13098883  1
  Sr  Sr27  1  0.48373966  0.32266248  0.59803019  1
  Sr  Sr28  1  0.49368163  0.65163446  0.14336139  1
  Sr  Sr29  1  0.49871168  0.63762446  0.64415816  1
  Sr  Sr30  1  0.82433216  -0.00853680  0.15222181  1
  Sr  Sr31  1  0.82441059  -0.01281881  0.64535509  1
  Sr  Sr32  1  0.83938177  0.31159128  0.08135289  1
  Sr  Sr33  1  0.82905581  0.32905386  0.63841864  1
  Sr  Sr34  1  0.83290391  0.65230692  0.12856260  1
  Sr  Sr35  1  0.82560688  0.66765529  0.58598226  1
  Sr  Sr36  1  0.00438981  0.18243123  0.41211808  1
  Sr  Sr37  1  -0.00988033  0.17546661  0.86824912  1
  Sr  Sr38  1  0.00864682  0.50927257  0.35733861  1
  Sr  Sr39  1  -0.00756311  0.53814002  0.90612882  1
  Sr  Sr40  1  0.01836110  0.87008570  0.35995096  1
  Sr  Sr41  1  0.01938386  0.84666196  0.86052449  1
  Sr  Sr42  1  0.33631635  0.18004528  0.35041050  1
  Sr  Sr43  1  0.34322195  0.17537397  0.85728522  1
  Sr  Sr44  1  0.33996477  0.50277091  0.41497561  1
  Sr  Sr45  1  0.33652543  0.51595780  0.87155725  1
  Sr  Sr46  1  0.33961688  0.83293479  0.35918931  1
  Sr  Sr47  1  0.33760677  0.86528720  0.90888188  1
  Sr  Sr48  1  0.66567248  0.16830235  0.35931921  1
  Sr  Sr49  1  0.65728619  0.19574065  0.92201514  1
  Sr  Sr50  1  0.67102975  0.51665998  0.36482178  1
  Sr  Sr51  1  0.66976137  0.50559615  0.84575005  1
  Sr  Sr52  1  0.68219718  0.84264971  0.40062639  1
  Sr  Sr53  1  0.66316674  0.83837245  0.87369452  1
  Sr  Sr54  1  0.18741816  -0.00816869  0.36487606  1
  Sr  Sr55  1  0.16030234  -0.01078015  0.91732768  1
  Sr  Sr56  1  0.15025612  0.32210254  0.35674694  1
  Sr  Sr57  1  0.15905925  0.29571344  0.84778370  1
  Sr  Sr58  1  0.16772571  0.63435650  0.39892937  1
  Sr  Sr59  1  0.16413401  0.66096564  0.86191206  1
  Sr  Sr60  1  0.49874270  -0.03157542  0.40218062  1
  Sr  Sr61  1  0.49294759  0.00033248  0.86320246  1
  Sr  Sr62  1  0.50678719  0.32361694  0.36623164  1
  Sr  Sr63  1  0.48117339  0.32422943  0.90878253  1
  Sr  Sr64  1  0.49387628  0.65118286  0.35741855  1
  Sr  Sr65  1  0.50499716  0.63939258  0.85367310  1
  Sr  Sr66  1  0.82075985  -0.00320575  0.35534089  1
  Sr  Sr67  1  0.83638898  -0.01879344  0.84679694  1
  Sr  Sr68  1  0.83164917  0.30422743  0.40546151  1
  Sr  Sr69  1  0.83138094  0.33177272  0.86611623  1
  Sr  Sr70  1  0.83601741  0.64696748  0.37258129  1
  Sr  Sr71  1  0.82431911  0.67332053  0.91160703  1
  Ta  Ta72  1  0.19435903  0.16775970  -0.00097256  1
  Ta  Ta73  1  0.19952786  0.16747588  0.50163100  1
  Ta  Ta74  1  0.16039845  0.44861230  -0.01055239  1
  Ta  Ta75  1  0.16180805  0.45142399  0.49900816  1
  Ta  Ta76  1  0.16625664  0.79900438  0.01520108  1
  Ta  Ta77  1  0.16845285  0.80510222  0.49538491  1
  Ta  Ta78  1  0.48348550  0.14170832  0.01306653  1
  Ta  Ta79  1  0.48524748  0.14433525  0.49249677  1
  Ta  Ta80  1  0.53222314  0.49924868  0.00116111  1
  Ta  Ta81  1  0.52773099  0.49412861  0.49943987  1
  Ta  Ta82  1  0.49912051  0.77912060  -0.00267314  1
  Ta  Ta83  1  0.50009771  0.78656601  0.50004205  1
  Ta  Ta84  1  0.82921782  0.12268113  -0.00347329  1
  Ta  Ta85  1  0.82451750  0.12525787  0.50737108  1
  Ta  Ta86  1  0.79325786  0.49282209  0.00789790  1
  Ta  Ta87  1  0.83877269  0.47509646  0.49819575  1
  Ta  Ta88  1  0.86902169  0.84805499  0.00348672  1
  Ta  Ta89  1  0.87169300  0.84825427  0.50324013  1
  Ta  Ta90  1  0.13168445  0.14830421  0.25113926  1
  Ta  Ta91  1  0.16540102  0.11572769  0.75469340  1
  Ta  Ta92  1  0.20764984  0.49336848  0.25181361  1
  Ta  Ta93  1  0.16040149  0.47089963  0.75708658  1
  Ta  Ta94  1  0.16750634  0.76918106  0.23915528  1
  Ta  Ta95  1  0.19898309  0.84891807  0.75391536  1
  Ta  Ta96  1  0.50112477  0.11440276  0.23488284  1
  Ta  Ta97  1  0.53571257  0.17999782  0.76091533  1
  Ta  Ta98  1  0.45988881  0.48653148  0.25000453  1
  Ta  Ta99  1  0.49671343  0.44826328  0.75061828  1
  Ta  Ta100  1  0.53360065  0.83036289  0.25353607  1
  Ta  Ta101  1  0.48239639  0.81429993  0.74576927  1
  Ta  Ta102  1  0.86031880  0.17817716  0.24308605  1
  Ta  Ta103  1  0.77798456  0.16538971  0.75168961  1
  Ta  Ta104  1  0.83360296  0.44591933  0.24270664  1
  Ta  Ta105  1  0.85525441  0.53009189  0.75279377  1
  Ta  Ta106  1  0.83957517  0.80679866  0.25004727  1
  Ta  Ta107  1  0.83828648  0.79415662  0.74634957  1
  Ta  Ta108  1  -0.00045631  0.05413538  0.24982975  1
  Ta  Ta109  1  0.03663738  0.01498647  0.75404298  1
  Ta  Ta110  1  -0.03327727  0.32152473  0.24019712  1
  Ta  Ta111  1  -0.00085070  0.39546853  0.76426001  1
  Ta  Ta112  1  0.00597396  0.69758403  0.25162010  1
  Ta  Ta113  1  -0.04055964  0.67521169  0.74702576  1
  Ta  Ta114  1  0.37255199  0.01323903  0.23262288  1
  Ta  Ta115  1  0.29936534  -0.00441620  0.75508549  1
  Ta  Ta116  1  0.32905580  0.37644659  0.24575865  1
  Ta  Ta117  1  0.33030670  0.35849560  0.75298234  1
  Ta  Ta118  1  0.31141015  0.63707367  0.24598231  1
  Ta  Ta119  1  0.33467176  0.72475339  0.74917338  1
  Ta  Ta120  1  0.63062372  -0.01513797  0.24606580  1
  Ta  Ta121  1  0.65769496  0.04952125  0.75372320  1
  Ta  Ta122  1  0.70879857  0.34002215  0.24029764  1
  Ta  Ta123  1  0.64058541  0.32118616  0.75407839  1
  Ta  Ta124  1  0.67243075  0.70691290  0.25304395  1
  Ta  Ta125  1  0.69872834  0.68002833  0.74976461  1
  Ta  Ta126  1  -0.03786888  0.00299974  -0.00373248  1
  Ta  Ta127  1  -0.03470725  0.00642479  0.50445789  1
  Ta  Ta128  1  0.02226869  0.35698759  -0.01234498  1
  Ta  Ta129  1  -0.00304559  0.36947247  0.50383779  1
  Ta  Ta130  1  0.00772901  0.71846142  0.00437103  1
  Ta  Ta131  1  0.00746067  0.71895496  0.50186020  1
  Ta  Ta132  1  0.33775255  0.04478644  0.00893361  1
  Ta  Ta133  1  0.33763066  0.04585199  0.50176258  1
  Ta  Ta134  1  0.29155407  0.32765988  -0.00120984  1
  Ta  Ta135  1  0.29747188  0.31785145  0.49810280  1
  Ta  Ta136  1  0.34119793  0.69083990  -0.00041121  1
  Ta  Ta137  1  0.34337416  0.69243729  0.50654621  1
  Ta  Ta138  1  0.69341217  0.01460837  0.00121109  1
  Ta  Ta139  1  0.67202784  0.02351951  0.49647011  1
  Ta  Ta140  1  0.66715361  0.38159953  0.00937472  1
  Ta  Ta141  1  0.66760403  0.36933896  0.49748452  1
  Ta  Ta142  1  0.64636153  0.64802827  0.00272455  1
  Ta  Ta143  1  0.63595460  0.66936992  0.49988583  1
  N  N144  1  0.32625438  0.33477937  0.87273317  1
  N  N145  1  0.66141687  0.00239281  0.37477191  1
  N  N146  1  0.49913676  0.48248129  0.62618145  1
  N  N147  1  0.66833826  0.66624650  0.87411947  1
  N  N148  1  0.84415550  0.83492790  0.12809196  1
  N  N149  1  0.51200743  0.17475819  0.12878931  1
  N  N150  1  0.83377996  0.49437641  0.12468627  1
  N  N151  1  0.67353775  0.67040244  0.37515126  1
  N  N152  1  0.50527255  0.81750339  0.37541027  1
  N  N153  1  0.49739662  0.49088574  0.37436984  1
  N  N154  1  0.49566131  0.49653393  0.12565913  1
  N  N155  1  -0.00052398  0.00224679  0.87372785  1
  N  N156  1  -0.01084393  0.33206178  0.86638529  1
  N  N157  1  0.81779064  0.16366631  0.62939665  1
  N  N158  1  -0.00472722  0.33515270  0.11962929  1
  N  N159  1  0.33888474  -0.01786020  0.11437925  1
  N  N160  1  0.17196513  0.48017722  0.37453533  1
  N  N161  1  0.33228193  0.65828322  0.11786407  1
  N  N162  1  0.83716721  0.15893054  0.12324184  1
  N  N163  1  0.66976840  0.67065529  0.12738256  1
  N  N164  1  0.66745613  0.66873798  0.62532876  1
  N  N165  1  -0.00363551  0.68673124  0.62475469  1
  N  N166  1  0.17992375  0.83088405  0.13598336  1
  N  N167  1  0.33150375  0.01318523  0.87532621  1
  N  N168  1  0.32959169  0.67856860  0.62934982  1
  N  N169  1  0.66928829  0.32763795  0.12176663  1
  N  N170  1  0.32973089  0.01713773  0.62325486  1
  N  N171  1  0.84084441  0.83317470  0.62215248  1
  N  N172  1  0.32570983  0.34529924  0.12177559  1
  N  N173  1  0.50581901  0.16696330  0.88159851  1
  N  N174  1  0.50110392  0.48540152  0.87428310  1
  N  N175  1  0.16747905  0.14840663  0.88089673  1
  N  N176  1  0.66926279  -0.00584023  0.12302065  1
  O  O177  1  0.17399087  0.50895582  0.88014329  1
  O  O178  1  -0.00788734  0.36440107  0.63410824  1
  O  O179  1  0.50706615  0.80706756  0.12117264  1
  O  O180  1  -0.00924528  0.33737040  0.37821062  1
  O  O181  1  0.17744750  0.80537952  0.36789765  1
  O  O182  1  0.49782547  0.84102788  0.62263815  1
  O  O183  1  0.50020406  0.15148657  0.36656001  1
  O  O184  1  -0.01642836  0.02566016  0.38051137  1
  O  O185  1  0.16391449  0.15558267  0.37857019  1
  O  O186  1  0.31625339  0.32873901  0.37267198  1
  O  O187  1  0.15739742  0.16095803  0.12815133  1
  O  O188  1  0.16815349  0.47786429  0.12129114  1
  O  O189  1  0.83760956  0.48230789  0.37208197  1
  O  O190  1  0.18639635  0.15900150  0.62870337  1
  O  O191  1  0.18129643  0.83287745  0.88206478  1
  O  O192  1  0.00256496  0.68990704  0.87569183  1
  O  O193  1  0.65259107  0.02530261  0.63018714  1
  O  O194  1  0.65775922  0.34061713  0.87930248  1
  O  O195  1  0.17967008  0.83179662  0.61981359  1
  O  O196  1  0.50575422  0.79898276  0.86776291  1
  O  O197  1  0.83274213  0.15667455  0.37883348  1
  O  O198  1  0.65384662  0.01783962  0.87834467  1
  O  O199  1  0.84860813  0.84578229  0.37076526  1
  O  O200  1  0.83232350  0.52020968  0.87889632  1
  O  O201  1  0.50192804  0.16479363  0.61989037  1
  O  O202  1  -0.00653625  0.02398743  0.12088847  1
  O  O203  1  0.33770246  0.02259509  0.35973900  1
  O  O204  1  0.32342650  0.67364828  0.86528592  1
  O  O205  1  0.00108604  0.68240010  0.37604439  1
  O  O206  1  0.16481215  0.46909162  0.63213264  1
  O  O207  1  0.84519390  0.50493763  0.62205377  1
  O  O208  1  0.82345220  0.16956409  0.87426043  1
  O  O209  1  0.33211413  0.66464083  0.37215076  1
  O  O210  1  0.66074050  0.34282158  0.62354138  1
  O  O211  1  -0.00435420  0.68794612  0.12364453  1
  O  O212  1  0.31454649  0.32879329  0.62242120  1
  O  O213  1  -0.00913880  0.00687171  0.63059235  1
  O  O214  1  0.67652063  0.34890274  0.37227248  1
  O  O215  1  0.84230403  0.82914072  0.87495421  1
