# generated using pymatgen
data_Sr24Ta24N11O13
_symmetry_space_group_name_H-M   'P 1'
_cell_length_a   16.72876142
_cell_length_b   17.71577129
_cell_length_c   14.90334064
_cell_angle_alpha   88.33608510
_cell_angle_beta   89.82001119
_cell_angle_gamma   89.34113616
_symmetry_Int_Tables_number   1
_chemical_formula_structural   Sr24Ta24N11O13
_chemical_formula_sum   'Sr72 Ta72 N33 O39'
_cell_volume   4414.62574341
_cell_formula_units_Z   3
loop_
 _symmetry_equiv_pos_site_id
 _symmetry_equiv_pos_as_xyz
  1  'x, y, z'
loop_
 _atom_site_type_symbol
 _atom_site_label
 _atom_site_symmetry_multiplicity
 _atom_site_fract_x
 _atom_site_fract_y
 _atom_site_fract_z
 _atom_site_occupancy
  Sr  Sr0  1  -0.01819736  0.15366163  0.09128998  1
  Sr  Sr1  1  -0.01046698  0.12344292  0.65301411  1
  Sr  Sr2  1  -0.00148591  0.44936370  0.15601717  1
  Sr  Sr3  1  -0.00736313  0.49575005  0.63639761  1
  Sr  Sr4  1  -0.00965419  0.82807221  0.16210786  1
  Sr  Sr5  1  -0.02540493  0.83456606  0.60171740  1
  Sr  Sr6  1  0.33478940  0.16014010  0.14545226  1
  Sr  Sr7  1  0.32369345  0.15039337  0.59967515  1
  Sr  Sr8  1  0.32144699  0.49633148  0.09749054  1
  Sr  Sr9  1  0.33315039  0.44633448  0.67496113  1
  Sr  Sr10  1  0.32603843  0.78909115  0.16631265  1
  Sr  Sr11  1  0.33275804  0.83434767  0.62916478  1
  Sr  Sr12  1  0.66250885  0.11099032  0.16960894  1
  Sr  Sr13  1  0.65800799  0.15433796  0.63004147  1
  Sr  Sr14  1  0.65688837  0.49520529  0.14527219  1
  Sr  Sr15  1  0.64868014  0.49132153  0.61031584  1
  Sr  Sr16  1  0.64485374  0.82300525  0.08644260  1
  Sr  Sr17  1  0.65424449  0.81433096  0.62771669  1
  Sr  Sr18  1  0.17158916  0.05438922  0.08352170  1
  Sr  Sr19  1  0.18753235  0.00860686  0.64650130  1
  Sr  Sr20  1  0.18779532  0.34772038  0.14293340  1
  Sr  Sr21  1  0.16931657  0.33231331  0.60846359  1
  Sr  Sr22  1  0.17187243  0.67265897  0.11240592  1
  Sr  Sr23  1  0.16822564  0.71676215  0.60507399  1
  Sr  Sr24  1  0.49908729  0.00298590  0.11950863  1
  Sr  Sr25  1  0.49932432  0.03607950  0.57714318  1
  Sr  Sr26  1  0.50173748  0.38197764  0.07168701  1
  Sr  Sr27  1  0.51696723  0.33755182  0.65502522  1
  Sr  Sr28  1  0.51336897  0.67757738  0.15508830  1
  Sr  Sr29  1  0.50981025  0.67658652  0.61334088  1
  Sr  Sr30  1  0.85115195  0.00511000  0.15536609  1
  Sr  Sr31  1  0.81661958  -0.01924577  0.61472351  1
  Sr  Sr32  1  0.83727741  0.34230644  0.11069753  1
  Sr  Sr33  1  0.83232624  0.38313308  0.59361944  1
  Sr  Sr34  1  0.83603246  0.71842949  0.08217943  1
  Sr  Sr35  1  0.83374760  0.69892619  0.64481338  1
  Sr  Sr36  1  -0.02472271  0.14090310  0.38453414  1
  Sr  Sr37  1  0.00355478  0.16730808  0.87449509  1
  Sr  Sr38  1  0.00157482  0.48071897  0.39042685  1
  Sr  Sr39  1  -0.01740309  0.49113210  0.85620968  1
  Sr  Sr40  1  0.00316105  0.83589456  0.37897680  1
  Sr  Sr41  1  0.02740466  0.76641576  0.96412242  1
  Sr  Sr42  1  0.32016897  0.18284484  0.36950760  1
  Sr  Sr43  1  0.34058363  0.11597411  0.92464329  1
  Sr  Sr44  1  0.30493742  0.46799853  0.38778921  1
  Sr  Sr45  1  0.32680056  0.50004202  0.88690661  1
  Sr  Sr46  1  0.32199452  0.78537233  0.39809314  1
  Sr  Sr47  1  0.31802562  0.82605418  0.85377093  1
  Sr  Sr48  1  0.66810869  0.15252959  0.39061178  1
  Sr  Sr49  1  0.65132877  0.15683979  0.85072543  1
  Sr  Sr50  1  0.66399802  0.50367852  0.37384240  1
  Sr  Sr51  1  0.66551925  0.45146656  0.91647831  1
  Sr  Sr52  1  0.61814423  0.77886486  0.35654396  1
  Sr  Sr53  1  0.70493510  0.82928922  0.85776555  1
  Sr  Sr54  1  0.18531868  0.03864431  0.37041578  1
  Sr  Sr55  1  0.18583387  -0.00024057  0.86616600  1
  Sr  Sr56  1  0.15216228  0.33035954  0.37828226  1
  Sr  Sr57  1  0.16204203  0.37864113  0.82317042  1
  Sr  Sr58  1  0.15722044  0.69123406  0.36243803  1
  Sr  Sr59  1  0.18997050  0.67151138  0.89034269  1
  Sr  Sr60  1  0.49240749  0.05950513  0.33794134  1
  Sr  Sr61  1  0.51175374  0.00550446  0.90725919  1
  Sr  Sr62  1  0.53032840  0.36141593  0.36857025  1
  Sr  Sr63  1  0.51074612  0.32472334  0.86541802  1
  Sr  Sr64  1  0.48529618  0.64492901  0.38779323  1
  Sr  Sr65  1  0.51217400  0.71676569  0.84740265  1
  Sr  Sr66  1  0.82957902  0.01136918  0.37987270  1
  Sr  Sr67  1  0.83428812  0.03987641  0.83035551  1
  Sr  Sr68  1  0.82796541  0.36933580  0.35549209  1
  Sr  Sr69  1  0.84835530  0.32878306  0.89680991  1
  Sr  Sr70  1  0.86269994  0.69604279  0.36117693  1
  Sr  Sr71  1  0.84309031  0.66659597  0.86886114  1
  Ta  Ta72  1  0.17932763  0.22882454  -0.02522510  1
  Ta  Ta73  1  0.12719589  0.16624071  0.51037381  1
  Ta  Ta74  1  0.13161256  0.49748919  -0.00554580  1
  Ta  Ta75  1  0.16344136  0.54208132  0.52608146  1
  Ta  Ta76  1  0.17580037  0.86754191  0.02967810  1
  Ta  Ta77  1  0.16662172  0.88395924  0.49809269  1
  Ta  Ta78  1  0.51160060  0.18777489  0.02004064  1
  Ta  Ta79  1  0.50062176  0.21653814  0.50238627  1
  Ta  Ta80  1  0.50547936  0.55696983  -0.01565298  1
  Ta  Ta81  1  0.46035553  0.48915134  0.51419991  1
  Ta  Ta82  1  0.45592807  0.83221812  0.01329811  1
  Ta  Ta83  1  0.48967815  0.87492970  0.47194898  1
  Ta  Ta84  1  0.78906640  0.15129607  0.00125491  1
  Ta  Ta85  1  0.82856228  0.20498030  0.51907913  1
  Ta  Ta86  1  0.83343207  0.53088586  0.03073274  1
  Ta  Ta87  1  0.83556552  0.55510975  0.49208079  1
  Ta  Ta88  1  0.85229893  0.89502536  -0.01264044  1
  Ta  Ta89  1  0.77603790  0.83563887  0.45288792  1
  Ta  Ta90  1  0.12273438  0.17968037  0.24613970  1
  Ta  Ta91  1  0.19012710  0.18879491  0.77827443  1
  Ta  Ta92  1  0.16253749  0.52856377  0.24778899  1
  Ta  Ta93  1  0.16933877  0.55691184  0.73096798  1
  Ta  Ta94  1  0.17258641  0.88730032  0.25290901  1
  Ta  Ta95  1  0.11489419  0.83628194  0.76344148  1
  Ta  Ta96  1  0.51228688  0.22992666  0.22048764  1
  Ta  Ta97  1  0.46838138  0.15097593  0.75765219  1
  Ta  Ta98  1  0.46080276  0.50112871  0.24465544  1
  Ta  Ta99  1  0.50821372  0.52857058  0.78353152  1
  Ta  Ta100  1  0.47891154  0.87159226  0.26709001  1
  Ta  Ta101  1  0.49735486  0.88725124  0.74314243  1
  Ta  Ta102  1  0.82826711  0.19918648  0.25593259  1
  Ta  Ta103  1  0.83153913  0.21570055  0.72176119  1
  Ta  Ta104  1  0.84112010  0.55258369  0.23510903  1
  Ta  Ta105  1  0.79793200  0.50201720  0.76222824  1
  Ta  Ta106  1  0.78613107  0.83941674  0.25349931  1
  Ta  Ta107  1  0.92542989  0.84166929  0.81906787  1
  Ta  Ta108  1  0.04121751  0.00419613  0.23728701  1
  Ta  Ta109  1  0.00885994  -0.03810285  0.77311926  1
  Ta  Ta110  1  -0.00910041  0.28152978  0.24731268  1
  Ta  Ta111  1  -0.02181944  0.30632902  0.72502038  1
  Ta  Ta112  1  0.00325548  0.62753114  0.22974438  1
  Ta  Ta113  1  0.02155513  0.68328378  0.75947478  1
  Ta  Ta114  1  0.32941798  -0.03234125  0.24767233  1
  Ta  Ta115  1  0.37493626  -0.00023708  0.73959923  1
  Ta  Ta116  1  0.37430134  0.34086427  0.23452957  1
  Ta  Ta117  1  0.33092711  0.26641041  0.77723593  1
  Ta  Ta118  1  0.32317344  0.61496583  0.25267610  1
  Ta  Ta119  1  0.33944377  0.63497862  0.73683511  1
  Ta  Ta120  1  0.65382760  -0.06193990  0.26240549  1
  Ta  Ta121  1  0.63052709  -0.01582261  0.73344525  1
  Ta  Ta122  1  0.67283582  0.29336514  0.22467511  1
  Ta  Ta123  1  0.70753432  0.32858479  0.75248846  1
  Ta  Ta124  1  0.71095593  0.66300097  0.23286348  1
  Ta  Ta125  1  0.66649718  0.61875466  0.76514598  1
  Ta  Ta126  1  0.00891433  -0.04581115  -0.02366704  1
  Ta  Ta127  1  0.03581295  -0.00490424  0.50301322  1
  Ta  Ta128  1  0.03999653  0.33375349  -0.01709578  1
  Ta  Ta129  1  -0.01379396  0.28549954  0.51923834  1
  Ta  Ta130  1  -0.00903539  0.60028901  0.03315013  1
  Ta  Ta131  1  0.00339171  0.64404499  0.49720637  1
  Ta  Ta132  1  0.32548994  -0.05763514  0.03026330  1
  Ta  Ta133  1  0.34005179  -0.02924092  0.47102829  1
  Ta  Ta134  1  0.32753585  0.30469003  -0.03037133  1
  Ta  Ta135  1  0.37429532  0.32368235  0.50791303  1
  Ta  Ta136  1  0.37220649  0.67167034  -0.00344321  1
  Ta  Ta137  1  0.32241102  0.60757264  0.53516218  1
  Ta  Ta138  1  0.70536072  0.00463683  -0.00518560  1
  Ta  Ta139  1  0.64463612  -0.04681870  0.45857880  1
  Ta  Ta140  1  0.66773228  0.27124775  0.01810425  1
  Ta  Ta141  1  0.67555029  0.30705604  0.50470761  1
  Ta  Ta142  1  0.66464006  0.63376560  -0.01756544  1
  Ta  Ta143  1  0.69892141  0.65893821  0.49954487  1
  N  N144  1  0.33250267  0.64824797  0.12304001  1
  N  N145  1  0.00439794  0.33190713  0.85800833  1
  N  N146  1  0.85932679  0.79818894  0.92785219  1
  N  N147  1  0.66619412  0.34188601  0.62744651  1
  N  N148  1  0.00312620  0.68855099  0.11572066  1
  N  N149  1  0.68264104  0.68820535  0.86662566  1
  N  N150  1  0.16770096  0.49788890  0.12178450  1
  N  N151  1  0.34031387  0.03453345  0.36201489  1
  N  N152  1  0.34549592  -0.00292887  0.61094119  1
  N  N153  1  0.49853886  0.14041862  0.15062581  1
  N  N154  1  0.85573493  0.86117211  0.35567694  1
  N  N155  1  0.16178577  0.52428555  0.85626853  1
  N  N156  1  0.33375672  0.01743749  0.12525665  1
  N  N157  1  0.49714683  0.52003319  0.11896692  1
  N  N158  1  0.83678936  0.51642022  0.37192360  1
  N  N159  1  0.15326305  0.85545413  0.63869958  1
  N  N160  1  0.66268665  0.01948354  0.35062326  1
  N  N161  1  0.67429094  0.30596089  0.89098561  1
  N  N162  1  0.82242168  0.47454869  0.14471385  1
  N  N163  1  0.34249174  0.66648104  0.85993272  1
  N  N164  1  0.17335017  0.13813640  0.89819945  1
  N  N165  1  0.48146823  0.49902061  0.38692184  1
  N  N166  1  0.66933917  0.65578452  0.62723724  1
  N  N167  1  0.49947544  0.18011788  0.63031694  1
  N  N168  1  0.49143335  0.83454960  0.14514776  1
  N  N169  1  0.15173212  0.18145905  0.38081877  1
  N  N170  1  0.49768133  0.47084301  0.89633524  1
  N  N171  1  0.01019569  0.65505990  0.36813070  1
  N  N172  1  0.01106371  0.35791740  0.61236400  1
  N  N173  1  0.82365155  0.17624887  0.38556911  1
  N  N174  1  0.49931144  0.15961139  0.89367729  1
  N  N175  1  0.67046496  0.67450295  0.11179211  1
  N  N176  1  0.16675537  0.83993607  0.37204425  1
  O  O177  1  0.82709043  0.52184695  0.63324447  1
  O  O178  1  0.01657259  -0.00126582  0.36671822  1
  O  O179  1  0.82877084  0.17719343  0.87353175  1
  O  O180  1  0.16835280  0.83699882  0.89396971  1
  O  O181  1  0.17028616  0.19516414  0.12016387  1
  O  O182  1  0.00859117  -0.01860768  0.63408282  1
  O  O183  1  0.15187322  0.47112534  0.64183396  1
  O  O184  1  0.02919347  0.03204131  0.87927686  1
  O  O185  1  0.33147868  0.36489498  0.84597923  1
  O  O186  1  0.83154949  0.12997327  0.62561814  1
  O  O187  1  0.49521330  0.48912258  0.65172782  1
  O  O188  1  0.83156345  0.14803188  0.12879570  1
  O  O189  1  0.00011933  0.64359755  0.88783537  1
  O  O190  1  0.36679893  0.33170919  0.36653512  1
  O  O191  1  0.82298980  0.49336758  0.89433193  1
  O  O192  1  0.14829046  0.81292521  0.14586478  1
  O  O193  1  0.01746092  0.00776292  0.10444865  1
  O  O194  1  0.67659870  0.31094129  0.35969512  1
  O  O195  1  0.34444866  0.33459807  0.10014318  1
  O  O196  1  -0.00790869  0.30403392  0.38052737  1
  O  O197  1  0.35326691  0.69518710  0.61198565  1
  O  O198  1  0.64697163  -0.02109511  0.60036250  1
  O  O199  1  0.46918563  0.79054106  0.37611433  1
  O  O200  1  0.68182253  0.35949550  0.10794110  1
  O  O201  1  0.49715508  0.86173054  0.60681888  1
  O  O202  1  0.83988371  0.86209764  0.12252124  1
  O  O203  1  0.33525832  -0.02385114  0.88735840  1
  O  O204  1  0.48293404  0.85854123  0.88241287  1
  O  O205  1  0.81774183  0.84051380  0.57373915  1
  O  O206  1  0.32750824  0.63403316  0.39260614  1
  O  O207  1  0.15839046  0.52457752  0.39410330  1
  O  O208  1  0.50853434  0.20341566  0.35794412  1
  O  O209  1  0.66177869  -0.02485747  0.11837277  1
  O  O210  1  0.00598642  0.68834980  0.62807213  1
  O  O211  1  -0.00829283  0.30308912  0.10848437  1
  O  O212  1  0.34336937  0.30715926  0.63884114  1
  O  O213  1  0.66421949  -0.00281945  0.86341517  1
  O  O214  1  0.66047723  0.64550028  0.36265579  1
  O  O215  1  0.16665206  0.17669972  0.63909997  1
