# generated using pymatgen
data_Sr24Ta24N11O13
_symmetry_space_group_name_H-M   'P 1'
_cell_length_a   16.80920521
_cell_length_b   16.84804712
_cell_length_c   15.65823789
_cell_angle_alpha   89.99593342
_cell_angle_beta   90.15439276
_cell_angle_gamma   90.31041345
_symmetry_Int_Tables_number   1
_chemical_formula_structural   Sr24Ta24N11O13
_chemical_formula_sum   'Sr72 Ta72 N33 O39'
_cell_volume   4434.36750721
_cell_formula_units_Z   3
loop_
 _symmetry_equiv_pos_site_id
 _symmetry_equiv_pos_as_xyz
  1  'x, y, z'
loop_
 _atom_site_type_symbol
 _atom_site_label
 _atom_site_symmetry_multiplicity
 _atom_site_fract_x
 _atom_site_fract_y
 _atom_site_fract_z
 _atom_site_occupancy
  Sr  Sr0  1  0.01746573  0.15903511  0.16820495  1
  Sr  Sr1  1  0.00509591  0.14536457  0.61354796  1
  Sr  Sr2  1  -0.01724945  0.48164119  0.08020131  1
  Sr  Sr3  1  0.01170573  0.49707204  0.63473857  1
  Sr  Sr4  1  0.00339720  0.81692133  0.13017897  1
  Sr  Sr5  1  0.02180248  0.81876622  0.62239819  1
  Sr  Sr6  1  0.32602028  0.17293685  0.08031732  1
  Sr  Sr7  1  0.33776060  0.18660683  0.63829725  1
  Sr  Sr8  1  0.33524330  0.49549189  0.13232876  1
  Sr  Sr9  1  0.33436477  0.52077493  0.57624395  1
  Sr  Sr10  1  0.34109101  0.84302927  0.11843611  1
  Sr  Sr11  1  0.34485170  0.83227269  0.66428636  1
  Sr  Sr12  1  0.65429253  0.17389467  0.12574294  1
  Sr  Sr13  1  0.69367596  0.12852283  0.62078832  1
  Sr  Sr14  1  0.66743038  0.49683674  0.16470503  1
  Sr  Sr15  1  0.65883359  0.48179822  0.62637141  1
  Sr  Sr16  1  0.67677685  0.79908058  0.10748950  1
  Sr  Sr17  1  0.67332121  0.83604505  0.62256872  1
  Sr  Sr18  1  0.15741767  -0.01685447  0.13569969  1
  Sr  Sr19  1  0.16114114  0.00899553  0.57200787  1
  Sr  Sr20  1  0.17765369  0.34293043  0.11286356  1
  Sr  Sr21  1  0.16282830  0.32230132  0.66641671  1
  Sr  Sr22  1  0.17049310  0.64857545  0.16062759  1
  Sr  Sr23  1  0.15629108  0.65885127  0.61157378  1
  Sr  Sr24  1  0.49830819  0.02258157  0.12488371  1
  Sr  Sr25  1  0.46231317  0.01818517  0.64576910  1
  Sr  Sr26  1  0.51687722  0.35630254  0.16991791  1
  Sr  Sr27  1  0.49533532  0.33788242  0.61110840  1
  Sr  Sr28  1  0.48165651  0.67312543  0.08708710  1
  Sr  Sr29  1  0.51001297  0.68880129  0.63765923  1
  Sr  Sr30  1  0.81134165  0.03876343  0.14473512  1
  Sr  Sr31  1  0.84639336  -0.01148612  0.64075484  1
  Sr  Sr32  1  0.83071994  0.33395583  0.09493650  1
  Sr  Sr33  1  0.83733862  0.37131187  0.62454997  1
  Sr  Sr34  1  0.83787612  0.66702680  0.13161233  1
  Sr  Sr35  1  0.81451349  0.68710903  0.59620016  1
  Sr  Sr36  1  0.00584317  0.15592840  0.38048638  1
  Sr  Sr37  1  -0.00069385  0.14281121  0.84521117  1
  Sr  Sr38  1  -0.00782208  0.49104103  0.41307283  1
  Sr  Sr39  1  0.01071891  0.49609551  0.85845213  1
  Sr  Sr40  1  0.02075662  0.80694080  0.36149009  1
  Sr  Sr41  1  -0.00085948  0.83435908  0.88131486  1
  Sr  Sr42  1  0.34580077  0.15564528  0.42154454  1
  Sr  Sr43  1  0.34368468  0.18977627  0.85959844  1
  Sr  Sr44  1  0.31965968  0.48729954  0.35669983  1
  Sr  Sr45  1  0.34046329  0.50419844  0.91041418  1
  Sr  Sr46  1  0.35040327  0.85552248  0.33736111  1
  Sr  Sr47  1  0.33914417  0.82667563  0.87763635  1
  Sr  Sr48  1  0.65995372  0.14795827  0.34707516  1
  Sr  Sr49  1  0.68882001  0.16516280  0.90302057  1
  Sr  Sr50  1  0.66648183  0.47284264  0.37599123  1
  Sr  Sr51  1  0.65283654  0.48826063  0.83380160  1
  Sr  Sr52  1  0.67314520  0.82069246  0.40680645  1
  Sr  Sr53  1  0.68146821  0.81823769  0.88099066  1
  Sr  Sr54  1  0.16164371  -0.00494212  0.36202110  1
  Sr  Sr55  1  0.15497108  -0.01553036  0.91830152  1
  Sr  Sr56  1  0.15550399  0.32542635  0.33777790  1
  Sr  Sr57  1  0.17456514  0.34362484  0.88474357  1
  Sr  Sr58  1  0.16220116  0.64434171  0.38916536  1
  Sr  Sr59  1  0.15396494  0.67851997  0.82594181  1
  Sr  Sr60  1  0.49286511  0.00572192  0.34875996  1
  Sr  Sr61  1  0.49159959  0.03474225  0.88962923  1
  Sr  Sr62  1  0.50170781  0.33503008  0.38605223  1
  Sr  Sr63  1  0.51410098  0.34173689  0.83650975  1
  Sr  Sr64  1  0.49753081  0.69284443  0.40777419  1
  Sr  Sr65  1  0.49903344  0.67414512  0.87065350  1
  Sr  Sr66  1  0.80746452  0.02168327  0.39939681  1
  Sr  Sr67  1  0.82827355  0.00484132  0.85158697  1
  Sr  Sr68  1  0.84169821  0.35300254  0.40752980  1
  Sr  Sr69  1  0.82599531  0.35482187  0.87284016  1
  Sr  Sr70  1  0.81753768  0.67279863  0.34791507  1
  Sr  Sr71  1  0.84984733  0.67890591  0.92350846  1
  Ta  Ta72  1  0.13376397  0.16588509  0.00190925  1
  Ta  Ta73  1  0.17028089  0.20533987  0.49978814  1
  Ta  Ta74  1  0.16572866  0.53899803  -0.01072375  1
  Ta  Ta75  1  0.16534498  0.44821454  0.50114445  1
  Ta  Ta76  1  0.16944290  0.79071018  0.00476252  1
  Ta  Ta77  1  0.21266176  0.82929922  0.49735302  1
  Ta  Ta78  1  0.50674273  0.22105313  0.00159018  1
  Ta  Ta79  1  0.53111428  0.15805811  0.49897795  1
  Ta  Ta80  1  0.52359632  0.48434496  -0.00485844  1
  Ta  Ta81  1  0.51344181  0.52504438  0.48875025  1
  Ta  Ta82  1  0.51290105  0.86651980  0.00034127  1
  Ta  Ta83  1  0.47883904  0.86545325  0.50437452  1
  Ta  Ta84  1  0.88128454  0.16172635  0.00004919  1
  Ta  Ta85  1  0.83809646  0.19448665  0.51153323  1
  Ta  Ta86  1  0.77624333  0.50539901  -0.00162353  1
  Ta  Ta87  1  0.81727403  0.53667406  0.49478128  1
  Ta  Ta88  1  0.83728470  0.88226292  0.01618622  1
  Ta  Ta89  1  0.86645667  0.83770707  0.49349499  1
  Ta  Ta90  1  0.21587393  0.16567908  0.25568008  1
  Ta  Ta91  1  0.16676967  0.12771530  0.74442030  1
  Ta  Ta92  1  0.10920226  0.48864568  0.25140717  1
  Ta  Ta93  1  0.20999837  0.50194469  0.74339297  1
  Ta  Ta94  1  0.18923947  0.80870968  0.25191997  1
  Ta  Ta95  1  0.16819848  0.87043395  0.74345881  1
  Ta  Ta96  1  0.45816607  0.17877333  0.24691476  1
  Ta  Ta97  1  0.54793495  0.16830915  0.75008995  1
  Ta  Ta98  1  0.49229551  0.55262993  0.26282325  1
  Ta  Ta99  1  0.45912623  0.51327344  0.74582645  1
  Ta  Ta100  1  0.52916955  0.81926276  0.25431033  1
  Ta  Ta101  1  0.52652731  0.86823606  0.75273312  1
  Ta  Ta102  1  0.84201651  0.20787907  0.26319874  1
  Ta  Ta103  1  0.83751646  0.19712958  0.73724619  1
  Ta  Ta104  1  0.85896654  0.48370536  0.25187819  1
  Ta  Ta105  1  0.83037185  0.55844376  0.75298413  1
  Ta  Ta106  1  0.82781086  0.86457714  0.24441963  1
  Ta  Ta107  1  0.83948029  0.79150302  0.75329664  1
  Ta  Ta108  1  -0.03880531  -0.02455314  0.26437520  1
  Ta  Ta109  1  0.04608828  -0.01402504  0.73795509  1
  Ta  Ta110  1  -0.02465605  0.34911853  0.25320003  1
  Ta  Ta111  1  -0.01947837  0.30773480  0.74391620  1
  Ta  Ta112  1  -0.00632676  0.61589491  0.25106047  1
  Ta  Ta113  1  -0.04023666  0.66832157  0.74663788  1
  Ta  Ta114  1  0.32666926  0.04724800  0.24394263  1
  Ta  Ta115  1  0.27206349  0.00408595  0.74926195  1
  Ta  Ta116  1  0.33774326  0.29543349  0.25067693  1
  Ta  Ta117  1  0.33903629  0.38831580  0.74209043  1
  Ta  Ta118  1  0.35484274  0.67683950  0.24910548  1
  Ta  Ta119  1  0.33362046  0.63199796  0.75201956  1
  Ta  Ta120  1  0.66643345  -0.05301145  0.25671252  1
  Ta  Ta121  1  0.63604044  -0.00362340  0.75540444  1
  Ta  Ta122  1  0.71042091  0.31980809  0.25583641  1
  Ta  Ta123  1  0.68218837  0.28826884  0.73226985  1
  Ta  Ta124  1  0.61979614  0.67000568  0.25181531  1
  Ta  Ta125  1  0.70516236  0.67005120  0.75425428  1
  Ta  Ta126  1  -0.02733880  0.01260233  0.00896912  1
  Ta  Ta127  1  -0.02132081  -0.03582164  0.48873743  1
  Ta  Ta128  1  0.00723103  0.28429908  -0.00256772  1
  Ta  Ta129  1  0.02767306  0.31727046  0.50251102  1
  Ta  Ta130  1  0.04260968  0.66066946  -0.00390301  1
  Ta  Ta131  1  -0.03347249  0.66428780  0.49832824  1
  Ta  Ta132  1  0.33628617  -0.00530771  -0.00084817  1
  Ta  Ta133  1  0.33878709  -0.04014973  0.49828731  1
  Ta  Ta134  1  0.39510075  0.34216468  0.00109577  1
  Ta  Ta135  1  0.29350540  0.33697420  0.50238656  1
  Ta  Ta136  1  0.28340065  0.66724252  -0.00601691  1
  Ta  Ta137  1  0.33516404  0.71715756  0.50285255  1
  Ta  Ta138  1  0.66603066  -0.02595089  0.00559338  1
  Ta  Ta139  1  0.61346465  -0.00150730  0.49830279  1
  Ta  Ta140  1  0.64555213  0.35901980  0.00698328  1
  Ta  Ta141  1  0.67369999  0.28518775  0.50297612  1
  Ta  Ta142  1  0.65710087  0.61255601  -0.00254206  1
  Ta  Ta143  1  0.66002147  0.63005905  0.49940177  1
  N  N144  1  0.33472617  0.34512279  0.62368534  1
  N  N145  1  -0.00708087  0.65081009  0.37257073  1
  N  N146  1  0.51855786  0.18524819  0.86940922  1
  N  N147  1  0.50492242  0.84031582  0.37475104  1
  N  N148  1  0.82552995  0.50755935  0.36987683  1
  N  N149  1  0.00824482  -0.01446920  0.61780408  1
  N  N150  1  0.15316752  0.48465275  0.36731446  1
  N  N151  1  0.00878110  0.00149187  0.37286308  1
  N  N152  1  0.67005543  0.33751976  0.12711933  1
  N  N153  1  -0.00467206  0.33746911  0.62677747  1
  N  N154  1  0.17787526  0.83395067  0.62410892  1
  N  N155  1  0.84942702  0.14212830  0.62782332  1
  N  N156  1  0.84389221  0.17505272  0.38205888  1
  N  N157  1  0.49802877  0.18411708  0.12685646  1
  N  N158  1  0.49993832  0.50573293  0.87267963  1
  N  N159  1  0.16932540  0.49513481  0.61734043  1
  N  N160  1  0.32345862  0.00889544  0.12120887  1
  N  N161  1  0.50433336  0.84567932  0.63247485  1
  N  N162  1  0.17384381  0.83438278  0.37348659  1
  N  N163  1  0.16758194  0.82750475  0.12506067  1
  N  N164  1  0.67230707  0.31763893  0.37491359  1
  N  N165  1  0.32464994  0.66955547  0.87135675  1
  N  N166  1  0.66899251  0.33469998  0.61983842  1
  N  N167  1  -0.00227130  0.32795496  0.37303470  1
  N  N168  1  0.17483364  0.16210015  0.62264291  1
  N  N169  1  0.65263487  -0.01820754  0.37732357  1
  N  N170  1  0.17875324  0.16504373  0.37609822  1
  N  N171  1  0.16891119  0.50482913  0.86904659  1
  N  N172  1  -0.00291970  0.65903237  0.62560786  1
  N  N173  1  0.00250966  0.66246211  0.87793471  1
  N  N174  1  0.83407107  0.82345249  0.12129220  1
  N  N175  1  0.49960595  0.16822364  0.37936351  1
  N  N176  1  0.49281220  0.49185635  0.36878408  1
  O  O177  1  0.15071958  0.15102016  0.87936911  1
  O  O178  1  0.67187009  0.33637700  0.85610775  1
  O  O179  1  0.49433300  0.50969714  0.13932580  1
  O  O180  1  -0.00433295  0.65239604  0.12180046  1
  O  O181  1  0.65532907  0.66561150  0.37374286  1
  O  O182  1  0.66134984  -0.01700056  0.13188320  1
  O  O183  1  0.50528352  0.84611575  0.12507038  1
  O  O184  1  0.49273112  0.51713537  0.61661709  1
  O  O185  1  0.16211072  0.83245928  0.87879906  1
  O  O186  1  0.84860360  0.83231065  0.62820831  1
  O  O187  1  0.00324223  -0.00644913  0.88234612  1
  O  O188  1  0.33126429  0.66325779  0.12352170  1
  O  O189  1  0.16627854  0.17270116  0.12627540  1
  O  O190  1  -0.00246036  0.31428336  0.12134534  1
  O  O191  1  0.82032559  0.49346008  0.12039015  1
  O  O192  1  0.34679667  0.69921565  0.37162146  1
  O  O193  1  0.64454918  -0.01237703  0.62287495  1
  O  O194  1  0.66814640  0.00064108  0.88175783  1
  O  O195  1  0.81957161  0.51377845  0.87542551  1
  O  O196  1  0.33671598  0.68377116  0.62643637  1
  O  O197  1  0.83400473  0.82685267  0.37084572  1
  O  O198  1  0.33518193  0.32627078  0.37456571  1
  O  O199  1  -0.01534520  0.00819532  0.13714155  1
  O  O200  1  0.84654950  0.16000003  0.87366042  1
  O  O201  1  0.86448325  0.17945867  0.12726488  1
  O  O202  1  0.31485015  -0.00359339  0.62094108  1
  O  O203  1  0.30814424  0.00310413  0.87414367  1
  O  O204  1  0.49415174  0.17208955  0.63061477  1
  O  O205  1  0.65977729  0.65824164  0.87592828  1
  O  O206  1  0.66337388  0.65055431  0.63359252  1
  O  O207  1  0.50560813  0.84163145  0.87841184  1
  O  O208  1  0.33308373  0.00441498  0.37578134  1
  O  O209  1  0.01173212  0.30770489  0.87273708  1
  O  O210  1  0.81900680  0.52145212  0.63009059  1
  O  O211  1  0.34512023  0.33097795  0.12261816  1
  O  O212  1  0.35910180  0.34809110  0.87532029  1
  O  O213  1  0.83917259  0.83429174  0.89117167  1
  O  O214  1  0.15285875  0.49515338  0.12612836  1
  O  O215  1  0.63392862  0.65145784  0.12237817  1
