# generated using pymatgen
data_Sr24Ta24N11O13
_symmetry_space_group_name_H-M   'P 1'
_cell_length_a   16.73573542
_cell_length_b   16.79951200
_cell_length_c   15.78352930
_cell_angle_alpha   90.19373618
_cell_angle_beta   90.03833676
_cell_angle_gamma   90.11256872
_symmetry_Int_Tables_number   1
_chemical_formula_structural   Sr24Ta24N11O13
_chemical_formula_sum   'Sr72 Ta72 N33 O39'
_cell_volume   4437.53885064
_cell_formula_units_Z   3
loop_
 _symmetry_equiv_pos_site_id
 _symmetry_equiv_pos_as_xyz
  1  'x, y, z'
loop_
 _atom_site_type_symbol
 _atom_site_label
 _atom_site_symmetry_multiplicity
 _atom_site_fract_x
 _atom_site_fract_y
 _atom_site_fract_z
 _atom_site_occupancy
  Sr  Sr0  1  0.00571789  0.17660305  0.12291248  1
  Sr  Sr1  1  -0.01442691  0.17319244  0.60614887  1
  Sr  Sr2  1  -0.00378430  0.53291718  0.08484595  1
  Sr  Sr3  1  0.00041274  0.50077605  0.62630468  1
  Sr  Sr4  1  0.00229359  0.82478555  0.16514948  1
  Sr  Sr5  1  -0.00779597  0.85080283  0.63314979  1
  Sr  Sr6  1  0.32597697  0.16616240  0.15977393  1
  Sr  Sr7  1  0.32317806  0.16460911  0.61823494  1
  Sr  Sr8  1  0.32227116  0.49623189  0.11789430  1
  Sr  Sr9  1  0.32655220  0.52071788  0.67346828  1
  Sr  Sr10  1  0.34673795  0.83659027  0.12237658  1
  Sr  Sr11  1  0.32566987  0.82554562  0.58449365  1
  Sr  Sr12  1  0.65582440  0.17619039  0.13007026  1
  Sr  Sr13  1  0.66714849  0.17999398  0.62224912  1
  Sr  Sr14  1  0.67872109  0.51516938  0.14483510  1
  Sr  Sr15  1  0.64937437  0.50533730  0.60998588  1
  Sr  Sr16  1  0.67757141  0.84360627  0.09213058  1
  Sr  Sr17  1  0.66134326  0.85438585  0.64100345  1
  Sr  Sr18  1  0.16885844  -0.01438302  0.10715326  1
  Sr  Sr19  1  0.18138394  -0.00579933  0.63436069  1
  Sr  Sr20  1  0.17498949  0.31927696  0.14824976  1
  Sr  Sr21  1  0.17011334  0.32021508  0.61086719  1
  Sr  Sr22  1  0.17482257  0.65695962  0.10452976  1
  Sr  Sr23  1  0.15165235  0.65967763  0.64091954  1
  Sr  Sr24  1  0.50968306  -0.00864756  0.11193987  1
  Sr  Sr25  1  0.51220779  0.01707492  0.67181022  1
  Sr  Sr26  1  0.49730585  0.34744549  0.09779668  1
  Sr  Sr27  1  0.50213650  0.32515728  0.60011485  1
  Sr  Sr28  1  0.49409870  0.65190792  0.16938946  1
  Sr  Sr29  1  0.50105160  0.68172699  0.61459056  1
  Sr  Sr30  1  0.85232723  -0.01311369  0.11412556  1
  Sr  Sr31  1  0.83586808  -0.00348178  0.60848392  1
  Sr  Sr32  1  0.84400661  0.31117756  0.12535622  1
  Sr  Sr33  1  0.82086668  0.33101120  0.66392553  1
  Sr  Sr34  1  0.82699732  0.67088225  0.13006988  1
  Sr  Sr35  1  0.83222818  0.61847847  0.57386501  1
  Sr  Sr36  1  -0.00551813  0.18476880  0.36481608  1
  Sr  Sr37  1  -0.00028820  0.15974834  0.91053300  1
  Sr  Sr38  1  0.00988439  0.51319044  0.41731874  1
  Sr  Sr39  1  -0.00629987  0.51853861  0.87024742  1
  Sr  Sr40  1  -0.01317235  0.84264773  0.36621724  1
  Sr  Sr41  1  0.01696381  0.82900193  0.82842635  1
  Sr  Sr42  1  0.32899824  0.17807076  0.38844780  1
  Sr  Sr43  1  0.31987322  0.15361192  0.83027376  1
  Sr  Sr44  1  0.31549542  0.50666953  0.33631205  1
  Sr  Sr45  1  0.33017266  0.49432623  0.88663972  1
  Sr  Sr46  1  0.35540331  0.82909482  0.37516730  1
  Sr  Sr47  1  0.32530128  0.84190493  0.91843468  1
  Sr  Sr48  1  0.66782207  0.16866894  0.36807099  1
  Sr  Sr49  1  0.64863153  0.18507261  0.88320377  1
  Sr  Sr50  1  0.66721063  0.51302643  0.37532019  1
  Sr  Sr51  1  0.66618928  0.50619619  0.87344408  1
  Sr  Sr52  1  0.66822211  0.85489314  0.39810121  1
  Sr  Sr53  1  0.66885060  0.83252366  0.87073578  1
  Sr  Sr54  1  0.19544439  -0.01986716  0.39518426  1
  Sr  Sr55  1  0.16793437  -0.00185112  0.87249716  1
  Sr  Sr56  1  0.16849726  0.32772058  0.37445159  1
  Sr  Sr57  1  0.18248898  0.31459927  0.86287675  1
  Sr  Sr58  1  0.16142083  0.66511774  0.38254644  1
  Sr  Sr59  1  0.17772826  0.64807496  0.87750015  1
  Sr  Sr60  1  0.50699593  0.01637484  0.33094304  1
  Sr  Sr61  1  0.50742904  0.00149689  0.88424040  1
  Sr  Sr62  1  0.50688972  0.33017614  0.40796123  1
  Sr  Sr63  1  0.50060513  0.34192928  0.90423589  1
  Sr  Sr64  1  0.50389288  0.66253651  0.38442491  1
  Sr  Sr65  1  0.51387164  0.65447715  0.82999470  1
  Sr  Sr66  1  0.83678183  0.00030551  0.40322778  1
  Sr  Sr67  1  0.84451385  -0.02423797  0.86997201  1
  Sr  Sr68  1  0.81582107  0.32443758  0.32346349  1
  Sr  Sr69  1  0.83677390  0.31778091  0.86845514  1
  Sr  Sr70  1  0.83250785  0.65898700  0.36050659  1
  Sr  Sr71  1  0.81992111  0.65416828  0.91720860  1
  Ta  Ta72  1  0.19566348  0.16498358  -0.00032535  1
  Ta  Ta73  1  0.14706947  0.14349743  0.50301773  1
  Ta  Ta74  1  0.15387631  0.45709815  -0.00268056  1
  Ta  Ta75  1  0.20425634  0.49988674  0.50877049  1
  Ta  Ta76  1  0.12911949  0.82450988  -0.00012188  1
  Ta  Ta77  1  0.13582737  0.82625026  0.50710984  1
  Ta  Ta78  1  0.45226724  0.16719569  -0.00431207  1
  Ta  Ta79  1  0.50258267  0.12960553  0.50146790  1
  Ta  Ta80  1  0.50680391  0.54104742  0.00280832  1
  Ta  Ta81  1  0.44838023  0.50312722  0.49906210  1
  Ta  Ta82  1  0.50396416  0.78095091  0.00175893  1
  Ta  Ta83  1  0.50606053  0.88255095  0.50373766  1
  Ta  Ta84  1  0.81102490  0.14899620  0.00329955  1
  Ta  Ta85  1  0.82945786  0.21423415  0.48968953  1
  Ta  Ta86  1  0.82883687  0.46396339  -0.00025335  1
  Ta  Ta87  1  0.83198859  0.44071403  0.48850185  1
  Ta  Ta88  1  0.87892182  0.82753398  -0.00630642  1
  Ta  Ta89  1  0.83210269  0.80411418  0.50361965  1
  Ta  Ta90  1  0.15664596  0.12017490  0.24937688  1
  Ta  Ta91  1  0.12297962  0.16361195  0.75067685  1
  Ta  Ta92  1  0.12600581  0.50346986  0.24273912  1
  Ta  Ta93  1  0.14858893  0.46547112  0.75289002  1
  Ta  Ta94  1  0.19043218  0.82757076  0.24700960  1
  Ta  Ta95  1  0.20951063  0.82807244  0.74897969  1
  Ta  Ta96  1  0.49556917  0.20825507  0.24950926  1
  Ta  Ta97  1  0.49790964  0.20733831  0.75541265  1
  Ta  Ta98  1  0.49731893  0.46540383  0.25937212  1
  Ta  Ta99  1  0.50061809  0.46033170  0.74953286  1
  Ta  Ta100  1  0.52965430  0.83338126  0.24377800  1
  Ta  Ta101  1  0.45839651  0.83572025  0.75415189  1
  Ta  Ta102  1  0.83621093  0.12556109  0.24916956  1
  Ta  Ta103  1  0.84185462  0.14227049  0.75025638  1
  Ta  Ta104  1  0.88081735  0.49921821  0.25187919  1
  Ta  Ta105  1  0.82564978  0.52091906  0.75312095  1
  Ta  Ta106  1  0.80363888  0.84359915  0.25687318  1
  Ta  Ta107  1  0.82882101  0.79329784  0.74880874  1
  Ta  Ta108  1  0.00988781  0.01552765  0.24937672  1
  Ta  Ta109  1  -0.00459623  0.03414561  0.74599884  1
  Ta  Ta110  1  0.00316778  0.38780884  0.24873352  1
  Ta  Ta111  1  0.01470854  0.32629285  0.74958884  1
  Ta  Ta112  1  0.00538740  0.63698985  0.25527392  1
  Ta  Ta113  1  -0.06517167  0.66605990  0.73955689  1
  Ta  Ta114  1  0.31866597  -0.00881283  0.24926908  1
  Ta  Ta115  1  0.34047199  -0.04281674  0.75064262  1
  Ta  Ta116  1  0.37355778  0.33530478  0.25772818  1
  Ta  Ta117  1  0.36791905  0.33639654  0.75202734  1
  Ta  Ta118  1  0.31334064  0.68547134  0.24433679  1
  Ta  Ta119  1  0.33400364  0.70922068  0.75469520  1
  Ta  Ta120  1  0.69550184  -0.00816961  0.25423113  1
  Ta  Ta121  1  0.69893196  0.03392688  0.74752794  1
  Ta  Ta122  1  0.62172528  0.34072100  0.25184273  1
  Ta  Ta123  1  0.62885501  0.34519284  0.75354367  1
  Ta  Ta124  1  0.66455211  0.71626940  0.25057835  1
  Ta  Ta125  1  0.72132803  0.66178297  0.74384958  1
  Ta  Ta126  1  0.00589617  -0.05933703  -0.00522237  1
  Ta  Ta127  1  0.03017392  0.00450879  0.50109988  1
  Ta  Ta128  1  0.00940048  0.35320608  -0.00107058  1
  Ta  Ta129  1  -0.04323536  0.33460234  0.49501714  1
  Ta  Ta130  1  -0.00054785  0.71567853  -0.00758666  1
  Ta  Ta131  1  -0.00527046  0.70176140  0.50238567  1
  Ta  Ta132  1  0.33573737  0.04143673  -0.00645980  1
  Ta  Ta133  1  0.38777994  0.00325175  0.50802790  1
  Ta  Ta134  1  0.32343731  0.29568824  -0.00315394  1
  Ta  Ta135  1  0.32983602  0.37985112  0.50008222  1
  Ta  Ta136  1  0.37801066  0.66257296  -0.00300113  1
  Ta  Ta137  1  0.32616281  0.63343592  0.50642981  1
  Ta  Ta138  1  0.68910196  0.02464384  -0.00086284  1
  Ta  Ta139  1  0.62983283  0.01575538  0.50194467  1
  Ta  Ta140  1  0.69022432  0.35191734  0.00098227  1
  Ta  Ta141  1  0.69952574  0.33513288  0.49303594  1
  Ta  Ta142  1  0.62565890  0.66437192  0.00838398  1
  Ta  Ta143  1  0.67830619  0.69763350  0.49716757  1
  N  N144  1  0.83412035  0.15736525  0.12634888  1
  N  N145  1  0.48947222  0.17267462  0.87456420  1
  N  N146  1  0.66401496  0.67354319  0.12867615  1
  N  N147  1  0.17068217  0.49061515  0.87565547  1
  N  N148  1  0.50729478  0.82886353  0.12320038  1
  N  N149  1  0.00171116  0.00504793  0.62304898  1
  N  N150  1  0.83371266  0.17002069  0.37286759  1
  N  N151  1  0.16822953  0.49388952  0.63004335  1
  N  N152  1  0.16745423  0.82698758  0.12738208  1
  N  N153  1  -0.01923035  0.66192753  0.62432819  1
  N  N154  1  0.15779839  0.15775005  0.87551954  1
  N  N155  1  0.83905652  0.82071464  0.87213797  1
  N  N156  1  0.83564042  0.49263505  0.87621238  1
  N  N157  1  -0.00431695  0.67002540  0.37380884  1
  N  N158  1  0.16077048  0.16226372  0.62438090  1
  N  N159  1  0.16453354  0.83091190  0.62812241  1
  N  N160  1  0.33431407  0.33950341  0.37526077  1
  N  N161  1  0.33600502  0.66601040  0.12483244  1
  N  N162  1  0.66238703  0.33928688  0.37187385  1
  N  N163  1  0.16619534  0.15310502  0.12734645  1
  N  N164  1  0.33548985  -0.00094833  0.87727400  1
  N  N165  1  0.33338220  0.66956922  0.62379287  1
  N  N166  1  0.16040497  0.49476853  0.12297652  1
  N  N167  1  0.34855896  -0.00286376  0.62705297  1
  N  N168  1  0.67266050  0.01708952  0.62835526  1
  N  N169  1  0.66345786  0.34162894  0.87812374  1
  N  N170  1  0.83107470  0.83367952  0.37958291  1
  N  N171  1  0.84011271  0.48821815  0.37125701  1
  N  N172  1  0.34065714  0.66739908  0.87366867  1
  N  N173  1  0.49083312  0.50195901  0.37771362  1
  N  N174  1  0.66859609  0.00970903  0.37418112  1
  N  N175  1  0.33880285  0.32728752  0.87468778  1
  N  N176  1  0.66327948  0.67939727  0.37761421  1
  O  O177  1  0.49068147  0.19061915  0.12203912  1
  O  O178  1  0.32906473  0.00541426  0.12488577  1
  O  O179  1  0.66417802  0.33959840  0.62702957  1
  O  O180  1  0.49188514  0.48212101  0.61994119  1
  O  O181  1  0.84242678  0.83070527  0.13280248  1
  O  O182  1  0.65410693  0.34068976  0.12281281  1
  O  O183  1  0.49765028  0.17202704  0.37269746  1
  O  O184  1  0.49953250  0.50118524  0.12594331  1
  O  O185  1  -0.00049997  0.32758859  0.87767332  1
  O  O186  1  0.16396770  0.50471347  0.38359388  1
  O  O187  1  0.50968884  0.86328742  0.37587353  1
  O  O188  1  0.48460894  0.82098329  0.87748646  1
  O  O189  1  0.84399883  0.15685427  0.87638781  1
  O  O190  1  0.34884437  -0.00646099  0.37268415  1
  O  O191  1  0.83243391  0.17536322  0.62460373  1
  O  O192  1  0.00253331  0.34340074  0.12546948  1
  O  O193  1  -0.01559576  0.33203484  0.62831709  1
  O  O194  1  -0.00223300  0.67693277  0.12920488  1
  O  O195  1  0.67239524  0.00782105  0.12294350  1
  O  O196  1  0.83037198  0.47791794  0.62892015  1
  O  O197  1  -0.00015966  0.00363612  0.37295486  1
  O  O198  1  0.32305331  0.66392653  0.37239228  1
  O  O199  1  0.16740746  0.15647000  0.37106315  1
  O  O200  1  0.50399155  0.49964032  0.87963482  1
  O  O201  1  0.82708819  0.84497619  0.62424898  1
  O  O202  1  0.17189788  0.82850136  0.87326971  1
  O  O203  1  -0.02152799  0.67566259  0.86954519  1
  O  O204  1  0.67813564  0.66367007  0.62388191  1
  O  O205  1  0.16344471  0.82699137  0.38023869  1
  O  O206  1  0.00832761  -0.01773830  0.12513598  1
  O  O207  1  -0.00900443  0.34357426  0.36962806  1
  O  O208  1  0.34089870  0.33804591  0.62222420  1
  O  O209  1  0.67814280  0.01328927  0.87379157  1
  O  O210  1  0.00151072  -0.01696062  0.86588084  1
  O  O211  1  0.49423801  0.84731892  0.62897679  1
  O  O212  1  0.34034143  0.32690860  0.12427601  1
  O  O213  1  0.50280277  0.17091868  0.62776106  1
  O  O214  1  0.84312761  0.49934899  0.12301087  1
  O  O215  1  0.67135139  0.66427248  0.86652637  1
