# generated using pymatgen
data_Sr24Ta24N11O13
_symmetry_space_group_name_H-M   'P 1'
_cell_length_a   16.76633829
_cell_length_b   16.77777706
_cell_length_c   15.74914561
_cell_angle_alpha   90.04927727
_cell_angle_beta   89.88909648
_cell_angle_gamma   89.84409992
_symmetry_Int_Tables_number   1
_chemical_formula_structural   Sr24Ta24N11O13
_chemical_formula_sum   'Sr72 Ta72 N33 O39'
_cell_volume   4430.23800537
_cell_formula_units_Z   3
loop_
 _symmetry_equiv_pos_site_id
 _symmetry_equiv_pos_as_xyz
  1  'x, y, z'
loop_
 _atom_site_type_symbol
 _atom_site_label
 _atom_site_symmetry_multiplicity
 _atom_site_fract_x
 _atom_site_fract_y
 _atom_site_fract_z
 _atom_site_occupancy
  Sr  Sr0  1  0.00670549  0.16179542  0.11782104  1
  Sr  Sr1  1  -0.01262203  0.15947741  0.66215122  1
  Sr  Sr2  1  -0.01238815  0.50337065  0.14878430  1
  Sr  Sr3  1  -0.00761687  0.47698465  0.59641017  1
  Sr  Sr4  1  -0.01996296  0.83167378  0.08275279  1
  Sr  Sr5  1  0.01872710  0.82469806  0.63333871  1
  Sr  Sr6  1  0.32146496  0.15085824  0.14465734  1
  Sr  Sr7  1  0.32065507  0.15624224  0.61682978  1
  Sr  Sr8  1  0.32771454  0.48297510  0.13303187  1
  Sr  Sr9  1  0.32680375  0.49892822  0.63465907  1
  Sr  Sr10  1  0.31701895  0.83396821  0.12076142  1
  Sr  Sr11  1  0.33322778  0.81976634  0.58829332  1
  Sr  Sr12  1  0.65211170  0.17030516  0.13202170  1
  Sr  Sr13  1  0.67875986  0.16080874  0.58023414  1
  Sr  Sr14  1  0.66060527  0.51603666  0.08222159  1
  Sr  Sr15  1  0.66138116  0.48479849  0.63383871  1
  Sr  Sr16  1  0.66676197  0.82977376  0.16930501  1
  Sr  Sr17  1  0.65590783  0.83091961  0.63680035  1
  Sr  Sr18  1  0.17159956  0.01397045  0.16503880  1
  Sr  Sr19  1  0.17653686  -0.00813957  0.61043350  1
  Sr  Sr20  1  0.15851185  0.32921826  0.09690120  1
  Sr  Sr21  1  0.17154641  0.34098899  0.59741074  1
  Sr  Sr22  1  0.17854112  0.67526320  0.12237623  1
  Sr  Sr23  1  0.17271848  0.65655989  0.66211785  1
  Sr  Sr24  1  0.50780135  0.00531799  0.11885663  1
  Sr  Sr25  1  0.50754917  0.01315182  0.64133002  1
  Sr  Sr26  1  0.50498246  0.34267478  0.11500687  1
  Sr  Sr27  1  0.48344500  0.34812936  0.67229328  1
  Sr  Sr28  1  0.51235641  0.67668587  0.12170404  1
  Sr  Sr29  1  0.50723404  0.67187997  0.60041267  1
  Sr  Sr30  1  0.85114307  0.00832072  0.10305700  1
  Sr  Sr31  1  0.82727750  0.00586808  0.61325234  1
  Sr  Sr32  1  0.84517901  0.32942830  0.17622706  1
  Sr  Sr33  1  0.81716401  0.33590660  0.61236510  1
  Sr  Sr34  1  0.83550731  0.66459132  0.12068019  1
  Sr  Sr35  1  0.85071737  0.69116581  0.63974810  1
  Sr  Sr36  1  -0.00395838  0.15035858  0.33356295  1
  Sr  Sr37  1  0.00182982  0.16767596  0.88235135  1
  Sr  Sr38  1  -0.01528553  0.49828670  0.36864430  1
  Sr  Sr39  1  -0.00412247  0.48379123  0.88622622  1
  Sr  Sr40  1  -0.01142457  0.84189944  0.41623974  1
  Sr  Sr41  1  0.01795504  0.81287001  0.86566656  1
  Sr  Sr42  1  0.31648694  0.15829900  0.38966292  1
  Sr  Sr43  1  0.33507660  0.14608162  0.83794963  1
  Sr  Sr44  1  0.33942326  0.49815750  0.36129590  1
  Sr  Sr45  1  0.31742058  0.48575810  0.86934793  1
  Sr  Sr46  1  0.30995822  0.82796194  0.37280140  1
  Sr  Sr47  1  0.34629054  0.82700373  0.91096909  1
  Sr  Sr48  1  0.66667297  0.17806939  0.36965750  1
  Sr  Sr49  1  0.66077747  0.15666793  0.91862096  1
  Sr  Sr50  1  0.65670801  0.50015123  0.41035457  1
  Sr  Sr51  1  0.66991379  0.48329847  0.86542148  1
  Sr  Sr52  1  0.66007638  0.82584990  0.36522456  1
  Sr  Sr53  1  0.66389435  0.85021122  0.83686394  1
  Sr  Sr54  1  0.16935885  -0.00742305  0.38291103  1
  Sr  Sr55  1  0.16470905  0.01585449  0.83293256  1
  Sr  Sr56  1  0.17869990  0.33688610  0.40529312  1
  Sr  Sr57  1  0.15688925  0.33028299  0.89937277  1
  Sr  Sr58  1  0.17192197  0.64898175  0.33030022  1
  Sr  Sr59  1  0.18371155  0.67422297  0.87948572  1
  Sr  Sr60  1  0.52567611  0.01557223  0.35463479  1
  Sr  Sr61  1  0.49883635  -0.00070236  0.87734802  1
  Sr  Sr62  1  0.48753848  0.34148312  0.33871494  1
  Sr  Sr63  1  0.51093611  0.34260990  0.88641815  1
  Sr  Sr64  1  0.50321942  0.66566853  0.39108066  1
  Sr  Sr65  1  0.51245845  0.68318786  0.88508424  1
  Sr  Sr66  1  0.83784817  -0.00315183  0.39485464  1
  Sr  Sr67  1  0.83821913  0.01978655  0.89178534  1
  Sr  Sr68  1  0.82680924  0.34092789  0.38776726  1
  Sr  Sr69  1  0.84130106  0.33843596  0.83270676  1
  Sr  Sr70  1  0.84617606  0.67782687  0.35402042  1
  Sr  Sr71  1  0.84135727  0.67404269  0.88777466  1
  Ta  Ta72  1  0.18510252  0.14300652  -0.00269004  1
  Ta  Ta73  1  0.12169011  0.16312140  0.49869930  1
  Ta  Ta74  1  0.15249496  0.51920178  0.00926657  1
  Ta  Ta75  1  0.16729979  0.53797669  0.49959818  1
  Ta  Ta76  1  0.16529499  0.88211700  -0.00091330  1
  Ta  Ta77  1  0.16180051  0.77614469  0.49562072  1
  Ta  Ta78  1  0.45751593  0.16989886  -0.00065982  1
  Ta  Ta79  1  0.49295799  0.19960884  0.50363376  1
  Ta  Ta80  1  0.47302187  0.51904492  0.00148460  1
  Ta  Ta81  1  0.48633293  0.47322643  0.50225285  1
  Ta  Ta82  1  0.55416376  0.83991704  0.00350409  1
  Ta  Ta83  1  0.50422054  0.86700804  0.49523273  1
  Ta  Ta84  1  0.83665307  0.21747344  0.00261838  1
  Ta  Ta85  1  0.87207827  0.16900007  0.49677520  1
  Ta  Ta86  1  0.84014678  0.45922586  0.00917196  1
  Ta  Ta87  1  0.82381434  0.54310895  0.49491439  1
  Ta  Ta88  1  0.78518219  0.84113310  0.00513843  1
  Ta  Ta89  1  0.80197692  0.82602605  0.49718747  1
  Ta  Ta90  1  0.16491332  0.20378321  0.25410330  1
  Ta  Ta91  1  0.16034427  0.20300864  0.74412391  1
  Ta  Ta92  1  0.16272653  0.45458573  0.25060303  1
  Ta  Ta93  1  0.14248244  0.47360779  0.74514310  1
  Ta  Ta94  1  0.12497680  0.83425851  0.25378342  1
  Ta  Ta95  1  0.20947100  0.83489949  0.74394233  1
  Ta  Ta96  1  0.47361069  0.17080406  0.24574046  1
  Ta  Ta97  1  0.54644169  0.17117250  0.75210602  1
  Ta  Ta98  1  0.52844305  0.51545645  0.25025043  1
  Ta  Ta99  1  0.49890922  0.54288102  0.74793183  1
  Ta  Ta100  1  0.46555684  0.83530343  0.24887508  1
  Ta  Ta101  1  0.46157080  0.82847114  0.74619964  1
  Ta  Ta102  1  0.82203872  0.14274884  0.25330708  1
  Ta  Ta103  1  0.79780767  0.16419694  0.74525085  1
  Ta  Ta104  1  0.78593422  0.50444298  0.25112514  1
  Ta  Ta105  1  0.84249967  0.52559706  0.75061514  1
  Ta  Ta106  1  0.85481432  0.85307442  0.24785892  1
  Ta  Ta107  1  0.84718796  0.86570072  0.75380743  1
  Ta  Ta108  1  -0.00642260  -0.03634738  0.24986831  1
  Ta  Ta109  1  -0.02121298  -0.01980586  0.75160365  1
  Ta  Ta110  1  0.03663440  0.33018468  0.26056337  1
  Ta  Ta111  1  0.02907786  0.33627758  0.74468700  1
  Ta  Ta112  1  0.00395649  0.71856482  0.25106455  1
  Ta  Ta113  1  -0.00181214  0.61928187  0.74924576  1
  Ta  Ta114  1  0.36000849  -0.01550471  0.24797039  1
  Ta  Ta115  1  0.34038525  -0.05083930  0.74188670  1
  Ta  Ta116  1  0.30646657  0.31810280  0.25428077  1
  Ta  Ta117  1  0.29231160  0.32517947  0.74462228  1
  Ta  Ta118  1  0.36476500  0.67806913  0.25161361  1
  Ta  Ta119  1  0.35886859  0.68607236  0.74802491  1
  Ta  Ta120  1  0.70818868  0.00757361  0.25051078  1
  Ta  Ta121  1  0.67561229  0.03968290  0.74686503  1
  Ta  Ta122  1  0.66165837  0.37433649  0.24923034  1
  Ta  Ta123  1  0.66327182  0.28597045  0.75017376  1
  Ta  Ta124  1  0.66764581  0.63156006  0.24739279  1
  Ta  Ta125  1  0.67325394  0.65119149  0.75411000  1
  Ta  Ta126  1  0.04715704  -0.00137574  0.00274520  1
  Ta  Ta127  1  0.00155482  0.03411455  0.49697790  1
  Ta  Ta128  1  -0.04241576  0.33492719  0.00812447  1
  Ta  Ta129  1  -0.00087274  0.28559939  0.48923694  1
  Ta  Ta130  1  0.01973415  0.64143981  0.00475619  1
  Ta  Ta131  1  0.02779895  0.65500139  0.49149018  1
  Ta  Ta132  1  0.30890512  0.01033265  0.00006196  1
  Ta  Ta133  1  0.37608353  -0.01200838  0.49885175  1
  Ta  Ta134  1  0.33716025  0.28959497  -0.00350695  1
  Ta  Ta135  1  0.37019572  0.33238559  0.50230548  1
  Ta  Ta136  1  0.34731497  0.63746508  0.00293607  1
  Ta  Ta137  1  0.29961969  0.65098030  0.49320514  1
  Ta  Ta138  1  0.66839998  -0.03590191  0.00952884  1
  Ta  Ta139  1  0.65834949  -0.02765294  0.49841620  1
  Ta  Ta140  1  0.71351143  0.33368049  -0.00094115  1
  Ta  Ta141  1  0.60479728  0.33095685  0.50872251  1
  Ta  Ta142  1  0.67100783  0.71514343  0.00391224  1
  Ta  Ta143  1  0.70094608  0.67361738  0.49988522  1
  N  N144  1  0.33880503  0.66104955  0.37279716  1
  N  N145  1  0.66909819  0.00156445  0.13005127  1
  N  N146  1  0.16394589  0.49766968  0.13254497  1
  N  N147  1  0.83126591  0.16862523  0.37402959  1
  N  N148  1  0.17832295  0.81611830  0.62597522  1
  N  N149  1  0.34142767  -0.00985160  0.61909543  1
  N  N150  1  0.33226444  0.32841031  0.37539721  1
  N  N151  1  0.82657282  0.83735441  0.12508798  1
  N  N152  1  0.49887675  0.50283513  0.37550141  1
  N  N153  1  0.16200940  0.16326183  0.37223024  1
  N  N154  1  0.16416489  0.17029262  0.12211658  1
  N  N155  1  0.16397139  0.16950451  0.87138419  1
  N  N156  1  0.15578026  0.82000037  0.37696725  1
  N  N157  1  0.33541166  -0.00856359  0.12236891  1
  N  N158  1  0.32809032  0.33061123  0.62587792  1
  N  N159  1  0.66785238  0.00279862  0.62795772  1
  N  N160  1  0.16062938  0.49876999  0.62413678  1
  N  N161  1  0.49797466  0.50569960  0.12121920  1
  N  N162  1  0.49302628  0.16861246  0.12480657  1
  N  N163  1  0.82658814  0.50821263  0.37774186  1
  N  N164  1  -0.01157944  0.33520188  0.37429517  1
  N  N165  1  0.49800705  0.51280911  0.62854474  1
  N  N166  1  0.01122782  -0.00350145  0.12367830  1
  N  N167  1  0.67527817  0.00077956  0.37805736  1
  N  N168  1  0.00421721  -0.00189331  0.37723221  1
  N  N169  1  0.67222686  0.67197225  0.12936178  1
  N  N170  1  0.15931780  0.16423423  0.62334513  1
  N  N171  1  0.65091560  0.32681687  0.62289250  1
  N  N172  1  0.82679702  0.49291500  0.12886682  1
  N  N173  1  0.00509307  0.67246321  0.36906666  1
  N  N174  1  0.83175156  0.17180861  0.62609026  1
  N  N175  1  0.67698971  0.32435761  0.88043941  1
  N  N176  1  0.82444022  0.83423610  0.37744828  1
  O  O177  1  0.33855570  0.66651949  0.62232458  1
  O  O178  1  0.50363048  0.84614858  0.36869355  1
  O  O179  1  0.66749065  0.35225724  0.12500846  1
  O  O180  1  0.00936356  0.32563966  0.61856391  1
  O  O181  1  0.33874723  -0.01273576  0.87331778  1
  O  O182  1  0.50996288  0.83721150  0.12578755  1
  O  O183  1  0.83730162  0.49726085  0.87496849  1
  O  O184  1  0.68118211  0.66499404  0.63069585  1
  O  O185  1  0.50339866  0.16153481  0.87874798  1
  O  O186  1  0.50138600  0.83962455  0.62418442  1
  O  O187  1  0.48975054  0.18119394  0.37888967  1
  O  O188  1  0.66511700  0.00283225  0.87322568  1
  O  O189  1  0.15769968  0.48933809  0.88257983  1
  O  O190  1  -0.00060344  0.33135090  0.87182067  1
  O  O191  1  0.83382032  0.17789806  0.12602382  1
  O  O192  1  0.01023143  0.67081011  0.12663137  1
  O  O193  1  0.83235880  0.17748645  0.87774223  1
  O  O194  1  0.00612438  0.63731763  0.62619324  1
  O  O195  1  0.17500709  0.85474086  0.87378537  1
  O  O196  1  0.16269530  0.85439238  0.12486924  1
  O  O197  1  0.67431827  0.67050795  0.37535597  1
  O  O198  1  0.49745474  0.50344422  0.87045229  1
  O  O199  1  0.64471379  0.34815014  0.37462193  1
  O  O200  1  -0.00409679  0.33116324  0.13260696  1
  O  O201  1  0.34113221  -0.00323730  0.37664097  1
  O  O202  1  0.00481448  0.64329687  0.87602964  1
  O  O203  1  0.83140617  0.84565844  0.62884951  1
  O  O204  1  0.32561209  0.30750122  0.87054752  1
  O  O205  1  0.83433631  0.52309192  0.62578115  1
  O  O206  1  0.50838194  0.83832316  0.86926571  1
  O  O207  1  0.34714158  0.66968867  0.87515356  1
  O  O208  1  0.33622528  0.64704286  0.13118651  1
  O  O209  1  0.32333914  0.31340629  0.11796949  1
  O  O210  1  0.16669056  0.49567426  0.37511352  1
  O  O211  1  0.67240544  0.67333338  0.87663582  1
  O  O212  1  0.00360797  -0.00686588  0.87521453  1
  O  O213  1  0.82343335  0.85681628  0.87594368  1
  O  O214  1  0.50290827  0.17456867  0.63222113  1
  O  O215  1  -0.00961385  -0.00188584  0.62725530  1
