# generated using pymatgen
data_Sr24Ta24N11O13
_symmetry_space_group_name_H-M   'P 1'
_cell_length_a   16.78763361
_cell_length_b   16.75742543
_cell_length_c   15.64176420
_cell_angle_alpha   90.19269496
_cell_angle_beta   89.74102585
_cell_angle_gamma   89.79877570
_symmetry_Int_Tables_number   1
_chemical_formula_structural   Sr24Ta24N11O13
_chemical_formula_sum   'Sr72 Ta72 N33 O39'
_cell_volume   4400.20508042
_cell_formula_units_Z   3
loop_
 _symmetry_equiv_pos_site_id
 _symmetry_equiv_pos_as_xyz
  1  'x, y, z'
loop_
 _atom_site_type_symbol
 _atom_site_label
 _atom_site_symmetry_multiplicity
 _atom_site_fract_x
 _atom_site_fract_y
 _atom_site_fract_z
 _atom_site_occupancy
  Sr  Sr0  1  -0.01719903  0.18341242  0.07762066  1
  Sr  Sr1  1  0.00029422  0.16228801  0.62354508  1
  Sr  Sr2  1  -0.01381925  0.48984973  0.17455729  1
  Sr  Sr3  1  -0.00417709  0.51217606  0.61411635  1
  Sr  Sr4  1  0.00886060  0.82683866  0.11538980  1
  Sr  Sr5  1  -0.03192394  0.84091929  0.66117872  1
  Sr  Sr6  1  0.33930238  0.16517363  0.11015327  1
  Sr  Sr7  1  0.31715023  0.19756823  0.66178799  1
  Sr  Sr8  1  0.31965412  0.50729420  0.12913268  1
  Sr  Sr9  1  0.32902386  0.49801778  0.59403169  1
  Sr  Sr10  1  0.33687347  0.83556475  0.16868841  1
  Sr  Sr11  1  0.32771044  0.84089426  0.61642953  1
  Sr  Sr12  1  0.67981042  0.15796218  0.17703326  1
  Sr  Sr13  1  0.64415652  0.16286446  0.61153828  1
  Sr  Sr14  1  0.65670771  0.48871843  0.10457581  1
  Sr  Sr15  1  0.64486580  0.51711997  0.67203592  1
  Sr  Sr16  1  0.64446554  0.80835430  0.11385051  1
  Sr  Sr17  1  0.67247324  0.82456734  0.58888000  1
  Sr  Sr18  1  0.19234406  -0.01357899  0.15894946  1
  Sr  Sr19  1  0.17444745  0.00165221  0.60424997  1
  Sr  Sr20  1  0.17775303  0.33241613  0.11442360  1
  Sr  Sr21  1  0.15648073  0.32963929  0.66560891  1
  Sr  Sr22  1  0.16445000  0.66630097  0.09056585  1
  Sr  Sr23  1  0.18211189  0.66507521  0.61282714  1
  Sr  Sr24  1  0.51282621  0.00625492  0.11479080  1
  Sr  Sr25  1  0.51407466  -0.02412747  0.60604426  1
  Sr  Sr26  1  0.50298286  0.32170419  0.09243524  1
  Sr  Sr27  1  0.48719746  0.34259881  0.63030866  1
  Sr  Sr28  1  0.49374146  0.65374095  0.12146113  1
  Sr  Sr29  1  0.49920210  0.67086000  0.67068801  1
  Sr  Sr30  1  0.84560165  -0.01140513  0.11272351  1
  Sr  Sr31  1  0.84672160  0.01826159  0.65966361  1
  Sr  Sr32  1  0.81821453  0.33921027  0.13191818  1
  Sr  Sr33  1  0.85712613  0.32897418  0.56269362  1
  Sr  Sr34  1  0.86477071  0.66704278  0.16800930  1
  Sr  Sr35  1  0.83415414  0.66627932  0.61805082  1
  Sr  Sr36  1  -0.00055182  0.15898231  0.41330445  1
  Sr  Sr37  1  -0.01462790  0.17035126  0.86895735  1
  Sr  Sr38  1  -0.02292723  0.51472983  0.39347853  1
  Sr  Sr39  1  -0.00187005  0.50566633  0.83750145  1
  Sr  Sr40  1  -0.01281235  0.84849301  0.32957183  1
  Sr  Sr41  1  0.00050885  0.82590453  0.88783076  1
  Sr  Sr42  1  0.30871343  0.17405381  0.33744143  1
  Sr  Sr43  1  0.33224569  0.16471781  0.89073377  1
  Sr  Sr44  1  0.33451503  0.49901660  0.37320677  1
  Sr  Sr45  1  0.29272413  0.52513456  0.92284768  1
  Sr  Sr46  1  0.32799866  0.85044342  0.39320544  1
  Sr  Sr47  1  0.35239094  0.82838150  0.83114974  1
  Sr  Sr48  1  0.65391740  0.18650008  0.38986135  1
  Sr  Sr49  1  0.67190667  0.15181303  0.82805317  1
  Sr  Sr50  1  0.63792292  0.50393588  0.35738567  1
  Sr  Sr51  1  0.67556591  0.48818417  0.88468129  1
  Sr  Sr52  1  0.65822023  0.81671480  0.38685300  1
  Sr  Sr53  1  0.66862790  0.85646793  0.92292693  1
  Sr  Sr54  1  0.16896537  0.00554411  0.37844102  1
  Sr  Sr55  1  0.20010029  -0.01580753  0.86046818  1
  Sr  Sr56  1  0.17704101  0.34459819  0.33009784  1
  Sr  Sr57  1  0.15402414  0.31782557  0.88433886  1
  Sr  Sr58  1  0.17341654  0.65252900  0.41555118  1
  Sr  Sr59  1  0.16101618  0.67495912  0.88395912  1
  Sr  Sr60  1  0.52363107  0.01937803  0.39329508  1
  Sr  Sr61  1  0.51003588  -0.00712488  0.88475217  1
  Sr  Sr62  1  0.48795454  0.34659162  0.40853935  1
  Sr  Sr63  1  0.51685753  0.31589834  0.85323628  1
  Sr  Sr64  1  0.49652749  0.65902076  0.33200675  1
  Sr  Sr65  1  0.52527619  0.66666657  0.89503398  1
  Sr  Sr66  1  0.84215629  0.00195440  0.34459298  1
  Sr  Sr67  1  0.85439073  -0.01007744  0.88441091  1
  Sr  Sr68  1  0.81244772  0.33084623  0.35840058  1
  Sr  Sr69  1  0.83014513  0.34305192  0.90796195  1
  Sr  Sr70  1  0.83294431  0.67589763  0.39291748  1
  Sr  Sr71  1  0.85081295  0.64342447  0.83213846  1
  Ta  Ta72  1  0.15875215  0.12629868  0.00232324  1
  Ta  Ta73  1  0.18231882  0.19704060  0.49452505  1
  Ta  Ta74  1  0.10819336  0.49654785  0.00858382  1
  Ta  Ta75  1  0.16183868  0.45749555  0.50183385  1
  Ta  Ta76  1  0.20168418  0.84617213  0.00707666  1
  Ta  Ta77  1  0.11696555  0.83763494  0.49695840  1
  Ta  Ta78  1  0.54935875  0.16023370  0.00361289  1
  Ta  Ta79  1  0.44345559  0.17451713  0.49603385  1
  Ta  Ta80  1  0.47170932  0.48098015  -0.01676024  1
  Ta  Ta81  1  0.50743415  0.53537156  0.51592000  1
  Ta  Ta82  1  0.45971091  0.83338365  0.00878051  1
  Ta  Ta83  1  0.49606747  0.77475019  0.50190821  1
  Ta  Ta84  1  0.79354639  0.16573576  0.00146011  1
  Ta  Ta85  1  0.82047237  0.13864925  0.49101800  1
  Ta  Ta86  1  0.86067933  0.52140647  0.01007573  1
  Ta  Ta87  1  0.77469688  0.50181910  0.50995633  1
  Ta  Ta88  1  0.83775024  0.78287260  0.00257770  1
  Ta  Ta89  1  0.85027679  0.86059756  0.49677604  1
  Ta  Ta90  1  0.12061749  0.16983467  0.24541791  1
  Ta  Ta91  1  0.15145607  0.13630136  0.75823700  1
  Ta  Ta92  1  0.16262077  0.53852937  0.24982411  1
  Ta  Ta93  1  0.18538015  0.51400768  0.74701271  1
  Ta  Ta94  1  0.16715896  0.78954906  0.25388553  1
  Ta  Ta95  1  0.14808722  0.82682357  0.74340190  1
  Ta  Ta96  1  0.48955473  0.19204344  0.25149801  1
  Ta  Ta97  1  0.48360431  0.13775386  0.74421770  1
  Ta  Ta98  1  0.48841312  0.46121927  0.23303275  1
  Ta  Ta99  1  0.44851518  0.50411502  0.76762938  1
  Ta  Ta100  1  0.50867825  0.86394086  0.25547993  1
  Ta  Ta101  1  0.55802105  0.83575340  0.75825856  1
  Ta  Ta102  1  0.87428583  0.16897799  0.24665822  1
  Ta  Ta103  1  0.83391928  0.22784206  0.73925131  1
  Ta  Ta104  1  0.79845357  0.51140107  0.25470494  1
  Ta  Ta105  1  0.82699554  0.44537818  0.72937145  1
  Ta  Ta106  1  0.79146115  0.83115417  0.24029473  1
  Ta  Ta107  1  0.78361911  0.83561820  0.75589667  1
  Ta  Ta108  1  0.00942070  0.04252283  0.24720834  1
  Ta  Ta109  1  0.03845446  -0.00132376  0.74840756  1
  Ta  Ta110  1  -0.00369320  0.29275076  0.25066902  1
  Ta  Ta111  1  -0.03424537  0.33406231  0.73969328  1
  Ta  Ta112  1  0.04610984  0.66662341  0.25742934  1
  Ta  Ta113  1  0.03646458  0.68049381  0.73503281  1
  Ta  Ta114  1  0.38005581  0.00809542  0.25917902  1
  Ta  Ta115  1  0.36221463  0.02006426  0.74693486  1
  Ta  Ta116  1  0.36806216  0.33723397  0.24228855  1
  Ta  Ta117  1  0.32462890  0.38326919  0.75839462  1
  Ta  Ta118  1  0.29202430  0.66716118  0.25026004  1
  Ta  Ta119  1  0.32407838  0.63251857  0.75733186  1
  Ta  Ta120  1  0.66700025  -0.03654165  0.24777094  1
  Ta  Ta121  1  0.66886024  -0.03781055  0.74381779  1
  Ta  Ta122  1  0.62496953  0.33932162  0.24814418  1
  Ta  Ta123  1  0.69855682  0.32937586  0.74266843  1
  Ta  Ta124  1  0.68937073  0.66283526  0.25185475  1
  Ta  Ta125  1  0.67677726  0.70828994  0.75560936  1
  Ta  Ta126  1  0.05051415  -0.00164299  0.00378305  1
  Ta  Ta127  1  -0.01238467  -0.02998627  0.49951681  1
  Ta  Ta128  1  -0.00621325  0.38204396  0.00258593  1
  Ta  Ta129  1  0.05019053  0.33493838  0.49744515  1
  Ta  Ta130  1  -0.02113119  0.63812105  0.00723540  1
  Ta  Ta131  1  0.00049891  0.72281794  0.49585685  1
  Ta  Ta132  1  0.34059611  -0.03912430  -0.00022209  1
  Ta  Ta133  1  0.33939862  0.05079210  0.50095122  1
  Ta  Ta134  1  0.34776114  0.35228114  -0.00958558  1
  Ta  Ta135  1  0.30133948  0.31994289  0.49602004  1
  Ta  Ta136  1  0.33706132  0.71610692  0.00773763  1
  Ta  Ta137  1  0.37759590  0.66652934  0.49950150  1
  Ta  Ta138  1  0.67829078  0.04850191  0.00142603  1
  Ta  Ta139  1  0.71782382  -0.00139919  0.50105069  1
  Ta  Ta140  1  0.66655085  0.28093854  -0.00031557  1
  Ta  Ta141  1  0.66191693  0.37111622  0.50625678  1
  Ta  Ta142  1  0.73258007  0.65471638  0.00118354  1
  Ta  Ta143  1  0.63824932  0.64295271  0.50502940  1
  N  N144  1  0.65105863  0.34306832  0.38395855  1
  N  N145  1  0.83608917  0.82608471  0.12442996  1
  N  N146  1  0.49461015  0.17848925  0.38415990  1
  N  N147  1  0.66622445  0.67103306  0.63687238  1
  N  N148  1  0.15463332  0.50227327  0.12458716  1
  N  N149  1  0.49395792  0.83141071  0.13655637  1
  N  N150  1  0.34127836  0.01010865  0.37543134  1
  N  N151  1  0.49053681  0.49619213  0.10434898  1
  N  N152  1  0.32887524  0.33711540  0.37164976  1
  N  N153  1  0.66188100  0.32107260  0.13018646  1
  N  N154  1  0.16617703  0.49738294  0.62491940  1
  N  N155  1  0.17109967  0.16118927  0.87976057  1
  N  N156  1  0.67181645  0.31849122  0.86616996  1
  N  N157  1  0.83279598  0.16520224  0.12421309  1
  N  N158  1  0.67562820  -0.00510306  0.61872949  1
  N  N159  1  0.51281900  0.16319529  0.12562801  1
  N  N160  1  0.66217506  0.66299428  0.37323953  1
  N  N161  1  0.00060929  0.67296190  0.38016343  1
  N  N162  1  0.00750123  -0.00131921  0.62252000  1
  N  N163  1  0.48890147  0.51225771  0.63820603  1
  N  N164  1  0.00483658  0.00544525  0.36687830  1
  N  N165  1  0.32267159  0.34830412  0.63853999  1
  N  N166  1  0.82894986  0.50112932  0.13594505  1
  N  N167  1  0.00959342  0.66093079  0.12616741  1
  N  N168  1  0.15706617  0.17470615  0.37272786  1
  N  N169  1  0.17356480  0.82854658  0.12837756  1
  N  N170  1  0.82788520  0.16960566  0.37149870  1
  N  N171  1  0.33334294  0.33221527  0.11262542  1
  N  N172  1  0.00395401  0.33173830  0.61733140  1
  N  N173  1  0.82644659  0.50934000  0.62714226  1
  N  N174  1  0.35251148  -0.00760017  0.87237983  1
  N  N175  1  0.00029551  0.67149300  0.61724165  1
  N  N176  1  0.33181779  0.67277102  0.12574080  1
  O  O177  1  0.51246241  0.83397304  0.88175827  1
  O  O178  1  0.02284716  -0.01472962  0.88060079  1
  O  O179  1  0.03450816  -0.01602337  0.12950512  1
  O  O180  1  0.51864779  0.81876731  0.62320424  1
  O  O181  1  0.83505244  0.84168828  0.36688083  1
  O  O182  1  0.67348203  0.00571399  0.87719004  1
  O  O183  1  0.83225904  0.49105890  0.85553619  1
  O  O184  1  0.15904554  0.83891538  0.37537891  1
  O  O185  1  0.83521656  0.18034147  0.61697743  1
  O  O186  1  0.69647098  0.64944129  0.87489938  1
  O  O187  1  0.32134953  0.67022853  0.88023783  1
  O  O188  1  0.51127744  0.14877421  0.86972311  1
  O  O189  1  0.00938684  0.31791699  0.37390969  1
  O  O190  1  0.17036938  0.83976234  0.61912485  1
  O  O191  1  0.33533362  -0.00342345  0.61752024  1
  O  O192  1  0.48597547  0.17856360  0.62371448  1
  O  O193  1  0.67998574  0.65401023  0.11439632  1
  O  O194  1  0.30990506  0.31749272  0.87091338  1
  O  O195  1  0.81581892  0.50993029  0.38999727  1
  O  O196  1  0.16909275  0.82968625  0.87094851  1
  O  O197  1  0.52706774  0.51084759  0.86449134  1
  O  O198  1  0.17368773  0.49847791  0.37548308  1
  O  O199  1  0.50155210  0.81294547  0.37673611  1
  O  O200  1  0.14788798  0.51269266  0.88061034  1
  O  O201  1  0.67220737  -0.00230722  0.12549605  1
  O  O202  1  0.17084839  0.17098343  0.12284478  1
  O  O203  1  0.48699234  0.50690061  0.35749968  1
  O  O204  1  0.82115558  0.83493815  0.88487143  1
  O  O205  1  0.16577188  0.16956084  0.63360457  1
  O  O206  1  0.33915710  0.65302554  0.63086641  1
  O  O207  1  -0.01396987  0.35214361  0.87643778  1
  O  O208  1  0.33838805  0.66131868  0.37194392  1
  O  O209  1  0.82406217  0.84473097  0.62360977  1
  O  O210  1  0.00365516  0.66278850  0.86269825  1
  O  O211  1  0.82984516  0.18970066  0.86443143  1
  O  O212  1  0.34912314  0.00096250  0.12686300  1
  O  O213  1  0.64151556  0.32060847  0.62240464  1
  O  O214  1  -0.00849092  0.33289797  0.12787801  1
  O  O215  1  0.67530870  -0.02351999  0.37651136  1
