# generated using pymatgen
data_Sr24Ta24N11O13
_symmetry_space_group_name_H-M   'P 1'
_cell_length_a   16.73505916
_cell_length_b   16.78197911
_cell_length_c   15.81419671
_cell_angle_alpha   90.00091903
_cell_angle_beta   90.03673784
_cell_angle_gamma   90.02114223
_symmetry_Int_Tables_number   1
_chemical_formula_structural   Sr24Ta24N11O13
_chemical_formula_sum   'Sr72 Ta72 N33 O39'
_cell_volume   4441.37502141
_cell_formula_units_Z   3
loop_
 _symmetry_equiv_pos_site_id
 _symmetry_equiv_pos_as_xyz
  1  'x, y, z'
loop_
 _atom_site_type_symbol
 _atom_site_label
 _atom_site_symmetry_multiplicity
 _atom_site_fract_x
 _atom_site_fract_y
 _atom_site_fract_z
 _atom_site_occupancy
  Sr  Sr0  1  0.00384552  0.18060268  0.17504976  1
  Sr  Sr1  1  -0.00134913  0.16612234  0.61912213  1
  Sr  Sr2  1  0.01763711  0.49251357  0.09121265  1
  Sr  Sr3  1  0.00179870  0.49037312  0.62406532  1
  Sr  Sr4  1  0.00338788  0.83882624  0.11565478  1
  Sr  Sr5  1  0.00903425  0.82379340  0.63333903  1
  Sr  Sr6  1  0.32398966  0.16519306  0.08439721  1
  Sr  Sr7  1  0.32709008  0.14673384  0.62846515  1
  Sr  Sr8  1  0.33411361  0.48825177  0.14903891  1
  Sr  Sr9  1  0.33855254  0.49600711  0.65324543  1
  Sr  Sr10  1  0.33818358  0.82952837  0.14228424  1
  Sr  Sr11  1  0.34665020  0.81698228  0.58106784  1
  Sr  Sr12  1  0.67567237  0.15144375  0.10026698  1
  Sr  Sr13  1  0.66027646  0.16935633  0.64067593  1
  Sr  Sr14  1  0.67646680  0.48217684  0.13141784  1
  Sr  Sr15  1  0.65644957  0.50465743  0.57783504  1
  Sr  Sr16  1  0.66542959  0.81805490  0.12474584  1
  Sr  Sr17  1  0.65843798  0.81771222  0.66468674  1
  Sr  Sr18  1  0.16276824  -0.00254589  0.12668066  1
  Sr  Sr19  1  0.15496445  0.00032389  0.67151414  1
  Sr  Sr20  1  0.16818152  0.33554978  0.13090718  1
  Sr  Sr21  1  0.16791832  0.31891246  0.58511817  1
  Sr  Sr22  1  0.14231303  0.66919992  0.08481965  1
  Sr  Sr23  1  0.16479672  0.66664557  0.62804012  1
  Sr  Sr24  1  0.50161800  0.03574513  0.11781634  1
  Sr  Sr25  1  0.49490816  0.00348385  0.62506757  1
  Sr  Sr26  1  0.50051060  0.35659042  0.14705692  1
  Sr  Sr27  1  0.50368028  0.35821980  0.63190037  1
  Sr  Sr28  1  0.49278379  0.68306530  0.11379284  1
  Sr  Sr29  1  0.50225866  0.67244454  0.61819177  1
  Sr  Sr30  1  0.83230738  0.00137557  0.11129445  1
  Sr  Sr31  1  0.84890067  0.00384278  0.58695526  1
  Sr  Sr32  1  0.83030630  0.33343671  0.12247934  1
  Sr  Sr33  1  0.83566593  0.32940307  0.65340562  1
  Sr  Sr34  1  0.83465112  0.67936043  0.16524269  1
  Sr  Sr35  1  0.82612472  0.67121737  0.62889110  1
  Sr  Sr36  1  -0.00192291  0.16649057  0.38189861  1
  Sr  Sr37  1  -0.00405498  0.17191923  0.83999365  1
  Sr  Sr38  1  0.02716530  0.49901217  0.40659305  1
  Sr  Sr39  1  -0.00205386  0.48244580  0.88101956  1
  Sr  Sr40  1  -0.00911298  0.82668102  0.38342590  1
  Sr  Sr41  1  0.01902267  0.83018849  0.87365635  1
  Sr  Sr42  1  0.33220413  0.16936968  0.41664885  1
  Sr  Sr43  1  0.32152665  0.14423829  0.87333011  1
  Sr  Sr44  1  0.33466377  0.48283965  0.34368367  1
  Sr  Sr45  1  0.33948169  0.49761273  0.84654342  1
  Sr  Sr46  1  0.33596256  0.84539146  0.36630965  1
  Sr  Sr47  1  0.34739133  0.80319645  0.91076703  1
  Sr  Sr48  1  0.65505010  0.13962091  0.39068852  1
  Sr  Sr49  1  0.67307805  0.16875312  0.87009507  1
  Sr  Sr50  1  0.68480507  0.48666297  0.36600535  1
  Sr  Sr51  1  0.65409558  0.49991704  0.91623994  1
  Sr  Sr52  1  0.66762904  0.81634697  0.34344746  1
  Sr  Sr53  1  0.66079649  0.81843579  0.87040366  1
  Sr  Sr54  1  0.15873082  -0.01719871  0.33694479  1
  Sr  Sr55  1  0.15729645  0.00349176  0.87681658  1
  Sr  Sr56  1  0.16282495  0.33170987  0.37081474  1
  Sr  Sr57  1  0.17465819  0.33331259  0.89938319  1
  Sr  Sr58  1  0.15423921  0.67621589  0.41468557  1
  Sr  Sr59  1  0.16557669  0.66007563  0.86803825  1
  Sr  Sr60  1  0.48521519  0.01969143  0.40166953  1
  Sr  Sr61  1  0.50764908  0.01736179  0.85319970  1
  Sr  Sr62  1  0.51015573  0.35730497  0.36560776  1
  Sr  Sr63  1  0.49726639  0.35632288  0.85743171  1
  Sr  Sr64  1  0.48030878  0.69108962  0.36840274  1
  Sr  Sr65  1  0.51371823  0.67372395  0.88799618  1
  Sr  Sr66  1  0.83725644  0.00904212  0.39190244  1
  Sr  Sr67  1  0.83978303  -0.00771774  0.90986613  1
  Sr  Sr68  1  0.82771676  0.33554165  0.35096833  1
  Sr  Sr69  1  0.82771869  0.33931332  0.88235028  1
  Sr  Sr70  1  0.82638488  0.66625407  0.36897722  1
  Sr  Sr71  1  0.83276515  0.68738247  0.83632756  1
  Ta  Ta72  1  0.13015752  0.16665131  -0.00244217  1
  Ta  Ta73  1  0.16155833  0.11552252  0.50557929  1
  Ta  Ta74  1  0.21211016  0.49911218  -0.00464412  1
  Ta  Ta75  1  0.21628252  0.49911627  0.49710443  1
  Ta  Ta76  1  0.19085780  0.84893601  -0.00078512  1
  Ta  Ta77  1  0.16688469  0.86809357  0.50961632  1
  Ta  Ta78  1  0.49864549  0.21503792  -0.00067577  1
  Ta  Ta79  1  0.50393878  0.21628620  0.50049805  1
  Ta  Ta80  1  0.46559297  0.50258956  0.00023422  1
  Ta  Ta81  1  0.46106416  0.51140214  0.50024867  1
  Ta  Ta82  1  0.50549403  0.87582542  -0.00463393  1
  Ta  Ta83  1  0.54037726  0.84168371  0.50061423  1
  Ta  Ta84  1  0.87298952  0.17173906  0.00701302  1
  Ta  Ta85  1  0.82369872  0.19835146  0.49664210  1
  Ta  Ta86  1  0.83560064  0.53943474  0.00220609  1
  Ta  Ta87  1  0.84987896  0.49541677  0.49538284  1
  Ta  Ta88  1  0.83035825  0.80658905  0.00494432  1
  Ta  Ta89  1  0.80049179  0.82566784  0.49586867  1
  Ta  Ta90  1  0.20689258  0.16351213  0.25207877  1
  Ta  Ta91  1  0.16927189  0.19823199  0.74763934  1
  Ta  Ta92  1  0.15054690  0.52673099  0.25365860  1
  Ta  Ta93  1  0.15514242  0.47494467  0.75034708  1
  Ta  Ta94  1  0.16053829  0.79022318  0.24664708  1
  Ta  Ta95  1  0.21569914  0.82494836  0.75081836  1
  Ta  Ta96  1  0.47033443  0.18153193  0.25742150  1
  Ta  Ta97  1  0.47711644  0.19682559  0.74844642  1
  Ta  Ta98  1  0.51854913  0.53541044  0.24548927  1
  Ta  Ta99  1  0.53313739  0.51914488  0.75003620  1
  Ta  Ta100  1  0.51043646  0.88386292  0.25552328  1
  Ta  Ta101  1  0.46528906  0.83203568  0.74841680  1
  Ta  Ta102  1  0.80953570  0.15066391  0.25137367  1
  Ta  Ta103  1  0.82987062  0.12339702  0.74992077  1
  Ta  Ta104  1  0.88778161  0.50450360  0.25321918  1
  Ta  Ta105  1  0.79875594  0.50572519  0.74990121  1
  Ta  Ta106  1  0.83713497  0.86845371  0.25063795  1
  Ta  Ta107  1  0.84056579  0.87279556  0.74791140  1
  Ta  Ta108  1  -0.02682890  -0.00612875  0.25691374  1
  Ta  Ta109  1  -0.03836058  -0.00315077  0.74795383  1
  Ta  Ta110  1  -0.00057886  0.37132919  0.25221893  1
  Ta  Ta111  1  0.04077420  0.33517429  0.74156470  1
  Ta  Ta112  1  0.02002442  0.64750782  0.25658294  1
  Ta  Ta113  1  0.00240167  0.63840051  0.74800984  1
  Ta  Ta114  1  0.34145690  0.03893660  0.25124496  1
  Ta  Ta115  1  0.33457714  -0.05439436  0.74635187  1
  Ta  Ta116  1  0.33286757  0.28058051  0.25192793  1
  Ta  Ta117  1  0.31863782  0.30924059  0.74384045  1
  Ta  Ta118  1  0.27541957  0.65925881  0.24858578  1
  Ta  Ta119  1  0.34146564  0.69437175  0.74794432  1
  Ta  Ta120  1  0.67731402  -0.01114437  0.25054621  1
  Ta  Ta121  1  0.72013231  -0.00640263  0.74777516  1
  Ta  Ta122  1  0.66201237  0.28532202  0.25180792  1
  Ta  Ta123  1  0.66639099  0.38283879  0.74502228  1
  Ta  Ta124  1  0.64653877  0.64568272  0.24733996  1
  Ta  Ta125  1  0.66443902  0.62178502  0.74962903  1
  Ta  Ta126  1  0.00457609  0.05834417  0.00606934  1
  Ta  Ta127  1  0.03932234  -0.00624919  0.50294279  1
  Ta  Ta128  1  0.00049537  0.29100776  0.00731825  1
  Ta  Ta129  1  -0.03605371  0.33268375  0.49655863  1
  Ta  Ta130  1  -0.05442010  0.66800116  -0.00171428  1
  Ta  Ta131  1  -0.03159494  0.65713461  0.50219889  1
  Ta  Ta132  1  0.33686049  -0.02429143  -0.00131816  1
  Ta  Ta133  1  0.28334967  -0.00874689  0.50828415  1
  Ta  Ta134  1  0.35246242  0.35109717  -0.00030567  1
  Ta  Ta135  1  0.35182809  0.35508516  0.50216850  1
  Ta  Ta136  1  0.32566864  0.62407558  0.00046310  1
  Ta  Ta137  1  0.33070851  0.62397824  0.49593093  1
  Ta  Ta138  1  0.65467758  -0.02647737  -0.00526749  1
  Ta  Ta139  1  0.66869427  -0.04862110  0.50382315  1
  Ta  Ta140  1  0.63928668  0.31933213  0.00388354  1
  Ta  Ta141  1  0.67564673  0.31224735  0.49838422  1
  Ta  Ta142  1  0.71687361  0.66382144  -0.00309861  1
  Ta  Ta143  1  0.66690674  0.69602070  0.50248621  1
  N  N144  1  0.83084445  0.16703629  0.37928694  1
  N  N145  1  0.49491604  0.51324940  0.61941865  1
  N  N146  1  0.83964689  0.16872513  0.12806790  1
  N  N147  1  0.84334119  0.50514254  0.37252955  1
  N  N148  1  0.67736824  0.65950787  0.87898023  1
  N  N149  1  0.32735685  -0.01461957  0.62624014  1
  N  N150  1  0.17358816  0.82915509  0.62671696  1
  N  N151  1  0.50122148  0.84650432  0.87430322  1
  N  N152  1  0.49878276  0.51257899  0.87433657  1
  N  N153  1  0.50169496  0.51421018  0.12284393  1
  N  N154  1  0.49857605  0.85403796  0.37301857  1
  N  N155  1  0.82949207  0.83273875  0.12569967  1
  N  N156  1  0.32777633  0.33384461  0.62227220  1
  N  N157  1  0.16352957  0.15775365  0.62531031  1
  N  N158  1  0.00018859  0.66423825  0.37818766  1
  N  N159  1  0.00169295  0.33508882  0.37514340  1
  N  N160  1  -0.00102241  -0.00289471  0.63030551  1
  N  N161  1  0.66680041  0.66473456  0.62153297  1
  N  N162  1  0.00554074  0.33215315  0.12539969  1
  N  N163  1  0.50289543  0.83976818  0.62207841  1
  N  N164  1  -0.00096989  -0.00131909  0.37598804  1
  N  N165  1  0.66800363  0.34598017  0.62809209  1
  N  N166  1  0.82623423  0.83441706  0.37474070  1
  N  N167  1  0.66083592  0.32051405  0.12770761  1
  N  N168  1  0.17788778  0.82640481  0.87757832  1
  N  N169  1  0.00174527  0.65589565  0.62810490  1
  N  N170  1  0.16585607  0.82509803  0.12658033  1
  N  N171  1  0.17358937  0.49172706  0.87072714  1
  N  N172  1  0.15940471  0.16761022  0.87464704  1
  N  N173  1  0.49124459  0.18195223  0.38302666  1
  N  N174  1  0.66593149  0.32761812  0.36995853  1
  N  N175  1  0.17818505  0.50073151  0.37256375  1
  N  N176  1  0.00273390  0.32875463  0.62149327  1
  O  O177  1  -0.00312187  0.01907299  0.12802092  1
  O  O178  1  0.16590516  0.82931979  0.37097824  1
  O  O179  1  0.67541644  -0.01984562  0.37499736  1
  O  O180  1  0.18103084  0.14831486  0.37524304  1
  O  O181  1  0.32796295  0.01357053  0.37552308  1
  O  O182  1  0.18097947  0.49052535  0.62000310  1
  O  O183  1  -0.00498735  0.01782407  0.88221889  1
  O  O184  1  0.17155881  0.49442680  0.11873656  1
  O  O185  1  0.85191833  0.52088950  0.13036288  1
  O  O186  1  0.33424879  0.65407239  0.86833767  1
  O  O187  1  0.33173694  0.32454608  0.37190631  1
  O  O188  1  0.32080215  0.64621140  0.36545686  1
  O  O189  1  0.83400442  0.84700933  0.62355809  1
  O  O190  1  0.82120842  0.50251493  0.62763668  1
  O  O191  1  0.33658585  0.33974382  0.87522455  1
  O  O192  1  0.66903916  -0.01263375  0.11821287  1
  O  O193  1  0.67228089  0.65760043  0.12255952  1
  O  O194  1  0.67385669  -0.01679177  0.86933128  1
  O  O195  1  0.67729033  -0.02522092  0.62712339  1
  O  O196  1  0.34099135  0.01038369  0.12747545  1
  O  O197  1  0.33902941  0.32574118  0.12483924  1
  O  O198  1  0.65927597  0.66140827  0.37441739  1
  O  O199  1  0.49998836  0.86032193  0.12979583  1
  O  O200  1  -0.01477891  0.65948588  0.87706380  1
  O  O201  1  0.83738477  0.14737281  0.87666722  1
  O  O202  1  0.82537800  0.15611964  0.62579588  1
  O  O203  1  0.31356638  0.64771869  0.13028186  1
  O  O204  1  0.33657216  -0.01433721  0.87434257  1
  O  O205  1  0.48837441  0.19295740  0.87197740  1
  O  O206  1  0.33536838  0.65799820  0.62677687  1
  O  O207  1  0.82251893  0.50880763  0.87715511  1
  O  O208  1  0.49520785  0.18558818  0.62485414  1
  O  O209  1  0.00876460  0.32504935  0.86831901  1
  O  O210  1  0.83746252  0.84257224  0.87335315  1
  O  O211  1  0.66041196  0.34680269  0.87751155  1
  O  O212  1  -0.01004298  0.66547961  0.12006836  1
  O  O213  1  0.17615078  0.16915600  0.12720433  1
  O  O214  1  0.48569099  0.19194941  0.12071200  1
  O  O215  1  0.48818574  0.51524791  0.36887385  1
