# generated using pymatgen
data_Sr24Ta24N11O13
_symmetry_space_group_name_H-M   'P 1'
_cell_length_a   16.74234269
_cell_length_b   16.84058113
_cell_length_c   15.67072524
_cell_angle_alpha   90.41623914
_cell_angle_beta   89.56000979
_cell_angle_gamma   89.78388322
_symmetry_Int_Tables_number   1
_chemical_formula_structural   Sr24Ta24N11O13
_chemical_formula_sum   'Sr72 Ta72 N33 O39'
_cell_volume   4418.09397341
_cell_formula_units_Z   3
loop_
 _symmetry_equiv_pos_site_id
 _symmetry_equiv_pos_as_xyz
  1  'x, y, z'
loop_
 _atom_site_type_symbol
 _atom_site_label
 _atom_site_symmetry_multiplicity
 _atom_site_fract_x
 _atom_site_fract_y
 _atom_site_fract_z
 _atom_site_occupancy
  Sr  Sr0  1  0.00504070  0.16223815  0.13571382  1
  Sr  Sr1  1  -0.00559977  0.16998457  0.59651403  1
  Sr  Sr2  1  -0.01124188  0.51136956  0.17155670  1
  Sr  Sr3  1  0.00521871  0.49260597  0.62076710  1
  Sr  Sr4  1  -0.00655132  0.82491438  0.08211210  1
  Sr  Sr5  1  -0.00023206  0.84258970  0.63265634  1
  Sr  Sr6  1  0.34393582  0.17682600  0.09684784  1
  Sr  Sr7  1  0.31633596  0.18019897  0.64221602  1
  Sr  Sr8  1  0.33122751  0.50583971  0.13124968  1
  Sr  Sr9  1  0.34658457  0.53242055  0.61869313  1
  Sr  Sr10  1  0.32701759  0.86549749  0.15719558  1
  Sr  Sr11  1  0.34294834  0.83820705  0.60353281  1
  Sr  Sr12  1  0.65674123  0.18915879  0.18343354  1
  Sr  Sr13  1  0.66919268  0.15817238  0.61481078  1
  Sr  Sr14  1  0.67886543  0.50060971  0.08368890  1
  Sr  Sr15  1  0.66603237  0.51079905  0.62285273  1
  Sr  Sr16  1  0.65712745  0.85733239  0.12207973  1
  Sr  Sr17  1  0.66970218  0.83295495  0.66324444  1
  Sr  Sr18  1  0.16331885  0.00712322  0.16578145  1
  Sr  Sr19  1  0.18383968  -0.01821972  0.62724120  1
  Sr  Sr20  1  0.17453746  0.31562384  0.08119553  1
  Sr  Sr21  1  0.15875069  0.33330149  0.63080499  1
  Sr  Sr22  1  0.16560270  0.67095172  0.11384935  1
  Sr  Sr23  1  0.14211459  0.65561992  0.66257229  1
  Sr  Sr24  1  0.49293582  -0.00244839  0.12945355  1
  Sr  Sr25  1  0.49735481  -0.01066293  0.58313683  1
  Sr  Sr26  1  0.49018325  0.32522005  0.15380880  1
  Sr  Sr27  1  0.50473864  0.30000910  0.61988214  1
  Sr  Sr28  1  0.49836037  0.62595587  0.09132506  1
  Sr  Sr29  1  0.51233400  0.66616655  0.63631096  1
  Sr  Sr30  1  0.85804755  0.00590606  0.07981655  1
  Sr  Sr31  1  0.82463324  -0.00330644  0.63605830  1
  Sr  Sr32  1  0.83519515  0.32982072  0.11944589  1
  Sr  Sr33  1  0.82398695  0.34400289  0.66468193  1
  Sr  Sr34  1  0.82717180  0.66778611  0.13323654  1
  Sr  Sr35  1  0.84678250  0.65037516  0.58113721  1
  Sr  Sr36  1  0.00157452  0.16372427  0.36816565  1
  Sr  Sr37  1  -0.02962224  0.17763042  0.92528414  1
  Sr  Sr38  1  -0.00106667  0.49872045  0.37962469  1
  Sr  Sr39  1  0.01183446  0.48538432  0.83310481  1
  Sr  Sr40  1  -0.01717373  0.83651365  0.41112828  1
  Sr  Sr41  1  -0.00123939  0.84517723  0.86368883  1
  Sr  Sr42  1  0.31723594  0.20338662  0.39586925  1
  Sr  Sr43  1  0.32453061  0.16705801  0.86938200  1
  Sr  Sr44  1  0.34114578  0.50856915  0.35839651  1
  Sr  Sr45  1  0.33428425  0.53585327  0.90491695  1
  Sr  Sr46  1  0.32780808  0.83679974  0.37782908  1
  Sr  Sr47  1  0.34000339  0.85248079  0.87011420  1
  Sr  Sr48  1  0.66863915  0.14346791  0.39396701  1
  Sr  Sr49  1  0.67270055  0.17336127  0.82940187  1
  Sr  Sr50  1  0.66540592  0.51941767  0.41155700  1
  Sr  Sr51  1  0.66819897  0.51244637  0.87558002  1
  Sr  Sr52  1  0.67817070  0.82036389  0.33104270  1
  Sr  Sr53  1  0.65689993  0.85032336  0.87505822  1
  Sr  Sr54  1  0.17010545  -0.02324879  0.37616856  1
  Sr  Sr55  1  0.17899853  -0.00375347  0.83623458  1
  Sr  Sr56  1  0.15587868  0.33556382  0.42101422  1
  Sr  Sr57  1  0.16739633  0.32931821  0.86973128  1
  Sr  Sr58  1  0.17158151  0.64642732  0.32349415  1
  Sr  Sr59  1  0.15719636  0.66847675  0.88783616  1
  Sr  Sr60  1  0.50469922  -0.02670543  0.35504638  1
  Sr  Sr61  1  0.48815967  -0.00182860  0.91658026  1
  Sr  Sr62  1  0.51437533  0.32084702  0.37369011  1
  Sr  Sr63  1  0.49155238  0.29126291  0.85760277  1
  Sr  Sr64  1  0.48857695  0.65028760  0.40759176  1
  Sr  Sr65  1  0.50322494  0.66228015  0.85688244  1
  Sr  Sr66  1  0.84808617  0.01102259  0.41799092  1
  Sr  Sr67  1  0.82697566  -0.01064201  0.86011891  1
  Sr  Sr68  1  0.84681073  0.32225190  0.33238636  1
  Sr  Sr69  1  0.82366783  0.34162903  0.88125735  1
  Sr  Sr70  1  0.83985292  0.65811350  0.36865480  1
  Sr  Sr71  1  0.83059137  0.66079557  0.90963521  1
  Ta  Ta72  1  0.16341934  0.12517131  -0.00318536  1
  Ta  Ta73  1  0.16262401  0.13386268  0.50605444  1
  Ta  Ta74  1  0.12967052  0.49643611  0.00198329  1
  Ta  Ta75  1  0.17675177  0.52636790  0.49514332  1
  Ta  Ta76  1  0.18115737  0.86279452  0.00288486  1
  Ta  Ta77  1  0.15860977  0.78965737  0.49555817  1
  Ta  Ta78  1  0.55937884  0.16582457  0.00762150  1
  Ta  Ta79  1  0.46996796  0.14788580  0.48492116  1
  Ta  Ta80  1  0.50164927  0.44738558  -0.00373993  1
  Ta  Ta81  1  0.49337845  0.46742321  0.50606749  1
  Ta  Ta82  1  0.49039128  0.80593023  0.01318655  1
  Ta  Ta83  1  0.54754086  0.82439147  0.49374757  1
  Ta  Ta84  1  0.76259074  0.17554059  0.00380316  1
  Ta  Ta85  1  0.83171700  0.20926707  0.50169905  1
  Ta  Ta86  1  0.87729481  0.49676750  0.00177526  1
  Ta  Ta87  1  0.83572500  0.45346275  0.49308188  1
  Ta  Ta88  1  0.80914461  0.82632753  -0.00889354  1
  Ta  Ta89  1  0.79500137  0.82841269  0.50588547  1
  Ta  Ta90  1  0.17841837  0.19740833  0.25237623  1
  Ta  Ta91  1  0.11909276  0.16480140  0.75129570  1
  Ta  Ta92  1  0.16868948  0.44889883  0.24979533  1
  Ta  Ta93  1  0.20618394  0.49685967  0.75824234  1
  Ta  Ta94  1  0.11489603  0.82751918  0.25287162  1
  Ta  Ta95  1  0.18733704  0.81562293  0.74401883  1
  Ta  Ta96  1  0.46746718  0.15303158  0.26246904  1
  Ta  Ta97  1  0.49747008  0.11637233  0.74540995  1
  Ta  Ta98  1  0.53100839  0.50299979  0.25264484  1
  Ta  Ta99  1  0.49609805  0.46942004  0.74814435  1
  Ta  Ta100  1  0.49916984  0.77642658  0.23595699  1
  Ta  Ta101  1  0.49474653  0.86950114  0.75005433  1
  Ta  Ta102  1  0.83507697  0.12864691  0.25377099  1
  Ta  Ta103  1  0.86349840  0.16789533  0.74740375  1
  Ta  Ta104  1  0.79352876  0.49994011  0.24956561  1
  Ta  Ta105  1  0.83520551  0.53451799  0.75369943  1
  Ta  Ta106  1  0.85687919  0.85865031  0.24638443  1
  Ta  Ta107  1  0.83929221  0.78658706  0.74655500  1
  Ta  Ta108  1  -0.02164995  -0.02450094  0.24516800  1
  Ta  Ta109  1  -0.00197633  0.04697817  0.76062962  1
  Ta  Ta110  1  0.05079407  0.32758543  0.24773649  1
  Ta  Ta111  1  -0.00523430  0.29368659  0.75473474  1
  Ta  Ta112  1  -0.00454213  0.70866041  0.24429823  1
  Ta  Ta113  1  -0.04351813  0.66413328  0.75180379  1
  Ta  Ta114  1  0.33338340  0.05193370  0.26270253  1
  Ta  Ta115  1  0.37082257  0.00444682  0.74297594  1
  Ta  Ta116  1  0.29444730  0.32987263  0.24525709  1
  Ta  Ta117  1  0.33916150  0.38306153  0.75304753  1
  Ta  Ta118  1  0.36397572  0.68155630  0.24286492  1
  Ta  Ta119  1  0.31412465  0.68738892  0.75529582  1
  Ta  Ta120  1  0.72659773  0.00024847  0.24874606  1
  Ta  Ta121  1  0.62155948  0.00263490  0.74678826  1
  Ta  Ta122  1  0.66829802  0.38741965  0.25265180  1
  Ta  Ta123  1  0.64203362  0.35817805  0.74368531  1
  Ta  Ta124  1  0.64428384  0.63904617  0.24462342  1
  Ta  Ta125  1  0.70887074  0.66581500  0.74821135  1
  Ta  Ta126  1  0.05043956  0.00042363  -0.00422996  1
  Ta  Ta127  1  0.02637429  0.00945069  0.50840300  1
  Ta  Ta128  1  0.00008390  0.37500217  -0.00001244  1
  Ta  Ta129  1  -0.03860278  0.33242295  0.50656223  1
  Ta  Ta130  1  -0.00237584  0.61921052  0.00215909  1
  Ta  Ta131  1  0.04920704  0.66073354  0.49212617  1
  Ta  Ta132  1  0.29483352  0.00381309  0.00352638  1
  Ta  Ta133  1  0.33030076  0.03461528  0.48921514  1
  Ta  Ta134  1  0.35671124  0.35517664  -0.00090372  1
  Ta  Ta135  1  0.34871266  0.36571106  0.50279019  1
  Ta  Ta136  1  0.33925473  0.71891094  0.00660229  1
  Ta  Ta137  1  0.27084738  0.66780100  0.49544574  1
  Ta  Ta138  1  0.67230381  0.03402040  -0.00528158  1
  Ta  Ta139  1  0.66936001  -0.05031934  0.50140725  1
  Ta  Ta140  1  0.64544202  0.31101765  0.00116003  1
  Ta  Ta141  1  0.70057238  0.33589198  0.50011431  1
  Ta  Ta142  1  0.65758565  0.70057693  -0.00618176  1
  Ta  Ta143  1  0.66941818  0.70849957  0.50412830  1
  N  N144  1  0.32977237  0.68960673  0.88177751  1
  N  N145  1  0.82943926  0.17182922  0.62791269  1
  N  N146  1  0.33764839  0.00769381  0.61977711  1
  N  N147  1  -0.00666940  0.33178180  0.62815103  1
  N  N148  1  -0.00085986  0.00516548  0.88134741  1
  N  N149  1  0.83415098  0.50187995  0.12981315  1
  N  N150  1  -0.00583933  0.66694263  0.12536355  1
  N  N151  1  0.66018487  0.00923394  0.87107005  1
  N  N152  1  0.52061777  0.16005959  0.37233498  1
  N  N153  1  0.66428831  0.67474799  0.87373237  1
  N  N154  1  0.16784097  0.82618291  0.62403750  1
  N  N155  1  0.67260318  0.66858840  0.62401664  1
  N  N156  1  0.00635737  -0.00589289  0.12523419  1
  N  N157  1  0.66462974  0.33300984  0.62399417  1
  N  N158  1  0.49961830  0.84296301  0.13393761  1
  N  N159  1  0.83882160  0.82607364  0.62158029  1
  N  N160  1  0.15802362  0.82497273  0.36796962  1
  N  N161  1  0.50730398  0.47748496  0.11783557  1
  N  N162  1  0.16961989  0.49162710  0.37474862  1
  N  N163  1  0.33027861  -0.01142884  0.36725793  1
  N  N164  1  0.83212424  0.83245712  0.87135275  1
  N  N165  1  0.32690272  0.01902765  0.13172867  1
  N  N166  1  0.16041749  0.16244857  0.62753237  1
  N  N167  1  0.17013054  0.50313834  0.87939872  1
  N  N168  1  0.50624934  0.49412515  0.37844711  1
  N  N169  1  0.83535215  0.49687519  0.37701282  1
  N  N170  1  0.66304873  -0.00705075  0.61891661  1
  N  N171  1  0.84019635  0.50079208  0.87197332  1
  N  N172  1  -0.00421217  0.33166704  0.88244636  1
  N  N173  1  0.33098508  0.33627243  0.12292054  1
  N  N174  1  0.33217328  0.01055302  0.87952298  1
  N  N175  1  0.50607748  0.50790353  0.62992116  1
  N  N176  1  0.83844318  0.16467358  0.37406168  1
  O  O177  1  0.30525338  0.67667047  0.61871110  1
  O  O178  1  0.33545660  0.34056136  0.87060730  1
  O  O179  1  0.32988617  0.35339420  0.37526648  1
  O  O180  1  0.49566137  0.84609069  0.87795605  1
  O  O181  1  -0.00037579  0.65526520  0.61434263  1
  O  O182  1  0.32364646  0.66344829  0.12206663  1
  O  O183  1  0.16263640  0.84519302  0.12965890  1
  O  O184  1  0.83871194  0.84394627  0.11982066  1
  O  O185  1  0.32108436  0.67445737  0.36633305  1
  O  O186  1  0.16888707  0.48996380  0.12490252  1
  O  O187  1  0.65048923  0.32537395  0.86766486  1
  O  O188  1  0.65998482  0.34113493  0.13134412  1
  O  O189  1  0.16623995  0.16422589  0.87236261  1
  O  O190  1  0.33615034  0.35047551  0.62693467  1
  O  O191  1  0.51144375  0.83892606  0.62560162  1
  O  O192  1  0.01067032  0.00257445  0.63430235  1
  O  O193  1  0.65983506  0.66673794  0.37007001  1
  O  O194  1  0.80336622  0.17344505  0.12740552  1
  O  O195  1  0.16593129  0.50189720  0.63582449  1
  O  O196  1  0.65578693  0.65165632  0.11809736  1
  O  O197  1  0.49382125  0.14540819  0.61301235  1
  O  O198  1  0.51327418  0.15974961  0.13256970  1
  O  O199  1  0.70117435  0.00543290  0.12620936  1
  O  O200  1  0.50664390  0.50487547  0.87828851  1
  O  O201  1  0.16352406  0.18185068  0.38126461  1
  O  O202  1  0.51736253  0.14744154  0.88445766  1
  O  O203  1  -0.00440264  0.65246507  0.87485563  1
  O  O204  1  0.17834180  0.84102330  0.87761985  1
  O  O205  1  0.83427061  0.84098383  0.37347146  1
  O  O206  1  0.84195029  0.49855357  0.61961207  1
  O  O207  1  0.52560688  0.81222112  0.36137982  1
  O  O208  1  0.00536055  0.66246721  0.37064992  1
  O  O209  1  0.16837314  0.16717131  0.12616573  1
  O  O210  1  0.00304684  -0.00411765  0.38259241  1
  O  O211  1  0.67014090  0.34691400  0.37501698  1
  O  O212  1  0.00671924  0.32575493  0.37192421  1
  O  O213  1  0.01354529  0.32673612  0.12512670  1
  O  O214  1  0.69801608  -0.01263312  0.37502474  1
  O  O215  1  0.81550007  0.18002583  0.88292233  1
