# generated using pymatgen
data_Sr24Ta24N11O13
_symmetry_space_group_name_H-M   'P 1'
_cell_length_a   16.65404841
_cell_length_b   16.85004067
_cell_length_c   15.70654183
_cell_angle_alpha   89.74240646
_cell_angle_beta   90.02824412
_cell_angle_gamma   89.97103228
_symmetry_Int_Tables_number   1
_chemical_formula_structural   Sr24Ta24N11O13
_chemical_formula_sum   'Sr72 Ta72 N33 O39'
_cell_volume   4407.54600053
_cell_formula_units_Z   3
loop_
 _symmetry_equiv_pos_site_id
 _symmetry_equiv_pos_as_xyz
  1  'x, y, z'
loop_
 _atom_site_type_symbol
 _atom_site_label
 _atom_site_symmetry_multiplicity
 _atom_site_fract_x
 _atom_site_fract_y
 _atom_site_fract_z
 _atom_site_occupancy
  Sr  Sr0  1  0.00911179  0.12670842  0.14982067  1
  Sr  Sr1  1  -0.00996741  0.16558101  0.61494573  1
  Sr  Sr2  1  -0.00870787  0.47735342  0.13147125  1
  Sr  Sr3  1  0.02243630  0.48271630  0.65720905  1
  Sr  Sr4  1  0.01118253  0.81707016  0.08714189  1
  Sr  Sr5  1  -0.00341485  0.80780088  0.64195128  1
  Sr  Sr6  1  0.33183933  0.15047100  0.09631064  1
  Sr  Sr7  1  0.32877382  0.17780260  0.62229295  1
  Sr  Sr8  1  0.35502624  0.48787949  0.13984379  1
  Sr  Sr9  1  0.32528758  0.50414660  0.58608868  1
  Sr  Sr10  1  0.33041113  0.83499667  0.16190338  1
  Sr  Sr11  1  0.33316112  0.82260001  0.62682798  1
  Sr  Sr12  1  0.67373686  0.17603261  0.12093422  1
  Sr  Sr13  1  0.65508170  0.15709854  0.67630105  1
  Sr  Sr14  1  0.66582120  0.49376358  0.09249515  1
  Sr  Sr15  1  0.64624712  0.49682314  0.64354538  1
  Sr  Sr16  1  0.67047154  0.82061545  0.13685498  1
  Sr  Sr17  1  0.66519989  0.85432229  0.57830422  1
  Sr  Sr18  1  0.17222696  -0.00809445  0.13307387  1
  Sr  Sr19  1  0.16233667  0.03815527  0.57839824  1
  Sr  Sr20  1  0.18925124  0.35371331  0.10978681  1
  Sr  Sr21  1  0.15487578  0.32836029  0.66928477  1
  Sr  Sr22  1  0.15826470  0.67723564  0.09762540  1
  Sr  Sr23  1  0.16115839  0.66942798  0.62804637  1
  Sr  Sr24  1  0.51575568  0.01292084  0.07891604  1
  Sr  Sr25  1  0.48946171  -0.00686025  0.62745052  1
  Sr  Sr26  1  0.50955555  0.32512739  0.16140964  1
  Sr  Sr27  1  0.48435361  0.34546610  0.60660456  1
  Sr  Sr28  1  0.50209187  0.66157047  0.11379570  1
  Sr  Sr29  1  0.49915527  0.66905969  0.66117488  1
  Sr  Sr30  1  0.82188512  -0.00046417  0.16960213  1
  Sr  Sr31  1  0.83703788  0.00872224  0.62267036  1
  Sr  Sr32  1  0.82343205  0.33610679  0.12850635  1
  Sr  Sr33  1  0.84089687  0.33654374  0.59087234  1
  Sr  Sr34  1  0.83899108  0.67746626  0.13738638  1
  Sr  Sr35  1  0.81620492  0.66164142  0.61726496  1
  Sr  Sr36  1  0.00594354  0.14395617  0.39222670  1
  Sr  Sr37  1  -0.00287114  0.15254962  0.85947353  1
  Sr  Sr38  1  -0.00194921  0.48951832  0.34083070  1
  Sr  Sr39  1  0.00325919  0.46671558  0.87966084  1
  Sr  Sr40  1  0.01294672  0.79273765  0.40538972  1
  Sr  Sr41  1  -0.00527217  0.83399462  0.86766950  1
  Sr  Sr42  1  0.34741193  0.15566030  0.40157728  1
  Sr  Sr43  1  0.32168774  0.17683815  0.87588700  1
  Sr  Sr44  1  0.33639019  0.49250864  0.36557710  1
  Sr  Sr45  1  0.32693836  0.51177977  0.91962695  1
  Sr  Sr46  1  0.33015391  0.82802081  0.36779243  1
  Sr  Sr47  1  0.34614757  0.82775488  0.83158277  1
  Sr  Sr48  1  0.66327760  0.19302043  0.33605732  1
  Sr  Sr49  1  0.66803166  0.16235326  0.88253492  1
  Sr  Sr50  1  0.68753682  0.49500974  0.43279744  1
  Sr  Sr51  1  0.66034290  0.50785540  0.86035156  1
  Sr  Sr52  1  0.67371857  0.82213007  0.36103046  1
  Sr  Sr53  1  0.64590797  0.83938098  0.92069139  1
  Sr  Sr54  1  0.17366495  0.00685603  0.35125805  1
  Sr  Sr55  1  0.15281244  0.00677168  0.91580389  1
  Sr  Sr56  1  0.16346967  0.36414421  0.33622141  1
  Sr  Sr57  1  0.17343344  0.33897449  0.87969479  1
  Sr  Sr58  1  0.17658354  0.66914447  0.41180070  1
  Sr  Sr59  1  0.15872019  0.68178381  0.86059237  1
  Sr  Sr60  1  0.50033803  -0.00774053  0.41216759  1
  Sr  Sr61  1  0.50059492  0.00454321  0.87009741  1
  Sr  Sr62  1  0.49136905  0.33582161  0.38480979  1
  Sr  Sr63  1  0.52365693  0.32923394  0.81940455  1
  Sr  Sr64  1  0.49370847  0.68766451  0.32400868  1
  Sr  Sr65  1  0.50271875  0.65519006  0.88485979  1
  Sr  Sr66  1  0.82915353  0.00980792  0.37994195  1
  Sr  Sr67  1  0.84529400  0.00930264  0.83627836  1
  Sr  Sr68  1  0.83653488  0.33849368  0.37904601  1
  Sr  Sr69  1  0.82799247  0.33469961  0.91932442  1
  Sr  Sr70  1  0.82947317  0.66524194  0.38141078  1
  Sr  Sr71  1  0.82859289  0.69186214  0.87412460  1
  Ta  Ta72  1  0.14133683  0.18351532  -0.00076814  1
  Ta  Ta73  1  0.16365257  0.22641681  0.49744424  1
  Ta  Ta74  1  0.14314090  0.52095241  -0.00441213  1
  Ta  Ta75  1  0.14485945  0.48148719  0.50134111  1
  Ta  Ta76  1  0.21205075  0.83701126  -0.00160012  1
  Ta  Ta77  1  0.17170189  0.86346242  0.49484498  1
  Ta  Ta78  1  0.50288522  0.21226530  -0.00924029  1
  Ta  Ta79  1  0.55004319  0.17032643  0.50450290  1
  Ta  Ta80  1  0.50248150  0.44899757  -0.01208480  1
  Ta  Ta81  1  0.49847455  0.54225237  0.49998487  1
  Ta  Ta82  1  0.45811061  0.83119945  0.00685284  1
  Ta  Ta83  1  0.49027172  0.80412732  0.49473291  1
  Ta  Ta84  1  0.84982094  0.13674940  0.00404361  1
  Ta  Ta85  1  0.77510079  0.17207349  0.50771604  1
  Ta  Ta86  1  0.83622665  0.52874267  -0.00169520  1
  Ta  Ta87  1  0.88549464  0.50115186  0.49915676  1
  Ta  Ta88  1  0.83116542  0.87255243  0.00693404  1
  Ta  Ta89  1  0.85251295  0.84661137  0.49979196  1
  Ta  Ta90  1  0.17807136  0.19222160  0.24961527  1
  Ta  Ta91  1  0.16251952  0.12833273  0.75289991  1
  Ta  Ta92  1  0.16959448  0.54973092  0.25059176  1
  Ta  Ta93  1  0.20604704  0.50865277  0.75045652  1
  Ta  Ta94  1  0.14516033  0.81089729  0.24924465  1
  Ta  Ta95  1  0.16713794  0.89690839  0.74380005  1
  Ta  Ta96  1  0.48867083  0.14004310  0.24615734  1
  Ta  Ta97  1  0.47429455  0.15706263  0.75104273  1
  Ta  Ta98  1  0.54392387  0.49818464  0.25823793  1
  Ta  Ta99  1  0.45157611  0.49855604  0.75109929  1
  Ta  Ta100  1  0.50619069  0.88002702  0.24526204  1
  Ta  Ta101  1  0.53988479  0.83742584  0.74396633  1
  Ta  Ta102  1  0.85217973  0.18234801  0.25838777  1
  Ta  Ta103  1  0.83145636  0.20458730  0.75161483  1
  Ta  Ta104  1  0.79921999  0.50190970  0.25723903  1
  Ta  Ta105  1  0.84303547  0.47876955  0.75014274  1
  Ta  Ta106  1  0.88192427  0.82767944  0.24981090  1
  Ta  Ta107  1  0.78403416  0.84130832  0.74984863  1
  Ta  Ta108  1  0.00151063  -0.05911819  0.25587880  1
  Ta  Ta109  1  0.03487091  -0.00342791  0.74128683  1
  Ta  Ta110  1  -0.00558575  0.29243011  0.25044991  1
  Ta  Ta111  1  -0.04576198  0.32018437  0.75288655  1
  Ta  Ta112  1  0.01885396  0.67297515  0.25076590  1
  Ta  Ta113  1  -0.02480112  0.63341059  0.75305821  1
  Ta  Ta114  1  0.37939386  0.01298775  0.24213424  1
  Ta  Ta115  1  0.30354604  0.01416921  0.74680053  1
  Ta  Ta116  1  0.33227618  0.28854092  0.24596535  1
  Ta  Ta117  1  0.33561105  0.37222185  0.75309809  1
  Ta  Ta118  1  0.29903169  0.65926514  0.24594935  1
  Ta  Ta119  1  0.32864238  0.62921531  0.75236908  1
  Ta  Ta120  1  0.61937529  0.01312976  0.24873639  1
  Ta  Ta121  1  0.66639683  -0.03446786  0.75271141  1
  Ta  Ta122  1  0.67292004  0.38753830  0.26173781  1
  Ta  Ta123  1  0.71950942  0.33381578  0.74954852  1
  Ta  Ta124  1  0.66722895  0.61482224  0.25852563  1
  Ta  Ta125  1  0.66570041  0.72100253  0.75104254  1
  Ta  Ta126  1  -0.04139843  -0.00350876  0.00958672  1
  Ta  Ta127  1  -0.00061127  -0.04357639  0.48848096  1
  Ta  Ta128  1  0.00823371  0.28828315  0.00011567  1
  Ta  Ta129  1  0.02660042  0.34445275  0.50533780  1
  Ta  Ta130  1  -0.01291691  0.62917654  -0.00123183  1
  Ta  Ta131  1  -0.00286218  0.61802405  0.50264267  1
  Ta  Ta132  1  0.33751186  -0.04242287  -0.00118712  1
  Ta  Ta133  1  0.32020484  -0.02620938  0.50047185  1
  Ta  Ta134  1  0.38061242  0.33140288  -0.00788975  1
  Ta  Ta135  1  0.28388396  0.33476294  0.50184295  1
  Ta  Ta136  1  0.32831362  0.70664913  -0.00662915  1
  Ta  Ta137  1  0.38349526  0.67031675  0.49555945  1
  Ta  Ta138  1  0.71868439  0.00628482  -0.00289801  1
  Ta  Ta139  1  0.66635157  0.04496316  0.50613670  1
  Ta  Ta140  1  0.63033898  0.33219172  -0.00892488  1
  Ta  Ta141  1  0.66147166  0.29834275  0.51919504  1
  Ta  Ta142  1  0.68554758  0.65797339  -0.00124283  1
  Ta  Ta143  1  0.61548116  0.67068699  0.49564507  1
  N  N144  1  0.50138590  0.83138037  0.12346860  1
  N  N145  1  0.17176261  0.50471213  0.62266381  1
  N  N146  1  0.33110711  0.67206500  0.87131579  1
  N  N147  1  0.16548478  0.50619937  0.87622447  1
  N  N148  1  0.50253963  0.83805625  0.36620185  1
  N  N149  1  0.84057539  0.49673184  0.37873997  1
  N  N150  1  0.65837715  0.66144055  0.37592883  1
  N  N151  1  0.49075466  0.50525575  0.61925503  1
  N  N152  1  0.00113726  0.64461623  0.37383431  1
  N  N153  1  0.32784473  0.00266133  0.62137887  1
  N  N154  1  0.67488214  0.33732839  0.87390459  1
  N  N155  1  0.84057841  0.83702862  0.12645080  1
  N  N156  1  0.65834254  0.33572476  0.64131666  1
  N  N157  1  0.50258056  0.16513055  0.86869376  1
  N  N158  1  0.16035603  0.16543253  0.87260802  1
  N  N159  1  0.50644625  0.83374997  0.62291920  1
  N  N160  1  -0.00572149  0.65021108  0.63401263  1
  N  N161  1  0.67812618  0.00341844  0.87954461  1
  N  N162  1  0.17387147  0.83388349  0.11994831  1
  N  N163  1  -0.00305411  0.32598752  0.62575285  1
  N  N164  1  0.16736001  0.51366979  0.37132282  1
  N  N165  1  0.66610520  0.68012988  0.87864342  1
  N  N166  1  0.31876558  0.34136734  0.62069965  1
  N  N167  1  0.66749785  0.00841009  0.62753008  1
  N  N168  1  0.00571106  -0.00591705  0.36959639  1
  N  N169  1  0.34798537  0.32067012  0.12885250  1
  N  N170  1  -0.00387929  -0.02139842  0.12651533  1
  N  N171  1  0.49886336  0.49354982  0.86900633  1
  N  N172  1  0.34546649  -0.00388671  0.12235796  1
  N  N173  1  -0.00717859  0.31317308  0.87826836  1
  N  N174  1  0.33312202  0.33555232  0.87456707  1
  N  N175  1  0.17216038  0.83559252  0.37195825  1
  N  N176  1  -0.00598404  0.65073841  0.12008914  1
  O  O177  1  0.66293378  0.65311538  0.12788230  1
  O  O178  1  0.34390874  0.66481657  0.61966533  1
  O  O179  1  0.66966833  0.34435255  0.38479738  1
  O  O180  1  0.33519966  -0.00884468  0.87228891  1
  O  O181  1  0.84024299  0.82660429  0.37619097  1
  O  O182  1  0.01172045  -0.00123751  0.61342261  1
  O  O183  1  0.34506956  0.00174787  0.37543909  1
  O  O184  1  0.82851304  0.16396741  0.62422834  1
  O  O185  1  0.65321267  0.02734913  0.36843849  1
  O  O186  1  0.49861092  0.16361934  0.62329091  1
  O  O187  1  0.17327556  0.17047910  0.12597256  1
  O  O188  1  0.33426671  0.33322159  0.37037221  1
  O  O189  1  0.00175688  -0.00889963  0.87110875  1
  O  O190  1  0.83007337  0.84770435  0.87001993  1
  O  O191  1  0.84803555  0.48993123  0.62517231  1
  O  O192  1  0.33512008  0.66229299  0.37073922  1
  O  O193  1  0.84708634  0.15754631  0.13506427  1
  O  O194  1  -0.01497224  0.68099678  0.87236846  1
  O  O195  1  0.51115381  0.48144988  0.13149905  1
  O  O196  1  0.81853017  0.17986476  0.38070441  1
  O  O197  1  0.83221086  0.84645461  0.62521462  1
  O  O198  1  0.66624363  0.34261748  0.12627892  1
  O  O199  1  0.49761897  0.83310887  0.87694472  1
  O  O200  1  0.31834729  0.67046071  0.12105410  1
  O  O201  1  0.83780036  0.16189617  0.87957413  1
  O  O202  1  0.49870378  0.16966707  0.11416699  1
  O  O203  1  0.15466481  0.17805765  0.63077611  1
  O  O204  1  0.50890700  0.16443511  0.38101304  1
  O  O205  1  0.17756966  0.85796726  0.86733878  1
  O  O206  1  0.17034616  0.85208669  0.62896936  1
  O  O207  1  0.00277781  0.32059530  0.37320367  1
  O  O208  1  0.65546859  0.68321126  0.61997577  1
  O  O209  1  0.83112424  0.49482335  0.87955435  1
  O  O210  1  0.49583651  0.49133567  0.37694554  1
  O  O211  1  0.83152969  0.51216184  0.12714906  1
  O  O212  1  -0.01626108  0.31086737  0.12722861  1
  O  O213  1  0.66762923  0.02061736  0.12651527  1
  O  O214  1  0.16404417  0.18637740  0.37479827  1
  O  O215  1  0.15039904  0.50602613  0.12842853  1
