# generated using pymatgen
data_Sr24Ta24N11O13
_symmetry_space_group_name_H-M   'P 1'
_cell_length_a   16.77640603
_cell_length_b   16.78500759
_cell_length_c   15.71663301
_cell_angle_alpha   90.18791761
_cell_angle_beta   89.80938273
_cell_angle_gamma   89.90943501
_symmetry_Int_Tables_number   1
_chemical_formula_structural   Sr24Ta24N11O13
_chemical_formula_sum   'Sr72 Ta72 N33 O39'
_cell_volume   4425.62583180
_cell_formula_units_Z   3
loop_
 _symmetry_equiv_pos_site_id
 _symmetry_equiv_pos_as_xyz
  1  'x, y, z'
loop_
 _atom_site_type_symbol
 _atom_site_label
 _atom_site_symmetry_multiplicity
 _atom_site_fract_x
 _atom_site_fract_y
 _atom_site_fract_z
 _atom_site_occupancy
  Sr  Sr0  1  -0.00885644  0.15025841  0.16684542  1
  Sr  Sr1  1  0.00142028  0.17785087  0.61771992  1
  Sr  Sr2  1  0.01235526  0.47447652  0.12190969  1
  Sr  Sr3  1  -0.00899512  0.50535729  0.66532689  1
  Sr  Sr4  1  0.00293810  0.81148602  0.09988504  1
  Sr  Sr5  1  0.00611468  0.80960939  0.60979816  1
  Sr  Sr6  1  0.34201060  0.16637220  0.13137474  1
  Sr  Sr7  1  0.33430225  0.15280512  0.58990773  1
  Sr  Sr8  1  0.32983020  0.48957147  0.14423615  1
  Sr  Sr9  1  0.32849869  0.49831172  0.62288618  1
  Sr  Sr10  1  0.32807901  0.81152304  0.10096218  1
  Sr  Sr11  1  0.32558602  0.83843696  0.66420532  1
  Sr  Sr12  1  0.68688310  0.14899073  0.07925987  1
  Sr  Sr13  1  0.65696815  0.17632535  0.63450985  1
  Sr  Sr14  1  0.66490874  0.50391619  0.13050398  1
  Sr  Sr15  1  0.68268997  0.48892601  0.59202479  1
  Sr  Sr16  1  0.66334289  0.84546825  0.16385803  1
  Sr  Sr17  1  0.66469527  0.81895873  0.61289036  1
  Sr  Sr18  1  0.16136298  0.03241940  0.16521786  1
  Sr  Sr19  1  0.15586529  -0.00773600  0.62312583  1
  Sr  Sr20  1  0.17950389  0.32583575  0.07541824  1
  Sr  Sr21  1  0.15821629  0.33795805  0.63972482  1
  Sr  Sr22  1  0.16399439  0.64727141  0.15472072  1
  Sr  Sr23  1  0.16580157  0.66611269  0.59113876  1
  Sr  Sr24  1  0.49603535  -0.00148501  0.12702243  1
  Sr  Sr25  1  0.49776277  0.01772813  0.58612895  1
  Sr  Sr26  1  0.49490371  0.34719582  0.15121661  1
  Sr  Sr27  1  0.50227781  0.33686553  0.65279264  1
  Sr  Sr28  1  0.52042364  0.67037824  0.10843937  1
  Sr  Sr29  1  0.50689242  0.66614131  0.62812751  1
  Sr  Sr30  1  0.83684873  -0.00439659  0.11864121  1
  Sr  Sr31  1  0.80045752  0.02513223  0.67110300  1
  Sr  Sr32  1  0.84440721  0.33607236  0.13736620  1
  Sr  Sr33  1  0.81874998  0.32546036  0.58145165  1
  Sr  Sr34  1  0.84114162  0.68108680  0.09541750  1
  Sr  Sr35  1  0.84757015  0.66882341  0.63886200  1
  Sr  Sr36  1  -0.00893094  0.18054637  0.38419786  1
  Sr  Sr37  1  0.01177727  0.15471291  0.83334219  1
  Sr  Sr38  1  -0.00061904  0.49477769  0.33642126  1
  Sr  Sr39  1  0.00975477  0.47625432  0.87702536  1
  Sr  Sr40  1  0.01096590  0.81599297  0.40198538  1
  Sr  Sr41  1  -0.01136629  0.82779456  0.89078991  1
  Sr  Sr42  1  0.34414776  0.15173755  0.36208972  1
  Sr  Sr43  1  0.32805329  0.16813949  0.90798085  1
  Sr  Sr44  1  0.32461982  0.50614193  0.38700167  1
  Sr  Sr45  1  0.34112217  0.47968299  0.84270509  1
  Sr  Sr46  1  0.31459626  0.81624802  0.34545628  1
  Sr  Sr47  1  0.34208652  0.84162851  0.88083644  1
  Sr  Sr48  1  0.66921306  0.16529271  0.41167116  1
  Sr  Sr49  1  0.66210938  0.16381092  0.86587617  1
  Sr  Sr50  1  0.66748718  0.48779511  0.35858441  1
  Sr  Sr51  1  0.67431651  0.51188021  0.91444847  1
  Sr  Sr52  1  0.65877612  0.83761432  0.38039189  1
  Sr  Sr53  1  0.66870545  0.82014141  0.82586863  1
  Sr  Sr54  1  0.14798502  0.00230090  0.38403069  1
  Sr  Sr55  1  0.16051576  -0.00076023  0.83226248  1
  Sr  Sr56  1  0.18258718  0.32911360  0.42235165  1
  Sr  Sr57  1  0.15934778  0.32818064  0.86410464  1
  Sr  Sr58  1  0.16305054  0.66211323  0.36628427  1
  Sr  Sr59  1  0.17287614  0.71201092  0.93550691  1
  Sr  Sr60  1  0.50417516  0.00184430  0.37200964  1
  Sr  Sr61  1  0.48111638  0.01860560  0.91291249  1
  Sr  Sr62  1  0.48864818  0.34248208  0.34587465  1
  Sr  Sr63  1  0.50478542  0.33803562  0.85338477  1
  Sr  Sr64  1  0.52295149  0.66955877  0.39215316  1
  Sr  Sr65  1  0.49143179  0.67701228  0.86234438  1
  Sr  Sr66  1  0.83190202  -0.00088083  0.34212195  1
  Sr  Sr67  1  0.82257291  0.01157045  0.88046372  1
  Sr  Sr68  1  0.83297734  0.33618493  0.36844138  1
  Sr  Sr69  1  0.81466153  0.33554628  0.91207395  1
  Sr  Sr70  1  0.84251065  0.70150550  0.41313093  1
  Sr  Sr71  1  0.85183399  0.67118990  0.86268282  1
  Ta  Ta72  1  0.13950137  0.13775413  -0.00790848  1
  Ta  Ta73  1  0.16775259  0.15396454  0.50341402  1
  Ta  Ta74  1  0.18539763  0.51713167  -0.00042944  1
  Ta  Ta75  1  0.12936071  0.49583494  0.50185842  1
  Ta  Ta76  1  0.15480503  0.90276017  0.00315150  1
  Ta  Ta77  1  0.20104566  0.83397372  0.49991755  1
  Ta  Ta78  1  0.50663952  0.20945164  0.00387348  1
  Ta  Ta79  1  0.49794220  0.20737884  0.49601436  1
  Ta  Ta80  1  0.48309362  0.48840140  0.00353903  1
  Ta  Ta81  1  0.50252054  0.47427680  0.49800722  1
  Ta  Ta82  1  0.53985843  0.83774098  -0.00732501  1
  Ta  Ta83  1  0.45341682  0.83538152  0.50072360  1
  Ta  Ta84  1  0.88040436  0.16508027  0.00318141  1
  Ta  Ta85  1  0.83517493  0.12606816  0.50098918  1
  Ta  Ta86  1  0.85582953  0.51300434  0.00265886  1
  Ta  Ta87  1  0.85943481  0.51185189  0.50027883  1
  Ta  Ta88  1  0.78946733  0.84047214  -0.01238481  1
  Ta  Ta89  1  0.83486945  0.88784927  0.51538555  1
  Ta  Ta90  1  0.17245394  0.21893469  0.25093599  1
  Ta  Ta91  1  0.20767976  0.16606243  0.74682599  1
  Ta  Ta92  1  0.17022489  0.44074951  0.24592679  1
  Ta  Ta93  1  0.16710034  0.54289829  0.75901448  1
  Ta  Ta94  1  0.14626928  0.85034104  0.25074811  1
  Ta  Ta95  1  0.15159127  0.80714894  0.74908567  1
  Ta  Ta96  1  0.54378976  0.16671565  0.25337020  1
  Ta  Ta97  1  0.47510409  0.15123910  0.74476505  1
  Ta  Ta98  1  0.48886279  0.53379934  0.25231688  1
  Ta  Ta99  1  0.55839851  0.50557064  0.74927713  1
  Ta  Ta100  1  0.47333260  0.82432498  0.24117562  1
  Ta  Ta101  1  0.49685841  0.88851447  0.75246993  1
  Ta  Ta102  1  0.79711588  0.16849171  0.25110868  1
  Ta  Ta103  1  0.83025591  0.20943286  0.74729722  1
  Ta  Ta104  1  0.83398573  0.55338909  0.25513240  1
  Ta  Ta105  1  0.80963791  0.47325362  0.74622776  1
  Ta  Ta106  1  0.85615675  0.82241129  0.24935328  1
  Ta  Ta107  1  0.85364137  0.85389196  0.73927128  1
  Ta  Ta108  1  -0.00282141  -0.05608517  0.24877602  1
  Ta  Ta109  1  -0.02198483  -0.03337066  0.74083665  1
  Ta  Ta110  1  0.04778347  0.32326885  0.24733147  1
  Ta  Ta111  1  -0.05228060  0.33112366  0.74673094  1
  Ta  Ta112  1  -0.02966830  0.67473669  0.25059806  1
  Ta  Ta113  1  0.05593642  0.66908915  0.76744670  1
  Ta  Ta114  1  0.33098528  -0.03057072  0.24513505  1
  Ta  Ta115  1  0.35089838  0.02436433  0.74919176  1
  Ta  Ta116  1  0.29767140  0.32943199  0.24877321  1
  Ta  Ta117  1  0.33248135  0.28703494  0.74270773  1
  Ta  Ta118  1  0.37428744  0.65954990  0.25001085  1
  Ta  Ta119  1  0.27545180  0.66545820  0.75945541  1
  Ta  Ta120  1  0.66396845  0.04001029  0.25087785  1
  Ta  Ta121  1  0.61251804  0.00144776  0.75410912  1
  Ta  Ta122  1  0.66879659  0.28760089  0.25299043  1
  Ta  Ta123  1  0.68767171  0.35594067  0.74462821  1
  Ta  Ta124  1  0.71116677  0.66977422  0.25228949  1
  Ta  Ta125  1  0.67825018  0.62361945  0.74614165  1
  Ta  Ta126  1  0.01469261  0.01544327  -0.00165381  1
  Ta  Ta127  1  -0.03320480  0.00022413  0.50399784  1
  Ta  Ta128  1  -0.00171359  0.28647052  0.00066093  1
  Ta  Ta129  1  -0.00119953  0.38071061  0.50528059  1
  Ta  Ta130  1  0.01097404  0.62475476  0.00370718  1
  Ta  Ta131  1  0.00077533  0.61334321  0.49431055  1
  Ta  Ta132  1  0.28439339  -0.00018632  -0.00369345  1
  Ta  Ta133  1  0.32200106  -0.03582071  0.50196136  1
  Ta  Ta134  1  0.36876315  0.34432384  0.00190702  1
  Ta  Ta135  1  0.36917736  0.33343846  0.50600912  1
  Ta  Ta136  1  0.33877022  0.61836302  -0.00278122  1
  Ta  Ta137  1  0.34157751  0.70007387  0.50594239  1
  Ta  Ta138  1  0.66051449  -0.04315161  -0.01019436  1
  Ta  Ta139  1  0.69589659  -0.00168590  0.49966601  1
  Ta  Ta140  1  0.63079871  0.33047253  0.00623752  1
  Ta  Ta141  1  0.62478091  0.33427554  0.49412724  1
  Ta  Ta142  1  0.67527059  0.70954415  0.00006112  1
  Ta  Ta143  1  0.68825235  0.64353100  0.49797635  1
  N  N144  1  0.50287958  0.50229037  0.12521245  1
  N  N145  1  0.50133323  0.16871763  0.37018285  1
  N  N146  1  0.49786637  0.84687301  0.87373441  1
  N  N147  1  0.83966423  0.16198527  0.12337728  1
  N  N148  1  0.33252926  0.33464028  0.62826974  1
  N  N149  1  0.16224645  0.16531006  0.62546445  1
  N  N150  1  0.01143061  0.31230027  0.12056104  1
  N  N151  1  0.49718776  0.17152203  0.62390267  1
  N  N152  1  0.00577724  0.65808770  0.37853345  1
  N  N153  1  0.82715846  0.82322494  0.61682367  1
  N  N154  1  0.82399871  0.83734993  0.86712954  1
  N  N155  1  0.01525275  0.67142382  0.88713923  1
  N  N156  1  0.49874207  0.83481722  0.12225497  1
  N  N157  1  0.65552338  0.00321060  0.87196807  1
  N  N158  1  0.83192523  0.16181588  0.37985277  1
  N  N159  1  -0.01402764  0.34571086  0.62609224  1
  N  N160  1  0.16667546  0.16104752  0.87227391  1
  N  N161  1  0.66252293  0.33476015  0.62455238  1
  N  N162  1  0.83697688  0.49807545  0.62349294  1
  N  N163  1  0.32254409  0.00225181  0.87659352  1
  N  N164  1  0.16430506  0.82742000  0.62607371  1
  N  N165  1  0.68156717  0.68402954  0.12238427  1
  N  N166  1  0.50035172  0.49927810  0.37707209  1
  N  N167  1  0.17222284  0.48519769  0.11818991  1
  N  N168  1  0.32780301  -0.00487670  0.62252726  1
  N  N169  1  0.67982079  0.66238721  0.62534977  1
  N  N170  1  0.66357321  0.33030286  0.37128002  1
  N  N171  1  0.16281547  0.83203711  0.37446162  1
  N  N172  1  0.33623166  0.32885914  0.12029118  1
  N  N173  1  0.00744147  0.65515736  0.13278998  1
  N  N174  1  0.68044516  0.68043624  0.37660093  1
  N  N175  1  0.82769378  0.17214356  0.62842722  1
  N  N176  1  0.66869755  0.00378193  0.37507021  1
  O  O177  1  0.35556936  0.66941962  0.38363047  1
  O  O178  1  0.50006098  0.18178006  0.87818653  1
  O  O179  1  0.33030895  -0.01503569  0.12027456  1
  O  O180  1  0.15316515  0.50986401  0.62931740  1
  O  O181  1  0.66171937  0.00077543  0.12466805  1
  O  O182  1  0.33031941  -0.01150372  0.36841655  1
  O  O183  1  0.01310839  0.65650638  0.62142457  1
  O  O184  1  0.16676397  0.17460539  0.11714827  1
  O  O185  1  0.83539283  0.49522783  0.87990555  1
  O  O186  1  0.34717488  0.32742139  0.87005191  1
  O  O187  1  0.49963024  0.18455694  0.12963152  1
  O  O188  1  -0.00504784  0.01617516  0.62951094  1
  O  O189  1  0.15212372  0.85372842  0.87926027  1
  O  O190  1  -0.01316025  -0.02052152  0.37743634  1
  O  O191  1  0.15780152  0.85391619  0.11675768  1
  O  O192  1  0.17110717  0.17865797  0.37755001  1
  O  O193  1  0.47768825  0.85224242  0.62421071  1
  O  O194  1  0.65287505  0.33528515  0.13012264  1
  O  O195  1  -0.00222566  -0.00039028  0.86928418  1
  O  O196  1  0.33276089  0.63879330  0.86938070  1
  O  O197  1  0.68128479  0.66475978  0.87034076  1
  O  O198  1  0.83684682  0.49528593  0.36517937  1
  O  O199  1  0.83952448  0.84733419  0.37891194  1
  O  O200  1  0.31652177  0.68074895  0.63093992  1
  O  O201  1  0.83712600  0.17233191  0.87932275  1
  O  O202  1  0.51438338  0.50309184  0.62951091  1
  O  O203  1  0.84211298  0.51837104  0.12727259  1
  O  O204  1  -0.00164635  0.32013015  0.86556417  1
  O  O205  1  0.65811555  0.33922303  0.88100865  1
  O  O206  1  0.33209186  0.33907757  0.38159810  1
  O  O207  1  0.34857177  0.64802815  0.11877906  1
  O  O208  1  0.83197704  0.83477664  0.12264796  1
  O  O209  1  0.48132761  0.83459717  0.37756978  1
  O  O210  1  -0.00297013  -0.00448316  0.13012926  1
  O  O211  1  0.17278001  0.48376913  0.87036882  1
  O  O212  1  0.15608435  0.47955352  0.37579122  1
  O  O213  1  0.00533705  0.33916117  0.38213461  1
  O  O214  1  0.65333878  0.00690697  0.62301459  1
  O  O215  1  0.52054225  0.49685385  0.87218920  1
