# generated using pymatgen
data_Sr24Ta24N11O13
_symmetry_space_group_name_H-M   'P 1'
_cell_length_a   16.87143441
_cell_length_b   16.94552720
_cell_length_c   15.71662076
_cell_angle_alpha   90.14130202
_cell_angle_beta   89.70752068
_cell_angle_gamma   89.70896302
_symmetry_Int_Tables_number   1
_chemical_formula_structural   Sr24Ta24N11O13
_chemical_formula_sum   'Sr72 Ta72 N33 O39'
_cell_volume   4493.17834237
_cell_formula_units_Z   3
loop_
 _symmetry_equiv_pos_site_id
 _symmetry_equiv_pos_as_xyz
  1  'x, y, z'
loop_
 _atom_site_type_symbol
 _atom_site_label
 _atom_site_symmetry_multiplicity
 _atom_site_fract_x
 _atom_site_fract_y
 _atom_site_fract_z
 _atom_site_occupancy
  Sr  Sr0  1  0.01001520  0.15324038  0.11885910  1
  Sr  Sr1  1  -0.01368370  0.16135038  0.66868748  1
  Sr  Sr2  1  0.00234825  0.49013689  0.09720903  1
  Sr  Sr3  1  -0.00603047  0.49885587  0.62834315  1
  Sr  Sr4  1  -0.01474851  0.81956051  0.15561277  1
  Sr  Sr5  1  -0.01529641  0.84510424  0.59492791  1
  Sr  Sr6  1  0.32493205  0.15461360  0.14623956  1
  Sr  Sr7  1  0.32565662  0.16171294  0.61476618  1
  Sr  Sr8  1  0.32630152  0.46141595  0.09362657  1
  Sr  Sr9  1  0.33394514  0.49939750  0.62687872  1
  Sr  Sr10  1  0.33789035  0.82670387  0.12558738  1
  Sr  Sr11  1  0.31144161  0.82052423  0.62527389  1
  Sr  Sr12  1  0.65893932  0.16647787  0.13228361  1
  Sr  Sr13  1  0.68015092  0.15126348  0.58390814  1
  Sr  Sr14  1  0.64530529  0.48885421  0.15183279  1
  Sr  Sr15  1  0.65476466  0.47895171  0.62226635  1
  Sr  Sr16  1  0.65770001  0.79838140  0.10270395  1
  Sr  Sr17  1  0.65172826  0.82765756  0.65133045  1
  Sr  Sr18  1  0.17506006  -0.00029407  0.08436770  1
  Sr  Sr19  1  0.16309623  0.00129900  0.63600968  1
  Sr  Sr20  1  0.15571616  0.33119994  0.13728920  1
  Sr  Sr21  1  0.17763509  0.35461053  0.57330679  1
  Sr  Sr22  1  0.17740296  0.69381204  0.13096962  1
  Sr  Sr23  1  0.18514363  0.66018482  0.66277756  1
  Sr  Sr24  1  0.50513555  0.02317345  0.14481742  1
  Sr  Sr25  1  0.51035452  0.02544670  0.62902631  1
  Sr  Sr26  1  0.51568317  0.33740938  0.10432006  1
  Sr  Sr27  1  0.48398707  0.34847693  0.67224321  1
  Sr  Sr28  1  0.49854724  0.66766788  0.14217040  1
  Sr  Sr29  1  0.50611961  0.67066921  0.58781774  1
  Sr  Sr30  1  0.83775758  0.02347589  0.14159706  1
  Sr  Sr31  1  0.83180833  0.00975576  0.60131504  1
  Sr  Sr32  1  0.84160278  0.36216334  0.11809786  1
  Sr  Sr33  1  0.84107592  0.33558226  0.63089395  1
  Sr  Sr34  1  0.85538886  0.66957315  0.10334282  1
  Sr  Sr35  1  0.85668634  0.69816759  0.64089769  1
  Sr  Sr36  1  -0.00110742  0.16663576  0.33707610  1
  Sr  Sr37  1  0.01028559  0.14962303  0.88114649  1
  Sr  Sr38  1  0.00505295  0.48145244  0.39890860  1
  Sr  Sr39  1  -0.00554271  0.50692622  0.87005841  1
  Sr  Sr40  1  -0.00868766  0.84401610  0.37960219  1
  Sr  Sr41  1  -0.02816656  0.82288520  0.87897451  1
  Sr  Sr42  1  0.32006154  0.15506846  0.38743156  1
  Sr  Sr43  1  0.34818113  0.15469423  0.83403667  1
  Sr  Sr44  1  0.31503652  0.47735333  0.39532672  1
  Sr  Sr45  1  0.33784562  0.48136557  0.86568819  1
  Sr  Sr46  1  0.33865891  0.81722073  0.36310311  1
  Sr  Sr47  1  0.31720539  0.83094503  0.89701138  1
  Sr  Sr48  1  0.67427338  0.15621467  0.36784260  1
  Sr  Sr49  1  0.66268461  0.15768659  0.91715198  1
  Sr  Sr50  1  0.65813685  0.50026914  0.37699107  1
  Sr  Sr51  1  0.65070621  0.46771187  0.85414093  1
  Sr  Sr52  1  0.63543313  0.79230148  0.38500446  1
  Sr  Sr53  1  0.66155751  0.83149352  0.86488887  1
  Sr  Sr54  1  0.17455223  -0.01479842  0.42509119  1
  Sr  Sr55  1  0.17114538  0.00584538  0.86424889  1
  Sr  Sr56  1  0.16403067  0.31052439  0.35590758  1
  Sr  Sr57  1  0.16458381  0.35780279  0.91324772  1
  Sr  Sr58  1  0.16485813  0.69246787  0.33939417  1
  Sr  Sr59  1  0.19123690  0.67582202  0.86342765  1
  Sr  Sr60  1  0.49910742  0.02905002  0.37003122  1
  Sr  Sr61  1  0.51565129  0.00993699  0.85287490  1
  Sr  Sr62  1  0.52678903  0.34389022  0.34016524  1
  Sr  Sr63  1  0.49756914  0.33495648  0.88350408  1
  Sr  Sr64  1  0.48560581  0.64579817  0.37515728  1
  Sr  Sr65  1  0.50991722  0.69546764  0.89759152  1
  Sr  Sr66  1  0.84112165  0.00086379  0.36828775  1
  Sr  Sr67  1  0.83474939  0.02934995  0.89418059  1
  Sr  Sr68  1  0.82772445  0.35615432  0.41178357  1
  Sr  Sr69  1  0.84631645  0.34897150  0.84885173  1
  Sr  Sr70  1  0.86985639  0.68138043  0.38289822  1
  Sr  Sr71  1  0.83346055  0.67770633  0.87918089  1
  Ta  Ta72  1  0.18915667  0.17803972  -0.00316133  1
  Ta  Ta73  1  0.12214612  0.16600854  0.49877500  1
  Ta  Ta74  1  0.17229538  0.54135938  -0.00704321  1
  Ta  Ta75  1  0.16362351  0.55192485  0.50278926  1
  Ta  Ta76  1  0.12665132  0.83412062  -0.00208193  1
  Ta  Ta77  1  0.16206374  0.79232327  0.50564412  1
  Ta  Ta78  1  0.46860441  0.15929223  -0.00417818  1
  Ta  Ta79  1  0.50273512  0.21125163  0.50299758  1
  Ta  Ta80  1  0.50293199  0.52416977  -0.00414895  1
  Ta  Ta81  1  0.49321472  0.46334396  0.49945813  1
  Ta  Ta82  1  0.49729069  0.88319739  -0.00346878  1
  Ta  Ta83  1  0.49224174  0.86830640  0.50416988  1
  Ta  Ta84  1  0.84242673  0.20953586  -0.00110863  1
  Ta  Ta85  1  0.87407327  0.17627554  0.50096602  1
  Ta  Ta86  1  0.79415500  0.50342500  -0.00456567  1
  Ta  Ta87  1  0.81999227  0.53637279  0.51538516  1
  Ta  Ta88  1  0.82291796  0.86668711  0.00715872  1
  Ta  Ta89  1  0.78980392  0.83534284  0.49712884  1
  Ta  Ta90  1  0.16705227  0.10354653  0.25898463  1
  Ta  Ta91  1  0.16743649  0.21251183  0.74405204  1
  Ta  Ta92  1  0.16848742  0.51701948  0.24455873  1
  Ta  Ta93  1  0.16359528  0.47429215  0.74595853  1
  Ta  Ta94  1  0.16769927  0.88658149  0.25118491  1
  Ta  Ta95  1  0.12309762  0.83604233  0.74529940  1
  Ta  Ta96  1  0.48021395  0.19650961  0.24545817  1
  Ta  Ta97  1  0.55257204  0.17655537  0.75370841  1
  Ta  Ta98  1  0.45263434  0.49087531  0.24532475  1
  Ta  Ta99  1  0.49981108  0.54359020  0.74854944  1
  Ta  Ta100  1  0.51338074  0.85814915  0.24749014  1
  Ta  Ta101  1  0.46246002  0.83528528  0.75276773  1
  Ta  Ta102  1  0.83343300  0.21579073  0.25184104  1
  Ta  Ta103  1  0.79418072  0.16582303  0.74660076  1
  Ta  Ta104  1  0.84247933  0.51616476  0.25414677  1
  Ta  Ta105  1  0.80717384  0.53331777  0.73757683  1
  Ta  Ta106  1  0.78957210  0.82928546  0.26093963  1
  Ta  Ta107  1  0.83086203  0.87959585  0.74456321  1
  Ta  Ta108  1  0.04018684  -0.00557390  0.25501212  1
  Ta  Ta109  1  -0.01453400  -0.02729265  0.74684550  1
  Ta  Ta110  1  -0.02955077  0.34297549  0.25357332  1
  Ta  Ta111  1  0.05057576  0.33424886  0.74281224  1
  Ta  Ta112  1  0.00621463  0.61975375  0.24149516  1
  Ta  Ta113  1  0.02008775  0.68311730  0.75625244  1
  Ta  Ta114  1  0.30331903  -0.01372212  0.25649041  1
  Ta  Ta115  1  0.34569223  -0.03013312  0.74701854  1
  Ta  Ta116  1  0.35466547  0.32670089  0.24895277  1
  Ta  Ta117  1  0.28786352  0.32782212  0.74611455  1
  Ta  Ta118  1  0.32448713  0.60943038  0.24616350  1
  Ta  Ta119  1  0.37648447  0.67028611  0.74294382  1
  Ta  Ta120  1  0.66363370  -0.05086767  0.25415616  1
  Ta  Ta121  1  0.68878075  0.02043197  0.74901748  1
  Ta  Ta122  1  0.70561234  0.32465798  0.25180396  1
  Ta  Ta123  1  0.67170782  0.28754378  0.75321897  1
  Ta  Ta124  1  0.71438706  0.66008917  0.25170321  1
  Ta  Ta125  1  0.66378831  0.63908060  0.74912793  1
  Ta  Ta126  1  -0.00650603  -0.03778803  0.00965168  1
  Ta  Ta127  1  0.00007741  0.04240503  0.49891891  1
  Ta  Ta128  1  -0.01155671  0.31100083  0.00027313  1
  Ta  Ta129  1  0.00251844  0.28956208  0.50132287  1
  Ta  Ta130  1  0.03747207  0.67391624  -0.00576865  1
  Ta  Ta131  1  0.04090732  0.66602805  0.50875073  1
  Ta  Ta132  1  0.36323598  0.00980268  -0.00051753  1
  Ta  Ta133  1  0.35996815  -0.02850073  0.50000425  1
  Ta  Ta134  1  0.32904095  0.28109179  -0.01033283  1
  Ta  Ta135  1  0.37798995  0.32441499  0.50390128  1
  Ta  Ta136  1  0.33781112  0.63480698  -0.00262547  1
  Ta  Ta137  1  0.29848376  0.66074320  0.50047908  1
  Ta  Ta138  1  0.66430297  -0.02602206  0.00120590  1
  Ta  Ta139  1  0.65693873  -0.03951742  0.50077148  1
  Ta  Ta140  1  0.69898904  0.33874769  0.00097708  1
  Ta  Ta141  1  0.63257455  0.32555342  0.50086807  1
  Ta  Ta142  1  0.67177484  0.61618662  -0.00023705  1
  Ta  Ta143  1  0.70829430  0.65879921  0.51000318  1
  N  N144  1  0.33604654  -0.01063741  0.37819567  1
  N  N145  1  0.67179536  0.33061155  0.13052843  1
  N  N146  1  0.16656514  0.50722141  0.62231585  1
  N  N147  1  0.32760756  0.32020665  0.87124073  1
  N  N148  1  0.66213150  -0.00575830  0.62107405  1
  N  N149  1  0.49768884  0.50306537  0.62164002  1
  N  N150  1  0.49794903  0.17652462  0.12321867  1
  N  N151  1  0.00152850  0.32867114  0.12479656  1
  N  N152  1  0.67279294  0.31920193  0.87768776  1
  N  N153  1  0.00039269  -0.00097351  0.38246644  1
  N  N154  1  0.01040576  0.65720245  0.12515418  1
  N  N155  1  0.48895067  0.49638711  0.11995040  1
  N  N156  1  0.82966811  0.48616328  0.62722196  1
  N  N157  1  0.48683664  0.49323148  0.37239267  1
  N  N158  1  0.49234188  0.84741174  0.87582842  1
  N  N159  1  0.16245134  0.15098033  0.37554922  1
  N  N160  1  -0.01127179  0.66109970  0.88173054  1
  N  N161  1  0.15380709  0.83504847  0.62361595  1
  N  N162  1  -0.00256300  0.00310708  0.62872049  1
  N  N163  1  0.34197349  0.66529763  0.61832694  1
  N  N164  1  0.50876235  0.16956994  0.87313177  1
  N  N165  1  0.00056722  -0.00680446  0.12798355  1
  N  N166  1  0.00968424  0.32943302  0.62617291  1
  N  N167  1  0.83407974  0.83689646  0.37637169  1
  N  N168  1  0.00234470  0.32801374  0.37337922  1
  N  N169  1  0.67392014  0.33013269  0.38360960  1
  N  N170  1  0.66968084  -0.00395406  0.87860950  1
  N  N171  1  0.16743899  0.51287963  0.87394186  1
  N  N172  1  0.83394885  0.17249612  0.62725712  1
  N  N173  1  0.49694973  0.49927754  0.86553320  1
  N  N174  1  0.82024020  0.84884416  0.62615598  1
  N  N175  1  0.33060920  0.32836371  0.61977035  1
  N  N176  1  0.01009765  0.66611625  0.63017733  1
  O  O177  1  0.83706646  0.51306577  0.38156624  1
  O  O178  1  0.68618924  0.64608805  0.12868308  1
  O  O179  1  0.16198269  0.51826767  0.36999058  1
  O  O180  1  0.83935461  0.19198205  0.12335587  1
  O  O181  1  0.82072532  0.84166871  0.12992415  1
  O  O182  1  0.66391823  0.64417422  0.87887166  1
  O  O183  1  0.33531435  0.31268928  0.12309102  1
  O  O184  1  0.70889052  0.65529375  0.37633012  1
  O  O185  1  -0.00710069  -0.00375194  0.88173016  1
  O  O186  1  0.81477360  0.50291465  0.86292594  1
  O  O187  1  0.82450743  0.51188868  0.12793315  1
  O  O188  1  0.65748193  -0.00030125  0.37411091  1
  O  O189  1  0.17393307  0.14816638  0.12239869  1
  O  O190  1  0.83316905  0.19383862  0.37980165  1
  O  O191  1  0.16548914  0.18564742  0.87422826  1
  O  O192  1  0.51122296  0.18479023  0.62810951  1
  O  O193  1  0.32661684  0.63615297  0.37255058  1
  O  O194  1  0.16783913  0.18522855  0.61954427  1
  O  O195  1  0.01262730  0.32631586  0.87384507  1
  O  O196  1  0.34705128  0.65958134  0.87329015  1
  O  O197  1  0.34196297  -0.00379827  0.87275636  1
  O  O198  1  0.49975756  0.18727609  0.37410817  1
  O  O199  1  0.14921584  0.84502444  0.87446907  1
  O  O200  1  0.82003350  0.85976843  0.87952121  1
  O  O201  1  0.49740289  0.83985364  0.62692877  1
  O  O202  1  0.34097356  -0.00041474  0.12487459  1
  O  O203  1  0.33709830  0.32484233  0.37574712  1
  O  O204  1  0.16519163  0.83805179  0.38299742  1
  O  O205  1  0.16584734  0.49321940  0.11857237  1
  O  O206  1  0.49447346  0.85936158  0.37057646  1
  O  O207  1  0.15413455  0.84785067  0.12449600  1
  O  O208  1  0.49952604  0.84772939  0.12124866  1
  O  O209  1  0.33358107  0.63964713  0.12238018  1
  O  O210  1  0.66795329  -0.01296676  0.13629933  1
  O  O211  1  0.32485326  -0.01816179  0.62561184  1
  O  O212  1  0.67512640  0.32463904  0.62174822  1
  O  O213  1  0.66571738  0.66889241  0.62997531  1
  O  O214  1  0.01756688  0.65973111  0.36491119  1
  O  O215  1  0.83547246  0.18710343  0.87087316  1
