# generated using pymatgen
data_Sr24Ta24N11O13
_symmetry_space_group_name_H-M   'P 1'
_cell_length_a   16.97920325
_cell_length_b   16.65281498
_cell_length_c   15.66143831
_cell_angle_alpha   90.07459061
_cell_angle_beta   90.54440963
_cell_angle_gamma   89.64925314
_symmetry_Int_Tables_number   1
_chemical_formula_structural   Sr24Ta24N11O13
_chemical_formula_sum   'Sr72 Ta72 N33 O39'
_cell_volume   4428.00935341
_cell_formula_units_Z   3
loop_
 _symmetry_equiv_pos_site_id
 _symmetry_equiv_pos_as_xyz
  1  'x, y, z'
loop_
 _atom_site_type_symbol
 _atom_site_label
 _atom_site_symmetry_multiplicity
 _atom_site_fract_x
 _atom_site_fract_y
 _atom_site_fract_z
 _atom_site_occupancy
  Sr  Sr0  1  -0.02109055  0.16664883  0.10656893  1
  Sr  Sr1  1  -0.02208648  0.17486638  0.60596623  1
  Sr  Sr2  1  0.02048060  0.49646950  0.17105020  1
  Sr  Sr3  1  -0.00823636  0.51714905  0.61011781  1
  Sr  Sr4  1  -0.02222147  0.83123984  0.10572043  1
  Sr  Sr5  1  -0.00691113  0.85043149  0.66856837  1
  Sr  Sr6  1  0.32625528  0.17716212  0.15482040  1
  Sr  Sr7  1  0.31600505  0.15031208  0.63635427  1
  Sr  Sr8  1  0.32207186  0.48856773  0.07910399  1
  Sr  Sr9  1  0.34707714  0.50710895  0.63258103  1
  Sr  Sr10  1  0.33830630  0.81903135  0.13365059  1
  Sr  Sr11  1  0.29294125  0.83249426  0.58322456  1
  Sr  Sr12  1  0.63967545  0.15360632  0.12507393  1
  Sr  Sr13  1  0.63691030  0.16848980  0.60873374  1
  Sr  Sr14  1  0.67553924  0.49655319  0.11501748  1
  Sr  Sr15  1  0.66449691  0.48774744  0.65465395  1
  Sr  Sr16  1  0.65448517  0.83032044  0.12766655  1
  Sr  Sr17  1  0.64745663  0.83224679  0.61242547  1
  Sr  Sr18  1  0.20853641  0.00891743  0.17442519  1
  Sr  Sr19  1  0.16708188  0.00490320  0.61628259  1
  Sr  Sr20  1  0.16790568  0.32413467  0.11509292  1
  Sr  Sr21  1  0.19041564  0.35140856  0.66987729  1
  Sr  Sr22  1  0.16654857  0.67836197  0.13347901  1
  Sr  Sr23  1  0.17591396  0.65887076  0.58415231  1
  Sr  Sr24  1  0.50705895  -0.01727841  0.08126849  1
  Sr  Sr25  1  0.50965090  0.00554567  0.64530727  1
  Sr  Sr26  1  0.51065191  0.32690488  0.13533791  1
  Sr  Sr27  1  0.49623210  0.32648731  0.58520509  1
  Sr  Sr28  1  0.51662199  0.66826716  0.16805043  1
  Sr  Sr29  1  0.50982038  0.65423986  0.62572601  1
  Sr  Sr30  1  0.83782482  -0.00337591  0.13740457  1
  Sr  Sr31  1  0.85132753  0.00895125  0.64140900  1
  Sr  Sr32  1  0.84958955  0.35875235  0.12677647  1
  Sr  Sr33  1  0.83751261  0.34118272  0.63008142  1
  Sr  Sr34  1  0.82161558  0.66935844  0.08076580  1
  Sr  Sr35  1  0.85282707  0.68339614  0.62563921  1
  Sr  Sr36  1  -0.01537766  0.15677891  0.39891180  1
  Sr  Sr37  1  -0.02087088  0.18141386  0.89785794  1
  Sr  Sr38  1  0.00043976  0.51305869  0.38594554  1
  Sr  Sr39  1  0.00223594  0.49791121  0.82826905  1
  Sr  Sr40  1  -0.02237256  0.84461457  0.34605368  1
  Sr  Sr41  1  0.01741184  0.83032099  0.88721463  1
  Sr  Sr42  1  0.31376089  0.16469993  0.36284470  1
  Sr  Sr43  1  0.31511193  0.15638857  0.84793752  1
  Sr  Sr44  1  0.35040825  0.49496788  0.41942851  1
  Sr  Sr45  1  0.33150033  0.49740484  0.86731222  1
  Sr  Sr46  1  0.30657284  0.82618596  0.35671353  1
  Sr  Sr47  1  0.32655475  0.83120888  0.90702093  1
  Sr  Sr48  1  0.65179463  0.16566197  0.37424330  1
  Sr  Sr49  1  0.63210730  0.15686200  0.88775085  1
  Sr  Sr50  1  0.65526288  0.48958900  0.32870810  1
  Sr  Sr51  1  0.67916469  0.49240962  0.88921635  1
  Sr  Sr52  1  0.66873087  0.82433131  0.38609322  1
  Sr  Sr53  1  0.62929846  0.83506677  0.85959901  1
  Sr  Sr54  1  0.17277531  0.01001231  0.39773250  1
  Sr  Sr55  1  0.17546940  -0.00330233  0.84333142  1
  Sr  Sr56  1  0.17176859  0.33539841  0.33775786  1
  Sr  Sr57  1  0.17898289  0.33820949  0.88351247  1
  Sr  Sr58  1  0.15958149  0.66607379  0.36708210  1
  Sr  Sr59  1  0.18632247  0.67914484  0.91341301  1
  Sr  Sr60  1  0.53548693  -0.00692486  0.41816479  1
  Sr  Sr61  1  0.49271780  0.00178367  0.86606843  1
  Sr  Sr62  1  0.50539594  0.31867486  0.36285031  1
  Sr  Sr63  1  0.51477108  0.33997724  0.91854389  1
  Sr  Sr64  1  0.51614825  0.66536071  0.37314182  1
  Sr  Sr65  1  0.50121885  0.64511336  0.83128983  1
  Sr  Sr66  1  0.83727913  0.00693261  0.34531275  1
  Sr  Sr67  1  0.86799058  0.00191327  0.88326645  1
  Sr  Sr68  1  0.85426335  0.34591237  0.38849477  1
  Sr  Sr69  1  0.83625368  0.34589538  0.86299254  1
  Sr  Sr70  1  0.83500326  0.67426046  0.40783818  1
  Sr  Sr71  1  0.86363358  0.68067495  0.86825968  1
  Ta  Ta72  1  0.17863190  0.13272547  0.00615431  1
  Ta  Ta73  1  0.16349692  0.21471525  0.50029358  1
  Ta  Ta74  1  0.12975326  0.50241276  -0.00571553  1
  Ta  Ta75  1  0.17235392  0.45821953  0.49824242  1
  Ta  Ta76  1  0.17098130  0.89203552  0.01591797  1
  Ta  Ta77  1  0.11273000  0.83820325  0.49892251  1
  Ta  Ta78  1  0.45070168  0.16192887  0.00117908  1
  Ta  Ta79  1  0.45480892  0.15268240  0.49776150  1
  Ta  Ta80  1  0.50437966  0.53651909  0.00647459  1
  Ta  Ta81  1  0.54197526  0.49722135  0.49540751  1
  Ta  Ta82  1  0.49654309  0.77556196  -0.00167549  1
  Ta  Ta83  1  0.46471762  0.82571817  0.50043276  1
  Ta  Ta84  1  0.79750202  0.16532502  0.00530709  1
  Ta  Ta85  1  0.80358329  0.15919553  0.49702235  1
  Ta  Ta86  1  0.88516403  0.50346362  -0.00169089  1
  Ta  Ta87  1  0.79034410  0.50155468  0.49147595  1
  Ta  Ta88  1  0.79489605  0.85189935  -0.00146553  1
  Ta  Ta89  1  0.84730236  0.85992043  0.49509249  1
  Ta  Ta90  1  0.11884328  0.16522004  0.25645406  1
  Ta  Ta91  1  0.12338038  0.17469277  0.75119219  1
  Ta  Ta92  1  0.21571368  0.50198290  0.25442013  1
  Ta  Ta93  1  0.17375282  0.54679952  0.75234812  1
  Ta  Ta94  1  0.13039359  0.85307989  0.25135796  1
  Ta  Ta95  1  0.18224943  0.81248093  0.74477040  1
  Ta  Ta96  1  0.49271958  0.11547619  0.25260926  1
  Ta  Ta97  1  0.49023334  0.20362124  0.75295732  1
  Ta  Ta98  1  0.46052553  0.49345294  0.24805232  1
  Ta  Ta99  1  0.50481406  0.44694741  0.74809724  1
  Ta  Ta100  1  0.50067607  0.87249972  0.25472358  1
  Ta  Ta101  1  0.43796281  0.82222458  0.73977128  1
  Ta  Ta102  1  0.83272696  0.19762226  0.25189714  1
  Ta  Ta103  1  0.79137238  0.16658148  0.75413088  1
  Ta  Ta104  1  0.83818530  0.54216377  0.24801133  1
  Ta  Ta105  1  0.82179744  0.52711939  0.74986465  1
  Ta  Ta106  1  0.82062568  0.79940353  0.24583257  1
  Ta  Ta107  1  0.79650483  0.84155328  0.74918519  1
  Ta  Ta108  1  0.02671464  0.01053215  0.25075166  1
  Ta  Ta109  1  0.01684030  0.04333143  0.74707222  1
  Ta  Ta110  1  -0.00109372  0.29758504  0.25018793  1
  Ta  Ta111  1  0.01924111  0.30948955  0.75036343  1
  Ta  Ta112  1  -0.03559713  0.67606555  0.24591982  1
  Ta  Ta113  1  0.05438491  0.67304742  0.74980894  1
  Ta  Ta114  1  0.38642210  -0.00907970  0.25880640  1
  Ta  Ta115  1  0.33496685  -0.05089038  0.73855512  1
  Ta  Ta116  1  0.33788757  0.37858480  0.24803348  1
  Ta  Ta117  1  0.37737707  0.33009746  0.75615947  1
  Ta  Ta118  1  0.33880551  0.61708004  0.24882762  1
  Ta  Ta119  1  0.31109409  0.68891526  0.74287338  1
  Ta  Ta120  1  0.64024888  -0.00987100  0.24795021  1
  Ta  Ta121  1  0.69726329  0.00392623  0.76025594  1
  Ta  Ta122  1  0.70069871  0.31154096  0.24392167  1
  Ta  Ta123  1  0.64692548  0.31433161  0.75788257  1
  Ta  Ta124  1  0.70534765  0.66657704  0.24841657  1
  Ta  Ta125  1  0.69659172  0.66816176  0.74879217  1
  Ta  Ta126  1  0.05524380  0.00704453  0.01089234  1
  Ta  Ta127  1  -0.00951554  -0.02656407  0.49975421  1
  Ta  Ta128  1  0.00747467  0.38568132  -0.00074151  1
  Ta  Ta129  1  0.04986465  0.34070396  0.49980454  1
  Ta  Ta130  1  0.01070198  0.62255678  -0.00511707  1
  Ta  Ta131  1  0.00269176  0.71987005  0.50631849  1
  Ta  Ta132  1  0.31635526  0.01521264  0.00168661  1
  Ta  Ta133  1  0.36370571  -0.00783517  0.49755408  1
  Ta  Ta134  1  0.34206214  0.29843255  -0.00496889  1
  Ta  Ta135  1  0.30747397  0.31819146  0.50099949  1
  Ta  Ta136  1  0.38353437  0.65697059  0.00115380  1
  Ta  Ta137  1  0.36215715  0.68025385  0.49924148  1
  Ta  Ta138  1  0.69511412  -0.00492208  -0.00608885  1
  Ta  Ta139  1  0.71405296  0.00402414  0.49816961  1
  Ta  Ta140  1  0.69723118  0.30873181  0.00823780  1
  Ta  Ta141  1  0.67755891  0.35571882  0.49098556  1
  Ta  Ta142  1  0.63051203  0.67124235  0.00012306  1
  Ta  Ta143  1  0.67114784  0.62409525  0.49549870  1
  N  N144  1  0.15025874  0.83641195  0.62837390  1
  N  N145  1  0.66603154  0.66346912  0.12132393  1
  N  N146  1  0.00541222  0.01560009  0.62541563  1
  N  N147  1  0.84294069  0.51125907  0.86955218  1
  N  N148  1  0.33417944  0.33432163  0.87585866  1
  N  N149  1  0.68297270  -0.00322565  0.37681215  1
  N  N150  1  0.84953827  0.51268602  0.12315408  1
  N  N151  1  0.00989790  0.68199525  0.62614876  1
  N  N152  1  0.66554300  -0.00327057  0.12507327  1
  N  N153  1  0.33438290  0.66475813  0.62033065  1
  N  N154  1  0.47999989  0.16024979  0.87287365  1
  N  N155  1  0.82055620  0.83508703  0.12017458  1
  N  N156  1  0.50967796  0.48422992  0.62767313  1
  N  N157  1  0.48180136  0.16732025  0.62525131  1
  N  N158  1  0.17838393  0.49832317  0.37972096  1
  N  N159  1  0.33113578  -0.00953420  0.61742500  1
  N  N160  1  0.00206628  0.00449383  0.37200006  1
  N  N161  1  0.50186055  0.49201979  0.37773763  1
  N  N162  1  0.49161954  0.15898754  0.37802982  1
  N  N163  1  0.01937335  0.66749767  0.87762607  1
  N  N164  1  0.83397860  0.50465424  0.37571964  1
  N  N165  1  0.82598051  0.83585175  0.37385215  1
  N  N166  1  0.15360534  0.83955091  0.37055677  1
  N  N167  1  0.15576132  0.17127647  0.37687317  1
  N  N168  1  0.48331366  0.14942268  0.12665169  1
  N  N169  1  0.66855687  0.32696460  0.87981315  1
  N  N170  1  0.66356537  0.33863294  0.12641886  1
  N  N171  1  0.66996175  0.32995382  0.37027862  1
  N  N172  1  0.17142962  0.50732147  0.87238750  1
  N  N173  1  0.67092889  0.66103018  0.37495310  1
  N  N174  1  0.50346786  0.49969921  0.12431803  1
  N  N175  1  0.64867829  -0.00204447  0.87130281  1
  N  N176  1  0.82989276  0.16980996  0.37724621  1
  O  O177  1  0.49438213  0.82487847  0.13060171  1
  O  O178  1  -0.00865465  0.66727602  0.12215158  1
  O  O179  1  0.17380268  0.84737362  0.89160001  1
  O  O180  1  0.81658322  0.16823312  0.87607487  1
  O  O181  1  0.66700112  0.66892243  0.86948331  1
  O  O182  1  0.18161888  0.50154817  0.62441479  1
  O  O183  1  0.83468211  0.50001348  0.61858859  1
  O  O184  1  0.32571702  -0.00897443  0.87306746  1
  O  O185  1  0.34209285  0.66454700  0.87721662  1
  O  O186  1  0.17199695  0.50158519  0.13050258  1
  O  O187  1  0.66511918  0.32870035  0.62134766  1
  O  O188  1  0.81104542  0.83843678  0.62274623  1
  O  O189  1  0.82583337  0.15469448  0.12758139  1
  O  O190  1  0.02532523  0.33244247  0.62854804  1
  O  O191  1  -0.01457748  0.68231258  0.37355507  1
  O  O192  1  0.32639724  -0.01229571  0.36900559  1
  O  O193  1  0.33368131  0.32432631  0.62628859  1
  O  O194  1  0.48925819  0.82828747  0.37644430  1
  O  O195  1  0.32920187  0.33787119  0.11919867  1
  O  O196  1  0.33795070  0.64495951  0.12249181  1
  O  O197  1  0.15840496  0.17646138  0.62424068  1
  O  O198  1  0.49266387  0.82010146  0.62851218  1
  O  O199  1  0.67924011  0.67092534  0.62132778  1
  O  O200  1  0.34873204  -0.00144453  0.12629756  1
  O  O201  1  0.50846404  0.49451822  0.87203910  1
  O  O202  1  0.00737133  0.33529544  0.87616137  1
  O  O203  1  0.34397505  0.64819649  0.37487253  1
  O  O204  1  0.47503591  0.80162276  0.86520492  1
  O  O205  1  0.16253964  0.15502789  0.88218853  1
  O  O206  1  0.00813280  0.34067884  0.12615700  1
  O  O207  1  0.80674742  0.18177064  0.63078485  1
  O  O208  1  0.32475594  0.33567021  0.37493308  1
  O  O209  1  0.17290180  0.15800939  0.13328826  1
  O  O210  1  0.19226943  0.85132720  0.13711684  1
  O  O211  1  0.81562133  0.83463265  0.87146849  1
  O  O212  1  0.02325863  0.01887073  0.88161171  1
  O  O213  1  0.01635635  0.34015584  0.36982621  1
  O  O214  1  -0.00671804  0.00897633  0.11778142  1
  O  O215  1  0.67612090  -0.00525553  0.62370474  1
