# generated using pymatgen
data_Sr24Ta24N11O13
_symmetry_space_group_name_H-M   'P 1'
_cell_length_a   16.88416896
_cell_length_b   16.75197173
_cell_length_c   15.74591237
_cell_angle_alpha   90.04810490
_cell_angle_beta   89.77196401
_cell_angle_gamma   90.20085279
_symmetry_Int_Tables_number   1
_chemical_formula_structural   Sr24Ta24N11O13
_chemical_formula_sum   'Sr72 Ta72 N33 O39'
_cell_volume   4453.55884214
_cell_formula_units_Z   3
loop_
 _symmetry_equiv_pos_site_id
 _symmetry_equiv_pos_as_xyz
  1  'x, y, z'
loop_
 _atom_site_type_symbol
 _atom_site_label
 _atom_site_symmetry_multiplicity
 _atom_site_fract_x
 _atom_site_fract_y
 _atom_site_fract_z
 _atom_site_occupancy
  Sr  Sr0  1  0.00909715  0.16357684  0.12720748  1
  Sr  Sr1  1  0.01476750  0.18350975  0.67150092  1
  Sr  Sr2  1  -0.00017624  0.52085809  0.13458172  1
  Sr  Sr3  1  0.01317226  0.48836246  0.57601539  1
  Sr  Sr4  1  0.03741812  0.84411348  0.08301946  1
  Sr  Sr5  1  -0.00758942  0.82528254  0.63524136  1
  Sr  Sr6  1  0.35156273  0.16495297  0.12162059  1
  Sr  Sr7  1  0.33817128  0.17139737  0.59946415  1
  Sr  Sr8  1  0.35809274  0.50729174  0.10043668  1
  Sr  Sr9  1  0.32829196  0.49087218  0.65728172  1
  Sr  Sr10  1  0.33507565  0.83163657  0.16218353  1
  Sr  Sr11  1  0.35288724  0.80775441  0.62093926  1
  Sr  Sr12  1  0.68662415  0.18385469  0.10683584  1
  Sr  Sr13  1  0.67355464  0.15251424  0.64407213  1
  Sr  Sr14  1  0.67279494  0.49815783  0.16157254  1
  Sr  Sr15  1  0.65860030  0.49522191  0.61372682  1
  Sr  Sr16  1  0.68417471  0.83174985  0.12991334  1
  Sr  Sr17  1  0.67147610  0.83122940  0.58557685  1
  Sr  Sr18  1  0.15670427  0.02126454  0.09500531  1
  Sr  Sr19  1  0.13817782  -0.00485682  0.63929317  1
  Sr  Sr20  1  0.13009897  0.33560422  0.17031320  1
  Sr  Sr21  1  0.17033127  0.33716924  0.62397692  1
  Sr  Sr22  1  0.16892321  0.66555122  0.12959151  1
  Sr  Sr23  1  0.14608160  0.66785966  0.58604729  1
  Sr  Sr24  1  0.46837642  -0.00702192  0.14544704  1
  Sr  Sr25  1  0.47845242  0.01184574  0.64314934  1
  Sr  Sr26  1  0.50617889  0.34283345  0.13815165  1
  Sr  Sr27  1  0.48679942  0.32826744  0.59724583  1
  Sr  Sr28  1  0.50020593  0.67566376  0.09432882  1
  Sr  Sr29  1  0.50741098  0.65200682  0.63397138  1
  Sr  Sr30  1  0.81132396  0.00707489  0.14624736  1
  Sr  Sr31  1  0.81158220  -0.01316708  0.58863735  1
  Sr  Sr32  1  0.84528520  0.33196877  0.08417988  1
  Sr  Sr33  1  0.82440275  0.33010523  0.63915313  1
  Sr  Sr34  1  0.82519106  0.65987054  0.12892612  1
  Sr  Sr35  1  0.83793624  0.66752704  0.65955730  1
  Sr  Sr36  1  0.00790971  0.16087838  0.33642904  1
  Sr  Sr37  1  0.01826376  0.17010219  0.87783721  1
  Sr  Sr38  1  0.01859980  0.50969353  0.36095231  1
  Sr  Sr39  1  -0.00385689  0.50499453  0.91335797  1
  Sr  Sr40  1  0.01112961  0.85156637  0.41943702  1
  Sr  Sr41  1  0.00284432  0.82836652  0.85580851  1
  Sr  Sr42  1  0.34890006  0.17836009  0.38109463  1
  Sr  Sr43  1  0.34340437  0.16044199  0.90235795  1
  Sr  Sr44  1  0.34988512  0.48867212  0.34873244  1
  Sr  Sr45  1  0.32850877  0.49818230  0.87932601  1
  Sr  Sr46  1  0.34370995  0.81422904  0.37569665  1
  Sr  Sr47  1  0.35602204  0.84084157  0.83214668  1
  Sr  Sr48  1  0.69626529  0.15745246  0.38363652  1
  Sr  Sr49  1  0.67331817  0.17159665  0.87306102  1
  Sr  Sr50  1  0.65824469  0.49402582  0.38525577  1
  Sr  Sr51  1  0.68889875  0.50802431  0.82480440  1
  Sr  Sr52  1  0.68324614  0.83588720  0.36746818  1
  Sr  Sr53  1  0.66718571  0.81703641  0.91429828  1
  Sr  Sr54  1  0.14917804  0.01059356  0.38429073  1
  Sr  Sr55  1  0.14981993  -0.00978451  0.87517992  1
  Sr  Sr56  1  0.15532017  0.33544004  0.38181094  1
  Sr  Sr57  1  0.17508201  0.34384939  0.84125250  1
  Sr  Sr58  1  0.16792020  0.67074806  0.36534598  1
  Sr  Sr59  1  0.15076489  0.64763291  0.91147964  1
  Sr  Sr60  1  0.46226552  0.00164113  0.36207298  1
  Sr  Sr61  1  0.48342947  0.00710414  0.85141977  1
  Sr  Sr62  1  0.50338726  0.33988881  0.35993849  1
  Sr  Sr63  1  0.48237342  0.32516129  0.91867638  1
  Sr  Sr64  1  0.51019806  0.67854074  0.41421534  1
  Sr  Sr65  1  0.49061295  0.65313322  0.86252418  1
  Sr  Sr66  1  0.83771015  0.00543926  0.37004196  1
  Sr  Sr67  1  0.79170514  -0.00960722  0.89759126  1
  Sr  Sr68  1  0.82938716  0.34986838  0.42327582  1
  Sr  Sr69  1  0.84037795  0.32875517  0.86710097  1
  Sr  Sr70  1  0.82860014  0.65404253  0.33217481  1
  Sr  Sr71  1  0.83223995  0.66792991  0.87065186  1
  Ta  Ta72  1  0.17379341  0.22059227  0.00818737  1
  Ta  Ta73  1  0.13646655  0.16459094  0.50392461  1
  Ta  Ta74  1  0.17044604  0.45211682  0.01528874  1
  Ta  Ta75  1  0.20719993  0.49961662  0.49055143  1
  Ta  Ta76  1  0.21914192  0.83038682  -0.00444416  1
  Ta  Ta77  1  0.19558284  0.85089939  0.50372111  1
  Ta  Ta78  1  0.52092541  0.13660080  -0.00053042  1
  Ta  Ta79  1  0.52958204  0.15846624  0.50464315  1
  Ta  Ta80  1  0.55070825  0.50120716  0.00126116  1
  Ta  Ta81  1  0.46803291  0.49886994  0.50098465  1
  Ta  Ta82  1  0.47931638  0.85237422  -0.00229318  1
  Ta  Ta83  1  0.50342770  0.87197778  0.49761222  1
  Ta  Ta84  1  0.85989867  0.14420928  0.00239079  1
  Ta  Ta85  1  0.87488827  0.16924702  0.50011910  1
  Ta  Ta86  1  0.80370811  0.50481662  -0.00298761  1
  Ta  Ta87  1  0.83304927  0.54067607  0.49967725  1
  Ta  Ta88  1  0.85999759  0.83135809  0.00336873  1
  Ta  Ta89  1  0.83989556  0.78648824  0.49844933  1
  Ta  Ta90  1  0.19743106  0.16546719  0.24719147  1
  Ta  Ta91  1  0.20368864  0.16397567  0.75518254  1
  Ta  Ta92  1  0.20192743  0.49795601  0.24215452  1
  Ta  Ta93  1  0.14082625  0.52049948  0.73840883  1
  Ta  Ta94  1  0.15002819  0.85672159  0.24983165  1
  Ta  Ta95  1  0.17908386  0.79668080  0.75313814  1
  Ta  Ta96  1  0.54017897  0.15892980  0.25134304  1
  Ta  Ta97  1  0.49613402  0.19851527  0.75216346  1
  Ta  Ta98  1  0.50399275  0.54313240  0.25209627  1
  Ta  Ta99  1  0.50069604  0.45558563  0.75084878  1
  Ta  Ta100  1  0.51811205  0.81202292  0.25492982  1
  Ta  Ta101  1  0.54942692  0.83154006  0.74604361  1
  Ta  Ta102  1  0.83700236  0.21594216  0.25609724  1
  Ta  Ta103  1  0.84268470  0.12766998  0.74938833  1
  Ta  Ta104  1  0.83735145  0.45733491  0.24683100  1
  Ta  Ta105  1  0.88381562  0.49923210  0.75074608  1
  Ta  Ta106  1  0.88026289  0.83895609  0.25294250  1
  Ta  Ta107  1  0.80563675  0.84960747  0.74370491  1
  Ta  Ta108  1  0.00296568  -0.04396520  0.24634373  1
  Ta  Ta109  1  -0.05714325  0.00019333  0.74797765  1
  Ta  Ta110  1  -0.04532972  0.33760534  0.26244641  1
  Ta  Ta111  1  0.00306791  0.37753520  0.74706089  1
  Ta  Ta112  1  0.00454177  0.72632684  0.25203137  1
  Ta  Ta113  1  0.01780087  0.63395252  0.74225391  1
  Ta  Ta114  1  0.28529713  0.00900837  0.24413666  1
  Ta  Ta115  1  0.30271742  0.02767892  0.75384253  1
  Ta  Ta116  1  0.30908073  0.33045949  0.23982191  1
  Ta  Ta117  1  0.35338943  0.31152287  0.75489221  1
  Ta  Ta118  1  0.35870825  0.65143813  0.24777960  1
  Ta  Ta119  1  0.27835556  0.66237121  0.75104438  1
  Ta  Ta120  1  0.63234785  0.00698048  0.25306002  1
  Ta  Ta121  1  0.66110339  -0.04079099  0.74366819  1
  Ta  Ta122  1  0.70375913  0.32471708  0.25835346  1
  Ta  Ta123  1  0.62243640  0.33068862  0.74672291  1
  Ta  Ta124  1  0.63098959  0.67141192  0.25542788  1
  Ta  Ta125  1  0.66553335  0.70817960  0.74257566  1
  Ta  Ta126  1  -0.04461498  0.00204178  -0.00012694  1
  Ta  Ta127  1  -0.00491682  0.05703520  0.50664770  1
  Ta  Ta128  1  0.03288521  0.33038620  -0.00560296  1
  Ta  Ta129  1  0.00067376  0.28796248  0.50366484  1
  Ta  Ta130  1  -0.02708803  0.68771918  0.00697106  1
  Ta  Ta131  1  -0.04003234  0.66787204  0.49129280  1
  Ta  Ta132  1  0.33145053  -0.03775580  -0.00284387  1
  Ta  Ta133  1  0.31083762  -0.02489055  0.50283784  1
  Ta  Ta134  1  0.29724885  0.33425731  0.01337488  1
  Ta  Ta135  1  0.32728659  0.36110350  0.49567543  1
  Ta  Ta136  1  0.33011144  0.71077522  -0.00186621  1
  Ta  Ta137  1  0.33015258  0.62875127  0.49548617  1
  Ta  Ta138  1  0.61530849  -0.00290430  0.00277930  1
  Ta  Ta139  1  0.61736061  0.00449494  0.50124968  1
  Ta  Ta140  1  0.66980797  0.37729970  -0.00643262  1
  Ta  Ta141  1  0.64997414  0.30648605  0.50464087  1
  Ta  Ta142  1  0.67025907  0.62459928  -0.00329199  1
  Ta  Ta143  1  0.70793067  0.66063347  0.49889371  1
  N  N144  1  0.67094431  0.66882078  0.37178430  1
  N  N145  1  0.66982233  0.66827851  0.62574922  1
  N  N146  1  0.50388244  0.50716653  0.37843680  1
  N  N147  1  0.16462329  0.50312097  0.61816003  1
  N  N148  1  0.83171121  0.82683755  0.62457425  1
  N  N149  1  0.31356947  -0.00327411  0.12502339  1
  N  N150  1  0.00043173  0.68283857  0.12727502  1
  N  N151  1  0.33837708  0.65993615  0.37628906  1
  N  N152  1  0.65209827  -0.00503324  0.62519826  1
  N  N153  1  -0.00491406  0.33340849  0.38073761  1
  N  N154  1  0.00010558  0.33407214  0.62224630  1
  N  N155  1  0.50495469  0.16229622  0.87921320  1
  N  N156  1  0.33232786  0.33073229  0.36798403  1
  N  N157  1  0.84729235  0.17527079  0.37508126  1
  N  N158  1  0.50346645  0.16384291  0.62839935  1
  N  N159  1  0.16737304  0.17621225  0.12720885  1
  N  N160  1  0.67555528  0.32879731  0.38039390  1
  N  N161  1  0.84294785  0.49994678  0.87064613  1
  N  N162  1  0.35522819  0.33348066  0.12084174  1
  N  N163  1  0.50253501  0.83634248  0.37569655  1
  N  N164  1  0.83249693  0.49055364  0.12482871  1
  N  N165  1  0.17378965  0.50186363  0.36738631  1
  N  N166  1  0.00173311  0.68148714  0.37233703  1
  N  N167  1  0.32988909  0.33108422  0.62083923  1
  N  N168  1  0.32248010  -0.00042548  0.87355998  1
  N  N169  1  0.51530248  0.50829263  0.12451030  1
  N  N170  1  0.00796297  0.33954619  0.87276607  1
  N  N171  1  0.33944515  0.67579945  0.11705819  1
  N  N172  1  0.66593343  0.33219723  0.63071569  1
  N  N173  1  0.15721398  0.50780111  0.12168561  1
  N  N174  1  0.49568264  0.49026068  0.63057717  1
  N  N175  1  -0.00318545  0.66015557  0.62357324  1
  N  N176  1  0.33079042  0.33159958  0.87672250  1
  O  O177  1  0.18509541  0.18174731  0.87945586  1
  O  O178  1  0.16090999  0.16806428  0.37814799  1
  O  O179  1  -0.02307242  0.00686429  0.62266733  1
  O  O180  1  0.52937168  0.17339873  0.12679978  1
  O  O181  1  0.65627272  -0.00134256  0.37431676  1
  O  O182  1  -0.04106931  -0.01330164  0.87231574  1
  O  O183  1  0.66840200  0.65135696  0.12369061  1
  O  O184  1  0.67163589  0.65844821  0.87017177  1
  O  O185  1  0.16552802  0.85131874  0.37563391  1
  O  O186  1  0.83397228  0.15478704  0.62777816  1
  O  O187  1  0.84684400  0.83927960  0.12760166  1
  O  O188  1  0.16969652  0.49575968  0.89045034  1
  O  O189  1  0.63714303  -0.01308713  0.12593056  1
  O  O190  1  0.50624288  0.83845430  0.87382602  1
  O  O191  1  0.83484065  0.14567493  0.87612626  1
  O  O192  1  0.30475600  0.65702605  0.62731453  1
  O  O193  1  0.18986364  0.82371281  0.62533704  1
  O  O194  1  -0.00313902  0.00547410  0.37073591  1
  O  O195  1  0.68159147  0.34485395  0.11749081  1
  O  O196  1  0.64093407  -0.01138152  0.87648651  1
  O  O197  1  0.17088257  0.82144052  0.87554413  1
  O  O198  1  0.85567422  0.83742987  0.37933883  1
  O  O199  1  0.49184082  0.83803197  0.12427020  1
  O  O200  1  0.50979403  0.16478817  0.37171385  1
  O  O201  1  0.84750424  0.17171454  0.12652497  1
  O  O202  1  0.30492682  0.65769025  0.87780195  1
  O  O203  1  0.30860437  -0.00827545  0.37632845  1
  O  O204  1  -0.00984794  0.32728880  0.12075198  1
  O  O205  1  0.50641374  0.83570313  0.62207822  1
  O  O206  1  0.50341617  0.49460684  0.87509628  1
  O  O207  1  0.17985296  0.84032592  0.12521475  1
  O  O208  1  0.66994232  0.35329105  0.86869844  1
  O  O209  1  -0.00159116  0.66791029  0.87987339  1
  O  O210  1  0.83099928  0.50377146  0.37576532  1
  O  O211  1  0.31659408  -0.00304502  0.62570362  1
  O  O212  1  -0.01282723  -0.00236359  0.12741620  1
  O  O213  1  0.84656947  0.51170832  0.62288529  1
  O  O214  1  0.83120701  0.83609909  0.87869846  1
  O  O215  1  0.16944985  0.16339023  0.62560678  1
