# generated using pymatgen
data_Sr24Ta24N11O13
_symmetry_space_group_name_H-M   'P 1'
_cell_length_a   17.06157562
_cell_length_b   16.66069418
_cell_length_c   15.73444410
_cell_angle_alpha   89.85444101
_cell_angle_beta   90.49656315
_cell_angle_gamma   89.95886861
_symmetry_Int_Tables_number   1
_chemical_formula_structural   Sr24Ta24N11O13
_chemical_formula_sum   'Sr72 Ta72 N33 O39'
_cell_volume   4472.45316258
_cell_formula_units_Z   3
loop_
 _symmetry_equiv_pos_site_id
 _symmetry_equiv_pos_as_xyz
  1  'x, y, z'
loop_
 _atom_site_type_symbol
 _atom_site_label
 _atom_site_symmetry_multiplicity
 _atom_site_fract_x
 _atom_site_fract_y
 _atom_site_fract_z
 _atom_site_occupancy
  Sr  Sr0  1  -0.01212417  0.17786408  0.14750016  1
  Sr  Sr1  1  -0.02025983  0.15542191  0.63975756  1
  Sr  Sr2  1  -0.02613007  0.49617493  0.09735634  1
  Sr  Sr3  1  0.00073594  0.51162114  0.62978319  1
  Sr  Sr4  1  0.00168146  0.83389847  0.13178282  1
  Sr  Sr5  1  -0.01982161  0.83619445  0.59129578  1
  Sr  Sr6  1  0.31004928  0.16942956  0.11550066  1
  Sr  Sr7  1  0.31332433  0.17083579  0.59660971  1
  Sr  Sr8  1  0.31323116  0.50672910  0.10690856  1
  Sr  Sr9  1  0.32618049  0.49315289  0.66221481  1
  Sr  Sr10  1  0.33434676  0.83168890  0.16291089  1
  Sr  Sr11  1  0.32886964  0.83375866  0.61503943  1
  Sr  Sr12  1  0.66277838  0.15562306  0.12711304  1
  Sr  Sr13  1  0.64139282  0.16830346  0.62661320  1
  Sr  Sr14  1  0.66165968  0.50713872  0.13684088  1
  Sr  Sr15  1  0.63105828  0.49217809  0.60383856  1
  Sr  Sr16  1  0.63198441  0.83375608  0.07637567  1
  Sr  Sr17  1  0.67165093  0.83139099  0.63649279  1
  Sr  Sr18  1  0.17285519  0.00019968  0.09161569  1
  Sr  Sr19  1  0.18247072  0.00437585  0.64043716  1
  Sr  Sr20  1  0.17572146  0.33519642  0.13930922  1
  Sr  Sr21  1  0.18131112  0.33645170  0.59731010  1
  Sr  Sr22  1  0.18528173  0.67352342  0.13680083  1
  Sr  Sr23  1  0.19346998  0.66606556  0.64665995  1
  Sr  Sr24  1  0.50315726  0.01329981  0.11132718  1
  Sr  Sr25  1  0.51669116  -0.01398756  0.66883253  1
  Sr  Sr26  1  0.54026361  0.32962292  0.17475341  1
  Sr  Sr27  1  0.49283593  0.32408278  0.61735621  1
  Sr  Sr28  1  0.51278599  0.65177992  0.11707753  1
  Sr  Sr29  1  0.51109003  0.67987649  0.58639263  1
  Sr  Sr30  1  0.84787317  0.00497824  0.15453804  1
  Sr  Sr31  1  0.82832189  -0.00534299  0.60080480  1
  Sr  Sr32  1  0.83577450  0.33225986  0.08922293  1
  Sr  Sr33  1  0.86124038  0.34121981  0.63387749  1
  Sr  Sr34  1  0.84959820  0.67215574  0.13686582  1
  Sr  Sr35  1  0.83944331  0.65982339  0.64326948  1
  Sr  Sr36  1  -0.01925229  0.16041576  0.36474640  1
  Sr  Sr37  1  -0.01096512  0.16745258  0.85132829  1
  Sr  Sr38  1  -0.00982185  0.49731938  0.41289750  1
  Sr  Sr39  1  -0.01986705  0.50684581  0.86039300  1
  Sr  Sr40  1  -0.00818719  0.82718590  0.36114818  1
  Sr  Sr41  1  0.00520855  0.84260578  0.91551232  1
  Sr  Sr42  1  0.31840297  0.17678411  0.38936927  1
  Sr  Sr43  1  0.31655065  0.16079283  0.90241870  1
  Sr  Sr44  1  0.29069081  0.49636298  0.33514205  1
  Sr  Sr45  1  0.33889882  0.50568147  0.88343529  1
  Sr  Sr46  1  0.33712085  0.82505765  0.38542010  1
  Sr  Sr47  1  0.31764031  0.83897869  0.82690219  1
  Sr  Sr48  1  0.64794098  0.15000069  0.35516626  1
  Sr  Sr49  1  0.64473084  0.16438362  0.87804826  1
  Sr  Sr50  1  0.65260363  0.50666801  0.35741872  1
  Sr  Sr51  1  0.64706691  0.49620265  0.88782726  1
  Sr  Sr52  1  0.65711456  0.83132504  0.40520297  1
  Sr  Sr53  1  0.67007307  0.83207486  0.85880986  1
  Sr  Sr54  1  0.20208942  -0.00245450  0.42425298  1
  Sr  Sr55  1  0.16439583  0.00756860  0.86758732  1
  Sr  Sr56  1  0.16956519  0.32053453  0.36232600  1
  Sr  Sr57  1  0.19672838  0.33864143  0.90598499  1
  Sr  Sr58  1  0.18470842  0.68557175  0.35575208  1
  Sr  Sr59  1  0.18562437  0.66177898  0.86383776  1
  Sr  Sr60  1  0.49823023  -0.00422613  0.33420541  1
  Sr  Sr61  1  0.51920966  -0.01024202  0.88394647  1
  Sr  Sr62  1  0.51105170  0.31881084  0.39459525  1
  Sr  Sr63  1  0.50368520  0.34540122  0.82981501  1
  Sr  Sr64  1  0.51278973  0.66452621  0.37988353  1
  Sr  Sr65  1  0.51496219  0.65909194  0.91273981  1
  Sr  Sr66  1  0.81938923  0.00199279  0.37900903  1
  Sr  Sr67  1  0.84950529  -0.00016492  0.86645346  1
  Sr  Sr68  1  0.85817150  0.33949060  0.39944556  1
  Sr  Sr69  1  0.84928715  0.33394364  0.87613345  1
  Sr  Sr70  1  0.85335700  0.65740791  0.36319858  1
  Sr  Sr71  1  0.84710245  0.67633516  0.86656616  1
  Ta  Ta72  1  0.12361868  0.17354957  -0.00201663  1
  Ta  Ta73  1  0.12437663  0.16182150  0.50411601  1
  Ta  Ta74  1  0.13383908  0.51083162  0.00588662  1
  Ta  Ta75  1  0.17787590  0.51950311  0.50385547  1
  Ta  Ta76  1  0.19861919  0.82747649  -0.00681969  1
  Ta  Ta77  1  0.14568868  0.82509650  0.50812131  1
  Ta  Ta78  1  0.49710784  0.21993042  0.00232667  1
  Ta  Ta79  1  0.49268704  0.12180263  0.49784362  1
  Ta  Ta80  1  0.50045031  0.43987051  0.00610342  1
  Ta  Ta81  1  0.45095470  0.50041036  0.49679182  1
  Ta  Ta82  1  0.44920184  0.83182312  -0.00848010  1
  Ta  Ta83  1  0.50011094  0.87643236  0.50474135  1
  Ta  Ta84  1  0.83297328  0.14362439  0.00474412  1
  Ta  Ta85  1  0.80103266  0.18360682  0.49349658  1
  Ta  Ta86  1  0.80527604  0.52527155  -0.00025790  1
  Ta  Ta87  1  0.79694450  0.50624023  0.49491923  1
  Ta  Ta88  1  0.81631507  0.84140456  0.00073772  1
  Ta  Ta89  1  0.81707772  0.80432946  0.50184290  1
  Ta  Ta90  1  0.16267961  0.12003027  0.26016182  1
  Ta  Ta91  1  0.16999063  0.19764915  0.75010082  1
  Ta  Ta92  1  0.11169214  0.50060788  0.24760529  1
  Ta  Ta93  1  0.15534505  0.46751339  0.75140572  1
  Ta  Ta94  1  0.16777277  0.88285918  0.26097992  1
  Ta  Ta95  1  0.12523815  0.83436348  0.74435972  1
  Ta  Ta96  1  0.45580201  0.17157752  0.25273468  1
  Ta  Ta97  1  0.45139141  0.16480572  0.75033207  1
  Ta  Ta98  1  0.46443337  0.49382636  0.24982460  1
  Ta  Ta99  1  0.50128461  0.54702980  0.74952412  1
  Ta  Ta100  1  0.52026214  0.81904730  0.24672317  1
  Ta  Ta101  1  0.50027292  0.78716205  0.75649918  1
  Ta  Ta102  1  0.81714994  0.20335538  0.25278982  1
  Ta  Ta103  1  0.79821163  0.16955230  0.75035112  1
  Ta  Ta104  1  0.84505474  0.47239383  0.25270512  1
  Ta  Ta105  1  0.77856991  0.49265033  0.74934460  1
  Ta  Ta106  1  0.78670705  0.83170503  0.24550812  1
  Ta  Ta107  1  0.86635353  0.84142151  0.75101084  1
  Ta  Ta108  1  0.04569077  -0.00066897  0.25277695  1
  Ta  Ta109  1  0.00143475  -0.03840686  0.75227081  1
  Ta  Ta110  1  -0.01083907  0.36297999  0.25338693  1
  Ta  Ta111  1  0.04896457  0.33689247  0.74898477  1
  Ta  Ta112  1  0.01640736  0.63139533  0.25354641  1
  Ta  Ta113  1  0.01130990  0.71238497  0.74793650  1
  Ta  Ta114  1  0.31496787  0.01446775  0.25554377  1
  Ta  Ta115  1  0.34927398  0.03377053  0.74611931  1
  Ta  Ta116  1  0.36184637  0.33113007  0.25047203  1
  Ta  Ta117  1  0.32357572  0.30544254  0.74811695  1
  Ta  Ta118  1  0.37121747  0.65372099  0.24664922  1
  Ta  Ta119  1  0.38314835  0.66599396  0.75423280  1
  Ta  Ta120  1  0.66719895  -0.04862750  0.24178333  1
  Ta  Ta121  1  0.69879716  0.01231428  0.74941286  1
  Ta  Ta122  1  0.71830130  0.33503066  0.25110692  1
  Ta  Ta123  1  0.69397879  0.33410366  0.74940636  1
  Ta  Ta124  1  0.66864474  0.71181574  0.24202819  1
  Ta  Ta125  1  0.64429113  0.64741353  0.74395866  1
  Ta  Ta126  1  -0.00605090  0.03273500  -0.00152649  1
  Ta  Ta127  1  0.02542598  0.00479318  0.50172236  1
  Ta  Ta128  1  0.02704242  0.32443939  -0.00091460  1
  Ta  Ta129  1  0.01978995  0.30735775  0.49817986  1
  Ta  Ta130  1  0.03001234  0.66078797  0.00117234  1
  Ta  Ta131  1  0.04556412  0.67272135  0.49923933  1
  Ta  Ta132  1  0.33643934  -0.04264283  -0.00396476  1
  Ta  Ta133  1  0.38450321  -0.00180979  0.50334062  1
  Ta  Ta134  1  0.37540171  0.33483262  0.00035747  1
  Ta  Ta135  1  0.33760539  0.37658072  0.49625248  1
  Ta  Ta136  1  0.33652878  0.70645427  -0.00299150  1
  Ta  Ta137  1  0.33133540  0.62236403  0.49317589  1
  Ta  Ta138  1  0.70839442  -0.00230737  -0.00051830  1
  Ta  Ta139  1  0.63244504  0.00203848  0.49806566  1
  Ta  Ta140  1  0.64388831  0.33161703  0.00556068  1
  Ta  Ta141  1  0.69694385  0.32900176  0.49283503  1
  Ta  Ta142  1  0.70565143  0.66638519  0.00043820  1
  Ta  Ta143  1  0.70150098  0.66039191  0.49884119  1
  N  N144  1  0.34140437  -0.00104820  0.62807458  1
  N  N145  1  0.34559290  0.33282832  0.87332530  1
  N  N146  1  0.00479653  0.00129916  0.87862428  1
  N  N147  1  0.49752702  0.82995114  0.87243719  1
  N  N148  1  0.16953656  0.83411007  0.87399928  1
  N  N149  1  0.67052787  0.67380301  0.12287542  1
  N  N150  1  0.15659382  0.16513717  0.62951146  1
  N  N151  1  0.66056136  -0.01070749  0.37343713  1
  N  N152  1  0.33743916  0.33743657  0.62183487  1
  N  N153  1  0.33983118  0.66119283  0.37369199  1
  N  N154  1  0.67466017  -0.00529986  0.87368410  1
  N  N155  1  0.34376905  0.66949280  0.12429832  1
  N  N156  1  0.34435488  -0.00182945  0.37272847  1
  N  N157  1  0.34499806  0.66576511  0.87471661  1
  N  N158  1  0.82801233  0.50185119  0.37301845  1
  N  N159  1  0.68416924  0.33582715  0.12286826  1
  N  N160  1  0.82279889  0.16081380  0.37476503  1
  N  N161  1  0.16088550  0.15798154  0.37709694  1
  N  N162  1  0.01089247  0.33068168  0.37371763  1
  N  N163  1  0.66523809  0.66172884  0.62214892  1
  N  N164  1  0.15721552  0.16935083  0.88004188  1
  N  N165  1  0.66950884  -0.00180826  0.62435545  1
  N  N166  1  0.82923606  0.82587004  0.62448561  1
  N  N167  1  0.66929510  -0.00693813  0.12351559  1
  N  N168  1  0.15631714  0.49721956  0.12686779  1
  N  N169  1  0.16910487  0.84530993  0.38169884  1
  N  N170  1  0.82964965  0.16814854  0.12504782  1
  N  N171  1  0.48494790  0.15816213  0.37286936  1
  N  N172  1  0.83859720  0.83352259  0.88057596  1
  N  N173  1  0.01753678  0.66123738  0.37767590  1
  N  N174  1  0.17760459  0.83986688  0.63369108  1
  N  N175  1  0.33821340  0.33829203  0.37036167  1
  N  N176  1  0.16569786  0.50229498  0.62811574  1
  O  O177  1  0.34404068  0.66148271  0.61651318  1
  O  O178  1  0.01878055  -0.00543868  0.37946877  1
  O  O179  1  0.81458107  0.17077424  0.62454035  1
  O  O180  1  0.18236665  0.84773110  0.13501448  1
  O  O181  1  0.00577752  -0.00032331  0.62814662  1
  O  O182  1  0.48999335  0.19428878  0.87576206  1
  O  O183  1  0.66813219  0.66884607  0.37105112  1
  O  O184  1  0.01289141  0.67058330  0.12579558  1
  O  O185  1  0.49913814  0.49256786  0.88237697  1
  O  O186  1  0.68941747  0.33267153  0.61741379  1
  O  O187  1  0.15271041  0.50158436  0.87402393  1
  O  O188  1  0.82189310  0.51124615  0.12766565  1
  O  O189  1  0.02075905  0.33563341  0.87499682  1
  O  O190  1  0.00922934  0.67448032  0.62606290  1
  O  O191  1  0.50286611  0.83338146  0.62942177  1
  O  O192  1  0.48104699  0.51339731  0.62557655  1
  O  O193  1  0.01667720  0.67988293  0.87782254  1
  O  O194  1  0.79224953  0.49499738  0.62766442  1
  O  O195  1  0.49169641  0.18665807  0.12520688  1
  O  O196  1  0.14733762  0.49520731  0.37750681  1
  O  O197  1  0.80563505  0.50310656  0.87555436  1
  O  O198  1  0.67074174  0.33068575  0.87294491  1
  O  O199  1  0.81868911  0.17456144  0.87515048  1
  O  O200  1  0.33726739  -0.01037880  0.87226658  1
  O  O201  1  0.48628676  0.16692209  0.62497033  1
  O  O202  1  0.81725677  0.82897643  0.37351837  1
  O  O203  1  0.01812628  -0.00086573  0.12217838  1
  O  O204  1  0.32609933  0.32998355  0.11929653  1
  O  O205  1  0.15837849  0.15426297  0.12556812  1
  O  O206  1  0.47845350  0.49741264  0.37309866  1
  O  O207  1  0.32967729  -0.01595775  0.12163048  1
  O  O208  1  0.66698702  0.34684207  0.37108673  1
  O  O209  1  0.50662282  0.83431492  0.37420140  1
  O  O210  1  0.01052890  0.33460357  0.12493349  1
  O  O211  1  0.84545209  0.82975888  0.13213424  1
  O  O212  1  0.49616820  0.48377842  0.12564127  1
  O  O213  1  0.48969913  0.82542782  0.12328185  1
  O  O214  1  0.67070756  0.66711953  0.87638297  1
  O  O215  1  0.01953380  0.33989288  0.62375660  1
