# generated using pymatgen
data_Sr24Ta24N11O13
_symmetry_space_group_name_H-M   'P 1'
_cell_length_a   16.72064843
_cell_length_b   16.77559160
_cell_length_c   15.75786261
_cell_angle_alpha   89.72103925
_cell_angle_beta   90.08828492
_cell_angle_gamma   89.91275683
_symmetry_Int_Tables_number   1
_chemical_formula_structural   Sr24Ta24N11O13
_chemical_formula_sum   'Sr72 Ta72 N33 O39'
_cell_volume   4419.99825935
_cell_formula_units_Z   3
loop_
 _symmetry_equiv_pos_site_id
 _symmetry_equiv_pos_as_xyz
  1  'x, y, z'
loop_
 _atom_site_type_symbol
 _atom_site_label
 _atom_site_symmetry_multiplicity
 _atom_site_fract_x
 _atom_site_fract_y
 _atom_site_fract_z
 _atom_site_occupancy
  Sr  Sr0  1  -0.00444571  0.16236507  0.12845025  1
  Sr  Sr1  1  -0.00505585  0.16570115  0.58995388  1
  Sr  Sr2  1  -0.00939260  0.51616126  0.07153428  1
  Sr  Sr3  1  0.00108968  0.49151054  0.63529759  1
  Sr  Sr4  1  -0.00437908  0.81729162  0.17152779  1
  Sr  Sr5  1  0.02436580  0.83953406  0.62226259  1
  Sr  Sr6  1  0.32590965  0.18168881  0.15241170  1
  Sr  Sr7  1  0.32370287  0.18330035  0.61509509  1
  Sr  Sr8  1  0.32244534  0.51152684  0.13586098  1
  Sr  Sr9  1  0.33913489  0.52454856  0.58685708  1
  Sr  Sr10  1  0.32872110  0.85249393  0.10478580  1
  Sr  Sr11  1  0.35505530  0.84079669  0.66543788  1
  Sr  Sr12  1  0.63542832  0.17161027  0.12280326  1
  Sr  Sr13  1  0.66461072  0.16918021  0.63377905  1
  Sr  Sr14  1  0.66492224  0.50011220  0.12440860  1
  Sr  Sr15  1  0.65430280  0.50790730  0.67300748  1
  Sr  Sr16  1  0.67952322  0.84526226  0.10514660  1
  Sr  Sr17  1  0.67318364  0.81619841  0.59434440  1
  Sr  Sr18  1  0.16587773  0.00568421  0.08360141  1
  Sr  Sr19  1  0.17089964  -0.01055651  0.63547569  1
  Sr  Sr20  1  0.16774461  0.32126643  0.14589067  1
  Sr  Sr21  1  0.16130455  0.33980991  0.65388359  1
  Sr  Sr22  1  0.16665306  0.67416133  0.12729449  1
  Sr  Sr23  1  0.17232953  0.65723220  0.59084124  1
  Sr  Sr24  1  0.49502784  0.00343133  0.12482786  1
  Sr  Sr25  1  0.50887147  -0.00849151  0.63911386  1
  Sr  Sr26  1  0.49539508  0.34654757  0.08050527  1
  Sr  Sr27  1  0.50971736  0.32763890  0.63705493  1
  Sr  Sr28  1  0.49305389  0.65175413  0.17195571  1
  Sr  Sr29  1  0.50187643  0.67336744  0.62045652  1
  Sr  Sr30  1  0.85467531  -0.01571139  0.13157863  1
  Sr  Sr31  1  0.83214722  -0.02154390  0.64282733  1
  Sr  Sr32  1  0.84010633  0.31529956  0.13919240  1
  Sr  Sr33  1  0.84104662  0.31028986  0.58725004  1
  Sr  Sr34  1  0.82064628  0.65508076  0.10649908  1
  Sr  Sr35  1  0.84179018  0.64810554  0.64682676  1
  Sr  Sr36  1  -0.01082065  0.17967525  0.35992598  1
  Sr  Sr37  1  0.00048994  0.14776631  0.91375836  1
  Sr  Sr38  1  -0.01811961  0.50021420  0.41165314  1
  Sr  Sr39  1  0.00416920  0.49000892  0.86003704  1
  Sr  Sr40  1  0.02793777  0.83369268  0.38318278  1
  Sr  Sr41  1  -0.00522249  0.84269049  0.82730523  1
  Sr  Sr42  1  0.32915886  0.16743742  0.38076776  1
  Sr  Sr43  1  0.31532462  0.19765808  0.84445942  1
  Sr  Sr44  1  0.33693901  0.52351724  0.36894872  1
  Sr  Sr45  1  0.33043740  0.50850823  0.90486149  1
  Sr  Sr46  1  0.36251294  0.85496847  0.33900209  1
  Sr  Sr47  1  0.33366772  0.83899866  0.88124952  1
  Sr  Sr48  1  0.65414588  0.19159912  0.39243854  1
  Sr  Sr49  1  0.64862810  0.15834420  0.85888964  1
  Sr  Sr50  1  0.67865407  0.50948508  0.33259841  1
  Sr  Sr51  1  0.65606513  0.50487422  0.87819851  1
  Sr  Sr52  1  0.67536612  0.83970519  0.39852932  1
  Sr  Sr53  1  0.68385603  0.83067963  0.91043078  1
  Sr  Sr54  1  0.16119200  0.01797190  0.42235190  1
  Sr  Sr55  1  0.16699891  -0.01017788  0.86511175  1
  Sr  Sr56  1  0.17627180  0.33410660  0.33835895  1
  Sr  Sr57  1  0.16154811  0.33346039  0.85098132  1
  Sr  Sr58  1  0.16285234  0.66571483  0.37325800  1
  Sr  Sr59  1  0.18257589  0.65379119  0.91487859  1
  Sr  Sr60  1  0.49532104  0.01303307  0.34461280  1
  Sr  Sr61  1  0.50620650  -0.01114410  0.89175587  1
  Sr  Sr62  1  0.48289218  0.32596375  0.42726652  1
  Sr  Sr63  1  0.50713652  0.33062958  0.86629922  1
  Sr  Sr64  1  0.50678934  0.67315157  0.38490645  1
  Sr  Sr65  1  0.49231358  0.66823838  0.84067282  1
  Sr  Sr66  1  0.85012430  -0.03068894  0.35419229  1
  Sr  Sr67  1  0.84053782  -0.00976696  0.86997933  1
  Sr  Sr68  1  0.82051455  0.33344724  0.36563415  1
  Sr  Sr69  1  0.85648922  0.30272843  0.90370463  1
  Sr  Sr70  1  0.82984080  0.65758519  0.37465773  1
  Sr  Sr71  1  0.83395556  0.64672798  0.87887876  1
  Ta  Ta72  1  0.18464504  0.18937424  -0.00069603  1
  Ta  Ta73  1  0.16168277  0.21328548  0.49278621  1
  Ta  Ta74  1  0.16625635  0.45807754  -0.00284201  1
  Ta  Ta75  1  0.16128088  0.46837342  0.49923014  1
  Ta  Ta76  1  0.12669589  0.83053490  -0.00352289  1
  Ta  Ta77  1  0.22280790  0.83737712  0.50438325  1
  Ta  Ta78  1  0.45661628  0.16728686  -0.00204795  1
  Ta  Ta79  1  0.49669432  0.13090202  0.50409799  1
  Ta  Ta80  1  0.49728789  0.53923357  0.00640703  1
  Ta  Ta81  1  0.53827686  0.50297933  0.50280274  1
  Ta  Ta82  1  0.50513374  0.79657748  0.00106790  1
  Ta  Ta83  1  0.48190765  0.85162931  0.50094848  1
  Ta  Ta84  1  0.79833285  0.14626581  0.00152614  1
  Ta  Ta85  1  0.81938597  0.11132239  0.50103752  1
  Ta  Ta86  1  0.81414212  0.46191154  -0.00635431  1
  Ta  Ta87  1  0.79967731  0.49934666  0.50693063  1
  Ta  Ta88  1  0.87761625  0.82611466  -0.00229541  1
  Ta  Ta89  1  0.86485724  0.81577413  0.50842428  1
  Ta  Ta90  1  0.15820432  0.13165696  0.24909082  1
  Ta  Ta91  1  0.12938026  0.15840730  0.75122788  1
  Ta  Ta92  1  0.11812885  0.50901778  0.24427903  1
  Ta  Ta93  1  0.18905886  0.52358259  0.74834755  1
  Ta  Ta94  1  0.18206085  0.86036387  0.24469220  1
  Ta  Ta95  1  0.17729099  0.78649347  0.75269181  1
  Ta  Ta96  1  0.49323177  0.21343274  0.25405704  1
  Ta  Ta97  1  0.47714863  0.14699587  0.75024064  1
  Ta  Ta98  1  0.49697171  0.45948161  0.25215079  1
  Ta  Ta99  1  0.45871173  0.49986773  0.74626610  1
  Ta  Ta100  1  0.54609124  0.83177667  0.25143114  1
  Ta  Ta101  1  0.54755515  0.83363646  0.75510770  1
  Ta  Ta102  1  0.79374773  0.13599681  0.25368110  1
  Ta  Ta103  1  0.85225809  0.16864336  0.74387259  1
  Ta  Ta104  1  0.87076323  0.50056816  0.23719009  1
  Ta  Ta105  1  0.83207152  0.44110877  0.75867608  1
  Ta  Ta106  1  0.80277569  0.80882181  0.24519813  1
  Ta  Ta107  1  0.80192062  0.81712272  0.75413405  1
  Ta  Ta108  1  0.05153731  -0.00398083  0.24623421  1
  Ta  Ta109  1  -0.00098441  0.04097127  0.74376052  1
  Ta  Ta110  1  -0.00055200  0.38386902  0.23901581  1
  Ta  Ta111  1  -0.01881427  0.29592192  0.75299921  1
  Ta  Ta112  1  -0.00930861  0.62130723  0.24511643  1
  Ta  Ta113  1  0.04655998  0.66408432  0.75340077  1
  Ta  Ta114  1  0.27983151  0.00928484  0.25347142  1
  Ta  Ta115  1  0.34352221  0.02888962  0.74970913  1
  Ta  Ta116  1  0.37894483  0.34440804  0.25354332  1
  Ta  Ta117  1  0.33695480  0.38462830  0.74517380  1
  Ta  Ta118  1  0.31800130  0.70011314  0.24931766  1
  Ta  Ta119  1  0.31368792  0.65373584  0.75509976  1
  Ta  Ta120  1  0.67734138  -0.00338309  0.24920963  1
  Ta  Ta121  1  0.66893439  -0.04363235  0.75686074  1
  Ta  Ta122  1  0.61396436  0.33628745  0.25230712  1
  Ta  Ta123  1  0.71267145  0.32895603  0.75087547  1
  Ta  Ta124  1  0.66982528  0.70175039  0.25014517  1
  Ta  Ta125  1  0.66946516  0.69856284  0.76020370  1
  Ta  Ta126  1  0.00161301  -0.05434136  0.00413554  1
  Ta  Ta127  1  -0.03042570  -0.00531228  0.50204286  1
  Ta  Ta128  1  0.03384656  0.33187776  0.00141086  1
  Ta  Ta129  1  0.03936107  0.33619238  0.49392618  1
  Ta  Ta130  1  0.00315227  0.71376394  -0.00384722  1
  Ta  Ta131  1  -0.01485200  0.67709051  0.50322111  1
  Ta  Ta132  1  0.33222699  0.05331796  -0.00087213  1
  Ta  Ta133  1  0.35169664  -0.01565172  0.49568105  1
  Ta  Ta134  1  0.30616648  0.32845972  0.00013961  1
  Ta  Ta135  1  0.28317943  0.34972766  0.49707014  1
  Ta  Ta136  1  0.37520595  0.67629198  0.00581664  1
  Ta  Ta137  1  0.34121236  0.72198022  0.49284782  1
  Ta  Ta138  1  0.68744102  0.01997320  -0.00163372  1
  Ta  Ta139  1  0.66447121  0.01482108  0.50200881  1
  Ta  Ta140  1  0.68886069  0.32847011  0.00139116  1
  Ta  Ta141  1  0.66785437  0.39316608  0.50302294  1
  Ta  Ta142  1  0.61886351  0.66424432  0.00142225  1
  Ta  Ta143  1  0.67305975  0.61363884  0.50507046  1
  N  N144  1  0.00217498  0.00020905  0.62231350  1
  N  N145  1  0.01102014  -0.01629824  0.12891833  1
  N  N146  1  0.00039739  0.33563274  0.12291469  1
  N  N147  1  0.33618017  0.66951828  0.87523205  1
  N  N148  1  0.34510697  0.68137089  0.37368439  1
  N  N149  1  0.16835465  0.82604141  0.87073767  1
  N  N150  1  0.48326064  0.18054844  0.12575563  1
  N  N151  1  0.66180640  0.66261300  0.87940676  1
  N  N152  1  0.18865764  0.82757560  0.62656994  1
  N  N153  1  0.15614370  0.16413908  0.87077946  1
  N  N154  1  0.00479181  0.31809938  0.87105397  1
  N  N155  1  0.32335288  0.00740400  0.37499473  1
  N  N156  1  0.49772619  0.50379619  0.62530336  1
  N  N157  1  0.82817247  0.15209471  0.62290310  1
  N  N158  1  0.16635210  0.83714772  0.12412744  1
  N  N159  1  0.84240178  0.48905601  0.87127128  1
  N  N160  1  0.51336477  0.83430447  0.62097626  1
  N  N161  1  0.83459221  0.49274376  0.11682377  1
  N  N162  1  0.67006344  -0.00784498  0.87785564  1
  N  N163  1  0.16499163  0.49951669  0.62343283  1
  N  N164  1  0.50772764  0.82977634  0.87858602  1
  N  N165  1  0.51969770  0.84202712  0.37183434  1
  N  N166  1  0.15860036  0.17624684  0.37445348  1
  N  N167  1  0.49414579  0.50126607  0.12482999  1
  N  N168  1  0.15910114  0.16536390  0.11924280  1
  N  N169  1  0.84351175  0.81820873  0.62841966  1
  N  N170  1  0.33526260  0.67902487  0.12545826  1
  N  N171  1  0.49072110  0.17529982  0.87383235  1
  N  N172  1  0.49267811  0.17241943  0.38023127  1
  N  N173  1  0.83657122  0.82278883  0.12776155  1
  N  N174  1  0.49645873  0.16997547  0.62147967  1
  N  N175  1  0.84047120  0.82590560  0.87470480  1
  N  N176  1  0.16788359  0.49345535  0.87752469  1
  O  O177  1  0.68741709  0.31289028  0.87651216  1
  O  O178  1  0.51913124  0.84294088  0.12359910  1
  O  O179  1  -0.00093824  -0.00497029  0.86700721  1
  O  O180  1  0.33266871  0.00871422  0.62562213  1
  O  O181  1  0.32116127  0.02592222  0.12523286  1
  O  O182  1  0.83223838  0.81614606  0.37413531  1
  O  O183  1  0.00906810  0.32615670  0.62069696  1
  O  O184  1  0.32270568  0.03236540  0.87249060  1
  O  O185  1  0.67111004  0.65636167  0.38099160  1
  O  O186  1  0.02226808  0.66650298  0.87620778  1
  O  O187  1  0.82546942  0.48925299  0.63357676  1
  O  O188  1  0.13941099  0.50578817  0.37227678  1
  O  O189  1  0.01424420  0.66492442  0.62658581  1
  O  O190  1  0.33371287  0.34777659  0.37953072  1
  O  O191  1  0.65964422  0.66208759  0.12742934  1
  O  O192  1  -0.01249177  0.65470524  0.37774081  1
  O  O193  1  0.66717902  0.65591114  0.62715411  1
  O  O194  1  0.32396405  0.36579403  0.62008371  1
  O  O195  1  -0.00244305  0.66719005  0.11901750  1
  O  O196  1  0.34248909  0.67663130  0.61685699  1
  O  O197  1  0.01816323  0.34699807  0.36733425  1
  O  O198  1  0.66198857  -0.00054770  0.37896774  1
  O  O199  1  0.14691988  0.50596196  0.11839372  1
  O  O200  1  0.65892157  -0.00029997  0.12540108  1
  O  O201  1  0.80707061  0.15385681  0.13247958  1
  O  O202  1  0.66844514  -0.00587746  0.62735894  1
  O  O203  1  0.49120481  0.51048797  0.87205524  1
  O  O204  1  0.15776515  0.18031337  0.62012980  1
  O  O205  1  0.82356290  0.15239442  0.87680293  1
  O  O206  1  0.00818137  -0.01113620  0.37853992  1
  O  O207  1  0.81053636  0.14600098  0.37730981  1
  O  O208  1  0.68500478  0.34646492  0.62632339  1
  O  O209  1  0.34017789  0.33914303  0.12396072  1
  O  O210  1  0.17981155  0.84373652  0.38358813  1
  O  O211  1  0.49800832  0.50054546  0.37865536  1
  O  O212  1  0.82812682  0.49914074  0.37510567  1
  O  O213  1  0.66135401  0.35385919  0.37121421  1
  O  O214  1  0.65503372  0.33459068  0.12422998  1
  O  O215  1  0.32975043  0.35387253  0.87069341  1
