# generated using pymatgen
data_Sr24Ta24N11O13
_symmetry_space_group_name_H-M   'P 1'
_cell_length_a   16.76127384
_cell_length_b   16.87214827
_cell_length_c   15.65891111
_cell_angle_alpha   89.67961559
_cell_angle_beta   89.84961670
_cell_angle_gamma   90.14806100
_symmetry_Int_Tables_number   1
_chemical_formula_structural   Sr24Ta24N11O13
_chemical_formula_sum   'Sr72 Ta72 N33 O39'
_cell_volume   4428.22022797
_cell_formula_units_Z   3
loop_
 _symmetry_equiv_pos_site_id
 _symmetry_equiv_pos_as_xyz
  1  'x, y, z'
loop_
 _atom_site_type_symbol
 _atom_site_label
 _atom_site_symmetry_multiplicity
 _atom_site_fract_x
 _atom_site_fract_y
 _atom_site_fract_z
 _atom_site_occupancy
  Sr  Sr0  1  -0.00113836  0.19961610  0.06325729  1
  Sr  Sr1  1  -0.00196273  0.15547414  0.63526689  1
  Sr  Sr2  1  -0.01274253  0.49729677  0.17503101  1
  Sr  Sr3  1  0.00362227  0.49736479  0.62464464  1
  Sr  Sr4  1  0.00117511  0.83055221  0.12562163  1
  Sr  Sr5  1  -0.02056930  0.81386375  0.61233675  1
  Sr  Sr6  1  0.31763894  0.14927463  0.10707938  1
  Sr  Sr7  1  0.33826915  0.18437471  0.65362628  1
  Sr  Sr8  1  0.34228751  0.50420369  0.13860436  1
  Sr  Sr9  1  0.33225166  0.44570761  0.58762346  1
  Sr  Sr10  1  0.33513335  0.83281748  0.11174110  1
  Sr  Sr11  1  0.31289126  0.84555554  0.62109771  1
  Sr  Sr12  1  0.68559049  0.16464289  0.15399820  1
  Sr  Sr13  1  0.65596070  0.14763852  0.59590271  1
  Sr  Sr14  1  0.68485894  0.49570926  0.08221034  1
  Sr  Sr15  1  0.66218495  0.48225923  0.64380358  1
  Sr  Sr16  1  0.66270385  0.80003977  0.14881915  1
  Sr  Sr17  1  0.66946991  0.82492171  0.64384381  1
  Sr  Sr18  1  0.16583072  -0.00981368  0.16038836  1
  Sr  Sr19  1  0.16739094  0.00918350  0.61636668  1
  Sr  Sr20  1  0.17432398  0.33286101  0.13924695  1
  Sr  Sr21  1  0.15998660  0.33831804  0.58920969  1
  Sr  Sr22  1  0.18250824  0.69222209  0.07169928  1
  Sr  Sr23  1  0.17052646  0.67602610  0.64376976  1
  Sr  Sr24  1  0.50937361  0.02334598  0.12252599  1
  Sr  Sr25  1  0.49437896  0.00809204  0.58806040  1
  Sr  Sr26  1  0.52596439  0.36598146  0.10867321  1
  Sr  Sr27  1  0.50898825  0.32589962  0.62781625  1
  Sr  Sr28  1  0.49032809  0.67281214  0.15909741  1
  Sr  Sr29  1  0.47556228  0.70020362  0.63662384  1
  Sr  Sr30  1  0.84753418  0.02220805  0.08606152  1
  Sr  Sr31  1  0.82849889  0.00880125  0.63685926  1
  Sr  Sr32  1  0.83724800  0.34077299  0.12816239  1
  Sr  Sr33  1  0.84661501  0.34583656  0.67602871  1
  Sr  Sr34  1  0.83576069  0.67379832  0.13880848  1
  Sr  Sr35  1  0.82797585  0.65941757  0.57812986  1
  Sr  Sr36  1  0.00299906  0.15548642  0.41706180  1
  Sr  Sr37  1  -0.01159550  0.15206410  0.85572185  1
  Sr  Sr38  1  0.00019889  0.48890257  0.38214324  1
  Sr  Sr39  1  0.00929954  0.50497547  0.83837902  1
  Sr  Sr40  1  -0.00910237  0.82736424  0.35426042  1
  Sr  Sr41  1  -0.01534918  0.81243463  0.90778958  1
  Sr  Sr42  1  0.27982883  0.15734098  0.30184937  1
  Sr  Sr43  1  0.33503624  0.16913342  0.87503458  1
  Sr  Sr44  1  0.34268309  0.48556974  0.36116681  1
  Sr  Sr45  1  0.31616387  0.49287214  0.92974262  1
  Sr  Sr46  1  0.33527603  0.84966944  0.39539601  1
  Sr  Sr47  1  0.31970767  0.82134290  0.85637690  1
  Sr  Sr48  1  0.66909910  0.18178576  0.36906250  1
  Sr  Sr49  1  0.65434348  0.12575644  0.91241460  1
  Sr  Sr50  1  0.66541354  0.49518763  0.41915000  1
  Sr  Sr51  1  0.66983504  0.49089374  0.86912535  1
  Sr  Sr52  1  0.68068113  0.80174564  0.35939819  1
  Sr  Sr53  1  0.66032957  0.82201440  0.85437413  1
  Sr  Sr54  1  0.16664271  -0.00428283  0.37476423  1
  Sr  Sr55  1  0.18269043  0.01451447  0.82236735  1
  Sr  Sr56  1  0.16962679  0.34932678  0.36469489  1
  Sr  Sr57  1  0.17516342  0.31874232  0.92384035  1
  Sr  Sr58  1  0.18629658  0.69174641  0.40505350  1
  Sr  Sr59  1  0.16481561  0.66345042  0.86485569  1
  Sr  Sr60  1  0.51149751  0.01779623  0.37145857  1
  Sr  Sr61  1  0.48379565  -0.00088146  0.91769590  1
  Sr  Sr62  1  0.51434593  0.35072562  0.39855284  1
  Sr  Sr63  1  0.50067575  0.34290173  0.86466935  1
  Sr  Sr64  1  0.48480405  0.68558748  0.36138237  1
  Sr  Sr65  1  0.51098178  0.67448270  0.83630102  1
  Sr  Sr66  1  0.82441641  0.03725610  0.39294717  1
  Sr  Sr67  1  0.82260340  -0.01225879  0.86028536  1
  Sr  Sr68  1  0.83453810  0.32735438  0.34689830  1
  Sr  Sr69  1  0.84526192  0.35468901  0.87694934  1
  Sr  Sr70  1  0.85644750  0.65424857  0.36742731  1
  Sr  Sr71  1  0.82461949  0.66749551  0.91666410  1
  Ta  Ta72  1  0.15825105  0.11798902  -0.00674293  1
  Ta  Ta73  1  0.19443057  0.16819315  0.49786427  1
  Ta  Ta74  1  0.12826389  0.50235341  0.00896705  1
  Ta  Ta75  1  0.16953693  0.53197388  0.49567672  1
  Ta  Ta76  1  0.16114793  0.87822818  -0.01300723  1
  Ta  Ta77  1  0.13021072  0.84204714  0.50201796  1
  Ta  Ta78  1  0.50018878  0.19984269  0.01525242  1
  Ta  Ta79  1  0.46486485  0.17622166  0.48225872  1
  Ta  Ta80  1  0.50067865  0.54522054  0.00313746  1
  Ta  Ta81  1  0.49117509  0.54307938  0.50373891  1
  Ta  Ta82  1  0.51205196  0.80814424  -0.00188292  1
  Ta  Ta83  1  0.53722893  0.83427039  0.49346106  1
  Ta  Ta84  1  0.81479369  0.19365271  -0.00833274  1
  Ta  Ta85  1  0.83406837  0.21507506  0.51813740  1
  Ta  Ta86  1  0.87700938  0.50517294  0.00019721  1
  Ta  Ta87  1  0.83663566  0.45892208  0.50781878  1
  Ta  Ta88  1  0.79855552  0.84377629  0.00306303  1
  Ta  Ta89  1  0.82120378  0.86101594  0.50259007  1
  Ta  Ta90  1  0.09277078  0.15896755  0.23492887  1
  Ta  Ta91  1  0.16425367  0.20759776  0.75075182  1
  Ta  Ta92  1  0.17373154  0.54424703  0.25060025  1
  Ta  Ta93  1  0.18886201  0.47539681  0.75911930  1
  Ta  Ta94  1  0.17699101  0.81002656  0.24646857  1
  Ta  Ta95  1  0.12166889  0.83971523  0.75383853  1
  Ta  Ta96  1  0.48109246  0.19505568  0.24024158  1
  Ta  Ta97  1  0.51752755  0.14161848  0.75530835  1
  Ta  Ta98  1  0.53448160  0.49966313  0.25398164  1
  Ta  Ta99  1  0.45798589  0.50204854  0.75159791  1
  Ta  Ta100  1  0.49671259  0.86874704  0.24983712  1
  Ta  Ta101  1  0.49209274  0.88324832  0.74737982  1
  Ta  Ta102  1  0.89337354  0.16268527  0.23689232  1
  Ta  Ta103  1  0.79066217  0.17057028  0.75713577  1
  Ta  Ta104  1  0.79174988  0.49979739  0.26104100  1
  Ta  Ta105  1  0.83484738  0.54596583  0.74961813  1
  Ta  Ta106  1  0.82874518  0.89224750  0.24522125  1
  Ta  Ta107  1  0.83947781  0.79118162  0.74691134  1
  Ta  Ta108  1  -0.02077561  0.01568831  0.24618959  1
  Ta  Ta109  1  0.00035593  -0.04389933  0.75040328  1
  Ta  Ta110  1  0.00414767  0.30221377  0.24919573  1
  Ta  Ta111  1  0.04533847  0.33036086  0.75475090  1
  Ta  Ta112  1  0.06656571  0.66793057  0.24506880  1
  Ta  Ta113  1  -0.03068764  0.67680034  0.75607018  1
  Ta  Ta114  1  0.35810757  -0.01462599  0.24661853  1
  Ta  Ta115  1  0.37656161  0.00530682  0.74776168  1
  Ta  Ta116  1  0.37632449  0.31895996  0.23816401  1
  Ta  Ta117  1  0.31167502  0.36354557  0.77779448  1
  Ta  Ta118  1  0.29141821  0.67216070  0.24549451  1
  Ta  Ta119  1  0.33020207  0.60185139  0.75508365  1
  Ta  Ta120  1  0.67583021  -0.02684528  0.24282843  1
  Ta  Ta121  1  0.62364775  0.00301947  0.75625798  1
  Ta  Ta122  1  0.66468130  0.37210341  0.24848423  1
  Ta  Ta123  1  0.66814154  0.27762185  0.75892489  1
  Ta  Ta124  1  0.66494004  0.61212430  0.24992944  1
  Ta  Ta125  1  0.71124896  0.65806437  0.74947448  1
  Ta  Ta126  1  0.03888306  -0.00330643  -0.00911815  1
  Ta  Ta127  1  -0.00751178  -0.03042306  0.50571625  1
  Ta  Ta128  1  0.00386876  0.38760295  0.00612937  1
  Ta  Ta129  1  -0.03499340  0.32919535  0.51130956  1
  Ta  Ta130  1  0.00433692  0.62287509  0.00308711  1
  Ta  Ta131  1  0.02831346  0.65861636  0.49759875  1
  Ta  Ta132  1  0.29113276  -0.00803935  -0.01128875  1
  Ta  Ta133  1  0.33317767  0.06775906  0.48309168  1
  Ta  Ta134  1  0.36608982  0.31319026  0.02312488  1
  Ta  Ta135  1  0.33392512  0.25906886  0.45335668  1
  Ta  Ta136  1  0.38081490  0.67107471  -0.01135211  1
  Ta  Ta137  1  0.33851270  0.63449394  0.50247915  1
  Ta  Ta138  1  0.66510835  -0.05303801  0.00509948  1
  Ta  Ta139  1  0.66930399  -0.04272110  0.49880986  1
  Ta  Ta140  1  0.67809156  0.30085008  -0.00048425  1
  Ta  Ta141  1  0.71366566  0.32465084  0.51831237  1
  Ta  Ta142  1  0.63118189  0.67188514  0.00434171  1
  Ta  Ta143  1  0.62932305  0.66915626  0.50556690  1
  N  N144  1  0.16163003  0.84185671  0.37416368  1
  N  N145  1  0.16488421  0.49427942  0.88152713  1
  N  N146  1  0.53293141  0.17191464  0.13215460  1
  N  N147  1  -0.00336370  0.66030918  0.87847874  1
  N  N148  1  0.50624598  0.84202639  0.37179903  1
  N  N149  1  0.32371543  0.35489070  0.12735241  1
  N  N150  1  0.50424153  0.51791013  0.12572135  1
  N  N151  1  0.14865897  0.15374635  0.12565759  1
  N  N152  1  0.33936398  0.65424635  0.87263934  1
  N  N153  1  -0.00813265  -0.00585406  0.62764253  1
  N  N154  1  0.50172148  0.51193608  0.38311736  1
  N  N155  1  0.82366251  0.82689794  0.62363356  1
  N  N156  1  0.00252732  0.34687291  0.12965231  1
  N  N157  1  0.67772542  0.33576147  0.12597692  1
  N  N158  1  0.65189914  -0.02272256  0.87833692  1
  N  N159  1  0.32416183  0.33084896  0.34797016  1
  N  N160  1  0.17327929  0.50469133  0.37400135  1
  N  N161  1  0.82967718  0.16761706  0.63898123  1
  N  N162  1  0.00624482  0.33513544  0.63218896  1
  N  N163  1  0.33491660  0.33363082  0.89588945  1
  N  N164  1  0.83375228  0.50248010  0.63021788  1
  N  N165  1  0.33505854  0.01727266  0.36278895  1
  N  N166  1  0.15737251  0.81967464  0.87921363  1
  N  N167  1  0.15669581  0.83365064  0.62832430  1
  N  N168  1  0.16513478  0.83955728  0.12097058  1
  N  N169  1  0.83172309  0.49535854  0.38016202  1
  N  N170  1  0.66966730  0.31938094  0.64198422  1
  N  N171  1  0.16554717  0.16357371  0.87488262  1
  N  N172  1  0.66410786  0.65005915  0.12352256  1
  N  N173  1  0.84913328  0.17576630  0.11873068  1
  N  N174  1  0.17303506  0.17702677  0.62223066  1
  N  N175  1  0.33385560  0.00364962  0.86929114  1
  N  N176  1  0.83899246  0.50876062  0.88060890  1
  O  O177  1  0.81585377  0.82727466  0.87389153  1
  O  O178  1  0.83822163  0.86076586  0.12040913  1
  O  O179  1  0.50273564  0.82577190  0.12507723  1
  O  O180  1  0.65979188  0.33809034  0.87727757  1
  O  O181  1  0.00096222  -0.00710508  0.11513768  1
  O  O182  1  0.50308826  0.83527680  0.87278810  1
  O  O183  1  0.32868446  -0.00669726  0.11595720  1
  O  O184  1  0.17340295  0.49263586  0.13156478  1
  O  O185  1  0.51981765  0.17427305  0.36550806  1
  O  O186  1  0.50072421  0.85010612  0.61858628  1
  O  O187  1  -0.01480402  0.00037834  0.37498104  1
  O  O188  1  0.66380693  0.00827150  0.11786692  1
  O  O189  1  0.49866115  0.16264358  0.62579377  1
  O  O190  1  0.66993097  -0.02590150  0.36777496  1
  O  O191  1  0.33332164  0.67567028  0.12014390  1
  O  O192  1  0.83695218  0.50033166  0.12973178  1
  O  O193  1  0.50467101  0.15938130  0.88282804  1
  O  O194  1  0.49128357  0.50576894  0.87336806  1
  O  O195  1  0.65635451  -0.01549271  0.62474296  1
  O  O196  1  0.83298007  0.87664816  0.36805413  1
  O  O197  1  0.37128471  0.32337780  0.68184560  1
  O  O198  1  0.64487883  0.65421669  0.37856244  1
  O  O199  1  0.14224574  0.15183393  0.36089498  1
  O  O200  1  0.47945748  0.48592762  0.62496885  1
  O  O201  1  0.00918875  0.35064285  0.87694324  1
  O  O202  1  0.00620908  0.65968066  0.62318012  1
  O  O203  1  0.17734787  0.49050866  0.61696558  1
  O  O204  1  0.83139802  0.13650768  0.88119611  1
  O  O205  1  0.02222441  0.67144000  0.12329079  1
  O  O206  1  0.85562058  0.17976795  0.37220155  1
  O  O207  1  -0.00630719  0.32979912  0.38022821  1
  O  O208  1  -0.01859165  -0.00233352  0.87159555  1
  O  O209  1  0.01835045  0.66756340  0.36840698  1
  O  O210  1  0.67410420  0.33616563  0.37572011  1
  O  O211  1  0.67027135  0.66235576  0.87435563  1
  O  O212  1  0.66093528  0.66753643  0.62731353  1
  O  O213  1  0.33292653  0.65811621  0.37274797  1
  O  O214  1  0.34599401  0.02985476  0.62308932  1
  O  O215  1  0.32719266  0.64279577  0.62854238  1
