# generated using pymatgen
data_Sr24Ta24N11O13
_symmetry_space_group_name_H-M   'P 1'
_cell_length_a   16.76433856
_cell_length_b   16.78381423
_cell_length_c   15.69410099
_cell_angle_alpha   90.00558535
_cell_angle_beta   89.81332509
_cell_angle_gamma   90.03163380
_symmetry_Int_Tables_number   1
_chemical_formula_structural   Sr24Ta24N11O13
_chemical_formula_sum   'Sr72 Ta72 N33 O39'
_cell_volume   4415.81790685
_cell_formula_units_Z   3
loop_
 _symmetry_equiv_pos_site_id
 _symmetry_equiv_pos_as_xyz
  1  'x, y, z'
loop_
 _atom_site_type_symbol
 _atom_site_label
 _atom_site_symmetry_multiplicity
 _atom_site_fract_x
 _atom_site_fract_y
 _atom_site_fract_z
 _atom_site_occupancy
  Sr  Sr0  1  -0.01473772  0.15205293  0.13581660  1
  Sr  Sr1  1  0.01039260  0.16859115  0.60571156  1
  Sr  Sr2  1  0.00395306  0.50161131  0.11482084  1
  Sr  Sr3  1  0.01453243  0.50439206  0.67252379  1
  Sr  Sr4  1  0.02991145  0.83085383  0.07400617  1
  Sr  Sr5  1  -0.01523648  0.83163367  0.63273560  1
  Sr  Sr6  1  0.32360155  0.15187897  0.11859435  1
  Sr  Sr7  1  0.32616967  0.17191364  0.66379205  1
  Sr  Sr8  1  0.34354775  0.51303864  0.09105767  1
  Sr  Sr9  1  0.33091456  0.49475015  0.60177725  1
  Sr  Sr10  1  0.32838927  0.82152634  0.17013617  1
  Sr  Sr11  1  0.34530985  0.85420598  0.61761363  1
  Sr  Sr12  1  0.65509038  0.18780151  0.10364805  1
  Sr  Sr13  1  0.65501426  0.16095652  0.63070256  1
  Sr  Sr14  1  0.66128780  0.50307780  0.15953752  1
  Sr  Sr15  1  0.66945722  0.51717815  0.62277610  1
  Sr  Sr16  1  0.66588683  0.83154038  0.13350483  1
  Sr  Sr17  1  0.66007699  0.84020187  0.58599361  1
  Sr  Sr18  1  0.17407644  0.00300467  0.13663902  1
  Sr  Sr19  1  0.15043861  -0.00396986  0.58281587  1
  Sr  Sr20  1  0.17570524  0.33098781  0.15798928  1
  Sr  Sr21  1  0.15988668  0.33021186  0.62027241  1
  Sr  Sr22  1  0.15507373  0.65252311  0.11168855  1
  Sr  Sr23  1  0.17249792  0.66917821  0.62468030  1
  Sr  Sr24  1  0.50725454  0.00825387  0.08292533  1
  Sr  Sr25  1  0.48606861  0.01915590  0.64321096  1
  Sr  Sr26  1  0.50829710  0.33594188  0.13390434  1
  Sr  Sr27  1  0.51402285  0.35585883  0.59929662  1
  Sr  Sr28  1  0.50927577  0.67793027  0.11527676  1
  Sr  Sr29  1  0.49072176  0.67339958  0.66078956  1
  Sr  Sr30  1  0.82672415  -0.02418417  0.13097532  1
  Sr  Sr31  1  0.84643945  0.01298020  0.66854900  1
  Sr  Sr32  1  0.84432048  0.31290090  0.11036194  1
  Sr  Sr33  1  0.84687412  0.31556763  0.59455093  1
  Sr  Sr34  1  0.83146617  0.64009972  0.16203046  1
  Sr  Sr35  1  0.82789330  0.67296366  0.61078519  1
  Sr  Sr36  1  -0.01058607  0.14229018  0.36764824  1
  Sr  Sr37  1  -0.00470823  0.16342798  0.87400499  1
  Sr  Sr38  1  0.01211413  0.52071089  0.32618615  1
  Sr  Sr39  1  0.00233340  0.49397995  0.88548552  1
  Sr  Sr40  1  0.00651409  0.81085017  0.42259076  1
  Sr  Sr41  1  -0.01522710  0.83702054  0.86683596  1
  Sr  Sr42  1  0.33298952  0.18300525  0.33053100  1
  Sr  Sr43  1  0.32258969  0.15233916  0.88019237  1
  Sr  Sr44  1  0.32661755  0.49835859  0.40600782  1
  Sr  Sr45  1  0.34531212  0.49840473  0.89785361  1
  Sr  Sr46  1  0.33457521  0.84750502  0.37820314  1
  Sr  Sr47  1  0.34232106  0.82159696  0.82700587  1
  Sr  Sr48  1  0.64839963  0.17354149  0.39949817  1
  Sr  Sr49  1  0.65557099  0.17561007  0.87254772  1
  Sr  Sr50  1  0.67191308  0.50292042  0.38049662  1
  Sr  Sr51  1  0.66350116  0.51438922  0.83801409  1
  Sr  Sr52  1  0.67449504  0.84301311  0.36454236  1
  Sr  Sr53  1  0.64812179  0.82952209  0.92198551  1
  Sr  Sr54  1  0.16435769  -0.00485392  0.36737302  1
  Sr  Sr55  1  0.15550607  0.00605018  0.91741080  1
  Sr  Sr56  1  0.16700348  0.33930706  0.38219862  1
  Sr  Sr57  1  0.16495748  0.31967392  0.83353312  1
  Sr  Sr58  1  0.17189769  0.66471478  0.37369905  1
  Sr  Sr59  1  0.16425219  0.65309245  0.88824110  1
  Sr  Sr60  1  0.51536104  -0.00398881  0.42530126  1
  Sr  Sr61  1  0.48520666  0.01252850  0.86283846  1
  Sr  Sr62  1  0.50983349  0.33213790  0.36739882  1
  Sr  Sr63  1  0.51090814  0.34771575  0.88588429  1
  Sr  Sr64  1  0.48949647  0.69224038  0.33307124  1
  Sr  Sr65  1  0.50194876  0.66988700  0.87922778  1
  Sr  Sr66  1  0.83077646  -0.00372418  0.33633090  1
  Sr  Sr67  1  0.83582464  -0.01813734  0.86848747  1
  Sr  Sr68  1  0.85156665  0.30847258  0.38686530  1
  Sr  Sr69  1  0.84311180  0.32819208  0.91165546  1
  Sr  Sr70  1  0.83268779  0.66018064  0.38444635  1
  Sr  Sr71  1  0.83016864  0.64295406  0.83405069  1
  Ta  Ta72  1  0.16047032  0.20527754  0.00376499  1
  Ta  Ta73  1  0.21268621  0.17091429  0.50089476  1
  Ta  Ta74  1  0.17192952  0.44674292  -0.00017007  1
  Ta  Ta75  1  0.13700396  0.50509453  0.49582127  1
  Ta  Ta76  1  0.22340152  0.83004543  -0.00202190  1
  Ta  Ta77  1  0.18649206  0.82121441  0.49861862  1
  Ta  Ta78  1  0.48021755  0.18619194  -0.00527734  1
  Ta  Ta79  1  0.45448750  0.17633042  0.50077612  1
  Ta  Ta80  1  0.54088277  0.50948469  -0.00440552  1
  Ta  Ta81  1  0.50116549  0.55664876  0.50079216  1
  Ta  Ta82  1  0.45022765  0.83839700  -0.00321409  1
  Ta  Ta83  1  0.49590951  0.79177190  0.49784778  1
  Ta  Ta84  1  0.82646106  0.12957626  0.00265464  1
  Ta  Ta85  1  0.82674487  0.12708205  0.49659496  1
  Ta  Ta86  1  0.81116471  0.51344045  -0.00417643  1
  Ta  Ta87  1  0.86059479  0.49046430  0.49688524  1
  Ta  Ta88  1  0.83091136  0.78961905  0.00333588  1
  Ta  Ta89  1  0.83128716  0.87798504  0.50371076  1
  Ta  Ta90  1  0.14344674  0.17537361  0.25016666  1
  Ta  Ta91  1  0.15474101  0.12738698  0.74448356  1
  Ta  Ta92  1  0.20437416  0.50062912  0.24400970  1
  Ta  Ta93  1  0.20509656  0.49936564  0.75596322  1
  Ta  Ta94  1  0.13349734  0.82396903  0.25126974  1
  Ta  Ta95  1  0.15675380  0.85622829  0.75376719  1
  Ta  Ta96  1  0.50857349  0.12400837  0.25533638  1
  Ta  Ta97  1  0.49055595  0.21455906  0.74588153  1
  Ta  Ta98  1  0.46814711  0.50694605  0.25129650  1
  Ta  Ta99  1  0.47156490  0.49497362  0.74723308  1
  Ta  Ta100  1  0.50755882  0.89451171  0.24814258  1
  Ta  Ta101  1  0.53560911  0.84307125  0.75342461  1
  Ta  Ta102  1  0.79140857  0.16811796  0.24940566  1
  Ta  Ta103  1  0.83274724  0.20764906  0.75273630  1
  Ta  Ta104  1  0.83772567  0.45335278  0.25407903  1
  Ta  Ta105  1  0.83490997  0.44728538  0.75158743  1
  Ta  Ta106  1  0.87240043  0.81632474  0.25308582  1
  Ta  Ta107  1  0.79137193  0.82798653  0.74668672  1
  Ta  Ta108  1  0.00101309  -0.06598712  0.25529531  1
  Ta  Ta109  1  0.03749866  -0.00052054  0.74748743  1
  Ta  Ta110  1  -0.00224831  0.33152563  0.25168717  1
  Ta  Ta111  1  -0.03081300  0.32596168  0.75257490  1
  Ta  Ta112  1  0.00111701  0.71452269  0.24209215  1
  Ta  Ta113  1  0.01318024  0.67899860  0.74834355  1
  Ta  Ta114  1  0.37552247  0.00145504  0.24713561  1
  Ta  Ta115  1  0.27729291  -0.00353178  0.75049090  1
  Ta  Ta116  1  0.34276509  0.38448750  0.24871061  1
  Ta  Ta117  1  0.35388554  0.35355967  0.74842149  1
  Ta  Ta118  1  0.32946318  0.62568486  0.25054448  1
  Ta  Ta119  1  0.32550971  0.62721393  0.75491762  1
  Ta  Ta120  1  0.64180646  0.02077581  0.25149113  1
  Ta  Ta121  1  0.66573062  -0.05107278  0.74939093  1
  Ta  Ta122  1  0.70043695  0.32782042  0.25002106  1
  Ta  Ta123  1  0.69802680  0.33182177  0.75406767  1
  Ta  Ta124  1  0.66361237  0.67060829  0.25355044  1
  Ta  Ta125  1  0.66316034  0.71773821  0.74567749  1
  Ta  Ta126  1  -0.02702545  0.00743979  -0.00091578  1
  Ta  Ta127  1  -0.04072827  -0.00674809  0.49951228  1
  Ta  Ta128  1  0.03940618  0.32333951  -0.00194528  1
  Ta  Ta129  1  0.00218810  0.40357278  0.49946060  1
  Ta  Ta130  1  -0.05393218  0.66566763  0.00232588  1
  Ta  Ta131  1  0.00115225  0.61256011  0.50502876  1
  Ta  Ta132  1  0.33210870  -0.04099786  -0.00229915  1
  Ta  Ta133  1  0.32864911  0.04150057  0.50367421  1
  Ta  Ta134  1  0.31506647  0.32185137  0.00165236  1
  Ta  Ta135  1  0.33490152  0.29545927  0.49808144  1
  Ta  Ta136  1  0.33498718  0.70305662  -0.00314055  1
  Ta  Ta137  1  0.35552714  0.68204831  0.49554063  1
  Ta  Ta138  1  0.68713627  0.01692577  -0.00398650  1
  Ta  Ta139  1  0.71731146  0.00506558  0.50479182  1
  Ta  Ta140  1  0.67114952  0.38087846  0.00122278  1
  Ta  Ta141  1  0.68932683  0.34605884  0.49610713  1
  Ta  Ta142  1  0.69448554  0.64290952  0.00223582  1
  Ta  Ta143  1  0.62217483  0.67518020  0.49992310  1
  N  N144  1  -0.00041876  0.65883399  0.62667631  1
  N  N145  1  0.65908123  0.67926318  0.62583845  1
  N  N146  1  0.32363789  0.00851280  0.62543118  1
  N  N147  1  0.49479970  0.17800792  0.62764360  1
  N  N148  1  0.17076412  0.82946744  0.37809339  1
  N  N149  1  -0.00262161  -0.00069076  0.62729408  1
  N  N150  1  0.33863241  -0.00583410  0.12706224  1
  N  N151  1  -0.00664340  0.67375794  0.11874564  1
  N  N152  1  0.82510526  0.15111975  0.37216541  1
  N  N153  1  0.16773209  0.16442863  0.62393906  1
  N  N154  1  0.33378987  0.66494046  0.37366387  1
  N  N155  1  0.16718420  0.49950262  0.37485383  1
  N  N156  1  -0.00352377  -0.00315487  0.87824850  1
  N  N157  1  0.67280222  0.34367991  0.12391561  1
  N  N158  1  0.67508809  0.34217087  0.87666489  1
  N  N159  1  0.17119647  0.49169142  0.12128015  1
  N  N160  1  0.33701811  0.66154999  0.87714421  1
  N  N161  1  0.84102887  0.49521937  0.37040756  1
  N  N162  1  0.17503031  0.48194696  0.87457423  1
  N  N163  1  0.82317944  0.15185266  0.12616187  1
  N  N164  1  0.00479253  0.33111164  0.87253024  1
  N  N165  1  0.16196184  0.16399957  0.12846422  1
  N  N166  1  0.50861089  0.50934350  0.87400027  1
  N  N167  1  0.83379544  0.48999395  0.87424268  1
  N  N168  1  0.48971178  0.17465410  0.87264617  1
  N  N169  1  0.49236061  0.15992472  0.37466146  1
  N  N170  1  0.49607300  0.51662237  0.62090981  1
  N  N171  1  0.66434805  0.33610916  0.37708352  1
  N  N172  1  0.49450823  0.83930913  0.87718881  1
  N  N173  1  0.82448729  0.84002125  0.62499269  1
  N  N174  1  0.32115978  -0.00666683  0.86733313  1
  N  N175  1  -0.00565394  -0.02255079  0.37278085  1
  N  N176  1  0.67115386  0.66710470  0.13035276  1
  O  O177  1  0.33290913  0.65670922  0.62741321  1
  O  O178  1  0.83798296  0.48720342  0.12863605  1
  O  O179  1  -0.01367955  -0.02482421  0.12451310  1
  O  O180  1  0.66531939  0.01603495  0.11927444  1
  O  O181  1  0.33634666  0.34055185  0.37300404  1
  O  O182  1  0.48506661  0.51246544  0.37732602  1
  O  O183  1  0.66940583  0.00420839  0.38207575  1
  O  O184  1  0.17246697  0.83964646  0.87883613  1
  O  O185  1  0.49999468  0.50937157  0.12576617  1
  O  O186  1  0.00797083  0.35905066  0.37410971  1
  O  O187  1  0.17493324  0.17371711  0.37513211  1
  O  O188  1  0.16541178  0.83569514  0.63021485  1
  O  O189  1  0.83324007  0.83192765  0.37579213  1
  O  O190  1  0.33210240  0.33588956  0.87875254  1
  O  O191  1  0.17269477  0.48992542  0.62843444  1
  O  O192  1  0.67319778  0.32727494  0.62143945  1
  O  O193  1  0.17956481  0.82780495  0.12328786  1
  O  O194  1  0.00300428  0.33133584  0.12582963  1
  O  O195  1  0.33527321  0.33511299  0.12876868  1
  O  O196  1  0.67848287  -0.00961385  0.87401758  1
  O  O197  1  0.50007294  0.82967812  0.62280188  1
  O  O198  1  0.83550184  0.49086867  0.63290059  1
  O  O199  1  0.83076417  0.16966531  0.87276748  1
  O  O200  1  0.33957414  0.00482120  0.37599314  1
  O  O201  1  0.83167752  0.16661586  0.63147714  1
  O  O202  1  0.50674800  0.84629396  0.37028701  1
  O  O203  1  0.16168454  0.16649164  0.87839378  1
  O  O204  1  0.67622234  0.68663380  0.38286490  1
  O  O205  1  0.82053798  0.81241459  0.88068643  1
  O  O206  1  0.00269170  0.35713186  0.62306287  1
  O  O207  1  0.49967552  0.85414527  0.12559211  1
  O  O208  1  -0.00586034  0.66183784  0.38324863  1
  O  O209  1  0.67782400  -0.00259663  0.62998341  1
  O  O210  1  0.49605416  0.15975070  0.12239373  1
  O  O211  1  0.67422355  0.67506167  0.87700256  1
  O  O212  1  0.82590994  0.81103057  0.13053587  1
  O  O213  1  -0.01596816  0.66810937  0.87421462  1
  O  O214  1  0.33950139  0.34181603  0.62009785  1
  O  O215  1  0.33562722  0.66571191  0.12679067  1
