# generated using pymatgen
data_Sr24Ta24N11O13
_symmetry_space_group_name_H-M   'P 1'
_cell_length_a   16.78079903
_cell_length_b   16.86938610
_cell_length_c   15.63974568
_cell_angle_alpha   89.89833850
_cell_angle_beta   90.00144247
_cell_angle_gamma   90.06976758
_symmetry_Int_Tables_number   1
_chemical_formula_structural   Sr24Ta24N11O13
_chemical_formula_sum   'Sr72 Ta72 N33 O39'
_cell_volume   4427.31675929
_cell_formula_units_Z   3
loop_
 _symmetry_equiv_pos_site_id
 _symmetry_equiv_pos_as_xyz
  1  'x, y, z'
loop_
 _atom_site_type_symbol
 _atom_site_label
 _atom_site_symmetry_multiplicity
 _atom_site_fract_x
 _atom_site_fract_y
 _atom_site_fract_z
 _atom_site_occupancy
  Sr  Sr0  1  -0.00868274  0.18568985  0.11229478  1
  Sr  Sr1  1  -0.00068904  0.16255772  0.66589779  1
  Sr  Sr2  1  -0.01067887  0.53264348  0.16693323  1
  Sr  Sr3  1  -0.00201332  0.49364132  0.61477071  1
  Sr  Sr4  1  0.00701437  0.82420368  0.08951371  1
  Sr  Sr5  1  0.02241749  0.86077254  0.61970833  1
  Sr  Sr6  1  0.33224443  0.18028095  0.11793077  1
  Sr  Sr7  1  0.32215384  0.18414425  0.60882421  1
  Sr  Sr8  1  0.32191224  0.50720857  0.11332322  1
  Sr  Sr9  1  0.35231479  0.51200783  0.65298005  1
  Sr  Sr10  1  0.32623002  0.86057148  0.15908896  1
  Sr  Sr11  1  0.34562506  0.84900737  0.60468342  1
  Sr  Sr12  1  0.65319027  0.18994401  0.12717184  1
  Sr  Sr13  1  0.67592955  0.16703014  0.61785349  1
  Sr  Sr14  1  0.66895468  0.49746965  0.12632408  1
  Sr  Sr15  1  0.66485927  0.53430502  0.58229570  1
  Sr  Sr16  1  0.66013305  0.84828424  0.10827174  1
  Sr  Sr17  1  0.67273185  0.82780186  0.66637659  1
  Sr  Sr18  1  0.17173571  0.01410878  0.17007336  1
  Sr  Sr19  1  0.18500449  0.00932846  0.61720106  1
  Sr  Sr20  1  0.16556699  0.33010671  0.10155443  1
  Sr  Sr21  1  0.16512593  0.33313938  0.59625355  1
  Sr  Sr22  1  0.16370748  0.67183239  0.11767924  1
  Sr  Sr23  1  0.17580825  0.62397192  0.67728207  1
  Sr  Sr24  1  0.49512252  -0.00500875  0.11216376  1
  Sr  Sr25  1  0.51112275  -0.02740913  0.63797996  1
  Sr  Sr26  1  0.49320384  0.33904784  0.16884816  1
  Sr  Sr27  1  0.49777715  0.30943949  0.61770163  1
  Sr  Sr28  1  0.51452820  0.64926300  0.07690275  1
  Sr  Sr29  1  0.49182896  0.65962918  0.62145591  1
  Sr  Sr30  1  0.84104066  -0.01004103  0.13133222  1
  Sr  Sr31  1  0.82768986  -0.01390399  0.59817412  1
  Sr  Sr32  1  0.82272261  0.33224275  0.09609570  1
  Sr  Sr33  1  0.83772731  0.30450162  0.65210657  1
  Sr  Sr34  1  0.81931716  0.65004600  0.16909279  1
  Sr  Sr35  1  0.85574640  0.66312730  0.60887646  1
  Sr  Sr36  1  -0.00755049  0.14247679  0.32619454  1
  Sr  Sr37  1  -0.01168437  0.17342046  0.88743638  1
  Sr  Sr38  1  0.00047542  0.50465886  0.39039327  1
  Sr  Sr39  1  -0.01967704  0.51621629  0.82948241  1
  Sr  Sr40  1  -0.01934725  0.83176888  0.42851366  1
  Sr  Sr41  1  0.01627214  0.83641064  0.88364811  1
  Sr  Sr42  1  0.31696246  0.19265555  0.39198699  1
  Sr  Sr43  1  0.33218300  0.17550183  0.88396360  1
  Sr  Sr44  1  0.33440927  0.50976558  0.35467226  1
  Sr  Sr45  1  0.32548058  0.50810309  0.88027605  1
  Sr  Sr46  1  0.33991815  0.83106176  0.38014522  1
  Sr  Sr47  1  0.33075154  0.86856872  0.85571468  1
  Sr  Sr48  1  0.67498434  0.17059365  0.40399648  1
  Sr  Sr49  1  0.66502160  0.19628371  0.84926295  1
  Sr  Sr50  1  0.66378674  0.50704282  0.36614259  1
  Sr  Sr51  1  0.67382847  0.50186195  0.90947605  1
  Sr  Sr52  1  0.67796369  0.84256825  0.32270079  1
  Sr  Sr53  1  0.65864832  0.82963926  0.88201343  1
  Sr  Sr54  1  0.17730287  -0.00167453  0.38799079  1
  Sr  Sr55  1  0.16701462  0.00594156  0.83363558  1
  Sr  Sr56  1  0.15939942  0.33821365  0.39729854  1
  Sr  Sr57  1  0.17570659  0.32253585  0.90846035  1
  Sr  Sr58  1  0.18063392  0.65070708  0.33235985  1
  Sr  Sr59  1  0.16149705  0.67141849  0.89270722  1
  Sr  Sr60  1  0.50708414  -0.03946088  0.34413411  1
  Sr  Sr61  1  0.50075525  -0.00683531  0.89026548  1
  Sr  Sr62  1  0.49870879  0.31846341  0.37740945  1
  Sr  Sr63  1  0.48728540  0.32404893  0.83082701  1
  Sr  Sr64  1  0.48044991  0.66007945  0.41544524  1
  Sr  Sr65  1  0.49876830  0.64963066  0.87302575  1
  Sr  Sr66  1  0.83039172  -0.00528693  0.37040315  1
  Sr  Sr67  1  0.83290701  -0.03680583  0.91254952  1
  Sr  Sr68  1  0.84178263  0.31045374  0.37697727  1
  Sr  Sr69  1  0.82716574  0.34212230  0.87688924  1
  Sr  Sr70  1  0.83748416  0.64946923  0.38490478  1
  Sr  Sr71  1  0.83740625  0.66153638  0.83525115  1
  Ta  Ta72  1  0.16132697  0.12856829  0.00391640  1
  Ta  Ta73  1  0.11430394  0.16303461  0.49655108  1
  Ta  Ta74  1  0.11134600  0.50578028  -0.00099296  1
  Ta  Ta75  1  0.18802912  0.51885818  0.49729254  1
  Ta  Ta76  1  0.18765860  0.86662852  -0.00271547  1
  Ta  Ta77  1  0.17606026  0.79146074  0.50690869  1
  Ta  Ta78  1  0.50586780  0.19171833  0.00299441  1
  Ta  Ta79  1  0.50133996  0.11207634  0.48851486  1
  Ta  Ta80  1  0.49800013  0.45463076  -0.00486913  1
  Ta  Ta81  1  0.49460696  0.47273847  0.49955068  1
  Ta  Ta82  1  0.46485111  0.82045218  0.00756379  1
  Ta  Ta83  1  0.54786237  0.82865067  0.49472886  1
  Ta  Ta84  1  0.80681916  0.14876062  -0.00206853  1
  Ta  Ta85  1  0.87561677  0.15662933  0.50233393  1
  Ta  Ta86  1  0.85583925  0.52668259  0.00199968  1
  Ta  Ta87  1  0.82348638  0.45533738  0.50065198  1
  Ta  Ta88  1  0.84034207  0.76732160  0.00114213  1
  Ta  Ta89  1  0.78153076  0.82653611  0.49309402  1
  Ta  Ta90  1  0.16763277  0.20181146  0.25056544  1
  Ta  Ta91  1  0.17069702  0.20154135  0.74605313  1
  Ta  Ta92  1  0.15755846  0.46308591  0.25009313  1
  Ta  Ta93  1  0.15933274  0.44770981  0.75550993  1
  Ta  Ta94  1  0.13777506  0.83196627  0.25742220  1
  Ta  Ta95  1  0.17307605  0.81062639  0.74598081  1
  Ta  Ta96  1  0.49981440  0.14187346  0.25202324  1
  Ta  Ta97  1  0.49845675  0.13621361  0.74481637  1
  Ta  Ta98  1  0.49740057  0.54719350  0.24423546  1
  Ta  Ta99  1  0.54602085  0.49740475  0.74406957  1
  Ta  Ta100  1  0.49973301  0.78090803  0.24332435  1
  Ta  Ta101  1  0.48876180  0.80832913  0.74877460  1
  Ta  Ta102  1  0.80281059  0.16551940  0.25222679  1
  Ta  Ta103  1  0.82700896  0.10710648  0.75089415  1
  Ta  Ta104  1  0.83005179  0.45817032  0.25195921  1
  Ta  Ta105  1  0.78808124  0.49659150  0.74422509  1
  Ta  Ta106  1  0.87431886  0.82360095  0.25421235  1
  Ta  Ta107  1  0.86367694  0.84057049  0.74591603  1
  Ta  Ta108  1  0.00407858  -0.06457915  0.25672817  1
  Ta  Ta109  1  -0.03641303  -0.01003226  0.75947716  1
  Ta  Ta110  1  0.01323441  0.34641530  0.24972872  1
  Ta  Ta111  1  0.03403957  0.33550842  0.75397137  1
  Ta  Ta112  1  0.00905209  0.72137271  0.26124595  1
  Ta  Ta113  1  0.01472214  0.70760128  0.73498613  1
  Ta  Ta114  1  0.35081155  0.04146877  0.26023465  1
  Ta  Ta115  1  0.35548364  0.03510499  0.74478723  1
  Ta  Ta116  1  0.29908216  0.34113067  0.24863240  1
  Ta  Ta117  1  0.29868720  0.33739129  0.74983481  1
  Ta  Ta118  1  0.37410602  0.67118953  0.23995449  1
  Ta  Ta119  1  0.33448421  0.70777132  0.74749976  1
  Ta  Ta120  1  0.66495062  0.03960281  0.24393702  1
  Ta  Ta121  1  0.67999542  0.01198821  0.75536910  1
  Ta  Ta122  1  0.68736191  0.33324542  0.25141274  1
  Ta  Ta123  1  0.66378033  0.37725105  0.74019559  1
  Ta  Ta124  1  0.62040908  0.66393585  0.24805732  1
  Ta  Ta125  1  0.65998750  0.63814867  0.75254756  1
  Ta  Ta126  1  0.04976121  0.00281232  0.00631432  1
  Ta  Ta127  1  0.00075060  0.03731144  0.50055036  1
  Ta  Ta128  1  -0.00714869  0.39602594  -0.00004820  1
  Ta  Ta129  1  -0.01305990  0.29876914  0.50739332  1
  Ta  Ta130  1  -0.02334466  0.64341776  -0.00390136  1
  Ta  Ta131  1  0.07068213  0.66729649  0.51073837  1
  Ta  Ta132  1  0.30208727  0.00625214  0.00385981  1
  Ta  Ta133  1  0.36685379  0.01881096  0.48974848  1
  Ta  Ta134  1  0.37524139  0.33968757  0.00003530  1
  Ta  Ta135  1  0.33875116  0.37965564  0.50054327  1
  Ta  Ta136  1  0.33189567  0.71935922  0.00213998  1
  Ta  Ta137  1  0.28460584  0.66204093  0.50904635  1
  Ta  Ta138  1  0.66996185  0.04680551  0.00514244  1
  Ta  Ta139  1  0.65375031  -0.02539964  0.48975780  1
  Ta  Ta140  1  0.61776864  0.33516209  -0.00404055  1
  Ta  Ta141  1  0.67388573  0.35713300  0.51253301  1
  Ta  Ta142  1  0.70873488  0.67082765  -0.00279201  1
  Ta  Ta143  1  0.66807590  0.71102224  0.49318870  1
  N  N144  1  0.34090183  0.00897937  0.61939113  1
  N  N145  1  0.15003427  0.16985756  0.37490691  1
  N  N146  1  -0.00039032  0.32599005  0.63012037  1
  N  N147  1  0.33432301  0.34086027  0.87628903  1
  N  N148  1  0.66506256  0.00195255  0.12058982  1
  N  N149  1  0.50845498  0.81222109  0.37575208  1
  N  N150  1  0.65534037  0.34506109  0.87534350  1
  N  N151  1  0.01530046  0.65346651  0.62546388  1
  N  N152  1  0.83368082  0.15562312  0.37285126  1
  N  N153  1  0.32951931  0.34777832  0.37530544  1
  N  N154  1  0.51004733  0.81867115  0.62758404  1
  N  N155  1  0.83773986  0.14571146  0.62867857  1
  N  N156  1  0.33243237  0.34455154  0.62565085  1
  N  N157  1  0.66850182  -0.00242585  0.36841199  1
  N  N158  1  0.49612844  0.17392167  0.12905552  1
  N  N159  1  0.33113198  0.67112281  0.62454378  1
  N  N160  1  0.16560721  0.49840506  0.37108701  1
  N  N161  1  0.33051217  0.01474419  0.13104857  1
  N  N162  1  0.50842151  0.49726993  0.61982341  1
  N  N163  1  0.33514668  0.34630779  0.12425155  1
  N  N164  1  0.82561703  0.50264823  0.86468821  1
  N  N165  1  0.15867476  0.17234436  0.62595760  1
  N  N166  1  0.67051249  0.66550086  0.87549203  1
  N  N167  1  0.50209995  0.83468685  0.12649395  1
  N  N168  1  0.33120925  0.01901060  0.87451832  1
  N  N169  1  0.17260217  0.84203238  0.87206802  1
  N  N170  1  0.83530761  0.48728777  0.38124325  1
  N  N171  1  0.65892149  0.34232974  0.13067429  1
  N  N172  1  0.83056370  0.82340646  0.37712178  1
  N  N173  1  0.83242903  0.49798839  0.12751469  1
  N  N174  1  0.15755660  0.17030940  0.12462161  1
  N  N175  1  0.66133188  0.31792252  0.63023053  1
  N  N176  1  0.33443187  -0.01533911  0.36757677  1
  O  O177  1  0.02848182  0.67865574  0.38233974  1
  O  O178  1  0.49945295  0.50858059  0.36871050  1
  O  O179  1  0.83727978  0.50658311  0.61904200  1
  O  O180  1  0.66173072  0.66731379  0.37004177  1
  O  O181  1  0.65983335  0.32950282  0.38390689  1
  O  O182  1  0.00026151  0.34659158  0.12132280  1
  O  O183  1  0.82811869  0.15250605  0.87374184  1
  O  O184  1  0.00241767  0.66946210  0.86324925  1
  O  O185  1  0.31901700  0.69030949  0.12903509  1
  O  O186  1  0.13812227  0.50274117  0.87322675  1
  O  O187  1  0.50270365  0.49121930  0.86879174  1
  O  O188  1  0.00029562  0.33070378  0.37397585  1
  O  O189  1  0.66592319  0.67782944  0.62747442  1
  O  O190  1  0.50205631  0.16268192  0.86845932  1
  O  O191  1  0.13904620  0.51079557  0.12621870  1
  O  O192  1  0.66955940  -0.00523991  0.62913162  1
  O  O193  1  -0.01472813  0.00489436  0.63187805  1
  O  O194  1  0.82985378  0.16373854  0.12220110  1
  O  O195  1  0.33177610  0.66767785  0.36854377  1
  O  O196  1  -0.01256663  0.35915892  0.87512186  1
  O  O197  1  0.66514893  0.00145347  0.87995791  1
  O  O198  1  0.83026017  0.83290793  0.62270162  1
  O  O199  1  0.16570075  0.16684621  0.87579028  1
  O  O200  1  0.16299484  0.83607585  0.12765103  1
  O  O201  1  0.15967511  0.48341489  0.62905629  1
  O  O202  1  0.85129856  0.80292537  0.12326209  1
  O  O203  1  0.00159185  -0.01414562  0.37537749  1
  O  O204  1  0.16848483  0.82649666  0.38170182  1
  O  O205  1  0.51694665  0.14099300  0.61738460  1
  O  O206  1  0.49808031  0.50021867  0.12429931  1
  O  O207  1  0.51841654  0.17060260  0.38216385  1
  O  O208  1  0.01778078  -0.02364515  0.12772366  1
  O  O209  1  -0.00328663  -0.00711422  0.88434694  1
  O  O210  1  0.66545307  0.66256866  0.12345160  1
  O  O211  1  0.50104028  0.82975922  0.88270357  1
  O  O212  1  0.85505634  0.81607870  0.87363816  1
  O  O213  1  0.17935936  0.85249384  0.62463062  1
  O  O214  1  0.32288769  0.69651941  0.88009176  1
  O  O215  1  0.00852497  0.67791171  0.13402614  1
