# generated using pymatgen
data_Sr24Ta24N11O13
_symmetry_space_group_name_H-M   'P 1'
_cell_length_a   16.76754112
_cell_length_b   16.80382193
_cell_length_c   15.66943674
_cell_angle_alpha   89.33500279
_cell_angle_beta   89.52920844
_cell_angle_gamma   89.68130832
_symmetry_Int_Tables_number   1
_chemical_formula_structural   Sr24Ta24N11O13
_chemical_formula_sum   'Sr72 Ta72 N33 O39'
_cell_volume   4414.48892537
_cell_formula_units_Z   3
loop_
 _symmetry_equiv_pos_site_id
 _symmetry_equiv_pos_as_xyz
  1  'x, y, z'
loop_
 _atom_site_type_symbol
 _atom_site_label
 _atom_site_symmetry_multiplicity
 _atom_site_fract_x
 _atom_site_fract_y
 _atom_site_fract_z
 _atom_site_occupancy
  Sr  Sr0  1  -0.01872804  0.12981034  0.17344264  1
  Sr  Sr1  1  0.00769642  0.16953962  0.61514727  1
  Sr  Sr2  1  0.01206452  0.50121989  0.11852374  1
  Sr  Sr3  1  -0.00137076  0.50253306  0.66498405  1
  Sr  Sr4  1  0.01713787  0.83874752  0.07906736  1
  Sr  Sr5  1  -0.01857573  0.82586345  0.63767801  1
  Sr  Sr6  1  0.32693277  0.15724418  0.11896386  1
  Sr  Sr7  1  0.32086403  0.17124511  0.63223382  1
  Sr  Sr8  1  0.34595205  0.50918305  0.07697165  1
  Sr  Sr9  1  0.33284187  0.48803840  0.63342332  1
  Sr  Sr10  1  0.33248371  0.80992277  0.17747235  1
  Sr  Sr11  1  0.32643034  0.85085663  0.61567410  1
  Sr  Sr12  1  0.67582471  0.15555315  0.11778756  1
  Sr  Sr13  1  0.64198854  0.15136372  0.65137341  1
  Sr  Sr14  1  0.66195430  0.48685286  0.11448781  1
  Sr  Sr15  1  0.69102353  0.50997695  0.60118837  1
  Sr  Sr16  1  0.67207784  0.81923716  0.14243828  1
  Sr  Sr17  1  0.66524256  0.82994399  0.58948178  1
  Sr  Sr18  1  0.17551705  -0.00001721  0.13272928  1
  Sr  Sr19  1  0.17211059  0.00894003  0.60527836  1
  Sr  Sr20  1  0.18925393  0.34101202  0.10233046  1
  Sr  Sr21  1  0.16283112  0.33703021  0.63635649  1
  Sr  Sr22  1  0.16596213  0.66459108  0.12962428  1
  Sr  Sr23  1  0.17739301  0.68731316  0.57485864  1
  Sr  Sr24  1  0.50528941  0.00965346  0.08441661  1
  Sr  Sr25  1  0.49024729  -0.01196250  0.63399390  1
  Sr  Sr26  1  0.50704111  0.30920057  0.17254754  1
  Sr  Sr27  1  0.50200805  0.35140978  0.61260726  1
  Sr  Sr28  1  0.51060547  0.66223707  0.11136916  1
  Sr  Sr29  1  0.45869795  0.66807105  0.67757757  1
  Sr  Sr30  1  0.83160621  -0.01447990  0.12103231  1
  Sr  Sr31  1  0.85215422  0.01692275  0.65361485  1
  Sr  Sr32  1  0.84306898  0.35556435  0.11345476  1
  Sr  Sr33  1  0.83717785  0.33804786  0.59659675  1
  Sr  Sr34  1  0.83756045  0.66788874  0.16963661  1
  Sr  Sr35  1  0.83614715  0.67472641  0.61650637  1
  Sr  Sr36  1  -0.01029009  0.16912340  0.39699432  1
  Sr  Sr37  1  -0.00171213  0.15776906  0.84167214  1
  Sr  Sr38  1  0.00183076  0.50851478  0.32597932  1
  Sr  Sr39  1  -0.00367875  0.48803211  0.88593007  1
  Sr  Sr40  1  -0.01713796  0.79518840  0.41773366  1
  Sr  Sr41  1  -0.01919968  0.83506924  0.86399755  1
  Sr  Sr42  1  0.33119674  0.19368102  0.32847976  1
  Sr  Sr43  1  0.31313293  0.15498805  0.91007070  1
  Sr  Sr44  1  0.31760076  0.49569506  0.42120438  1
  Sr  Sr45  1  0.35483160  0.49836230  0.85630237  1
  Sr  Sr46  1  0.32496113  0.84988798  0.39071348  1
  Sr  Sr47  1  0.34741791  0.83333133  0.82956206  1
  Sr  Sr48  1  0.64733093  0.16197427  0.36560418  1
  Sr  Sr49  1  0.67426303  0.15816096  0.87876879  1
  Sr  Sr50  1  0.65784720  0.48435027  0.39401332  1
  Sr  Sr51  1  0.68088161  0.49968631  0.89172824  1
  Sr  Sr52  1  0.67234794  0.83079893  0.36839647  1
  Sr  Sr53  1  0.65246721  0.81824384  0.91360773  1
  Sr  Sr54  1  0.16692111  0.02350222  0.35719930  1
  Sr  Sr55  1  0.17036722  -0.00753876  0.89670386  1
  Sr  Sr56  1  0.16725767  0.34554246  0.37233670  1
  Sr  Sr57  1  0.16483780  0.32515150  0.87009008  1
  Sr  Sr58  1  0.17779038  0.66286512  0.36486386  1
  Sr  Sr59  1  0.14288912  0.69145391  0.91613124  1
  Sr  Sr60  1  0.51570796  -0.01180282  0.42673143  1
  Sr  Sr61  1  0.49504190  -0.00448478  0.86874136  1
  Sr  Sr62  1  0.50058703  0.33893582  0.38336727  1
  Sr  Sr63  1  0.51491348  0.32924611  0.82956363  1
  Sr  Sr64  1  0.49193115  0.69540678  0.32654225  1
  Sr  Sr65  1  0.51113337  0.65347863  0.89489004  1
  Sr  Sr66  1  0.82991027  0.01841615  0.34181702  1
  Sr  Sr67  1  0.83907215  -0.00087934  0.87494276  1
  Sr  Sr68  1  0.84697133  0.34413862  0.38724658  1
  Sr  Sr69  1  0.82145205  0.34155207  0.91320917  1
  Sr  Sr70  1  0.81016927  0.67167188  0.39064188  1
  Sr  Sr71  1  0.85063404  0.66044677  0.83118610  1
  Ta  Ta72  1  0.11620077  0.16553232  0.01049826  1
  Ta  Ta73  1  0.19526145  0.18012436  0.49173412  1
  Ta  Ta74  1  0.17654754  0.51246080  -0.01475793  1
  Ta  Ta75  1  0.12576986  0.50040990  0.50048698  1
  Ta  Ta76  1  0.22805852  0.83434942  0.00689383  1
  Ta  Ta77  1  0.13693217  0.86390759  0.49458586  1
  Ta  Ta78  1  0.49811475  0.20708650  -0.00087819  1
  Ta  Ta79  1  0.46463245  0.17093268  0.49416764  1
  Ta  Ta80  1  0.50946259  0.44502654  -0.00614923  1
  Ta  Ta81  1  0.49319302  0.55184623  0.50233253  1
  Ta  Ta82  1  0.45548149  0.82960739  0.00098799  1
  Ta  Ta83  1  0.49068641  0.79092851  0.50417040  1
  Ta  Ta84  1  0.87395490  0.16554985  0.00006513  1
  Ta  Ta85  1  0.79730352  0.16359914  0.50632976  1
  Ta  Ta86  1  0.84038764  0.54610555  0.01089816  1
  Ta  Ta87  1  0.88103954  0.50985902  0.49679629  1
  Ta  Ta88  1  0.83048956  0.79944531  0.00345571  1
  Ta  Ta89  1  0.83437370  0.88282217  0.49983580  1
  Ta  Ta90  1  0.14063090  0.19911788  0.23322032  1
  Ta  Ta91  1  0.17500677  0.14674465  0.75792979  1
  Ta  Ta92  1  0.20507901  0.49764209  0.23814743  1
  Ta  Ta93  1  0.16860670  0.53559296  0.75036358  1
  Ta  Ta94  1  0.12781482  0.83340229  0.25579221  1
  Ta  Ta95  1  0.15834993  0.83087249  0.74340938  1
  Ta  Ta96  1  0.49656814  0.10935280  0.25548213  1
  Ta  Ta97  1  0.45875783  0.16163632  0.75298153  1
  Ta  Ta98  1  0.48326229  0.50502765  0.25048683  1
  Ta  Ta99  1  0.55221060  0.50717518  0.74947847  1
  Ta  Ta100  1  0.50011694  0.88556595  0.25594504  1
  Ta  Ta101  1  0.54194085  0.82526922  0.75218638  1
  Ta  Ta102  1  0.82224156  0.20962353  0.25127207  1
  Ta  Ta103  1  0.82904632  0.21478188  0.75698096  1
  Ta  Ta104  1  0.80492476  0.49274247  0.25626488  1
  Ta  Ta105  1  0.82627642  0.46663580  0.74735718  1
  Ta  Ta106  1  0.87312146  0.83643372  0.25285749  1
  Ta  Ta107  1  0.78514799  0.83602542  0.75096291  1
  Ta  Ta108  1  0.00547056  -0.05383153  0.25491341  1
  Ta  Ta109  1  0.04173431  -0.00976312  0.74402727  1
  Ta  Ta110  1  0.00396106  0.31396013  0.24861169  1
  Ta  Ta111  1  -0.04035278  0.33039913  0.75361270  1
  Ta  Ta112  1  0.00823573  0.70963416  0.24376638  1
  Ta  Ta113  1  0.05855822  0.67112378  0.74092162  1
  Ta  Ta114  1  0.36907837  0.00040139  0.24794871  1
  Ta  Ta115  1  0.31906358  0.02550038  0.75158829  1
  Ta  Ta116  1  0.33753165  0.39246004  0.25215385  1
  Ta  Ta117  1  0.33891115  0.30275155  0.74843683  1
  Ta  Ta118  1  0.33833668  0.60472408  0.24349749  1
  Ta  Ta119  1  0.26144347  0.66862638  0.75125682  1
  Ta  Ta120  1  0.63211239  -0.00326991  0.25316030  1
  Ta  Ta121  1  0.66462396  -0.03934501  0.74852422  1
  Ta  Ta122  1  0.69801396  0.32907512  0.25050752  1
  Ta  Ta123  1  0.69637352  0.34621524  0.75205445  1
  Ta  Ta124  1  0.66198341  0.62570934  0.25149172  1
  Ta  Ta125  1  0.65894428  0.67641840  0.74763535  1
  Ta  Ta126  1  -0.00127543  0.02930731  0.00566156  1
  Ta  Ta127  1  -0.00284899  -0.02092836  0.49629357  1
  Ta  Ta128  1  0.00290935  0.28564634  0.00874225  1
  Ta  Ta129  1  0.01016608  0.38065005  0.49561072  1
  Ta  Ta130  1  -0.04038826  0.66553595  0.00427748  1
  Ta  Ta131  1  0.00809878  0.62065508  0.50256772  1
  Ta  Ta132  1  0.33702109  -0.04329216  0.00293355  1
  Ta  Ta133  1  0.33107091  0.04766754  0.49412487  1
  Ta  Ta134  1  0.38312590  0.33246060  -0.00008132  1
  Ta  Ta135  1  0.32926701  0.30422635  0.49720284  1
  Ta  Ta136  1  0.32854119  0.69715620  0.00203747  1
  Ta  Ta137  1  0.37264358  0.67048533  0.49553493  1
  Ta  Ta138  1  0.67821646  -0.01691401  0.00382562  1
  Ta  Ta139  1  0.70558987  0.01462851  0.49893008  1
  Ta  Ta140  1  0.62632384  0.32182851  -0.00312333  1
  Ta  Ta141  1  0.67216963  0.29569312  0.50599449  1
  Ta  Ta142  1  0.71749166  0.65940820  0.00767996  1
  Ta  Ta143  1  0.60963018  0.66619549  0.49600085  1
  N  N144  1  0.33766419  -0.00040290  0.12701235  1
  N  N145  1  0.49042328  0.16170035  0.37275807  1
  N  N146  1  0.33352402  -0.00583035  0.87160983  1
  N  N147  1  0.82471580  0.84326531  0.62165882  1
  N  N148  1  0.49712072  0.82131654  0.63702709  1
  N  N149  1  0.67046131  0.65806710  0.12598292  1
  N  N150  1  0.00635854  -0.00017122  0.62365159  1
  N  N151  1  0.16216983  0.84143577  0.61390396  1
  N  N152  1  0.66990038  -0.00775291  0.12451994  1
  N  N153  1  0.00360070  0.34119621  0.36852855  1
  N  N154  1  0.00404172  0.67316743  0.12260625  1
  N  N155  1  0.83377555  0.17694856  0.88148209  1
  N  N156  1  0.83610521  0.50647174  0.38057818  1
  N  N157  1  0.82495687  0.82677734  0.86886737  1
  N  N158  1  0.33885252  0.34833424  0.37162181  1
  N  N159  1  0.49625209  0.84251193  0.37532018  1
  N  N160  1  0.49729933  0.82360984  0.88144681  1
  N  N161  1  0.15721725  0.16103949  0.87951856  1
  N  N162  1  0.66781836  0.32755179  0.87373652  1
  N  N163  1  0.84242241  0.50144090  0.62905192  1
  N  N164  1  0.33825283  0.65873552  0.12554367  1
  N  N165  1  0.33221413  0.00889443  0.61441889  1
  N  N166  1  0.01285004  0.66561312  0.62694369  1
  N  N167  1  0.83247965  0.84238098  0.37693940  1
  N  N168  1  0.33252869  0.33278170  0.62644738  1
  N  N169  1  0.83958372  0.50760230  0.13192623  1
  N  N170  1  0.51682414  0.48939092  0.86631252  1
  N  N171  1  0.64695497  0.66042316  0.37481070  1
  N  N172  1  0.67120512  0.00055486  0.38054461  1
  N  N173  1  0.17233525  0.15776292  0.12327851  1
  N  N174  1  0.84137877  0.83008193  0.12524232  1
  N  N175  1  0.00372846  -0.01464800  0.12407980  1
  N  N176  1  0.17777491  0.50236541  0.10690000  1
  O  O177  1  0.66440587  -0.01351211  0.87130667  1
  O  O178  1  0.01200582  -0.00270663  0.87112606  1
  O  O179  1  0.35475549  0.33620457  0.87183461  1
  O  O180  1  0.31969788  0.00403014  0.37447633  1
  O  O181  1  0.17806021  0.83409247  0.13473621  1
  O  O182  1  0.17243605  0.49744091  0.62240709  1
  O  O183  1  0.00226076  0.67838778  0.86283468  1
  O  O184  1  0.82342546  0.17982585  0.37880539  1
  O  O185  1  0.66834323  0.32674268  0.12605333  1
  O  O186  1  0.49953035  0.51512297  0.63444003  1
  O  O187  1  0.49513516  0.16197202  0.12300683  1
  O  O188  1  0.00166061  0.00896400  0.36573299  1
  O  O189  1  0.83265438  0.19176817  0.12472499  1
  O  O190  1  -0.01155582  0.34549195  0.62811972  1
  O  O191  1  0.48467098  0.83953905  0.13155919  1
  O  O192  1  0.31660745  0.67219170  0.62814907  1
  O  O193  1  0.47955640  0.16181334  0.87971668  1
  O  O194  1  0.17462420  0.18314476  0.36248572  1
  O  O195  1  -0.00201978  0.34536217  0.11640769  1
  O  O196  1  0.17047306  0.81830080  0.38045863  1
  O  O197  1  0.67629801  0.32366114  0.38135808  1
  O  O198  1  0.14922061  0.47928828  0.86153247  1
  O  O199  1  0.34032954  0.64736336  0.36985969  1
  O  O200  1  -0.01386231  0.32403641  0.87993809  1
  O  O201  1  0.66281280  0.66797541  0.62071860  1
  O  O202  1  0.83995602  0.50532127  0.87300684  1
  O  O203  1  0.65794558  0.30945660  0.62993615  1
  O  O204  1  0.48407578  0.15990181  0.62912678  1
  O  O205  1  0.81190888  0.17095020  0.63584502  1
  O  O206  1  0.16410370  0.50463626  0.37309097  1
  O  O207  1  0.50304210  0.48536442  0.12299540  1
  O  O208  1  0.16496722  0.17559028  0.61830006  1
  O  O209  1  0.18848244  0.83709423  0.88318658  1
  O  O210  1  0.66171186  -0.00809871  0.62239689  1
  O  O211  1  0.30161146  0.68092110  0.86865825  1
  O  O212  1  0.49506928  0.50577316  0.37800089  1
  O  O213  1  0.01782125  0.65779738  0.36522319  1
  O  O214  1  0.35851431  0.34534675  0.12830602  1
  O  O215  1  0.67951264  0.66315196  0.87314030  1
