# generated using pymatgen
data_Sr24Ta24N11O13
_symmetry_space_group_name_H-M   'P 1'
_cell_length_a   16.99527408
_cell_length_b   17.09970303
_cell_length_c   15.26200781
_cell_angle_alpha   91.11225995
_cell_angle_beta   90.64113679
_cell_angle_gamma   90.91980999
_symmetry_Int_Tables_number   1
_chemical_formula_structural   Sr24Ta24N11O13
_chemical_formula_sum   'Sr72 Ta72 N33 O39'
_cell_volume   4433.65468319
_cell_formula_units_Z   3
loop_
 _symmetry_equiv_pos_site_id
 _symmetry_equiv_pos_as_xyz
  1  'x, y, z'
loop_
 _atom_site_type_symbol
 _atom_site_label
 _atom_site_symmetry_multiplicity
 _atom_site_fract_x
 _atom_site_fract_y
 _atom_site_fract_z
 _atom_site_occupancy
  Sr  Sr0  1  -0.01699305  0.21320635  0.17897051  1
  Sr  Sr1  1  0.00559448  0.16289951  0.60634130  1
  Sr  Sr2  1  -0.01193182  0.52149436  0.10054182  1
  Sr  Sr3  1  0.03331495  0.56499530  0.65846920  1
  Sr  Sr4  1  0.01201314  0.82800417  0.13266365  1
  Sr  Sr5  1  -0.02820255  0.89491963  0.59633312  1
  Sr  Sr6  1  0.33217374  0.12932670  0.08590191  1
  Sr  Sr7  1  0.31911843  0.17172010  0.63157860  1
  Sr  Sr8  1  0.32242342  0.45227608  0.13854332  1
  Sr  Sr9  1  0.25287247  0.56087243  0.71684281  1
  Sr  Sr10  1  0.31706267  0.94269398  0.21343146  1
  Sr  Sr11  1  0.35522953  0.83023287  0.60703146  1
  Sr  Sr12  1  0.65321895  0.19518251  0.17430183  1
  Sr  Sr13  1  0.64139997  0.15950394  0.59497825  1
  Sr  Sr14  1  0.66812702  0.50137026  0.07566544  1
  Sr  Sr15  1  0.61063362  0.48696823  0.62377972  1
  Sr  Sr16  1  0.67166593  0.81488050  0.09891778  1
  Sr  Sr17  1  0.68499326  0.82840728  0.66745278  1
  Sr  Sr18  1  0.13971794  0.01769621  0.09973533  1
  Sr  Sr19  1  0.21427666  -0.00041872  0.67784634  1
  Sr  Sr20  1  0.14265306  0.33389277  0.16893268  1
  Sr  Sr21  1  0.16491607  0.30673016  0.63332594  1
  Sr  Sr22  1  0.17438917  0.63049654  0.08995562  1
  Sr  Sr23  1  0.18564883  0.71436968  0.63537787  1
  Sr  Sr24  1  0.51840889  -0.00793960  0.13394247  1
  Sr  Sr25  1  0.49445092  -0.01012157  0.56874985  1
  Sr  Sr26  1  0.49879068  0.33157264  0.19899548  1
  Sr  Sr27  1  0.48829509  0.30251319  0.61617967  1
  Sr  Sr28  1  0.50246605  0.63804062  0.11239366  1
  Sr  Sr29  1  0.51865320  0.67530409  0.61215343  1
  Sr  Sr30  1  0.82443795  -0.04928501  0.03180999  1
  Sr  Sr31  1  0.80080405  0.01417317  0.62309687  1
  Sr  Sr32  1  0.81205078  0.35154017  0.08669489  1
  Sr  Sr33  1  0.98716797  0.37406801  0.69098783  1
  Sr  Sr34  1  0.85229630  0.67775182  0.16097591  1
  Sr  Sr35  1  0.84300604  0.65384225  0.59726970  1
  Sr  Sr36  1  -0.00634700  0.13456660  0.37659359  1
  Sr  Sr37  1  -0.06759820  0.19308255  0.82926060  1
  Sr  Sr38  1  -0.01219869  0.51233146  0.43263129  1
  Sr  Sr39  1  -0.01322952  0.50296665  0.86624716  1
  Sr  Sr40  1  -0.01184239  0.85123753  0.35892063  1
  Sr  Sr41  1  -0.00025629  0.88841391  0.93048527  1
  Sr  Sr42  1  0.32074984  0.30320266  0.44737011  1
  Sr  Sr43  1  0.34609260  0.15633772  0.86448153  1
  Sr  Sr44  1  0.32966808  0.48779384  0.35130227  1
  Sr  Sr45  1  0.32703503  0.54320723  0.92894885  1
  Sr  Sr46  1  0.33480624  0.80143858  0.40113307  1
  Sr  Sr47  1  0.30493309  0.81584331  0.82498845  1
  Sr  Sr48  1  0.66743791  0.11088667  0.37711037  1
  Sr  Sr49  1  0.67466135  0.18744677  0.84528158  1
  Sr  Sr50  1  0.69014844  0.52355614  0.43550422  1
  Sr  Sr51  1  0.64684088  0.48413023  0.86229265  1
  Sr  Sr52  1  0.64327174  0.81542173  0.30133378  1
  Sr  Sr53  1  0.67106451  0.85399411  0.88612863  1
  Sr  Sr54  1  0.15162141  -0.03502963  0.32139609  1
  Sr  Sr55  1  0.20816174  -0.00193257  0.90015777  1
  Sr  Sr56  1  0.11048642  0.33353190  0.40504099  1
  Sr  Sr57  1  0.24869696  0.29666517  0.97891506  1
  Sr  Sr58  1  0.17718257  0.64611466  0.41135232  1
  Sr  Sr59  1  0.15636545  0.66695357  0.87406056  1
  Sr  Sr60  1  0.49785097  -0.03136654  0.34829695  1
  Sr  Sr61  1  0.50542783  -0.00695098  0.91736211  1
  Sr  Sr62  1  0.54860089  0.34001112  0.41219191  1
  Sr  Sr63  1  0.51896247  0.31979580  0.82724505  1
  Sr  Sr64  1  0.49658533  0.65657162  0.37130343  1
  Sr  Sr65  1  0.53023843  0.67115611  0.88392131  1
  Sr  Sr66  1  0.85563732  -0.00306807  0.40271052  1
  Sr  Sr67  1  0.80925568  0.02304576  0.84036347  1
  Sr  Sr68  1  0.81525790  0.28611591  0.29868851  1
  Sr  Sr69  1  0.81368235  0.34413085  0.87179923  1
  Sr  Sr70  1  0.84605547  0.65980970  0.37675557  1
  Sr  Sr71  1  0.84068181  0.65904992  0.81696800  1
  Ta  Ta72  1  0.09918342  0.18536698  0.00352899  1
  Ta  Ta73  1  0.19136812  0.14010125  0.43805783  1
  Ta  Ta74  1  0.14318251  0.45433992  -0.00728514  1
  Ta  Ta75  1  0.18923682  0.48694263  0.53689054  1
  Ta  Ta76  1  0.19898125  0.82020628  0.01343466  1
  Ta  Ta77  1  0.14858568  0.84988214  0.50433127  1
  Ta  Ta78  1  0.52346733  0.17142184  0.01153083  1
  Ta  Ta79  1  0.44572730  0.14399305  0.45922174  1
  Ta  Ta80  1  0.49015486  0.45387093  0.00680505  1
  Ta  Ta81  1  0.45971931  0.50403573  0.50602266  1
  Ta  Ta82  1  0.48216683  0.81916563  0.02063385  1
  Ta  Ta83  1  0.53457031  0.81860564  0.47748200  1
  Ta  Ta84  1  0.82138634  0.14836221  0.03701003  1
  Ta  Ta85  1  0.82860307  0.18116770  0.47664358  1
  Ta  Ta86  1  0.83236180  0.55520687  -0.01825165  1
  Ta  Ta87  1  0.83443887  0.44113252  0.55927931  1
  Ta  Ta88  1  0.84328489  0.77374298  -0.01803405  1
  Ta  Ta89  1  0.80054187  0.83213845  0.48733683  1
  Ta  Ta90  1  0.18331593  0.16212050  0.24629291  1
  Ta  Ta91  1  0.13712225  0.16181816  0.82294673  1
  Ta  Ta92  1  0.12898208  0.50861823  0.25687718  1
  Ta  Ta93  1  0.16730995  0.43684807  0.79736855  1
  Ta  Ta94  1  0.18292948  0.76882972  0.25294924  1
  Ta  Ta95  1  0.10681116  0.85956026  0.76566811  1
  Ta  Ta96  1  0.46599463  0.15259393  0.26318986  1
  Ta  Ta97  1  0.49443924  0.11518724  0.73958387  1
  Ta  Ta98  1  0.54047393  0.50396687  0.26348243  1
  Ta  Ta99  1  0.44485073  0.49882022  0.74972588  1
  Ta  Ta100  1  0.44728699  0.79784985  0.22049444  1
  Ta  Ta101  1  0.50242787  0.84895280  0.75145286  1
  Ta  Ta102  1  0.82134844  0.09437100  0.22253471  1
  Ta  Ta103  1  0.82991245  0.27489910  0.63723689  1
  Ta  Ta104  1  0.81789364  0.49916878  0.23176480  1
  Ta  Ta105  1  0.79977022  0.48801434  0.73428394  1
  Ta  Ta106  1  0.83183699  0.88188647  0.22498244  1
  Ta  Ta107  1  0.86559032  0.84319626  0.76794817  1
  Ta  Ta108  1  -0.05036108  0.01401467  0.17877377  1
  Ta  Ta109  1  0.02958376  0.01819418  0.76650694  1
  Ta  Ta110  1  -0.03424477  0.40873561  0.25765153  1
  Ta  Ta111  1  0.09056466  0.31377832  0.85936475  1
  Ta  Ta112  1  0.04132908  0.66104479  0.24632484  1
  Ta  Ta113  1  -0.00136044  0.73898431  0.76554139  1
  Ta  Ta114  1  0.32161149  0.11735339  0.33573499  1
  Ta  Ta115  1  0.40051611  -0.02058771  0.74986058  1
  Ta  Ta116  1  0.32688257  0.26352006  0.23377760  1
  Ta  Ta117  1  0.32043050  0.35782593  0.77639793  1
  Ta  Ta118  1  0.31922512  0.66564314  0.24973335  1
  Ta  Ta119  1  0.38861878  0.66181296  0.74950502  1
  Ta  Ta120  1  0.70367525  -0.01041375  0.20561342  1
  Ta  Ta121  1  0.61358087  0.00069566  0.74110036  1
  Ta  Ta122  1  0.68076754  0.41625929  0.25178359  1
  Ta  Ta123  1  0.70368094  0.34683783  0.67231954  1
  Ta  Ta124  1  0.67455529  0.61264487  0.24630237  1
  Ta  Ta125  1  0.67945540  0.63782829  0.73189538  1
  Ta  Ta126  1  -0.02721729  0.07751400  -0.00019793  1
  Ta  Ta127  1  0.10728371  0.00952924  0.50950608  1
  Ta  Ta128  1  0.00093527  0.33607189  0.00002876  1
  Ta  Ta129  1  -0.07789728  0.32042142  0.48460207  1
  Ta  Ta130  1  -0.02319261  0.68326736  -0.01849083  1
  Ta  Ta131  1  0.01621819  0.72044666  0.50231696  1
  Ta  Ta132  1  0.34458116  -0.09351223  0.00597100  1
  Ta  Ta133  1  0.29812428  0.00560034  0.48176986  1
  Ta  Ta134  1  0.42814877  0.30679476  0.01126149  1
  Ta  Ta135  1  0.34258094  0.43516856  0.60947648  1
  Ta  Ta136  1  0.34332804  0.73411954  0.02724322  1
  Ta  Ta137  1  0.34035899  0.61185383  0.52068850  1
  Ta  Ta138  1  0.67112335  0.05324950  0.00226598  1
  Ta  Ta139  1  0.66423823  -0.07145359  0.48696255  1
  Ta  Ta140  1  0.60642487  0.32308237  0.02313893  1
  Ta  Ta141  1  0.73157477  0.32403360  0.49217621  1
  Ta  Ta142  1  0.71186896  0.66670506  -0.01601096  1
  Ta  Ta143  1  0.67544571  0.72609167  0.48019274  1
  N  N144  1  0.12136937  0.19488183  0.34490680  1
  N  N145  1  0.34981390  0.29363289  0.11145461  1
  N  N146  1  0.84147232  0.82238378  0.11438969  1
  N  N147  1  0.82774776  0.14145547  0.34514027  1
  N  N148  1  0.50625399  0.49160869  0.38697630  1
  N  N149  1  0.19837725  0.14653564  0.93414810  1
  N  N150  1  0.63229379  0.33008355  0.56434485  1
  N  N151  1  0.17058282  0.52152834  0.89434015  1
  N  N152  1  0.52490969  0.11687317  0.37639104  1
  N  N153  1  0.53237545  0.82142177  0.14319171  1
  N  N154  1  0.65938088  0.34819614  0.13746812  1
  N  N155  1  -0.00923308  -0.02282170  0.06299715  1
  N  N156  1  0.01188127  0.67284626  0.12138238  1
  N  N157  1  0.81961953  0.49673139  0.85961358  1
  N  N158  1  0.14910886  0.48410131  0.13221769  1
  N  N159  1  0.46728610  0.45375533  0.63336089  1
  N  N160  1  0.00717234  0.65795140  0.85636079  1
  N  N161  1  0.68333803  0.66732345  0.35936932  1
  N  N162  1  0.67534881  0.66088712  0.85512763  1
  N  N163  1  -0.02993264  0.33543284  0.87641263  1
  N  N164  1  -0.03913441  0.34684626  0.35954982  1
  N  N165  1  0.50286286  0.14819773  0.14062536  1
  N  N166  1  0.33157732  0.64324546  0.37631032  1
  N  N167  1  0.13355416  0.18238791  0.12813303  1
  N  N168  1  0.65727136  0.01845438  0.87101531  1
  N  N169  1  0.48737603  0.81245178  0.34608725  1
  N  N170  1  0.66446252  -0.03392674  0.08032102  1
  N  N171  1  0.82924699  0.51193923  0.09849703  1
  N  N172  1  0.83528448  0.86322486  0.88890430  1
  N  N173  1  0.14396950  0.46186972  0.65126373  1
  N  N174  1  0.32522430  0.32391232  0.65256077  1
  N  N175  1  0.65001476  -0.02228563  0.61111314  1
  N  N176  1  0.34452089  0.67925011  0.62979718  1
  O  O177  1  0.28540853  -0.00497935  0.05915777  1
  O  O178  1  0.02569136  0.30432094  0.54477182  1
  O  O179  1  0.14426744  0.85792315  0.64056024  1
  O  O180  1  0.83943957  0.53863201  0.48596380  1
  O  O181  1  0.48902169  0.47311084  0.87537021  1
  O  O182  1  0.67538854  0.65246981  0.11693715  1
  O  O183  1  0.16238063  0.84274490  0.88929034  1
  O  O184  1  0.89031461  0.09515096  0.52494635  1
  O  O185  1  0.81080179  0.20252573  0.92524461  1
  O  O186  1  0.65496295  -0.03515214  0.35887589  1
  O  O187  1  0.00465977  0.69744802  0.37437631  1
  O  O188  1  0.69340297  0.36287710  0.36913179  1
  O  O189  1  0.67820977  0.68227410  0.60775023  1
  O  O190  1  0.90287169  0.49636763  0.66218872  1
  O  O191  1  0.50725079  0.82859407  0.61693483  1
  O  O192  1  0.83406656  0.84939889  0.35823235  1
  O  O193  1  0.17212795  0.81100453  0.13726407  1
  O  O194  1  0.36564448  0.35619683  0.29598747  1
  O  O195  1  0.14370075  0.49675004  0.41057954  1
  O  O196  1  0.83108697  0.85634979  0.63579582  1
  O  O197  1  0.51478231  0.82835156  0.88034521  1
  O  O198  1  0.49107360  0.48390233  0.13836552  1
  O  O199  1  0.37206713  0.30331608  0.88103238  1
  O  O200  1  -0.02674030  0.36039808  0.13392819  1
  O  O201  1  0.46991840  0.13880982  0.59398435  1
  O  O202  1  0.66379532  0.33247910  0.91356252  1
  O  O203  1  0.36019245  0.68758666  0.87851995  1
  O  O204  1  -0.00106515  0.70769298  0.62866331  1
  O  O205  1  0.17588949  0.81864097  0.37797784  1
  O  O206  1  0.35561724  -0.04652847  0.87761744  1
  O  O207  1  0.80942059  0.20851734  0.15081099  1
  O  O208  1  0.06280620  0.02399060  0.63773404  1
  O  O209  1  0.33302771  0.64427597  0.11184724  1
  O  O210  1  -0.03811460  0.03262804  0.86931784  1
  O  O211  1  0.30615021  -0.05634824  0.37616306  1
  O  O212  1  0.21651845  0.22374870  0.52096942  1
  O  O213  1  0.50133011  0.14695696  0.86915543  1
  O  O214  1  0.34537636  -0.01669443  0.60792133  1
  O  O215  1  0.01302997  -0.00929089  0.43573172  1
