# generated using pymatgen
data_Sr24Ta24N11O13
_symmetry_space_group_name_H-M   'P 1'
_cell_length_a   16.91169326
_cell_length_b   16.77333311
_cell_length_c   15.65873698
_cell_angle_alpha   90.45310308
_cell_angle_beta   89.97965627
_cell_angle_gamma   90.25815031
_symmetry_Int_Tables_number   1
_chemical_formula_structural   Sr24Ta24N11O13
_chemical_formula_sum   'Sr72 Ta72 N33 O39'
_cell_volume   4441.65869539
_cell_formula_units_Z   3
loop_
 _symmetry_equiv_pos_site_id
 _symmetry_equiv_pos_as_xyz
  1  'x, y, z'
loop_
 _atom_site_type_symbol
 _atom_site_label
 _atom_site_symmetry_multiplicity
 _atom_site_fract_x
 _atom_site_fract_y
 _atom_site_fract_z
 _atom_site_occupancy
  Sr  Sr0  1  0.03057481  0.15609641  0.12076253  1
  Sr  Sr1  1  0.00834784  0.18028557  0.66913677  1
  Sr  Sr2  1  -0.00408151  0.51575788  0.14076555  1
  Sr  Sr3  1  -0.00396957  0.47587240  0.58053910  1
  Sr  Sr4  1  0.00406829  0.83926671  0.08203704  1
  Sr  Sr5  1  -0.00470053  0.82278545  0.63797322  1
  Sr  Sr6  1  0.35651163  0.17341616  0.15109369  1
  Sr  Sr7  1  0.32867666  0.14641222  0.59768709  1
  Sr  Sr8  1  0.34782397  0.48630677  0.08825927  1
  Sr  Sr9  1  0.32532890  0.50444182  0.63612308  1
  Sr  Sr10  1  0.33257263  0.84100221  0.12196012  1
  Sr  Sr11  1  0.35196009  0.82495926  0.64381045  1
  Sr  Sr12  1  0.67161786  0.15977130  0.10608256  1
  Sr  Sr13  1  0.67959855  0.14784530  0.61276711  1
  Sr  Sr14  1  0.66395106  0.47865362  0.15196469  1
  Sr  Sr15  1  0.67650727  0.49515970  0.62267958  1
  Sr  Sr16  1  0.68380240  0.81986516  0.14655147  1
  Sr  Sr17  1  0.66797056  0.81859363  0.62001746  1
  Sr  Sr18  1  0.17601291  -0.00665338  0.13046454  1
  Sr  Sr19  1  0.14926977  -0.00069891  0.61313828  1
  Sr  Sr20  1  0.15426906  0.34455330  0.11111267  1
  Sr  Sr21  1  0.16801166  0.33564640  0.61750337  1
  Sr  Sr22  1  0.17037215  0.66928600  0.16071157  1
  Sr  Sr23  1  0.14456753  0.67564038  0.62122631  1
  Sr  Sr24  1  0.50050346  0.02542740  0.09441872  1
  Sr  Sr25  1  0.48816371  -0.00119172  0.64884396  1
  Sr  Sr26  1  0.49411000  0.34355753  0.13289603  1
  Sr  Sr27  1  0.47849576  0.37371331  0.66412741  1
  Sr  Sr28  1  0.48590346  0.69329527  0.12799262  1
  Sr  Sr29  1  0.50163547  0.67095082  0.58386609  1
  Sr  Sr30  1  0.81679008  0.01418001  0.15505307  1
  Sr  Sr31  1  0.82899142  -0.01567581  0.58693221  1
  Sr  Sr32  1  0.80705354  0.32772653  0.08911975  1
  Sr  Sr33  1  0.83315254  0.32014548  0.63831247  1
  Sr  Sr34  1  0.84378914  0.67479419  0.11000156  1
  Sr  Sr35  1  0.81826460  0.67281431  0.67319244  1
  Sr  Sr36  1  -0.00018808  0.15283729  0.32817314  1
  Sr  Sr37  1  0.02072449  0.16708251  0.87403109  1
  Sr  Sr38  1  0.00068304  0.49637173  0.36504395  1
  Sr  Sr39  1  -0.01419052  0.49369178  0.92407737  1
  Sr  Sr40  1  0.01089369  0.85586354  0.42448995  1
  Sr  Sr41  1  0.00170011  0.82425374  0.86280977  1
  Sr  Sr42  1  0.33449003  0.17542108  0.37933639  1
  Sr  Sr43  1  0.35910410  0.15057688  0.85246023  1
  Sr  Sr44  1  0.34460996  0.49690834  0.39741543  1
  Sr  Sr45  1  0.32579577  0.49425915  0.86591097  1
  Sr  Sr46  1  0.32939039  0.81300742  0.33748231  1
  Sr  Sr47  1  0.35208258  0.83993206  0.88766894  1
  Sr  Sr48  1  0.67888276  0.15766844  0.39586507  1
  Sr  Sr49  1  0.66781478  0.16261806  0.87855605  1
  Sr  Sr50  1  0.66774321  0.48785980  0.38124544  1
  Sr  Sr51  1  0.67605139  0.48704298  0.83237303  1
  Sr  Sr52  1  0.67404293  0.81981275  0.36469493  1
  Sr  Sr53  1  0.67865065  0.80630877  0.87944304  1
  Sr  Sr54  1  0.17782242  0.00660313  0.36681236  1
  Sr  Sr55  1  0.14118301  -0.00635251  0.89435094  1
  Sr  Sr56  1  0.15664343  0.34475511  0.38447575  1
  Sr  Sr57  1  0.16155771  0.34262472  0.88290062  1
  Sr  Sr58  1  0.14923884  0.67175811  0.37623352  1
  Sr  Sr59  1  0.18255166  0.66825954  0.83320293  1
  Sr  Sr60  1  0.48817298  0.04344963  0.41728362  1
  Sr  Sr61  1  0.50823406  0.00571974  0.86342484  1
  Sr  Sr62  1  0.49581278  0.34207506  0.34530426  1
  Sr  Sr63  1  0.48361186  0.35729927  0.86879015  1
  Sr  Sr64  1  0.49293624  0.68082422  0.37979578  1
  Sr  Sr65  1  0.48904710  0.67590504  0.91941761  1
  Sr  Sr66  1  0.82396579  -0.00727748  0.37308835  1
  Sr  Sr67  1  0.81391625  0.01066024  0.89318876  1
  Sr  Sr68  1  0.81692068  0.34398514  0.42501608  1
  Sr  Sr69  1  0.81958976  0.32426819  0.86137390  1
  Sr  Sr70  1  0.82622334  0.65070594  0.32491916  1
  Sr  Sr71  1  0.84724523  0.67040848  0.88804106  1
  Ta  Ta72  1  0.21279485  0.16371452  -0.00315889  1
  Ta  Ta73  1  0.12764409  0.16877899  0.49967899  1
  Ta  Ta74  1  0.16753659  0.54303542  -0.00510616  1
  Ta  Ta75  1  0.17817258  0.52032574  0.50165535  1
  Ta  Ta76  1  0.17485411  0.79551527  0.00397847  1
  Ta  Ta77  1  0.21007501  0.83196597  0.49750172  1
  Ta  Ta78  1  0.49757335  0.19865647  -0.01332321  1
  Ta  Ta79  1  0.50115424  0.22368128  0.51926804  1
  Ta  Ta80  1  0.54545198  0.50391803  -0.00731037  1
  Ta  Ta81  1  0.50624657  0.47437269  0.50681911  1
  Ta  Ta82  1  0.52977388  0.85652791  0.00222987  1
  Ta  Ta83  1  0.49772025  0.86109175  0.50103759  1
  Ta  Ta84  1  0.86423254  0.16384115  -0.00409218  1
  Ta  Ta85  1  0.87380511  0.16548998  0.50320267  1
  Ta  Ta86  1  0.79212089  0.49888288  -0.00595890  1
  Ta  Ta87  1  0.83333333  0.55291711  0.50061159  1
  Ta  Ta88  1  0.82998778  0.86551102  0.00640827  1
  Ta  Ta89  1  0.83418398  0.78261226  0.50096592  1
  Ta  Ta90  1  0.18776434  0.19143687  0.25113193  1
  Ta  Ta91  1  0.19648558  0.15790547  0.74472526  1
  Ta  Ta92  1  0.20722458  0.49591908  0.24511864  1
  Ta  Ta93  1  0.11402764  0.49723258  0.75535923  1
  Ta  Ta94  1  0.12200407  0.83903936  0.24803582  1
  Ta  Ta95  1  0.18858008  0.85356044  0.75177409  1
  Ta  Ta96  1  0.52717349  0.16151286  0.25400875  1
  Ta  Ta97  1  0.51037834  0.19978299  0.73316046  1
  Ta  Ta98  1  0.49356419  0.52724554  0.24762618  1
  Ta  Ta99  1  0.50022506  0.55330509  0.75286483  1
  Ta  Ta100  1  0.50082671  0.88704146  0.25716837  1
  Ta  Ta101  1  0.51519177  0.80073230  0.75400948  1
  Ta  Ta102  1  0.82362263  0.21128540  0.25185478  1
  Ta  Ta103  1  0.83137260  0.12833083  0.74824366  1
  Ta  Ta104  1  0.83000513  0.44386375  0.25092535  1
  Ta  Ta105  1  0.87676885  0.49628856  0.75337927  1
  Ta  Ta106  1  0.88268835  0.83846046  0.25119052  1
  Ta  Ta107  1  0.82872317  0.86864839  0.74841714  1
  Ta  Ta108  1  0.00143408  -0.04166205  0.24723337  1
  Ta  Ta109  1  -0.04213868  -0.00169889  0.75346562  1
  Ta  Ta110  1  -0.04794751  0.32817421  0.25117964  1
  Ta  Ta111  1  -0.00352997  0.37238891  0.75658019  1
  Ta  Ta112  1  -0.00111299  0.71705734  0.24469980  1
  Ta  Ta113  1  -0.00180868  0.61945818  0.75659566  1
  Ta  Ta114  1  0.37561047  0.00331670  0.25154328  1
  Ta  Ta115  1  0.29523855  -0.00773036  0.74686928  1
  Ta  Ta116  1  0.30814404  0.34730531  0.24969821  1
  Ta  Ta117  1  0.31913560  0.30033602  0.74719298  1
  Ta  Ta118  1  0.33796701  0.62346981  0.24649097  1
  Ta  Ta119  1  0.37459327  0.67070727  0.75643475  1
  Ta  Ta120  1  0.62076027  0.00526205  0.25615585  1
  Ta  Ta121  1  0.69076299  -0.01895039  0.74843496  1
  Ta  Ta122  1  0.68355601  0.31041460  0.26154765  1
  Ta  Ta123  1  0.64270306  0.30659589  0.73380966  1
  Ta  Ta124  1  0.63575557  0.64050173  0.25040501  1
  Ta  Ta125  1  0.62072277  0.66415022  0.75005928  1
  Ta  Ta126  1  -0.04048192  0.00844557  -0.00090347  1
  Ta  Ta127  1  -0.00154558  0.05683447  0.50067105  1
  Ta  Ta128  1  -0.02394699  0.31195844  0.00180190  1
  Ta  Ta129  1  -0.00286900  0.28072685  0.49300495  1
  Ta  Ta130  1  0.04604148  0.66750730  -0.00160782  1
  Ta  Ta131  1  -0.03911191  0.66357970  0.49825242  1
  Ta  Ta132  1  0.32707908  0.02854178  0.00323297  1
  Ta  Ta133  1  0.32911188  -0.04745140  0.50067055  1
  Ta  Ta134  1  0.33394263  0.29579579  -0.00437575  1
  Ta  Ta135  1  0.36284308  0.33414660  0.50499311  1
  Ta  Ta136  1  0.29796821  0.66699402  0.00245323  1
  Ta  Ta137  1  0.30823671  0.67593425  0.49687345  1
  Ta  Ta138  1  0.66723391  -0.03453906  0.01085135  1
  Ta  Ta139  1  0.64106126  -0.02994524  0.49086003  1
  Ta  Ta140  1  0.64086061  0.34764607  -0.01492363  1
  Ta  Ta141  1  0.62258632  0.32956122  0.51363681  1
  Ta  Ta142  1  0.66966368  0.62259354  -0.00085771  1
  Ta  Ta143  1  0.70238064  0.65799271  0.49445108  1
  N  N144  1  0.83692013  0.16847401  0.87526363  1
  N  N145  1  0.34232451  0.00746245  0.12696468  1
  N  N146  1  0.66541311  -0.00652779  0.13433700  1
  N  N147  1  0.16610380  0.83318122  0.12434129  1
  N  N148  1  0.32209079  0.34060519  0.62455881  1
  N  N149  1  0.67172291  -0.00421128  0.37476528  1
  N  N150  1  0.00514936  0.66330304  0.87404432  1
  N  N151  1  0.16757929  0.16333911  0.62429472  1
  N  N152  1  0.83542671  0.82396809  0.62502274  1
  N  N153  1  0.83884800  0.16199874  0.62635469  1
  N  N154  1  0.51310622  0.83872141  0.87817810  1
  N  N155  1  0.00403198  0.67585056  0.12470133  1
  N  N156  1  0.82995169  0.49864433  0.87661406  1
  N  N157  1  0.68664839  0.32954909  0.61712965  1
  N  N158  1  0.50517036  0.83685634  0.62229500  1
  N  N159  1  0.66209990  0.32552304  0.38238910  1
  N  N160  1  0.33435873  0.33424361  0.37536289  1
  N  N161  1  0.32693888  0.33235901  0.87067821  1
  N  N162  1  0.32836553  -0.00939205  0.62221634  1
  N  N163  1  0.33428151  0.66506242  0.12710977  1
  N  N164  1  0.84015105  0.83999129  0.12627606  1
  N  N165  1  -0.01116309  -0.00211367  0.87400191  1
  N  N166  1  0.66493032  0.65815994  0.37099680  1
  N  N167  1  -0.01044423  0.32257119  0.37354391  1
  N  N168  1  0.50193485  0.51182269  0.87753490  1
  N  N169  1  0.33856597  0.66852472  0.87553683  1
  N  N170  1  -0.00707557  0.33261694  0.88223138  1
  N  N171  1  0.15861353  0.50253804  0.87671804  1
  N  N172  1  0.50662036  0.18137159  0.86353311  1
  N  N173  1  0.33350721  0.33127333  0.12059795  1
  N  N174  1  0.49960154  0.51841260  0.61982092  1
  N  N175  1  0.65775106  0.33162144  0.86416643  1
  N  N176  1  0.32787367  0.66158925  0.37469290  1
  O  O177  1  0.00325432  0.31311831  0.13219032  1
  O  O178  1  0.15102387  0.51107787  0.62459235  1
  O  O179  1  0.81613778  0.47772067  0.12699261  1
  O  O180  1  0.33801231  -0.00094882  0.37710464  1
  O  O181  1  -0.00589682  0.32956003  0.62991621  1
  O  O182  1  0.18003635  0.83617924  0.87673510  1
  O  O183  1  0.83169847  0.18614239  0.37703644  1
  O  O184  1  0.83263275  0.49684299  0.37014641  1
  O  O185  1  0.32976295  -0.00229480  0.87551709  1
  O  O186  1  0.49771987  0.84974621  0.12834260  1
  O  O187  1  0.50089413  0.50492622  0.11901844  1
  O  O188  1  0.66603065  0.64998640  0.87209182  1
  O  O189  1  -0.01359788  0.67035534  0.37162041  1
  O  O190  1  0.17959537  0.83072773  0.62750574  1
  O  O191  1  0.00164688  0.00597607  0.37936292  1
  O  O192  1  0.65734027  0.32718874  0.12237770  1
  O  O193  1  0.49416398  0.83138398  0.36805052  1
  O  O194  1  0.18747533  0.49808966  0.11913352  1
  O  O195  1  -0.00209133  -0.00026010  0.12299270  1
  O  O196  1  0.51750891  0.18086371  0.12700984  1
  O  O197  1  0.66081173  0.66151187  0.62086770  1
  O  O198  1  0.83546864  0.83141206  0.87350508  1
  O  O199  1  0.18504713  0.50592282  0.37636539  1
  O  O200  1  0.67218073  0.64229196  0.12794512  1
  O  O201  1  0.51080884  0.18714651  0.38090406  1
  O  O202  1  0.48893115  0.14519577  0.61646926  1
  O  O203  1  0.50005717  0.50460692  0.37509853  1
  O  O204  1  0.82406860  0.17850347  0.12615534  1
  O  O205  1  0.66403602  -0.01713685  0.87208229  1
  O  O206  1  0.84353651  0.51848160  0.62595925  1
  O  O207  1  -0.00652490  0.01521964  0.62413822  1
  O  O208  1  0.19115363  0.17488446  0.12692192  1
  O  O209  1  0.67030987  -0.02010376  0.62160975  1
  O  O210  1  0.16552436  0.83511093  0.37123418  1
  O  O211  1  0.17227951  0.17658070  0.37648794  1
  O  O212  1  -0.01433022  0.66360168  0.62711564  1
  O  O213  1  0.84842408  0.83220908  0.38336618  1
  O  O214  1  0.18063791  0.15387994  0.87748015  1
  O  O215  1  0.34377338  0.66786988  0.62358098  1
