# generated using pymatgen
data_Sr24Ta24N11O13
_symmetry_space_group_name_H-M   'P 1'
_cell_length_a   16.86786093
_cell_length_b   16.77008005
_cell_length_c   15.63151614
_cell_angle_alpha   90.52824635
_cell_angle_beta   90.53562373
_cell_angle_gamma   90.33042653
_symmetry_Int_Tables_number   1
_chemical_formula_structural   Sr24Ta24N11O13
_chemical_formula_sum   'Sr72 Ta72 N33 O39'
_cell_volume   4421.31415551
_cell_formula_units_Z   3
loop_
 _symmetry_equiv_pos_site_id
 _symmetry_equiv_pos_as_xyz
  1  'x, y, z'
loop_
 _atom_site_type_symbol
 _atom_site_label
 _atom_site_symmetry_multiplicity
 _atom_site_fract_x
 _atom_site_fract_y
 _atom_site_fract_z
 _atom_site_occupancy
  Sr  Sr0  1  -0.01014859  0.14681426  0.07310512  1
  Sr  Sr1  1  0.01034988  0.16755413  0.63601816  1
  Sr  Sr2  1  0.00287694  0.49115242  0.12511273  1
  Sr  Sr3  1  -0.06143913  0.50931382  0.60118701  1
  Sr  Sr4  1  -0.00957023  0.84264390  0.15807300  1
  Sr  Sr5  1  -0.00003739  0.83524489  0.61171531  1
  Sr  Sr6  1  0.32663518  0.16448852  0.13055629  1
  Sr  Sr7  1  0.34062035  0.13087207  0.57992424  1
  Sr  Sr8  1  0.31472097  0.49957891  0.09005682  1
  Sr  Sr9  1  0.34271251  0.50099671  0.62832909  1
  Sr  Sr10  1  0.31424212  0.81990304  0.12616797  1
  Sr  Sr11  1  0.33667897  0.83873540  0.67329579  1
  Sr  Sr12  1  0.70614715  0.15832510  0.17110725  1
  Sr  Sr13  1  0.65788214  0.16826457  0.61888170  1
  Sr  Sr14  1  0.65461101  0.48713740  0.10961265  1
  Sr  Sr15  1  0.66946780  0.53214592  0.68024567  1
  Sr  Sr16  1  0.66017417  0.84256844  0.12894070  1
  Sr  Sr17  1  0.65267013  0.83231658  0.58552954  1
  Sr  Sr18  1  0.17298262  -0.01007770  0.13317899  1
  Sr  Sr19  1  0.16369444  -0.00319879  0.59992513  1
  Sr  Sr20  1  0.16492589  0.33626747  0.15961025  1
  Sr  Sr21  1  0.17885612  0.34028501  0.61930197  1
  Sr  Sr22  1  0.18047867  0.65163872  0.09235907  1
  Sr  Sr23  1  0.21055175  0.66824576  0.64683903  1
  Sr  Sr24  1  0.50265006  0.01077276  0.10064961  1
  Sr  Sr25  1  0.50440218  0.00283592  0.63226615  1
  Sr  Sr26  1  0.46760592  0.33443854  0.11425696  1
  Sr  Sr27  1  0.50680352  0.35392586  0.65569561  1
  Sr  Sr28  1  0.51768998  0.67974166  0.14735220  1
  Sr  Sr29  1  0.51599827  0.67326839  0.60612312  1
  Sr  Sr30  1  0.83066585  -0.01340393  0.11644119  1
  Sr  Sr31  1  0.84692883  0.02279118  0.67764927  1
  Sr  Sr32  1  0.83254996  0.34401982  0.13656039  1
  Sr  Sr33  1  0.82894777  0.31719361  0.57752259  1
  Sr  Sr34  1  0.88068549  0.66530792  0.15058210  1
  Sr  Sr35  1  0.82897889  0.69557685  0.61148259  1
  Sr  Sr36  1  0.00070087  0.17014539  0.41554060  1
  Sr  Sr37  1  -0.00674784  0.16105897  0.86293406  1
  Sr  Sr38  1  -0.00569564  0.48996218  0.35514544  1
  Sr  Sr39  1  -0.00903057  0.50315285  0.87870899  1
  Sr  Sr40  1  0.00420442  0.84026251  0.38185659  1
  Sr  Sr41  1  -0.02574413  0.82348804  0.84088408  1
  Sr  Sr42  1  0.33006490  0.17803397  0.35125591  1
  Sr  Sr43  1  0.34687777  0.15796808  0.91391254  1
  Sr  Sr44  1  0.33120854  0.51137687  0.42390424  1
  Sr  Sr45  1  0.30746839  0.48170919  0.84866229  1
  Sr  Sr46  1  0.32810885  0.82132061  0.33659292  1
  Sr  Sr47  1  0.31116407  0.82939474  0.87907979  1
  Sr  Sr48  1  0.67080580  0.17514669  0.39033622  1
  Sr  Sr49  1  0.65647043  0.14721376  0.82864648  1
  Sr  Sr50  1  0.63465938  0.49670283  0.32807085  1
  Sr  Sr51  1  0.66936769  0.47860279  0.89152429  1
  Sr  Sr52  1  0.65773068  0.82911890  0.37604789  1
  Sr  Sr53  1  0.66985308  0.85038571  0.92683023  1
  Sr  Sr54  1  0.16792787  -0.00938193  0.36956736  1
  Sr  Sr55  1  0.17542934  0.00383288  0.89931281  1
  Sr  Sr56  1  0.17054430  0.34777937  0.37519132  1
  Sr  Sr57  1  0.14948258  0.32583109  0.82158171  1
  Sr  Sr58  1  0.19191994  0.65933990  0.39673913  1
  Sr  Sr59  1  0.17689488  0.65740078  0.87500124  1
  Sr  Sr60  1  0.50728000  0.02628520  0.41695152  1
  Sr  Sr61  1  0.49915595  0.00012951  0.86856545  1
  Sr  Sr62  1  0.48620889  0.34590831  0.36069100  1
  Sr  Sr63  1  0.48536091  0.33829430  0.88293552  1
  Sr  Sr64  1  0.50328105  0.67097059  0.37213562  1
  Sr  Sr65  1  0.55102351  0.67629750  0.90600621  1
  Sr  Sr66  1  0.82132564  -0.00041979  0.33223350  1
  Sr  Sr67  1  0.83684135  -0.00069203  0.88538660  1
  Sr  Sr68  1  0.82401824  0.33396301  0.36452055  1
  Sr  Sr69  1  0.85381980  0.34002733  0.92907522  1
  Sr  Sr70  1  0.86505194  0.66673999  0.39594904  1
  Sr  Sr71  1  0.84567246  0.65153402  0.83007584  1
  Ta  Ta72  1  0.16420373  0.20202417  -0.00379452  1
  Ta  Ta73  1  0.17678320  0.18820284  0.49224042  1
  Ta  Ta74  1  0.15533961  0.45589494  -0.01405171  1
  Ta  Ta75  1  0.12846761  0.50586202  0.51407510  1
  Ta  Ta76  1  0.11847455  0.82432071  -0.00411343  1
  Ta  Ta77  1  0.19499356  0.81995261  0.50794071  1
  Ta  Ta78  1  0.53790874  0.17162188  -0.00180481  1
  Ta  Ta79  1  0.49542041  0.21529529  0.50331187  1
  Ta  Ta80  1  0.47880830  0.52421737  -0.00257202  1
  Ta  Ta81  1  0.54837522  0.49943323  0.50945522  1
  Ta  Ta82  1  0.46906817  0.83453901  0.00898108  1
  Ta  Ta83  1  0.46180509  0.83923217  0.49895065  1
  Ta  Ta84  1  0.79607868  0.16540211  -0.00819794  1
  Ta  Ta85  1  0.83383885  0.11774980  0.50247872  1
  Ta  Ta86  1  0.83230674  0.53620001  0.00018913  1
  Ta  Ta87  1  0.75118940  0.49036083  0.49758414  1
  Ta  Ta88  1  0.85360077  0.80195317  0.00038927  1
  Ta  Ta89  1  0.83019651  0.89189273  0.50320910  1
  Ta  Ta90  1  0.10644781  0.16499091  0.24584649  1
  Ta  Ta91  1  0.20185187  0.14823592  0.74652861  1
  Ta  Ta92  1  0.18527254  0.51805710  0.26021402  1
  Ta  Ta93  1  0.11627751  0.50652952  0.71706310  1
  Ta  Ta94  1  0.15329100  0.79072110  0.24490835  1
  Ta  Ta95  1  0.14350546  0.84202074  0.75498222  1
  Ta  Ta96  1  0.51335995  0.15843699  0.25219812  1
  Ta  Ta97  1  0.46457425  0.17043561  0.74694706  1
  Ta  Ta98  1  0.44576706  0.50766662  0.25181834  1
  Ta  Ta99  1  0.49043871  0.53888836  0.75762402  1
  Ta  Ta100  1  0.49756995  0.87980187  0.25241276  1
  Ta  Ta101  1  0.52900838  0.82185195  0.75709311  1
  Ta  Ta102  1  0.89237474  0.16647422  0.24764964  1
  Ta  Ta103  1  0.82948399  0.22527571  0.75673550  1
  Ta  Ta104  1  0.80801015  0.52095499  0.24712091  1
  Ta  Ta105  1  0.82421673  0.43546186  0.75788596  1
  Ta  Ta106  1  0.81236644  0.81154341  0.25070517  1
  Ta  Ta107  1  0.79192541  0.84099541  0.75671951  1
  Ta  Ta108  1  0.00065520  0.03357034  0.25066201  1
  Ta  Ta109  1  0.03609874  -0.00859928  0.75261755  1
  Ta  Ta110  1  -0.00352460  0.29571324  0.24979285  1
  Ta  Ta111  1  -0.03493631  0.34439872  0.74949226  1
  Ta  Ta112  1  0.05080095  0.65890170  0.25333342  1
  Ta  Ta113  1  0.03154444  0.65784621  0.73333826  1
  Ta  Ta114  1  0.37301361  -0.00051635  0.25204742  1
  Ta  Ta115  1  0.32420009  0.02665026  0.75130081  1
  Ta  Ta116  1  0.32676366  0.38924612  0.25772727  1
  Ta  Ta117  1  0.33038571  0.27911090  0.74662434  1
  Ta  Ta118  1  0.33189534  0.63207546  0.25065396  1
  Ta  Ta119  1  0.39027121  0.66678920  0.76051987  1
  Ta  Ta120  1  0.62694578  0.00303642  0.25048230  1
  Ta  Ta121  1  0.66439178  -0.04917722  0.75747207  1
  Ta  Ta122  1  0.63655182  0.31497633  0.24350373  1
  Ta  Ta123  1  0.69482337  0.32688596  0.75182032  1
  Ta  Ta124  1  0.70826930  0.66956230  0.24510608  1
  Ta  Ta125  1  0.66800757  0.72662553  0.75340843  1
  Ta  Ta126  1  0.00292131  -0.04122148  -0.00351964  1
  Ta  Ta127  1  -0.03771019  0.00272403  0.50148012  1
  Ta  Ta128  1  0.04747588  0.32935833  -0.00712756  1
  Ta  Ta129  1  0.02116645  0.34708625  0.49880343  1
  Ta  Ta130  1  -0.00518180  0.68120572  -0.01281107  1
  Ta  Ta131  1  0.04555024  0.65752171  0.51714861  1
  Ta  Ta132  1  0.34650862  -0.02458662  0.00465256  1
  Ta  Ta133  1  0.33462093  -0.05732266  0.50259008  1
  Ta  Ta134  1  0.27226000  0.33056737  -0.01267659  1
  Ta  Ta135  1  0.34075509  0.31463682  0.50207928  1
  Ta  Ta136  1  0.37448805  0.66592636  -0.00029829  1
  Ta  Ta137  1  0.34861867  0.71332681  0.50478017  1
  Ta  Ta138  1  0.66705125  0.04467039  0.00202295  1
  Ta  Ta139  1  0.70707718  0.00507069  0.50610657  1
  Ta  Ta140  1  0.66682425  0.27572848  -0.00021278  1
  Ta  Ta141  1  0.64191250  0.35539468  0.49532148  1
  Ta  Ta142  1  0.73143384  0.66758043  0.00574579  1
  Ta  Ta143  1  0.67356053  0.63126269  0.49359352  1
  N  N144  1  0.17865733  0.82800177  0.62966194  1
  N  N145  1  0.33352530  -0.00245258  0.87758340  1
  N  N146  1  0.82823566  0.48931743  0.87662791  1
  N  N147  1  0.34562437  0.67033840  0.37851404  1
  N  N148  1  0.16468260  0.50381918  0.38251413  1
  N  N149  1  0.00126340  0.33079577  0.87209750  1
  N  N150  1  0.83034024  0.49948706  0.12731833  1
  N  N151  1  0.83279822  0.83105767  0.13086287  1
  N  N152  1  0.83379100  0.17454868  0.87086600  1
  N  N153  1  -0.00409327  -0.00096686  0.37260125  1
  N  N154  1  0.32759214  0.34692402  0.38367139  1
  N  N155  1  0.50027233  0.17658908  0.37389444  1
  N  N156  1  0.00144177  0.00558990  0.62733568  1
  N  N157  1  0.66407933  -0.00231246  0.87549998  1
  N  N158  1  0.36268007  0.67901924  0.63755283  1
  N  N159  1  0.49711881  0.83595865  0.13119314  1
  N  N160  1  0.16278233  0.81728447  0.88011753  1
  N  N161  1  -0.00394480  0.00011551  0.87057453  1
  N  N162  1  0.50197752  0.16885698  0.87447619  1
  N  N163  1  0.65371847  0.33343604  0.36415568  1
  N  N164  1  0.33397118  -0.01464080  0.62438710  1
  N  N165  1  0.00649912  0.66251290  0.86340487  1
  N  N166  1  0.82536293  0.83371242  0.88078912  1
  N  N167  1  -0.00151096  0.33232599  0.37601091  1
  N  N168  1  0.15746493  0.81941428  0.12296958  1
  N  N169  1  -0.00377693  -0.00597700  0.11716911  1
  N  N170  1  0.34302836  0.66311606  0.12192612  1
  N  N171  1  0.51559649  0.51197947  0.63210519  1
  N  N172  1  0.33400640  0.00475892  0.13293904  1
  N  N173  1  0.66261922  0.00934546  0.13144027  1
  N  N174  1  0.50143789  0.17192771  0.62000154  1
  N  N175  1  0.31580567  0.32073209  0.86352630  1
  N  N176  1  0.19048441  0.49821514  0.62250056  1
  O  O177  1  0.32886037  0.67423556  0.87424790  1
  O  O178  1  0.32975667  0.34389919  0.63451876  1
  O  O179  1  0.31415590  0.35004291  0.13128052  1
  O  O180  1  0.83460330  0.17031419  0.62475075  1
  O  O181  1  0.67874844  0.32853532  0.12242625  1
  O  O182  1  0.15815830  0.18115228  0.36744852  1
  O  O183  1  0.66550343  0.00438756  0.38103636  1
  O  O184  1  0.79698827  0.46796679  0.61953079  1
  O  O185  1  0.52328377  0.51244251  0.88122942  1
  O  O186  1  0.69453507  0.68722073  0.87613516  1
  O  O187  1  0.67335341  0.68269754  0.62686894  1
  O  O188  1  0.32902284  -0.01814240  0.37304948  1
  O  O189  1  0.18294216  0.16051170  0.61461154  1
  O  O190  1  0.17860264  0.16459381  0.86980214  1
  O  O191  1  0.66424329  -0.01358641  0.62717909  1
  O  O192  1  0.50321825  0.83526380  0.62879585  1
  O  O193  1  0.49574086  0.51036704  0.38712906  1
  O  O194  1  -0.01554871  0.32499739  0.61792928  1
  O  O195  1  0.48349970  0.17599503  0.11538390  1
  O  O196  1  0.51284844  0.83078207  0.88472889  1
  O  O197  1  0.67059759  0.32731041  0.62598098  1
  O  O198  1  0.17143122  0.82690599  0.36912999  1
  O  O199  1  0.79025192  0.48785591  0.37251637  1
  O  O200  1  0.68820130  0.66796563  0.37179967  1
  O  O201  1  0.02805001  0.64764013  0.12237285  1
  O  O202  1  0.47471031  0.50315845  0.12246399  1
  O  O203  1  0.84654176  0.16609088  0.11673745  1
  O  O204  1  0.02957228  0.66129781  0.38258629  1
  O  O205  1  -0.02710552  0.67609328  0.61640111  1
  O  O206  1  0.67632871  0.67195668  0.11753074  1
  O  O207  1  0.01143374  0.33355858  0.12319291  1
  O  O208  1  0.14459838  0.17819609  0.12419015  1
  O  O209  1  0.66743147  0.31988012  0.88053761  1
  O  O210  1  0.14573839  0.48005586  0.84539015  1
  O  O211  1  0.50126534  0.83020006  0.37142925  1
  O  O212  1  0.82906137  0.85108704  0.62655660  1
  O  O213  1  0.81954927  0.84791137  0.37933582  1
  O  O214  1  0.84952839  0.15292871  0.37819359  1
  O  O215  1  0.16197919  0.48830755  0.11546974  1
