# generated using pymatgen
data_Sr24Ta24N11O13
_symmetry_space_group_name_H-M   'P 1'
_cell_length_a   16.81767806
_cell_length_b   16.74182234
_cell_length_c   15.73118740
_cell_angle_alpha   89.85364489
_cell_angle_beta   90.21360355
_cell_angle_gamma   90.10852793
_symmetry_Int_Tables_number   1
_chemical_formula_structural   Sr24Ta24N11O13
_chemical_formula_sum   'Sr72 Ta72 N33 O39'
_cell_volume   4429.19766139
_cell_formula_units_Z   3
loop_
 _symmetry_equiv_pos_site_id
 _symmetry_equiv_pos_as_xyz
  1  'x, y, z'
loop_
 _atom_site_type_symbol
 _atom_site_label
 _atom_site_symmetry_multiplicity
 _atom_site_fract_x
 _atom_site_fract_y
 _atom_site_fract_z
 _atom_site_occupancy
  Sr  Sr0  1  -0.00426962  0.16843356  0.12383190  1
  Sr  Sr1  1  -0.01130340  0.16034925  0.59815001  1
  Sr  Sr2  1  0.00310471  0.50306888  0.11554671  1
  Sr  Sr3  1  -0.01788498  0.49666968  0.64420013  1
  Sr  Sr4  1  -0.01634280  0.84142158  0.12632838  1
  Sr  Sr5  1  0.01373008  0.83164474  0.66535922  1
  Sr  Sr6  1  0.31922973  0.18809858  0.12232151  1
  Sr  Sr7  1  0.32275090  0.14745336  0.67311003  1
  Sr  Sr8  1  0.34934351  0.50979198  0.16508417  1
  Sr  Sr9  1  0.32349249  0.48335644  0.60633712  1
  Sr  Sr10  1  0.32778524  0.84546971  0.11566928  1
  Sr  Sr11  1  0.32626588  0.84262456  0.58312628  1
  Sr  Sr12  1  0.66229357  0.17404347  0.12702029  1
  Sr  Sr13  1  0.63496316  0.17331783  0.61954241  1
  Sr  Sr14  1  0.65047773  0.52249869  0.07923743  1
  Sr  Sr15  1  0.66790819  0.49267523  0.63154270  1
  Sr  Sr16  1  0.66140718  0.82225851  0.17540351  1
  Sr  Sr17  1  0.68398827  0.84145033  0.61073862  1
  Sr  Sr18  1  0.17811235  -0.00369203  0.15568293  1
  Sr  Sr19  1  0.17547377  -0.00434484  0.62412055  1
  Sr  Sr20  1  0.14797552  0.32359139  0.07551856  1
  Sr  Sr21  1  0.17933839  0.32625043  0.63212329  1
  Sr  Sr22  1  0.18356776  0.65591462  0.10741003  1
  Sr  Sr23  1  0.18250578  0.66112779  0.62721677  1
  Sr  Sr24  1  0.52120080  -0.00609161  0.11548737  1
  Sr  Sr25  1  0.50910468  -0.00513680  0.62631126  1
  Sr  Sr26  1  0.49390703  0.33253185  0.13369294  1
  Sr  Sr27  1  0.50789394  0.34498134  0.58018397  1
  Sr  Sr28  1  0.49911214  0.67382601  0.11947855  1
  Sr  Sr29  1  0.51088538  0.64781927  0.66810558  1
  Sr  Sr30  1  0.84336476  0.01614517  0.08542521  1
  Sr  Sr31  1  0.84932040  -0.02137345  0.63703212  1
  Sr  Sr32  1  0.84384095  0.32853699  0.16476966  1
  Sr  Sr33  1  0.83577818  0.32804312  0.63881067  1
  Sr  Sr34  1  0.84294263  0.67574641  0.14039353  1
  Sr  Sr35  1  0.82215004  0.65321378  0.57743837  1
  Sr  Sr36  1  0.00174375  0.17153113  0.38403781  1
  Sr  Sr37  1  -0.01755648  0.16354767  0.89368966  1
  Sr  Sr38  1  -0.02636623  0.50821373  0.34778751  1
  Sr  Sr39  1  0.00111305  0.49775032  0.88735101  1
  Sr  Sr40  1  0.00072525  0.82950373  0.34036321  1
  Sr  Sr41  1  -0.01090518  0.83893725  0.87242735  1
  Sr  Sr42  1  0.32341063  0.17270669  0.33741223  1
  Sr  Sr43  1  0.31575328  0.18972731  0.88147572  1
  Sr  Sr44  1  0.33570949  0.49370361  0.37981456  1
  Sr  Sr45  1  0.32973399  0.52181744  0.82298898  1
  Sr  Sr46  1  0.31901001  0.84995252  0.38178896  1
  Sr  Sr47  1  0.34026165  0.82735547  0.92009796  1
  Sr  Sr48  1  0.65367319  0.18438709  0.35881275  1
  Sr  Sr49  1  0.65781818  0.16437690  0.89573637  1
  Sr  Sr50  1  0.66688568  0.49961613  0.41495413  1
  Sr  Sr51  1  0.65841255  0.49914592  0.86852059  1
  Sr  Sr52  1  0.68337046  0.83177532  0.38812356  1
  Sr  Sr53  1  0.65978460  0.84036902  0.82631697  1
  Sr  Sr54  1  0.16937825  0.00686790  0.36748687  1
  Sr  Sr55  1  0.18699674  -0.00601215  0.86318642  1
  Sr  Sr56  1  0.16174778  0.33284588  0.41274604  1
  Sr  Sr57  1  0.17477610  0.33322741  0.86674881  1
  Sr  Sr58  1  0.19258682  0.65221508  0.39962772  1
  Sr  Sr59  1  0.17036017  0.66682030  0.86600579  1
  Sr  Sr60  1  0.51640767  -0.01333356  0.39748686  1
  Sr  Sr61  1  0.50555090  0.00347031  0.86277753  1
  Sr  Sr62  1  0.48514898  0.33652414  0.36424524  1
  Sr  Sr63  1  0.51189865  0.33312428  0.91710899  1
  Sr  Sr64  1  0.49875030  0.66733515  0.33616297  1
  Sr  Sr65  1  0.51157998  0.66225974  0.87816006  1
  Sr  Sr66  1  0.85054634  0.00465217  0.41431832  1
  Sr  Sr67  1  0.84365878  -0.00820313  0.87419362  1
  Sr  Sr68  1  0.84619787  0.31717503  0.36302886  1
  Sr  Sr69  1  0.82390373  0.34407894  0.83577365  1
  Sr  Sr70  1  0.83843711  0.67816690  0.36284721  1
  Sr  Sr71  1  0.83499521  0.65214794  0.92079839  1
  Ta  Ta72  1  0.15982092  0.12937246  0.00194210  1
  Ta  Ta73  1  0.19956826  0.15948776  0.49931956  1
  Ta  Ta74  1  0.21090025  0.50126143  -0.00920552  1
  Ta  Ta75  1  0.11345353  0.49991413  0.50456691  1
  Ta  Ta76  1  0.14141449  0.83650456  -0.00316357  1
  Ta  Ta77  1  0.12102554  0.82368105  0.50085542  1
  Ta  Ta78  1  0.47341290  0.15062653  -0.00010634  1
  Ta  Ta79  1  0.45490315  0.16215714  0.50270026  1
  Ta  Ta80  1  0.45749257  0.50248489  -0.00897850  1
  Ta  Ta81  1  0.49708268  0.53634459  0.49995597  1
  Ta  Ta82  1  0.53761777  0.83660957  0.00125240  1
  Ta  Ta83  1  0.50361273  0.78758062  0.49962870  1
  Ta  Ta84  1  0.82530198  0.21482175  0.00045485  1
  Ta  Ta85  1  0.79885331  0.17286681  0.50162610  1
  Ta  Ta86  1  0.82836357  0.46053777  -0.00147798  1
  Ta  Ta87  1  0.84093595  0.46733713  0.50363930  1
  Ta  Ta88  1  0.80436185  0.83259174  0.00783450  1
  Ta  Ta89  1  0.88565964  0.82728966  0.50036299  1
  Ta  Ta90  1  0.15282265  0.19795467  0.24802313  1
  Ta  Ta91  1  0.12573869  0.16407055  0.75585720  1
  Ta  Ta92  1  0.15945748  0.47947487  0.24847500  1
  Ta  Ta93  1  0.14169956  0.49196655  0.74536565  1
  Ta  Ta94  1  0.17101926  0.79617437  0.24944143  1
  Ta  Ta95  1  0.20732960  0.83277480  0.75375673  1
  Ta  Ta96  1  0.49160081  0.13594085  0.25075431  1
  Ta  Ta97  1  0.49540203  0.21603080  0.75255239  1
  Ta  Ta98  1  0.54410772  0.49892309  0.25495012  1
  Ta  Ta99  1  0.49905221  0.45545546  0.74744870  1
  Ta  Ta100  1  0.47223945  0.84531135  0.24751517  1
  Ta  Ta101  1  0.46900366  0.83222180  0.74752880  1
  Ta  Ta102  1  0.83004497  0.12434682  0.25608459  1
  Ta  Ta103  1  0.81485024  0.15270486  0.75472801  1
  Ta  Ta104  1  0.78323135  0.50241660  0.24725263  1
  Ta  Ta105  1  0.82734468  0.54134548  0.75356089  1
  Ta  Ta106  1  0.83223840  0.88821152  0.25465458  1
  Ta  Ta107  1  0.83586715  0.77578768  0.74451759  1
  Ta  Ta108  1  -0.02555281  0.01059162  0.24915691  1
  Ta  Ta109  1  0.01651700  0.02641727  0.74965091  1
  Ta  Ta110  1  0.04163369  0.33844266  0.24781197  1
  Ta  Ta111  1  0.01352500  0.31292264  0.75002731  1
  Ta  Ta112  1  0.05195509  0.66554683  0.25275644  1
  Ta  Ta113  1  -0.03277777  0.65862211  0.75026779  1
  Ta  Ta114  1  0.37144354  0.00159671  0.24949535  1
  Ta  Ta115  1  0.34079449  -0.05812698  0.75108516  1
  Ta  Ta116  1  0.26347123  0.34441390  0.24719120  1
  Ta  Ta117  1  0.37539260  0.33574424  0.74976469  1
  Ta  Ta118  1  0.32549931  0.69778568  0.24762501  1
  Ta  Ta119  1  0.34057735  0.72238880  0.75311506  1
  Ta  Ta120  1  0.69807155  0.00751470  0.25102803  1
  Ta  Ta121  1  0.68794835  0.02787632  0.74808070  1
  Ta  Ta122  1  0.66511619  0.37675864  0.24763751  1
  Ta  Ta123  1  0.63308667  0.32269527  0.75195299  1
  Ta  Ta124  1  0.67000972  0.62882109  0.25590568  1
  Ta  Ta125  1  0.70875328  0.66406648  0.74893984  1
  Ta  Ta126  1  0.04041387  -0.00613586  0.00526524  1
  Ta  Ta127  1  0.01704419  -0.04164783  0.50362789  1
  Ta  Ta128  1  -0.04672705  0.33296328  0.00317692  1
  Ta  Ta129  1  -0.01011934  0.36264227  0.49543391  1
  Ta  Ta130  1  0.01758118  0.68767630  0.00269375  1
  Ta  Ta131  1  0.01144285  0.67977063  0.49603681  1
  Ta  Ta132  1  0.34233535  0.02598093  0.00426555  1
  Ta  Ta133  1  0.33661630  0.04228199  0.49461701  1
  Ta  Ta134  1  0.33128314  0.38307657  -0.00834145  1
  Ta  Ta135  1  0.33411128  0.28118909  0.50605142  1
  Ta  Ta136  1  0.34031743  0.63364274  -0.00394454  1
  Ta  Ta137  1  0.38060430  0.66838965  0.49755384  1
  Ta  Ta138  1  0.67489563  -0.06065945  -0.00008599  1
  Ta  Ta139  1  0.68799148  0.03056263  0.50633116  1
  Ta  Ta140  1  0.70393058  0.33879497  -0.00121350  1
  Ta  Ta141  1  0.69822602  0.32649875  0.50423143  1
  Ta  Ta142  1  0.66957811  0.72927368  0.00118547  1
  Ta  Ta143  1  0.62464471  0.66970146  0.49751193  1
  N  N144  1  0.33423840  0.34514441  0.87349381  1
  N  N145  1  0.33422833  0.00717704  0.12485126  1
  N  N146  1  0.34205495  0.67740922  0.87075822  1
  N  N147  1  0.00445592  -0.00095355  0.12823780  1
  N  N148  1  0.82435914  0.17364509  0.87570909  1
  N  N149  1  0.15938379  0.16698579  0.87847404  1
  N  N150  1  0.82802863  0.49860104  0.62283890  1
  N  N151  1  0.34428918  0.67143337  0.37296871  1
  N  N152  1  0.49951451  0.49548130  0.62331916  1
  N  N153  1  0.84693683  0.81611988  0.62219112  1
  N  N154  1  0.01032334  0.66516664  0.37044658  1
  N  N155  1  -0.00232113  0.33798075  0.12206565  1
  N  N156  1  0.66981997  0.33175381  0.62441539  1
  N  N157  1  0.17189677  0.50025176  0.86947459  1
  N  N158  1  0.49925491  0.83470880  0.12710696  1
  N  N159  1  0.34082691  0.66796155  0.12271026  1
  N  N160  1  0.66700564  0.66554481  0.37725960  1
  N  N161  1  0.33492853  0.00711228  0.37549196  1
  N  N162  1  0.82716078  0.84611334  0.13182599  1
  N  N163  1  0.49758058  0.49801777  0.87320990  1
  N  N164  1  0.83011752  0.50060855  0.87563093  1
  N  N165  1  0.50305661  0.49825377  0.37217013  1
  N  N166  1  0.82808054  0.16295787  0.37462957  1
  N  N167  1  0.01007385  -0.00601713  0.62937864  1
  N  N168  1  0.16933974  0.83131889  0.87601373  1
  N  N169  1  0.16723697  0.16745207  0.37980584  1
  N  N170  1  0.84404749  0.84332634  0.37688923  1
  N  N171  1  0.66710476  0.33603726  0.87740881  1
  N  N172  1  0.00359503  0.33955491  0.37243896  1
  N  N173  1  0.16414547  0.49565926  0.61569384  1
  N  N174  1  0.67057082  0.00070100  0.62692801  1
  N  N175  1  0.33756344  0.31959922  0.62327613  1
  N  N176  1  0.16285821  0.16495335  0.12641957  1
  O  O177  1  0.67548687  0.34416207  0.37094554  1
  O  O178  1  0.83393830  0.81977917  0.86697691  1
  O  O179  1  0.33535670  -0.00934050  0.62877232  1
  O  O180  1  0.49696941  0.82983384  0.37589155  1
  O  O181  1  0.47838568  0.16914380  0.63454492  1
  O  O182  1  0.16950126  0.82262039  0.12610056  1
  O  O183  1  0.82183807  0.17318185  0.12777003  1
  O  O184  1  0.00023521  0.32289512  0.62416431  1
  O  O185  1  0.00167396  -0.00660780  0.87384674  1
  O  O186  1  0.48326988  0.16819050  0.87549457  1
  O  O187  1  0.50203539  0.49604403  0.12028637  1
  O  O188  1  0.30878210  0.34655139  0.12834415  1
  O  O189  1  0.67400127  0.69028166  0.87714876  1
  O  O190  1  0.80440066  0.50280887  0.11954907  1
  O  O191  1  0.00974671  -0.00295563  0.37851778  1
  O  O192  1  0.01357085  0.66919189  0.12901104  1
  O  O193  1  0.67663198  0.01253607  0.37710908  1
  O  O194  1  -0.01340868  0.66052670  0.62744751  1
  O  O195  1  0.50057834  0.15907914  0.12492495  1
  O  O196  1  0.15078514  0.49596936  0.38087491  1
  O  O197  1  -0.00658724  0.67504020  0.88096230  1
  O  O198  1  0.68247405  -0.01463920  0.87216810  1
  O  O199  1  0.48749991  0.15385252  0.37413277  1
  O  O200  1  -0.00722715  0.32329014  0.87390014  1
  O  O201  1  0.66840021  0.67700481  0.12158076  1
  O  O202  1  0.34560990  -0.01877746  0.87527603  1
  O  O203  1  0.16934554  0.16083673  0.63180103  1
  O  O204  1  0.48875721  0.83091067  0.61968366  1
  O  O205  1  0.65902798  0.35616212  0.12110581  1
  O  O206  1  0.16736581  0.82642189  0.62423029  1
  O  O207  1  0.49937324  0.83642106  0.87569446  1
  O  O208  1  0.16319625  0.81374431  0.38072443  1
  O  O209  1  0.33985929  0.68945094  0.61949875  1
  O  O210  1  0.81679439  0.49371829  0.37301896  1
  O  O211  1  0.66676665  0.66537772  0.62396745  1
  O  O212  1  0.17063561  0.49833401  0.12080077  1
  O  O213  1  0.31131335  0.32959537  0.36873441  1
  O  O214  1  0.68033838  -0.01302669  0.12127640  1
  O  O215  1  0.83614196  0.17217318  0.62447284  1
