# generated using pymatgen
data_Sr24Ta24N11O13
_symmetry_space_group_name_H-M   'P 1'
_cell_length_a   16.81991558
_cell_length_b   16.78600926
_cell_length_c   15.71223436
_cell_angle_alpha   90.22961802
_cell_angle_beta   89.71766886
_cell_angle_gamma   90.11454957
_symmetry_Int_Tables_number   1
_chemical_formula_structural   Sr24Ta24N11O13
_chemical_formula_sum   'Sr72 Ta72 N33 O39'
_cell_volume   4436.08242555
_cell_formula_units_Z   3
loop_
 _symmetry_equiv_pos_site_id
 _symmetry_equiv_pos_as_xyz
  1  'x, y, z'
loop_
 _atom_site_type_symbol
 _atom_site_label
 _atom_site_symmetry_multiplicity
 _atom_site_fract_x
 _atom_site_fract_y
 _atom_site_fract_z
 _atom_site_occupancy
  Sr  Sr0  1  0.01500916  0.15059534  0.07460051  1
  Sr  Sr1  1  -0.00251750  0.17858498  0.63043810  1
  Sr  Sr2  1  0.00024625  0.49024184  0.13590690  1
  Sr  Sr3  1  0.03883869  0.51604639  0.59140426  1
  Sr  Sr4  1  -0.00646840  0.85040439  0.16873289  1
  Sr  Sr5  1  0.01023239  0.83420865  0.62553572  1
  Sr  Sr6  1  0.32032744  0.16135817  0.17240068  1
  Sr  Sr7  1  0.34739950  0.16068799  0.60657346  1
  Sr  Sr8  1  0.36227397  0.47853380  0.13145327  1
  Sr  Sr9  1  0.34461830  0.50320099  0.65653818  1
  Sr  Sr10  1  0.33922611  0.83117453  0.12315661  1
  Sr  Sr11  1  0.32809564  0.81882853  0.59069786  1
  Sr  Sr12  1  0.64984000  0.15439814  0.10547780  1
  Sr  Sr13  1  0.65817200  0.16756494  0.66219981  1
  Sr  Sr14  1  0.68136805  0.50270565  0.09794585  1
  Sr  Sr15  1  0.69148056  0.48783615  0.61710231  1
  Sr  Sr16  1  0.67364036  0.81846621  0.14538178  1
  Sr  Sr17  1  0.66397443  0.84421926  0.61716095  1
  Sr  Sr18  1  0.16570411  0.00101046  0.12231714  1
  Sr  Sr19  1  0.15267590  0.00598396  0.67116704  1
  Sr  Sr20  1  0.14090156  0.33311253  0.10146317  1
  Sr  Sr21  1  0.16834659  0.34339765  0.62731889  1
  Sr  Sr22  1  0.13742361  0.65909975  0.12352814  1
  Sr  Sr23  1  0.16605294  0.67777885  0.60905571  1
  Sr  Sr24  1  0.49803552  -0.00122425  0.08426983  1
  Sr  Sr25  1  0.49269526  0.00289396  0.63419610  1
  Sr  Sr26  1  0.48543109  0.30974487  0.14371139  1
  Sr  Sr27  1  0.49373793  0.34634232  0.59681552  1
  Sr  Sr28  1  0.49276224  0.68419346  0.14066015  1
  Sr  Sr29  1  0.48261795  0.66253617  0.64946146  1
  Sr  Sr30  1  0.82341506  -0.00303729  0.13954333  1
  Sr  Sr31  1  0.84815116  0.00051571  0.57556632  1
  Sr  Sr32  1  0.82992306  0.34292175  0.16307672  1
  Sr  Sr33  1  0.82148969  0.32426410  0.62589983  1
  Sr  Sr34  1  0.82255582  0.65341886  0.08482952  1
  Sr  Sr35  1  0.82179186  0.67221578  0.64598190  1
  Sr  Sr36  1  -0.01801476  0.16859579  0.41831126  1
  Sr  Sr37  1  0.00973303  0.18125360  0.85954734  1
  Sr  Sr38  1  0.01438356  0.49398207  0.35685614  1
  Sr  Sr39  1  0.01937341  0.52256737  0.91757046  1
  Sr  Sr40  1  0.00628160  0.84423249  0.37518319  1
  Sr  Sr41  1  0.00591040  0.83271839  0.83349465  1
  Sr  Sr42  1  0.33714228  0.17137629  0.38562407  1
  Sr  Sr43  1  0.34206041  0.12362990  0.83154436  1
  Sr  Sr44  1  0.36467292  0.49694117  0.34741260  1
  Sr  Sr45  1  0.34930743  0.48578190  0.86326854  1
  Sr  Sr46  1  0.33625179  0.82340480  0.37658330  1
  Sr  Sr47  1  0.32747610  0.82571902  0.91892895  1
  Sr  Sr48  1  0.67667291  0.17624193  0.32357869  1
  Sr  Sr49  1  0.65347866  0.16707268  0.88221478  1
  Sr  Sr50  1  0.68048362  0.49081382  0.40339506  1
  Sr  Sr51  1  0.69599887  0.49866578  0.87350365  1
  Sr  Sr52  1  0.67006738  0.83424474  0.37998789  1
  Sr  Sr53  1  0.66791362  0.81882013  0.84490548  1
  Sr  Sr54  1  0.17784076  0.00041893  0.33195118  1
  Sr  Sr55  1  0.15345744  0.00237285  0.88242958  1
  Sr  Sr56  1  0.14890209  0.31146421  0.40683625  1
  Sr  Sr57  1  0.16374914  0.34483798  0.87661560  1
  Sr  Sr58  1  0.15096872  0.66695413  0.39119008  1
  Sr  Sr59  1  0.16530064  0.67165467  0.89069242  1
  Sr  Sr60  1  0.48677121  -0.00915570  0.41776776  1
  Sr  Sr61  1  0.51681815  -0.00441271  0.86253358  1
  Sr  Sr62  1  0.48702819  0.31965370  0.36631471  1
  Sr  Sr63  1  0.51134912  0.34465645  0.92032985  1
  Sr  Sr64  1  0.48925805  0.67160254  0.34267528  1
  Sr  Sr65  1  0.48442551  0.67352077  0.86489943  1
  Sr  Sr66  1  0.83304001  -0.01591483  0.36232698  1
  Sr  Sr67  1  0.83777767  0.02360172  0.91532639  1
  Sr  Sr68  1  0.82753965  0.33984963  0.37267701  1
  Sr  Sr69  1  0.82552541  0.32753371  0.82941310  1
  Sr  Sr70  1  0.79760055  0.65556551  0.41260582  1
  Sr  Sr71  1  0.83035144  0.67275862  0.86801997  1
  Ta  Ta72  1  0.22166054  0.16953956  0.00214215  1
  Ta  Ta73  1  0.16836512  0.11348822  0.49884388  1
  Ta  Ta74  1  0.20997425  0.50419036  0.00018040  1
  Ta  Ta75  1  0.22077742  0.49933606  0.50171686  1
  Ta  Ta76  1  0.12658322  0.83547292  0.00048077  1
  Ta  Ta77  1  0.16475863  0.88645922  0.50183412  1
  Ta  Ta78  1  0.43548262  0.16783797  0.00570226  1
  Ta  Ta79  1  0.54489485  0.16737355  0.49213204  1
  Ta  Ta80  1  0.50793960  0.53613362  0.00126123  1
  Ta  Ta81  1  0.49664793  0.52744896  0.49864282  1
  Ta  Ta82  1  0.53100076  0.82652898  -0.00342690  1
  Ta  Ta83  1  0.50174953  0.79770196  0.49914751  1
  Ta  Ta84  1  0.83412408  0.21031658  -0.00237074  1
  Ta  Ta85  1  0.78634081  0.17157429  0.49806529  1
  Ta  Ta86  1  0.84751412  0.46047051  -0.00308520  1
  Ta  Ta87  1  0.86989099  0.49843727  0.50020719  1
  Ta  Ta88  1  0.84586248  0.84065253  -0.00354012  1
  Ta  Ta89  1  0.85224170  0.81275625  0.49848550  1
  Ta  Ta90  1  0.13388264  0.18051871  0.24408698  1
  Ta  Ta91  1  0.19042826  0.18909040  0.74593835  1
  Ta  Ta92  1  0.19219305  0.49771429  0.25275819  1
  Ta  Ta93  1  0.15463560  0.51718196  0.75239481  1
  Ta  Ta94  1  0.18190542  0.81326535  0.24972962  1
  Ta  Ta95  1  0.20034968  0.82629008  0.75668211  1
  Ta  Ta96  1  0.49767451  0.11727796  0.25054223  1
  Ta  Ta97  1  0.48815082  0.21789054  0.75371340  1
  Ta  Ta98  1  0.55437851  0.49674206  0.24722673  1
  Ta  Ta99  1  0.53390353  0.49067635  0.75254067  1
  Ta  Ta100  1  0.50183406  0.87435469  0.24482802  1
  Ta  Ta101  1  0.45427283  0.83292975  0.75537077  1
  Ta  Ta102  1  0.87879393  0.16674759  0.24574924  1
  Ta  Ta103  1  0.83148238  0.12786513  0.74157002  1
  Ta  Ta104  1  0.82826733  0.53252878  0.25011294  1
  Ta  Ta105  1  0.89050373  0.50486312  0.75269692  1
  Ta  Ta106  1  0.83201535  0.77453028  0.25752318  1
  Ta  Ta107  1  0.83552084  0.88294638  0.74983765  1
  Ta  Ta108  1  -0.00107517  0.04714577  0.25103836  1
  Ta  Ta109  1  -0.04300839  0.00770726  0.74515039  1
  Ta  Ta110  1  0.00311368  0.28839131  0.25333756  1
  Ta  Ta111  1  0.00745327  0.38535257  0.75152106  1
  Ta  Ta112  1  -0.03966721  0.66679351  0.25080684  1
  Ta  Ta113  1  0.00920298  0.64246665  0.75206102  1
  Ta  Ta114  1  0.36956173  -0.01288227  0.24941973  1
  Ta  Ta115  1  0.32730412  -0.05555791  0.74907007  1
  Ta  Ta116  1  0.27483061  0.33784834  0.25422595  1
  Ta  Ta117  1  0.33800657  0.31003967  0.75062970  1
  Ta  Ta118  1  0.29497277  0.66246958  0.25228380  1
  Ta  Ta119  1  0.31289746  0.69322327  0.75204142  1
  Ta  Ta120  1  0.62373088  -0.00578701  0.24689053  1
  Ta  Ta121  1  0.71510048  0.00051709  0.74672516  1
  Ta  Ta122  1  0.65149332  0.36448140  0.24563915  1
  Ta  Ta123  1  0.62834834  0.34314677  0.75127295  1
  Ta  Ta124  1  0.67891158  0.64120172  0.24909977  1
  Ta  Ta125  1  0.64529859  0.63812431  0.75007094  1
  Ta  Ta126  1  -0.00547779  -0.05010268  0.00549783  1
  Ta  Ta127  1  0.04111951  0.00157933  0.49869035  1
  Ta  Ta128  1  -0.04903984  0.33323575  -0.00435341  1
  Ta  Ta129  1  -0.02422767  0.35574978  0.50020835  1
  Ta  Ta130  1  -0.00973167  0.72670689  -0.00401837  1
  Ta  Ta131  1  -0.03199553  0.67393809  0.50379993  1
  Ta  Ta132  1  0.32551251  0.02406047  0.00616957  1
  Ta  Ta133  1  0.29140492  -0.00421032  0.50842637  1
  Ta  Ta134  1  0.32071718  0.30633991  0.00993657  1
  Ta  Ta135  1  0.32375175  0.36553613  0.49220988  1
  Ta  Ta136  1  0.33682187  0.63309408  -0.00001627  1
  Ta  Ta137  1  0.34909589  0.63677883  0.49908328  1
  Ta  Ta138  1  0.67319793  -0.04556624  0.00173687  1
  Ta  Ta139  1  0.66760140  0.04892814  0.49397542  1
  Ta  Ta140  1  0.71233070  0.33046515  -0.00638853  1
  Ta  Ta141  1  0.66334790  0.29399495  0.50134759  1
  Ta  Ta142  1  0.63527631  0.67309565  -0.00314661  1
  Ta  Ta143  1  0.61628810  0.66604614  0.49745862  1
  N  N144  1  0.82647865  0.16441753  0.61974902  1
  N  N145  1  0.49204591  0.83683205  0.87393639  1
  N  N146  1  0.64807538  0.66363738  0.37525422  1
  N  N147  1  0.48132064  0.15690600  0.12029847  1
  N  N148  1  -0.00363125  -0.00036346  0.11948284  1
  N  N149  1  0.33068954  -0.00715368  0.12763218  1
  N  N150  1  0.16767623  0.16752713  0.12010301  1
  N  N151  1  0.83063850  0.82561139  0.37509941  1
  N  N152  1  0.32081640  0.32608665  0.13672215  1
  N  N153  1  0.16543223  0.83895137  0.87847574  1
  N  N154  1  0.66941296  0.33039622  0.87581382  1
  N  N155  1  0.50539442  0.15949285  0.37164255  1
  N  N156  1  0.32840675  0.66418082  0.62610378  1
  N  N157  1  0.50160056  0.83865040  0.12345628  1
  N  N158  1  0.83599879  0.84465834  0.87167292  1
  N  N159  1  0.85354524  0.50171475  0.87337501  1
  N  N160  1  0.66376315  0.66398135  0.12178634  1
  N  N161  1  -0.00217135  0.00826957  0.62757952  1
  N  N162  1  0.84202739  0.49744706  0.12657391  1
  N  N163  1  0.33078996  0.66022901  0.87986378  1
  N  N164  1  -0.00519693  0.67165268  0.62570408  1
  N  N165  1  0.32549267  0.66289624  0.37330145  1
  N  N166  1  0.32447103  0.32960600  0.37198433  1
  N  N167  1  0.84282290  0.50193333  0.37800182  1
  N  N168  1  0.32695111  -0.00935615  0.63091822  1
  N  N169  1  -0.00822607  0.32818826  0.37847305  1
  N  N170  1  0.18926474  0.50567351  0.62785213  1
  N  N171  1  0.65964071  0.32660501  0.62379290  1
  N  N172  1  0.18578877  0.50066360  0.87772842  1
  N  N173  1  0.66454279  -0.01027362  0.12070538  1
  N  N174  1  0.66826511  0.66045431  0.86849169  1
  N  N175  1  -0.00402469  0.68126519  0.87950931  1
  N  N176  1  0.00441659  0.00644554  0.36823003  1
  O  O177  1  0.51207306  0.52480289  0.12982041  1
  O  O178  1  0.16689857  0.82078583  0.12591534  1
  O  O179  1  0.18079589  0.16187528  0.62376697  1
  O  O180  1  0.17611994  0.50115253  0.12699397  1
  O  O181  1  0.48006447  0.19393005  0.87952734  1
  O  O182  1  0.83073409  0.17240099  0.36762622  1
  O  O183  1  0.48575361  0.81662635  0.62396755  1
  O  O184  1  0.65841562  0.33475817  0.37061939  1
  O  O185  1  0.19165085  0.17543180  0.87078173  1
  O  O186  1  0.83202252  0.81964404  0.13840557  1
  O  O187  1  0.68877582  0.00673253  0.61755013  1
  O  O188  1  0.84457720  0.51183314  0.63118292  1
  O  O189  1  0.68836936  -0.01010981  0.87749334  1
  O  O190  1  0.51509923  0.51275475  0.37280294  1
  O  O191  1  0.33474710  -0.01180759  0.37570479  1
  O  O192  1  0.51155937  0.50147344  0.88195266  1
  O  O193  1  0.16598949  0.84366050  0.62462121  1
  O  O194  1  0.17718717  0.50848056  0.37774584  1
  O  O195  1  -0.01884670  0.68027960  0.12257876  1
  O  O196  1  0.32740026  0.32906377  0.87330926  1
  O  O197  1  -0.01308057  0.33047337  0.13098970  1
  O  O198  1  0.32040575  -0.01657729  0.88147888  1
  O  O199  1  0.83930345  0.83895761  0.62452326  1
  O  O200  1  0.67435071  0.34647236  0.12100099  1
  O  O201  1  -0.00989987  -0.00404646  0.88203103  1
  O  O202  1  0.49960985  0.82652604  0.37365570  1
  O  O203  1  -0.00172589  0.34348035  0.87121363  1
  O  O204  1  0.50659624  0.50265818  0.62242033  1
  O  O205  1  0.33540910  0.66223471  0.13111946  1
  O  O206  1  0.50167610  0.19104647  0.62682767  1
  O  O207  1  0.65593018  0.65722267  0.62248585  1
  O  O208  1  0.16675876  0.15449215  0.37740257  1
  O  O209  1  -0.00777184  0.66211323  0.37137872  1
  O  O210  1  0.84228975  0.18439033  0.12457771  1
  O  O211  1  0.17447626  0.84295943  0.37387452  1
  O  O212  1  0.83107229  0.17643250  0.87080649  1
  O  O213  1  0.33225685  0.33439372  0.62352304  1
  O  O214  1  0.01180416  0.35859062  0.62675988  1
  O  O215  1  0.66379742  0.00645155  0.37254303  1
