# generated using pymatgen
data_Sr24Ta24N11O13
_symmetry_space_group_name_H-M   'P 1'
_cell_length_a   16.73798156
_cell_length_b   16.74713846
_cell_length_c   15.69833656
_cell_angle_alpha   90.37961212
_cell_angle_beta   89.67006806
_cell_angle_gamma   90.25037996
_symmetry_Int_Tables_number   1
_chemical_formula_structural   Sr24Ta24N11O13
_chemical_formula_sum   'Sr72 Ta72 N33 O39'
_cell_volume   4400.24161517
_cell_formula_units_Z   3
loop_
 _symmetry_equiv_pos_site_id
 _symmetry_equiv_pos_as_xyz
  1  'x, y, z'
loop_
 _atom_site_type_symbol
 _atom_site_label
 _atom_site_symmetry_multiplicity
 _atom_site_fract_x
 _atom_site_fract_y
 _atom_site_fract_z
 _atom_site_occupancy
  Sr  Sr0  1  0.01722278  0.15634117  0.08078398  1
  Sr  Sr1  1  -0.01053520  0.17090008  0.63744199  1
  Sr  Sr2  1  0.01024552  0.48672729  0.11874761  1
  Sr  Sr3  1  0.00121176  0.50262506  0.66508346  1
  Sr  Sr4  1  -0.00263953  0.83436594  0.12339620  1
  Sr  Sr5  1  -0.00248949  0.81353366  0.59085348  1
  Sr  Sr6  1  0.31603430  0.17824402  0.17012176  1
  Sr  Sr7  1  0.33529072  0.16444973  0.62148931  1
  Sr  Sr8  1  0.34083090  0.47406680  0.07479386  1
  Sr  Sr9  1  0.32985066  0.51083762  0.63686003  1
  Sr  Sr10  1  0.33409647  0.82862333  0.13577696  1
  Sr  Sr11  1  0.35345618  0.84400604  0.57843631  1
  Sr  Sr12  1  0.67977666  0.17126583  0.13737104  1
  Sr  Sr13  1  0.65993961  0.15714587  0.58863077  1
  Sr  Sr14  1  0.65343387  0.50377310  0.12193630  1
  Sr  Sr15  1  0.68211238  0.49492098  0.59850321  1
  Sr  Sr16  1  0.66399100  0.83675345  0.12061912  1
  Sr  Sr17  1  0.66499194  0.83623893  0.66784678  1
  Sr  Sr18  1  0.17555038  -0.00826616  0.11727606  1
  Sr  Sr19  1  0.16293138  0.02353326  0.67353048  1
  Sr  Sr20  1  0.16368612  0.32891598  0.13078003  1
  Sr  Sr21  1  0.17861806  0.32198482  0.57964055  1
  Sr  Sr22  1  0.14902414  0.65944288  0.17188588  1
  Sr  Sr23  1  0.16318366  0.68025308  0.61339728  1
  Sr  Sr24  1  0.51314296  -0.01430160  0.07833442  1
  Sr  Sr25  1  0.49327139  0.00810047  0.63028115  1
  Sr  Sr26  1  0.51937729  0.32563357  0.11292114  1
  Sr  Sr27  1  0.47763216  0.33700342  0.67112379  1
  Sr  Sr28  1  0.50971588  0.68711448  0.17679674  1
  Sr  Sr29  1  0.50355122  0.66404038  0.61854481  1
  Sr  Sr30  1  0.81792354  -0.00860948  0.17247142  1
  Sr  Sr31  1  0.83924438  -0.00139072  0.61855978  1
  Sr  Sr32  1  0.84077951  0.33146162  0.16124468  1
  Sr  Sr33  1  0.82422135  0.33504696  0.61565395  1
  Sr  Sr34  1  0.84018544  0.65874888  0.08884112  1
  Sr  Sr35  1  0.82882173  0.67190796  0.61402692  1
  Sr  Sr36  1  0.00114086  0.17898326  0.42224796  1
  Sr  Sr37  1  -0.00523329  0.15941390  0.86069381  1
  Sr  Sr38  1  0.01401327  0.48607852  0.33101913  1
  Sr  Sr39  1  -0.00207320  0.49921126  0.87916260  1
  Sr  Sr40  1  -0.00636295  0.83387898  0.37497775  1
  Sr  Sr41  1  0.01079363  0.82105896  0.89744845  1
  Sr  Sr42  1  0.32625363  0.17403635  0.37859486  1
  Sr  Sr43  1  0.34496703  0.14984389  0.82535799  1
  Sr  Sr44  1  0.31666109  0.49764239  0.41917223  1
  Sr  Sr45  1  0.34115221  0.51260662  0.85903170  1
  Sr  Sr46  1  0.33680228  0.82105664  0.36194685  1
  Sr  Sr47  1  0.33010621  0.85870022  0.92308909  1
  Sr  Sr48  1  0.67575798  0.16373740  0.36680760  1
  Sr  Sr49  1  0.64809582  0.17096438  0.91646544  1
  Sr  Sr50  1  0.66238694  0.50887347  0.38124380  1
  Sr  Sr51  1  0.66910520  0.49038674  0.89542012  1
  Sr  Sr52  1  0.66344429  0.83571859  0.34211462  1
  Sr  Sr53  1  0.65740180  0.84212420  0.87668679  1
  Sr  Sr54  1  0.18570147  0.00327960  0.33635329  1
  Sr  Sr55  1  0.15034221  -0.01264852  0.89594261  1
  Sr  Sr56  1  0.17192026  0.32672595  0.37138979  1
  Sr  Sr57  1  0.15040947  0.35012834  0.92426880  1
  Sr  Sr58  1  0.16255102  0.67740841  0.38361298  1
  Sr  Sr59  1  0.15830373  0.64834822  0.82185484  1
  Sr  Sr60  1  0.48670445  0.01603076  0.42095662  1
  Sr  Sr61  1  0.50471099  -0.00191671  0.87290638  1
  Sr  Sr62  1  0.49963447  0.31300776  0.32951915  1
  Sr  Sr63  1  0.50637997  0.34246781  0.89154955  1
  Sr  Sr64  1  0.50332574  0.65228810  0.38497952  1
  Sr  Sr65  1  0.49336616  0.67273111  0.83240535  1
  Sr  Sr66  1  0.84100229  -0.00487519  0.38295585  1
  Sr  Sr67  1  0.83191383  0.00793642  0.83446659  1
  Sr  Sr68  1  0.83133787  0.33628669  0.38356661  1
  Sr  Sr69  1  0.84858453  0.33576248  0.82789767  1
  Sr  Sr70  1  0.83579912  0.66359935  0.40499275  1
  Sr  Sr71  1  0.82398919  0.67874863  0.88718573  1
  Ta  Ta72  1  0.20687686  0.16636970  -0.00611584  1
  Ta  Ta73  1  0.16692974  0.12916981  0.50337797  1
  Ta  Ta74  1  0.17892346  0.56189634  -0.00332190  1
  Ta  Ta75  1  0.12538556  0.50074428  0.50086330  1
  Ta  Ta76  1  0.17575438  0.75978777  -0.00360338  1
  Ta  Ta77  1  0.17141942  0.87792081  0.49890861  1
  Ta  Ta78  1  0.45803238  0.16658982  -0.00267219  1
  Ta  Ta79  1  0.49545504  0.20808638  0.50663404  1
  Ta  Ta80  1  0.49948080  0.57556378  0.00058289  1
  Ta  Ta81  1  0.49764008  0.46056003  0.49876538  1
  Ta  Ta82  1  0.49749010  0.77864203  -0.00235358  1
  Ta  Ta83  1  0.53910158  0.83465967  0.50470252  1
  Ta  Ta84  1  0.83396241  0.16307359  -0.00894613  1
  Ta  Ta85  1  0.82866518  0.16434340  0.50628625  1
  Ta  Ta86  1  0.83738834  0.46313915  0.00020948  1
  Ta  Ta87  1  0.88603228  0.49792122  0.50028722  1
  Ta  Ta88  1  0.82760019  0.86359535  -0.00190105  1
  Ta  Ta89  1  0.79239281  0.83608580  0.49877735  1
  Ta  Ta90  1  0.11738474  0.16366829  0.25759354  1
  Ta  Ta91  1  0.16688056  0.21587354  0.74989191  1
  Ta  Ta92  1  0.21113550  0.49570816  0.24777416  1
  Ta  Ta93  1  0.17065657  0.44638714  0.74880881  1
  Ta  Ta94  1  0.15766773  0.83577100  0.25044322  1
  Ta  Ta95  1  0.18152294  0.83746157  0.75603561  1
  Ta  Ta96  1  0.49992573  0.12025711  0.24350463  1
  Ta  Ta97  1  0.53987086  0.17073600  0.75108291  1
  Ta  Ta98  1  0.46072149  0.49835724  0.24642368  1
  Ta  Ta99  1  0.54109285  0.50341803  0.75116082  1
  Ta  Ta100  1  0.49732797  0.88945193  0.25479569  1
  Ta  Ta101  1  0.46501098  0.84165354  0.75154125  1
  Ta  Ta102  1  0.89463318  0.16295751  0.25207896  1
  Ta  Ta103  1  0.77643923  0.17272104  0.75089919  1
  Ta  Ta104  1  0.82502568  0.52315452  0.25107280  1
  Ta  Ta105  1  0.81844080  0.52691837  0.75206233  1
  Ta  Ta106  1  0.83310808  0.79443622  0.25307337  1
  Ta  Ta107  1  0.86219545  0.82972996  0.74408559  1
  Ta  Ta108  1  0.00441802  0.02724429  0.25342169  1
  Ta  Ta109  1  -0.00234888  -0.04946233  0.74978693  1
  Ta  Ta110  1  0.00423991  0.29382308  0.25128382  1
  Ta  Ta111  1  0.04121307  0.33290969  0.74946225  1
  Ta  Ta112  1  -0.03807778  0.66538942  0.25118376  1
  Ta  Ta113  1  -0.02843225  0.68140870  0.75015385  1
  Ta  Ta114  1  0.37636657  0.00248900  0.24296945  1
  Ta  Ta115  1  0.32789281  -0.04969836  0.74712606  1
  Ta  Ta116  1  0.33391909  0.37885360  0.25145143  1
  Ta  Ta117  1  0.28900892  0.33400612  0.75550619  1
  Ta  Ta118  1  0.33334357  0.61353254  0.25108643  1
  Ta  Ta119  1  0.32635126  0.74220634  0.75103255  1
  Ta  Ta120  1  0.62266634  0.00378465  0.25620787  1
  Ta  Ta121  1  0.66126163  0.03393223  0.75035964  1
  Ta  Ta122  1  0.67543187  0.35396822  0.24637480  1
  Ta  Ta123  1  0.65923012  0.31566183  0.74931712  1
  Ta  Ta124  1  0.70874988  0.66221487  0.25363594  1
  Ta  Ta125  1  0.67415497  0.63510822  0.74385850  1
  Ta  Ta126  1  -0.06929931  -0.00632207  -0.00038826  1
  Ta  Ta127  1  0.04466640  -0.00325770  0.49714544  1
  Ta  Ta128  1  -0.04775262  0.32618088  -0.00271080  1
  Ta  Ta129  1  -0.00163564  0.36951413  0.50425363  1
  Ta  Ta130  1  0.03273737  0.65539633  0.00093789  1
  Ta  Ta131  1  0.00423613  0.61919468  0.49785817  1
  Ta  Ta132  1  0.33245223  0.05184395  0.00322833  1
  Ta  Ta133  1  0.28854295  0.00633109  0.50543885  1
  Ta  Ta134  1  0.33193332  0.27913811  -0.00468551  1
  Ta  Ta135  1  0.37933719  0.33442981  0.49677273  1
  Ta  Ta136  1  0.33639054  0.66870183  -0.00004159  1
  Ta  Ta137  1  0.33522135  0.66871061  0.49903906  1
  Ta  Ta138  1  0.72186310  0.00365857  -0.00416975  1
  Ta  Ta139  1  0.66836982  -0.03201955  0.50253142  1
  Ta  Ta140  1  0.72958637  0.33082093  -0.00262980  1
  Ta  Ta141  1  0.61362069  0.33084277  0.50453827  1
  Ta  Ta142  1  0.63645956  0.67215351  -0.00076645  1
  Ta  Ta143  1  0.66365870  0.70630491  0.49875324  1
  N  N144  1  0.67301474  0.00303533  0.88371849  1
  N  N145  1  0.16910759  0.83780411  0.37236161  1
  N  N146  1  0.33630558  0.00875702  0.12218632  1
  N  N147  1  0.00152432  0.65617180  0.37017500  1
  N  N148  1  0.82848508  0.17315635  0.62855279  1
  N  N149  1  0.65628942  0.33595126  0.62245379  1
  N  N150  1  0.65799047  0.00541314  0.37762929  1
  N  N151  1  0.00096162  0.32690490  0.87655047  1
  N  N152  1  0.83216535  0.83439742  0.62212419  1
  N  N153  1  -0.00515081  0.65825006  0.12437550  1
  N  N154  1  0.00971240  0.00145689  0.37655373  1
  N  N155  1  0.33433871  0.65643354  0.37691199  1
  N  N156  1  0.49468981  0.82643851  0.88532766  1
  N  N157  1  0.00181742  0.65965485  0.62880882  1
  N  N158  1  -0.00268155  0.65913622  0.87268196  1
  N  N159  1  0.00216302  0.33205458  0.37198187  1
  N  N160  1  0.67940691  0.33454466  0.88555866  1
  N  N161  1  0.82913192  0.16860524  0.86367543  1
  N  N162  1  0.66599081  0.66622748  0.62283506  1
  N  N163  1  0.67801332  0.33294191  0.12464875  1
  N  N164  1  0.16444490  0.17307124  0.62915022  1
  N  N165  1  0.49504071  0.17528259  0.63052541  1
  N  N166  1  0.00269222  0.33122481  0.62317380  1
  N  N167  1  0.82957886  0.83390026  0.37106808  1
  N  N168  1  0.50761589  0.83595673  0.62535909  1
  N  N169  1  0.66611659  -0.00300838  0.62986263  1
  N  N170  1  0.17052042  0.81194364  0.88166996  1
  N  N171  1  0.00096108  0.32134829  0.11159966  1
  N  N172  1  0.66633069  0.66775486  0.37055944  1
  N  N173  1  0.34049931  0.33740172  0.37263772  1
  N  N174  1  0.15871498  0.16509554  0.37611327  1
  N  N175  1  0.32474102  -0.00229700  0.63305192  1
  N  N176  1  0.49386636  0.17026420  0.87251855  1
  O  O177  1  0.84340958  0.50168113  0.37447229  1
  O  O178  1  0.16838666  0.49299843  0.37823491  1
  O  O179  1  0.48660696  0.48417624  0.37457798  1
  O  O180  1  0.33227449  0.32290024  0.87524331  1
  O  O181  1  0.84788846  0.16368101  0.37262578  1
  O  O182  1  0.01264590  -0.02913863  0.62694855  1
  O  O183  1  0.65160414  0.34019870  0.37338632  1
  O  O184  1  0.33111691  0.33647153  0.61917941  1
  O  O185  1  0.49922971  0.83265623  0.11971764  1
  O  O186  1  0.82903062  0.51523636  0.87951015  1
  O  O187  1  0.51903348  0.48680172  0.62867465  1
  O  O188  1  0.32869545  0.00193051  0.87003893  1
  O  O189  1  0.33446006  0.01187762  0.38189196  1
  O  O190  1  0.50415553  0.16705162  0.12446560  1
  O  O191  1  0.48350094  0.53089512  0.12025597  1
  O  O192  1  0.19332926  0.51850430  0.11445108  1
  O  O193  1  0.66096274  0.67164047  0.87106117  1
  O  O194  1  0.16555144  0.16914727  0.12212209  1
  O  O195  1  0.16238308  0.83547100  0.61778106  1
  O  O196  1  0.83028807  0.50433861  0.12441040  1
  O  O197  1  0.32462945  0.69774641  0.62694297  1
  O  O198  1  0.17493055  0.80552694  0.12128770  1
  O  O199  1  0.51345633  0.52320388  0.87633077  1
  O  O200  1  0.33546889  0.68754844  0.86739218  1
  O  O201  1  0.49640859  0.85934137  0.38156031  1
  O  O202  1  0.33710459  0.65709147  0.12845907  1
  O  O203  1  -0.01397416  -0.02271882  0.87636457  1
  O  O204  1  0.18008055  0.50511129  0.87806196  1
  O  O205  1  0.67203391  -0.00170972  0.11916904  1
  O  O206  1  0.82618695  0.83758315  0.12699578  1
  O  O207  1  0.66246142  0.67146882  0.12830557  1
  O  O208  1  0.84188509  0.50751787  0.62824588  1
  O  O209  1  -0.02961018  0.00215253  0.12043602  1
  O  O210  1  0.16571254  0.48049384  0.62301503  1
  O  O211  1  0.82308650  0.83833474  0.87026342  1
  O  O212  1  0.85187684  0.16417083  0.13338421  1
  O  O213  1  0.49412510  0.16284861  0.36960200  1
  O  O214  1  0.32688090  0.32794042  0.12899702  1
  O  O215  1  0.16288449  0.17168608  0.87531638  1
