# generated using pymatgen
data_Sr24Ta24N11O13
_symmetry_space_group_name_H-M   'P 1'
_cell_length_a   16.76118793
_cell_length_b   16.87641070
_cell_length_c   15.61380815
_cell_angle_alpha   89.61593899
_cell_angle_beta   89.96764875
_cell_angle_gamma   90.24471439
_symmetry_Int_Tables_number   1
_chemical_formula_structural   Sr24Ta24N11O13
_chemical_formula_sum   'Sr72 Ta72 N33 O39'
_cell_volume   4416.51719522
_cell_formula_units_Z   3
loop_
 _symmetry_equiv_pos_site_id
 _symmetry_equiv_pos_as_xyz
  1  'x, y, z'
loop_
 _atom_site_type_symbol
 _atom_site_label
 _atom_site_symmetry_multiplicity
 _atom_site_fract_x
 _atom_site_fract_y
 _atom_site_fract_z
 _atom_site_occupancy
  Sr  Sr0  1  -0.00953066  0.16128873  0.10464356  1
  Sr  Sr1  1  0.00045665  0.18989464  0.62223015  1
  Sr  Sr2  1  -0.01350726  0.55093167  0.06560398  1
  Sr  Sr3  1  -0.00112513  0.49842741  0.62684513  1
  Sr  Sr4  1  0.00615755  0.83098655  0.16993854  1
  Sr  Sr5  1  0.00422760  0.86103517  0.61240901  1
  Sr  Sr6  1  0.32362527  0.15078321  0.16443281  1
  Sr  Sr7  1  0.32281695  0.18295257  0.60984580  1
  Sr  Sr8  1  0.32147042  0.50275732  0.13769595  1
  Sr  Sr9  1  0.34337458  0.50823036  0.58618352  1
  Sr  Sr10  1  0.32175536  0.84878561  0.07597380  1
  Sr  Sr11  1  0.35053707  0.84305592  0.64654316  1
  Sr  Sr12  1  0.64665652  0.16786968  0.14005508  1
  Sr  Sr13  1  0.67535492  0.17372597  0.62466916  1
  Sr  Sr14  1  0.66489568  0.50116763  0.12138351  1
  Sr  Sr15  1  0.65104746  0.51901870  0.67415664  1
  Sr  Sr16  1  0.64943195  0.84276902  0.12728214  1
  Sr  Sr17  1  0.67834232  0.82663437  0.58691831  1
  Sr  Sr18  1  0.16538279  -0.00955892  0.11329348  1
  Sr  Sr19  1  0.18089612  -0.01018643  0.61060154  1
  Sr  Sr20  1  0.15654803  0.30088142  0.12417239  1
  Sr  Sr21  1  0.15982491  0.32572337  0.66337351  1
  Sr  Sr22  1  0.17893999  0.67455904  0.13074466  1
  Sr  Sr23  1  0.16770543  0.63180014  0.60249750  1
  Sr  Sr24  1  0.49728866  0.00793163  0.11617993  1
  Sr  Sr25  1  0.50834419  0.00055317  0.67036865  1
  Sr  Sr26  1  0.50617111  0.34492048  0.07874217  1
  Sr  Sr27  1  0.51119054  0.32841181  0.64006458  1
  Sr  Sr28  1  0.49950442  0.64464408  0.17783472  1
  Sr  Sr29  1  0.49898567  0.68405530  0.61703966  1
  Sr  Sr30  1  0.85268147  -0.01650018  0.11716561  1
  Sr  Sr31  1  0.83548330  -0.01345051  0.61550552  1
  Sr  Sr32  1  0.82624149  0.29945115  0.16225941  1
  Sr  Sr33  1  0.83760012  0.31729116  0.59558275  1
  Sr  Sr34  1  0.81307737  0.66731362  0.10225447  1
  Sr  Sr35  1  0.84346166  0.64746243  0.65473351  1
  Sr  Sr36  1  -0.00842626  0.21510338  0.34141404  1
  Sr  Sr37  1  0.00657422  0.16676524  0.89203894  1
  Sr  Sr38  1  -0.02084409  0.50082755  0.40696972  1
  Sr  Sr39  1  -0.00078645  0.50615990  0.86372232  1
  Sr  Sr40  1  0.01228047  0.83308375  0.37549488  1
  Sr  Sr41  1  -0.00576717  0.83780490  0.82075869  1
  Sr  Sr42  1  0.32388002  0.16430011  0.37914245  1
  Sr  Sr43  1  0.31733700  0.20511195  0.83585530  1
  Sr  Sr44  1  0.34219891  0.52627964  0.36529221  1
  Sr  Sr45  1  0.32225627  0.49956589  0.91651803  1
  Sr  Sr46  1  0.33481112  0.85359517  0.41402937  1
  Sr  Sr47  1  0.33894404  0.82698724  0.86276565  1
  Sr  Sr48  1  0.66952482  0.18397756  0.38495164  1
  Sr  Sr49  1  0.65061794  0.16587571  0.85970137  1
  Sr  Sr50  1  0.67456799  0.51331540  0.33498216  1
  Sr  Sr51  1  0.66970115  0.50959171  0.88776502  1
  Sr  Sr52  1  0.65125392  0.83938918  0.37601970  1
  Sr  Sr53  1  0.69126660  0.83716649  0.92181827  1
  Sr  Sr54  1  0.17802981  -0.00252123  0.39118441  1
  Sr  Sr55  1  0.16940237  -0.02764984  0.86051599  1
  Sr  Sr56  1  0.17243517  0.33108963  0.32516647  1
  Sr  Sr57  1  0.15201963  0.32521042  0.87512445  1
  Sr  Sr58  1  0.16821766  0.65126183  0.36260836  1
  Sr  Sr59  1  0.18359208  0.64941427  0.91768319  1
  Sr  Sr60  1  0.50616108  0.02791281  0.33187991  1
  Sr  Sr61  1  0.51250643  -0.00479802  0.89166563  1
  Sr  Sr62  1  0.47327594  0.32653553  0.42843972  1
  Sr  Sr63  1  0.50406438  0.33632212  0.86864944  1
  Sr  Sr64  1  0.50031441  0.68740881  0.39348851  1
  Sr  Sr65  1  0.49439941  0.66537686  0.83464901  1
  Sr  Sr66  1  0.83970371  -0.04177771  0.39779726  1
  Sr  Sr67  1  0.84828787  -0.00556967  0.87353680  1
  Sr  Sr68  1  0.82522541  0.34194051  0.37361114  1
  Sr  Sr69  1  0.84083315  0.29666407  0.88330049  1
  Sr  Sr70  1  0.83814735  0.65135370  0.36289671  1
  Sr  Sr71  1  0.83701882  0.65720415  0.88014728  1
  Ta  Ta72  1  0.20599659  0.15369343  -0.00375386  1
  Ta  Ta73  1  0.14745586  0.19004775  0.49026939  1
  Ta  Ta74  1  0.14564280  0.46351965  0.01433647  1
  Ta  Ta75  1  0.16304823  0.46647481  0.48972656  1
  Ta  Ta76  1  0.13273304  0.82897002  -0.00559856  1
  Ta  Ta77  1  0.16784874  0.79800584  0.50761056  1
  Ta  Ta78  1  0.44572445  0.17196210  -0.00004179  1
  Ta  Ta79  1  0.50451415  0.12975256  0.50600043  1
  Ta  Ta80  1  0.49439968  0.53596031  0.00755745  1
  Ta  Ta81  1  0.54549368  0.50623597  0.49900113  1
  Ta  Ta82  1  0.50006341  0.79548700  -0.00223923  1
  Ta  Ta83  1  0.50451251  0.89008588  0.50814862  1
  Ta  Ta84  1  0.80100009  0.15214630  0.01032545  1
  Ta  Ta85  1  0.85242209  0.14250471  0.48139398  1
  Ta  Ta86  1  0.83208102  0.44559313  0.01194174  1
  Ta  Ta87  1  0.78649421  0.50367994  0.50714898  1
  Ta  Ta88  1  0.88006525  0.83045658  -0.00371970  1
  Ta  Ta89  1  0.85269199  0.78012571  0.50726838  1
  Ta  Ta90  1  0.13920737  0.13096649  0.24863185  1
  Ta  Ta91  1  0.15586742  0.13491513  0.74027551  1
  Ta  Ta92  1  0.11768005  0.50222294  0.22932545  1
  Ta  Ta93  1  0.18280983  0.50716710  0.76187029  1
  Ta  Ta94  1  0.20356534  0.84003590  0.24905060  1
  Ta  Ta95  1  0.17406442  0.77556476  0.75207752  1
  Ta  Ta96  1  0.49084272  0.22491356  0.24619721  1
  Ta  Ta97  1  0.47539844  0.15854943  0.75863831  1
  Ta  Ta98  1  0.49529976  0.44628951  0.25155393  1
  Ta  Ta99  1  0.45632181  0.49823954  0.75043328  1
  Ta  Ta100  1  0.46542429  0.84380964  0.24838338  1
  Ta  Ta101  1  0.55905138  0.83621459  0.75266965  1
  Ta  Ta102  1  0.83463171  0.11769686  0.26380346  1
  Ta  Ta103  1  0.85097801  0.15203680  0.73823204  1
  Ta  Ta104  1  0.86695039  0.49801561  0.22535436  1
  Ta  Ta105  1  0.83217546  0.45500741  0.75419530  1
  Ta  Ta106  1  0.81068482  0.82205936  0.24388896  1
  Ta  Ta107  1  0.80131844  0.82988257  0.75016223  1
  Ta  Ta108  1  0.00125478  0.02527112  0.25879105  1
  Ta  Ta109  1  0.00599500  0.03234339  0.73625576  1
  Ta  Ta110  1  -0.00561594  0.39516269  0.22004269  1
  Ta  Ta111  1  -0.02541682  0.33794206  0.75826839  1
  Ta  Ta112  1  -0.00189867  0.62693602  0.24435145  1
  Ta  Ta113  1  0.04694478  0.66418058  0.75956452  1
  Ta  Ta114  1  0.33257431  -0.04213143  0.24733408  1
  Ta  Ta115  1  0.33505805  0.03673168  0.75436310  1
  Ta  Ta116  1  0.36737576  0.33463309  0.24857514  1
  Ta  Ta117  1  0.33078282  0.38621765  0.75289538  1
  Ta  Ta118  1  0.33843715  0.73153713  0.25520347  1
  Ta  Ta119  1  0.31292618  0.63898633  0.75159645  1
  Ta  Ta120  1  0.70115416  -0.00264792  0.25433846  1
  Ta  Ta121  1  0.68220194  -0.03324509  0.75449334  1
  Ta  Ta122  1  0.62319025  0.33637846  0.25383468  1
  Ta  Ta123  1  0.69831265  0.34203766  0.74987087  1
  Ta  Ta124  1  0.67851839  0.69350841  0.24853339  1
  Ta  Ta125  1  0.67046413  0.70732891  0.75848876  1
  Ta  Ta126  1  0.00849157  -0.05740859  -0.00641043  1
  Ta  Ta127  1  0.00202656  0.05143795  0.48621427  1
  Ta  Ta128  1  -0.01122789  0.35916870  0.01702143  1
  Ta  Ta129  1  0.05373796  0.33851684  0.49292691  1
  Ta  Ta130  1  0.00826102  0.72530988  -0.00799591  1
  Ta  Ta131  1  0.00140280  0.68203404  0.50428993  1
  Ta  Ta132  1  0.33163499  0.04259689  -0.01756176  1
  Ta  Ta133  1  0.38433299  0.01313670  0.51011457  1
  Ta  Ta134  1  0.31993405  0.31067276  -0.00004252  1
  Ta  Ta135  1  0.26757716  0.34120518  0.49661616  1
  Ta  Ta136  1  0.38302942  0.67212631  0.00196268  1
  Ta  Ta137  1  0.31711608  0.69300543  0.50482454  1
  Ta  Ta138  1  0.69011712  0.02594855  0.00054525  1
  Ta  Ta139  1  0.62669084  0.01092144  0.50448585  1
  Ta  Ta140  1  0.69532761  0.32246540  0.00821363  1
  Ta  Ta141  1  0.66390341  0.38595048  0.50515566  1
  Ta  Ta142  1  0.61419197  0.67018352  0.00078144  1
  Ta  Ta143  1  0.68160541  0.63852396  0.50997546  1
  N  N144  1  0.16667926  0.52669195  0.11288936  1
  N  N145  1  0.32853532  0.34932946  0.87900067  1
  N  N146  1  0.34052233  0.00824353  0.63493991  1
  N  N147  1  0.83449707  0.82717752  0.12367266  1
  N  N148  1  0.16624104  0.14885635  0.11842659  1
  N  N149  1  0.17681777  0.81733199  0.86737035  1
  N  N150  1  0.66311922  0.32952789  0.12753532  1
  N  N151  1  0.66430667  0.66855794  0.88537560  1
  N  N152  1  0.84229639  0.81750015  0.62381455  1
  N  N153  1  0.16940053  0.16736624  0.36439650  1
  N  N154  1  0.82829934  0.18832124  0.36211367  1
  N  N155  1  0.51713216  0.84630615  0.62753321  1
  N  N156  1  0.84222271  0.82528351  0.86825099  1
  N  N157  1  -0.00653797  0.33334917  0.88002780  1
  N  N158  1  0.16877200  0.83261219  0.12854615  1
  N  N159  1  0.67021339  0.66790916  0.63053084  1
  N  N160  1  0.00701110  0.66802047  0.87870781  1
  N  N161  1  0.48304805  0.18070771  0.12757611  1
  N  N162  1  -0.00508563  0.30946227  0.13159171  1
  N  N163  1  0.49412107  0.49584171  0.12740534  1
  N  N164  1  0.34060807  0.68560633  0.37402286  1
  N  N165  1  0.65508268  0.67164887  0.13017926  1
  N  N166  1  0.83305607  0.15730071  0.61311299  1
  N  N167  1  0.16712640  0.16223807  0.62068183  1
  N  N168  1  0.15989631  0.49158210  0.88314760  1
  N  N169  1  0.00633444  0.01754570  0.60506529  1
  N  N170  1  0.82186789  0.51436490  0.11041532  1
  N  N171  1  0.82720809  0.14955208  0.13400723  1
  N  N172  1  0.33913839  0.66591708  0.62930161  1
  N  N173  1  0.67577629  -0.00211855  0.87781427  1
  N  N174  1  0.34303373  0.66576688  0.88140589  1
  N  N175  1  0.49281719  0.17831580  0.87880526  1
  N  N176  1  0.66796022  0.34273378  0.62933805  1
  O  O177  1  0.68938291  -0.00784910  0.12838854  1
  O  O178  1  0.30568337  0.35320179  0.62150153  1
  O  O179  1  0.01165940  0.68400621  0.12869209  1
  O  O180  1  0.66997460  0.32489560  0.87674092  1
  O  O181  1  0.33737973  -0.00164750  0.12168606  1
  O  O182  1  0.33944999  0.69212934  0.12595679  1
  O  O183  1  0.15340740  0.49030623  0.35952003  1
  O  O184  1  0.16412440  0.82924989  0.62993405  1
  O  O185  1  0.66403797  0.34507789  0.37826364  1
  O  O186  1  0.00535244  -0.01602711  0.13171864  1
  O  O187  1  0.50003436  0.48337424  0.38237879  1
  O  O188  1  0.66710137  0.67224701  0.37773649  1
  O  O189  1  0.82592077  0.49869456  0.37649293  1
  O  O190  1  0.16227217  0.16163613  0.87374198  1
  O  O191  1  0.66749077  0.00428341  0.62788255  1
  O  O192  1  0.32776865  -0.02212815  0.87328366  1
  O  O193  1  0.49823507  0.50400790  0.62533602  1
  O  O194  1  0.01171010  0.35817879  0.36975535  1
  O  O195  1  0.00829313  0.65731735  0.62943758  1
  O  O196  1  0.31960415  0.32919396  0.37738137  1
  O  O197  1  0.49860608  0.17688519  0.38262642  1
  O  O198  1  0.48648114  0.84280330  0.11847093  1
  O  O199  1  0.51074127  0.83622073  0.87398505  1
  O  O200  1  0.16075131  0.48467100  0.62523618  1
  O  O201  1  0.48062244  0.50822735  0.87535552  1
  O  O202  1  0.00214519  0.65819907  0.37507992  1
  O  O203  1  0.50251403  0.17022156  0.63007523  1
  O  O204  1  0.16769372  0.81731561  0.37910740  1
  O  O205  1  0.83710316  0.80796630  0.37942860  1
  O  O206  1  0.82865415  0.14815707  0.86946837  1
  O  O207  1  0.32804542  0.33973569  0.12580541  1
  O  O208  1  0.00218850  -0.02120109  0.37818700  1
  O  O209  1  0.66620445  -0.00030601  0.37736058  1
  O  O210  1  0.01115711  0.34505613  0.62132056  1
  O  O211  1  0.82937163  0.47387610  0.88050888  1
  O  O212  1  0.00871752  -0.01261951  0.86959527  1
  O  O213  1  0.83340936  0.48586745  0.62491542  1
  O  O214  1  0.34885127  0.00471637  0.36698069  1
  O  O215  1  0.49313089  0.85405738  0.37481447  1
