# generated using pymatgen
data_Sr24Ta24N11O13
_symmetry_space_group_name_H-M   'P 1'
_cell_length_a   16.69498687
_cell_length_b   16.85876029
_cell_length_c   15.68275207
_cell_angle_alpha   89.58376931
_cell_angle_beta   89.71740454
_cell_angle_gamma   89.73381394
_symmetry_Int_Tables_number   1
_chemical_formula_structural   Sr24Ta24N11O13
_chemical_formula_sum   'Sr72 Ta72 N33 O39'
_cell_volume   4413.79986002
_cell_formula_units_Z   3
loop_
 _symmetry_equiv_pos_site_id
 _symmetry_equiv_pos_as_xyz
  1  'x, y, z'
loop_
 _atom_site_type_symbol
 _atom_site_label
 _atom_site_symmetry_multiplicity
 _atom_site_fract_x
 _atom_site_fract_y
 _atom_site_fract_z
 _atom_site_occupancy
  Sr  Sr0  1  0.03508755  0.17611026  0.07884569  1
  Sr  Sr1  1  -0.00539905  0.16645953  0.63234328  1
  Sr  Sr2  1  0.00364574  0.49279756  0.13501411  1
  Sr  Sr3  1  -0.00476636  0.52035537  0.58829559  1
  Sr  Sr4  1  -0.00905915  0.84292100  0.11517444  1
  Sr  Sr5  1  -0.00299769  0.82937108  0.65622749  1
  Sr  Sr6  1  0.33400541  0.16593136  0.16826182  1
  Sr  Sr7  1  0.33848051  0.18074546  0.63129431  1
  Sr  Sr8  1  0.33627042  0.51968714  0.12299999  1
  Sr  Sr9  1  0.32794982  0.51106186  0.60813494  1
  Sr  Sr10  1  0.34386373  0.84635465  0.08293270  1
  Sr  Sr11  1  0.32476731  0.82688287  0.63274438  1
  Sr  Sr12  1  0.69545672  0.17290233  0.12683684  1
  Sr  Sr13  1  0.65872978  0.18307377  0.57317949  1
  Sr  Sr14  1  0.66527470  0.52343522  0.11301943  1
  Sr  Sr15  1  0.66229439  0.48941066  0.66894596  1
  Sr  Sr16  1  0.64814172  0.84538000  0.16749463  1
  Sr  Sr17  1  0.67437345  0.83396977  0.60980266  1
  Sr  Sr18  1  0.17173827  -0.00340786  0.13004228  1
  Sr  Sr19  1  0.16533438  0.00839669  0.58231356  1
  Sr  Sr20  1  0.16993944  0.34091428  0.11724734  1
  Sr  Sr21  1  0.16468234  0.30897769  0.67008236  1
  Sr  Sr22  1  0.15289262  0.67199899  0.17122025  1
  Sr  Sr23  1  0.16865122  0.66458376  0.61756851  1
  Sr  Sr24  1  0.49653787  0.00018886  0.12231952  1
  Sr  Sr25  1  0.50208183  -0.02716964  0.63136799  1
  Sr  Sr26  1  0.50147797  0.30140428  0.11127972  1
  Sr  Sr27  1  0.49329773  0.33395231  0.62366930  1
  Sr  Sr28  1  0.49734801  0.66608442  0.12027306  1
  Sr  Sr29  1  0.51297509  0.64208119  0.64529096  1
  Sr  Sr30  1  0.82246504  -0.00237309  0.12631841  1
  Sr  Sr31  1  0.84618027  -0.01996726  0.66095322  1
  Sr  Sr32  1  0.82058293  0.34396540  0.16728363  1
  Sr  Sr33  1  0.83559557  0.32494575  0.61354224  1
  Sr  Sr34  1  0.84625605  0.65833753  0.08500611  1
  Sr  Sr35  1  0.82280523  0.66259287  0.61336637  1
  Sr  Sr36  1  0.00858521  0.15836826  0.41450771  1
  Sr  Sr37  1  0.00227371  0.18807831  0.85341471  1
  Sr  Sr38  1  -0.00026913  0.50912112  0.37310087  1
  Sr  Sr39  1  -0.00004823  0.50921146  0.90205177  1
  Sr  Sr40  1  0.01332561  0.84534572  0.33317099  1
  Sr  Sr41  1  -0.01173330  0.83438464  0.88140849  1
  Sr  Sr42  1  0.32653424  0.17716547  0.36635488  1
  Sr  Sr43  1  0.33853619  0.18280385  0.83443016  1
  Sr  Sr44  1  0.34487909  0.51241195  0.37977335  1
  Sr  Sr45  1  0.32175819  0.50437429  0.89987594  1
  Sr  Sr46  1  0.32455717  0.84121149  0.42272930  1
  Sr  Sr47  1  0.33253267  0.83221410  0.86880019  1
  Sr  Sr48  1  0.70633751  0.18792501  0.36635671  1
  Sr  Sr49  1  0.64891681  0.16008660  0.92309786  1
  Sr  Sr50  1  0.66186183  0.50165661  0.33877540  1
  Sr  Sr51  1  0.65831155  0.50971945  0.87845002  1
  Sr  Sr52  1  0.67150527  0.82748720  0.38331653  1
  Sr  Sr53  1  0.66305509  0.86439448  0.83286102  1
  Sr  Sr54  1  0.16893759  0.00480285  0.37209858  1
  Sr  Sr55  1  0.16134194  -0.01160811  0.91858953  1
  Sr  Sr56  1  0.16931532  0.32946017  0.34233833  1
  Sr  Sr57  1  0.15203964  0.34529683  0.89670056  1
  Sr  Sr58  1  0.17423594  0.66215510  0.38912739  1
  Sr  Sr59  1  0.16526587  0.67951092  0.83131620  1
  Sr  Sr60  1  0.51265143  -0.02698979  0.39026057  1
  Sr  Sr61  1  0.48889903  -0.00396972  0.86351918  1
  Sr  Sr62  1  0.48277269  0.32145793  0.40175619  1
  Sr  Sr63  1  0.50366631  0.32151380  0.86819111  1
  Sr  Sr64  1  0.51253743  0.64992955  0.33447511  1
  Sr  Sr65  1  0.49374086  0.64750764  0.90521684  1
  Sr  Sr66  1  0.83596249  -0.01990325  0.33937278  1
  Sr  Sr67  1  0.82731717  -0.00046949  0.87224705  1
  Sr  Sr68  1  0.85458812  0.34601247  0.38461838  1
  Sr  Sr69  1  0.82496044  0.33054964  0.84342551  1
  Sr  Sr70  1  0.83045793  0.66878717  0.40673186  1
  Sr  Sr71  1  0.82798592  0.65184006  0.88600061  1
  Ta  Ta72  1  0.22522365  0.16712388  0.00275163  1
  Ta  Ta73  1  0.17788588  0.19749646  0.50199504  1
  Ta  Ta74  1  0.16181479  0.54797487  0.00264184  1
  Ta  Ta75  1  0.16483431  0.45598972  0.50774044  1
  Ta  Ta76  1  0.16267348  0.79858378  -0.00135845  1
  Ta  Ta77  1  0.12912524  0.83466329  0.50130519  1
  Ta  Ta78  1  0.44460036  0.15787307  -0.00493827  1
  Ta  Ta79  1  0.48146608  0.13637261  0.49726229  1
  Ta  Ta80  1  0.50071646  0.46201196  0.00850935  1
  Ta  Ta81  1  0.52484753  0.50770619  0.50493790  1
  Ta  Ta82  1  0.53856756  0.83693795  -0.00285005  1
  Ta  Ta83  1  0.50442704  0.77677862  0.49481188  1
  Ta  Ta84  1  0.85199908  0.17963332  -0.00510835  1
  Ta  Ta85  1  0.83791161  0.10903565  0.50205925  1
  Ta  Ta86  1  0.82588216  0.45923283  0.00471550  1
  Ta  Ta87  1  0.78346860  0.49798168  0.49537745  1
  Ta  Ta88  1  0.79215886  0.83928890  -0.00381442  1
  Ta  Ta89  1  0.86065293  0.84879296  0.49861569  1
  Ta  Ta90  1  0.13566880  0.16469543  0.24928842  1
  Ta  Ta91  1  0.16772277  0.12024587  0.75065969  1
  Ta  Ta92  1  0.18478753  0.49544044  0.25073653  1
  Ta  Ta93  1  0.15644017  0.49020570  0.75002033  1
  Ta  Ta94  1  0.21598138  0.83859495  0.25615840  1
  Ta  Ta95  1  0.16488294  0.87703078  0.74888038  1
  Ta  Ta96  1  0.53273879  0.16141410  0.25390844  1
  Ta  Ta97  1  0.54294448  0.16155775  0.74543737  1
  Ta  Ta98  1  0.49781840  0.45613854  0.23594195  1
  Ta  Ta99  1  0.46670897  0.49196306  0.75885651  1
  Ta  Ta100  1  0.45317090  0.83282295  0.25773153  1
  Ta  Ta101  1  0.50156013  0.79199962  0.75227094  1
  Ta  Ta102  1  0.89137315  0.16475592  0.24801533  1
  Ta  Ta103  1  0.78215405  0.16221440  0.74531659  1
  Ta  Ta104  1  0.83393112  0.53832024  0.24914390  1
  Ta  Ta105  1  0.86180484  0.50508432  0.74595479  1
  Ta  Ta106  1  0.83175954  0.79330254  0.24890172  1
  Ta  Ta107  1  0.82532328  0.79465126  0.75223598  1
  Ta  Ta108  1  0.00569862  0.04194893  0.24737979  1
  Ta  Ta109  1  0.04564098  0.00270410  0.74931901  1
  Ta  Ta110  1  0.00130237  0.28925062  0.24800428  1
  Ta  Ta111  1  -0.00339206  0.38724743  0.75103755  1
  Ta  Ta112  1  -0.03673210  0.66863835  0.25071246  1
  Ta  Ta113  1  -0.02228477  0.64809728  0.74443723  1
  Ta  Ta114  1  0.34037644  -0.03974007  0.25529075  1
  Ta  Ta115  1  0.28679034  -0.00071996  0.74926483  1
  Ta  Ta116  1  0.34540725  0.36217191  0.24764929  1
  Ta  Ta117  1  0.32860187  0.37501967  0.75302066  1
  Ta  Ta118  1  0.33369140  0.71009716  0.25128984  1
  Ta  Ta119  1  0.35583017  0.65628163  0.75823299  1
  Ta  Ta120  1  0.64896335  0.02964698  0.24853972  1
  Ta  Ta121  1  0.66424788  0.04721420  0.75023107  1
  Ta  Ta122  1  0.62633125  0.32926693  0.25156823  1
  Ta  Ta123  1  0.66116142  0.28608462  0.74281277  1
  Ta  Ta124  1  0.71152185  0.67318413  0.23898173  1
  Ta  Ta125  1  0.66626679  0.68771582  0.76432785  1
  Ta  Ta126  1  -0.02382841  0.01995173  -0.00484055  1
  Ta  Ta127  1  -0.01914531  -0.02635976  0.49340663  1
  Ta  Ta128  1  -0.05107513  0.33469158  -0.00328497  1
  Ta  Ta129  1  0.04218573  0.33311639  0.50516368  1
  Ta  Ta130  1  0.04182961  0.67375414  0.00456552  1
  Ta  Ta131  1  0.00072255  0.71079782  0.49455871  1
  Ta  Ta132  1  0.33622696  0.03923610  -0.00143705  1
  Ta  Ta133  1  0.35003926  0.03037600  0.50151848  1
  Ta  Ta134  1  0.34096396  0.30849415  0.00498072  1
  Ta  Ta135  1  0.29330638  0.33720404  0.49696235  1
  Ta  Ta136  1  0.28769162  0.67596130  0.00528043  1
  Ta  Ta137  1  0.37943260  0.66928353  0.49518207  1
  Ta  Ta138  1  0.65972810  -0.03040784  -0.00062003  1
  Ta  Ta139  1  0.70509412  0.00556828  0.50154970  1
  Ta  Ta140  1  0.68140780  0.34783008  -0.00066864  1
  Ta  Ta141  1  0.66098755  0.37695185  0.50246634  1
  Ta  Ta142  1  0.66517138  0.72317250  -0.00308089  1
  Ta  Ta143  1  0.64813536  0.63812273  0.49902034  1
  N  N144  1  0.16393339  0.83515183  0.87548541  1
  N  N145  1  0.66075666  0.01272151  0.87861929  1
  N  N146  1  0.83293236  0.49871299  0.12262262  1
  N  N147  1  0.16179127  0.51350228  0.87825635  1
  N  N148  1  0.32998467  0.66985014  0.87638432  1
  N  N149  1  0.32865887  0.68036218  0.12328450  1
  N  N150  1  0.34136272  0.66978183  0.37677528  1
  N  N151  1  0.16740425  0.16838543  0.37226498  1
  N  N152  1  0.16502629  0.83877015  0.62117494  1
  N  N153  1  0.32736353  0.33744361  0.37666954  1
  N  N154  1  -0.00005772  0.67100084  0.37593914  1
  N  N155  1  0.16787769  0.16022305  0.62456576  1
  N  N156  1  0.16742943  0.50807171  0.13051043  1
  N  N157  1  0.83249308  0.82570129  0.62512612  1
  N  N158  1  -0.01159716  0.34722869  0.87147078  1
  N  N159  1  0.82426225  0.50430073  0.37760200  1
  N  N160  1  0.49552810  0.48733778  0.88281276  1
  N  N161  1  0.49984168  0.81826936  0.37555247  1
  N  N162  1  0.00021928  0.66977040  0.12312000  1
  N  N163  1  0.67091467  0.67969509  0.12103393  1
  N  N164  1  0.83448100  0.82697132  0.37037981  1
  N  N165  1  0.00222753  0.00015165  0.37184948  1
  N  N166  1  0.18369931  0.16706788  0.12237834  1
  N  N167  1  0.66333582  0.33527228  0.62518897  1
  N  N168  1  0.50448275  0.51059009  0.12639499  1
  N  N169  1  0.16487605  0.50833593  0.61941598  1
  N  N170  1  -0.00450327  0.67072162  0.62380482  1
  N  N171  1  0.33095420  0.32478060  0.12815448  1
  N  N172  1  0.50037391  0.49161954  0.62576173  1
  N  N173  1  0.66538459  0.66248009  0.88476394  1
  N  N174  1  0.17268014  0.83675666  0.37277763  1
  N  N175  1  0.66127693  0.00789137  0.12753875  1
  N  N176  1  0.82636192  0.83526988  0.87297721  1
  O  O177  1  0.64095638  0.33623297  0.37840454  1
  O  O178  1  0.18098503  0.84041137  0.12183778  1
  O  O179  1  0.34086262  0.00789170  0.37446756  1
  O  O180  1  0.01546725  0.31593236  0.38160880  1
  O  O181  1  0.49609262  0.83826281  0.12189718  1
  O  O182  1  0.00534612  0.00237685  0.62693895  1
  O  O183  1  0.68373818  -0.00201561  0.62582261  1
  O  O184  1  0.48816817  0.15727640  0.36956485  1
  O  O185  1  0.32653882  0.00184301  0.87160762  1
  O  O186  1  0.16589983  0.50025532  0.38329081  1
  O  O187  1  -0.00523847  0.01445416  0.87124285  1
  O  O188  1  0.32676706  0.34458688  0.87565619  1
  O  O189  1  0.66671428  0.65756737  0.37115934  1
  O  O190  1  0.83422384  0.13776453  0.62821736  1
  O  O191  1  0.50961255  0.80676198  0.62661202  1
  O  O192  1  0.49469927  0.82244656  0.87610572  1
  O  O193  1  0.66380322  0.65875016  0.62727683  1
  O  O194  1  0.32655124  0.35124776  0.62723202  1
  O  O195  1  0.83187137  0.50286668  0.62069084  1
  O  O196  1  0.33668127  -0.00010220  0.13026514  1
  O  O197  1  0.48768466  0.15397567  0.13047558  1
  O  O198  1  0.83905201  0.49589976  0.87320124  1
  O  O199  1  0.50235149  0.14968528  0.62119758  1
  O  O200  1  0.66503313  0.32929224  0.12555757  1
  O  O201  1  0.85258998  0.13682417  0.37728878  1
  O  O202  1  0.67930752  0.00847472  0.37651660  1
  O  O203  1  0.83191140  0.83977562  0.12091921  1
  O  O204  1  0.85170634  0.17085980  0.12212163  1
  O  O205  1  0.33345462  0.01750175  0.62737125  1
  O  O206  1  0.00419101  0.66645003  0.87247843  1
  O  O207  1  0.66981679  0.32685318  0.87328736  1
  O  O208  1  0.34028760  0.66421272  0.62133744  1
  O  O209  1  0.18537177  0.15967991  0.87463146  1
  O  O210  1  -0.01265838  0.32049392  0.11997830  1
  O  O211  1  0.49142185  0.16072979  0.86957138  1
  O  O212  1  0.01374818  0.33700191  0.63219959  1
  O  O213  1  -0.01291549  0.00602862  0.12022385  1
  O  O214  1  0.50493365  0.49584552  0.36232295  1
  O  O215  1  0.82333458  0.17144473  0.87267396  1
