# generated using pymatgen
data_Sr24Ta24N11O13
_symmetry_space_group_name_H-M   'P 1'
_cell_length_a   16.89266821
_cell_length_b   16.72660643
_cell_length_c   15.66013832
_cell_angle_alpha   89.50426931
_cell_angle_beta   89.38759031
_cell_angle_gamma   89.81527876
_symmetry_Int_Tables_number   1
_chemical_formula_structural   Sr24Ta24N11O13
_chemical_formula_sum   'Sr72 Ta72 N33 O39'
_cell_volume   4424.44183220
_cell_formula_units_Z   3
loop_
 _symmetry_equiv_pos_site_id
 _symmetry_equiv_pos_as_xyz
  1  'x, y, z'
loop_
 _atom_site_type_symbol
 _atom_site_label
 _atom_site_symmetry_multiplicity
 _atom_site_fract_x
 _atom_site_fract_y
 _atom_site_fract_z
 _atom_site_occupancy
  Sr  Sr0  1  0.01713792  0.17707703  0.07564956  1
  Sr  Sr1  1  -0.00255122  0.15573748  0.63386567  1
  Sr  Sr2  1  0.00651760  0.48363169  0.17475547  1
  Sr  Sr3  1  -0.00514299  0.51105653  0.61655006  1
  Sr  Sr4  1  -0.00312591  0.83011285  0.12312090  1
  Sr  Sr5  1  0.04216059  0.83339256  0.60431487  1
  Sr  Sr6  1  0.33065073  0.17260962  0.16215594  1
  Sr  Sr7  1  0.32915809  0.16762417  0.61991965  1
  Sr  Sr8  1  0.32815342  0.49469300  0.10454216  1
  Sr  Sr9  1  0.32867665  0.49999322  0.59824999  1
  Sr  Sr10  1  0.38692390  0.82903821  0.10492942  1
  Sr  Sr11  1  0.34544098  0.81202416  0.65928037  1
  Sr  Sr12  1  0.66810551  0.16602399  0.12666855  1
  Sr  Sr13  1  0.67724488  0.18639553  0.64917775  1
  Sr  Sr14  1  0.65920995  0.50964374  0.10966771  1
  Sr  Sr15  1  0.64266946  0.50943025  0.64843343  1
  Sr  Sr16  1  0.67899259  0.84465564  0.14753930  1
  Sr  Sr17  1  0.69206751  0.83768473  0.59945823  1
  Sr  Sr18  1  0.15169817  -0.00533598  0.13794147  1
  Sr  Sr19  1  0.15418709  0.00821038  0.58672938  1
  Sr  Sr20  1  0.17365558  0.33199278  0.11627238  1
  Sr  Sr21  1  0.15258686  0.31487268  0.67620782  1
  Sr  Sr22  1  0.12976603  0.66419394  0.15008458  1
  Sr  Sr23  1  0.16404172  0.65734115  0.61702220  1
  Sr  Sr24  1  0.51059643  0.02153004  0.07924933  1
  Sr  Sr25  1  0.46776673  -0.03170031  0.62505279  1
  Sr  Sr26  1  0.50623536  0.31919494  0.18325993  1
  Sr  Sr27  1  0.49978738  0.35484193  0.61009892  1
  Sr  Sr28  1  0.50156514  0.64677951  0.11086472  1
  Sr  Sr29  1  0.49061182  0.66763136  0.66450644  1
  Sr  Sr30  1  0.82371034  -0.00808734  0.16666571  1
  Sr  Sr31  1  0.83656873  0.01101054  0.62135925  1
  Sr  Sr32  1  0.83570626  0.33765555  0.13012902  1
  Sr  Sr33  1  0.86724145  0.33712701  0.58371889  1
  Sr  Sr34  1  0.82925439  0.67724634  0.08317069  1
  Sr  Sr35  1  0.82351281  0.65398179  0.63532108  1
  Sr  Sr36  1  -0.01423154  0.16129825  0.41998212  1
  Sr  Sr37  1  0.00178221  0.16604619  0.86645622  1
  Sr  Sr38  1  -0.00069476  0.50461334  0.38703727  1
  Sr  Sr39  1  0.01409542  0.50739571  0.83083138  1
  Sr  Sr40  1  0.03389965  0.83885894  0.34365414  1
  Sr  Sr41  1  0.01344078  0.82581703  0.90631629  1
  Sr  Sr42  1  0.33030370  0.16419012  0.38557559  1
  Sr  Sr43  1  0.35029058  0.17383390  0.85034968  1
  Sr  Sr44  1  0.33051659  0.50705420  0.39797410  1
  Sr  Sr45  1  0.31903355  0.48905076  0.91008835  1
  Sr  Sr46  1  0.35991593  0.81748447  0.35404571  1
  Sr  Sr47  1  0.35331025  0.82211465  0.87442046  1
  Sr  Sr48  1  0.67053651  0.18536711  0.34990413  1
  Sr  Sr49  1  0.65127307  0.15833236  0.87760966  1
  Sr  Sr50  1  0.63787684  0.50698626  0.36775176  1
  Sr  Sr51  1  0.65147600  0.50744898  0.87833495  1
  Sr  Sr52  1  0.67256504  0.84179082  0.38414032  1
  Sr  Sr53  1  0.71319595  0.84924447  0.84266506  1
  Sr  Sr54  1  0.16808816  0.00349516  0.36660453  1
  Sr  Sr55  1  0.13464136  -0.00853436  0.91387898  1
  Sr  Sr56  1  0.16037181  0.33421772  0.33662454  1
  Sr  Sr57  1  0.16415777  0.32094430  0.88779251  1
  Sr  Sr58  1  0.15730442  0.65934699  0.38478382  1
  Sr  Sr59  1  0.15447105  0.67668523  0.86182306  1
  Sr  Sr60  1  0.49701868  -0.01211995  0.42230804  1
  Sr  Sr61  1  0.47896141  0.00552164  0.86584022  1
  Sr  Sr62  1  0.49401589  0.33524545  0.39603224  1
  Sr  Sr63  1  0.51440042  0.31240598  0.82622147  1
  Sr  Sr64  1  0.51518719  0.68324271  0.32580895  1
  Sr  Sr65  1  0.48045922  0.64472196  0.89441113  1
  Sr  Sr66  1  0.81839913  0.00417132  0.37849272  1
  Sr  Sr67  1  0.83274031  0.01959872  0.82573405  1
  Sr  Sr68  1  0.84676264  0.34227597  0.36764996  1
  Sr  Sr69  1  0.82045265  0.32385829  0.91849856  1
  Sr  Sr70  1  0.81438800  0.66256570  0.41690935  1
  Sr  Sr71  1  0.83391935  0.65362796  0.86481254  1
  Ta  Ta72  1  0.21330439  0.15209836  0.00639682  1
  Ta  Ta73  1  0.16194593  0.19974981  0.50006041  1
  Ta  Ta74  1  0.13355037  0.51000872  0.00810339  1
  Ta  Ta75  1  0.15874912  0.45827589  0.50346002  1
  Ta  Ta76  1  0.20317510  0.82630307  0.02034743  1
  Ta  Ta77  1  0.21741065  0.82644382  0.49985021  1
  Ta  Ta78  1  0.49399380  0.22831157  0.02621952  1
  Ta  Ta79  1  0.53050927  0.16616697  0.50648673  1
  Ta  Ta80  1  0.49427161  0.43051014  0.00054638  1
  Ta  Ta81  1  0.49507907  0.55809465  0.50539679  1
  Ta  Ta82  1  0.56089501  0.84263700  -0.01386618  1
  Ta  Ta83  1  0.49852528  0.79353392  0.50052506  1
  Ta  Ta84  1  0.82655160  0.12803946  -0.00025223  1
  Ta  Ta85  1  0.79813024  0.17543737  0.50064667  1
  Ta  Ta86  1  0.88023131  0.49808770  -0.00042195  1
  Ta  Ta87  1  0.78621630  0.48997295  0.50823719  1
  Ta  Ta88  1  0.82875940  0.87627134  -0.00232930  1
  Ta  Ta89  1  0.87657114  0.83828994  0.49504415  1
  Ta  Ta90  1  0.13077333  0.16562832  0.25261642  1
  Ta  Ta91  1  0.17015567  0.11869532  0.75229433  1
  Ta  Ta92  1  0.20114886  0.50620312  0.25394089  1
  Ta  Ta93  1  0.20081573  0.49580388  0.74777563  1
  Ta  Ta94  1  0.21895951  0.81656503  0.22719208  1
  Ta  Ta95  1  0.16966624  0.86023452  0.74971660  1
  Ta  Ta96  1  0.49890981  0.11687357  0.25913695  1
  Ta  Ta97  1  0.51693930  0.13038362  0.69310853  1
  Ta  Ta98  1  0.46508881  0.49479535  0.24472086  1
  Ta  Ta99  1  0.45184083  0.49225285  0.75788932  1
  Ta  Ta100  1  0.51491155  0.88962109  0.25507081  1
  Ta  Ta101  1  0.54624412  0.83461461  0.74629814  1
  Ta  Ta102  1  0.86338407  0.17112392  0.25248486  1
  Ta  Ta103  1  0.83483278  0.21533720  0.74595478  1
  Ta  Ta104  1  0.81357868  0.52484565  0.25030061  1
  Ta  Ta105  1  0.82862217  0.45655451  0.74941680  1
  Ta  Ta106  1  0.83920379  0.79403222  0.25479479  1
  Ta  Ta107  1  0.88963269  0.83330111  0.74333819  1
  Ta  Ta108  1  -0.00762185  0.05495340  0.25042682  1
  Ta  Ta109  1  0.01897962  -0.02430688  0.74706812  1
  Ta  Ta110  1  -0.00185454  0.27356674  0.24892059  1
  Ta  Ta111  1  -0.03956502  0.33447304  0.75790660  1
  Ta  Ta112  1  -0.05688551  0.66297301  0.25510411  1
  Ta  Ta113  1  -0.00718324  0.69860251  0.73995778  1
  Ta  Ta114  1  0.36986105  -0.01267229  0.24778108  1
  Ta  Ta115  1  0.28241986  -0.00901653  0.75184154  1
  Ta  Ta116  1  0.33320813  0.36694567  0.25498055  1
  Ta  Ta117  1  0.32956096  0.36944338  0.75185145  1
  Ta  Ta118  1  0.32079663  0.64848282  0.24275021  1
  Ta  Ta119  1  0.32059194  0.62267567  0.76141885  1
  Ta  Ta120  1  0.63325931  0.00848432  0.26365482  1
  Ta  Ta121  1  0.63907720  0.00098699  0.72913205  1
  Ta  Ta122  1  0.68044794  0.36072495  0.25591231  1
  Ta  Ta123  1  0.70860242  0.34361803  0.74372032  1
  Ta  Ta124  1  0.70933110  0.67006641  0.25242584  1
  Ta  Ta125  1  0.65288673  0.69493863  0.74633654  1
  Ta  Ta126  1  -0.05690864  0.00249048  -0.00427509  1
  Ta  Ta127  1  -0.01812392  -0.02370598  0.49184589  1
  Ta  Ta128  1  0.00012464  0.38027708  -0.00237709  1
  Ta  Ta129  1  0.05210283  0.32946513  0.50289578  1
  Ta  Ta130  1  -0.00120557  0.61842386  0.00557737  1
  Ta  Ta131  1  -0.01779867  0.69267431  0.49184721  1
  Ta  Ta132  1  0.31035652  0.00010767  0.00313194  1
  Ta  Ta133  1  0.31673340  -0.04682905  0.49954748  1
  Ta  Ta134  1  0.35680851  0.30970946  0.00996938  1
  Ta  Ta135  1  0.26982214  0.33010228  0.50460096  1
  Ta  Ta136  1  0.28545043  0.67185072  0.00807852  1
  Ta  Ta137  1  0.35518351  0.68311229  0.50215177  1
  Ta  Ta138  1  0.70216103  -0.01051598  -0.00665293  1
  Ta  Ta139  1  0.65831234  0.04530835  0.51218477  1
  Ta  Ta140  1  0.62832022  0.32854698  0.00356704  1
  Ta  Ta141  1  0.68340438  0.33636617  0.50622879  1
  Ta  Ta142  1  0.66003314  0.71374017  -0.00510114  1
  Ta  Ta143  1  0.63214062  0.66229182  0.50049664  1
  N  N144  1  0.66801370  0.67416501  0.62611046  1
  N  N145  1  0.33060221  0.33187786  0.13422810  1
  N  N146  1  0.66628206  0.67319836  0.37014908  1
  N  N147  1  0.31487966  0.65522790  0.88510215  1
  N  N148  1  0.48976681  0.48581852  0.12425611  1
  N  N149  1  0.17412992  0.16543354  0.12195742  1
  N  N150  1  0.65422482  0.34557186  0.63367718  1
  N  N151  1  -0.01944320  0.65189288  0.12667409  1
  N  N152  1  0.16139408  0.49862269  0.37234341  1
  N  N153  1  0.82437279  0.49816783  0.62437991  1
  N  N154  1  0.15866020  0.49847901  0.12883125  1
  N  N155  1  -0.00126824  0.66168662  0.36726193  1
  N  N156  1  0.48496055  0.51496481  0.62318278  1
  N  N157  1  -0.00301007  0.00747759  0.36718666  1
  N  N158  1  0.16174179  0.15829550  0.63496976  1
  N  N159  1  0.66194538  0.00778240  0.38643483  1
  N  N160  1  0.51413014  0.82434947  0.62284621  1
  N  N161  1  0.19165900  0.82991883  0.62926571  1
  N  N162  1  -0.01473238  -0.00063225  0.87281318  1
  N  N163  1  0.50139493  0.16544721  0.14569775  1
  N  N164  1  0.82912461  0.17438694  0.37530607  1
  N  N165  1  0.16351539  0.16332211  0.37692545  1
  N  N166  1  0.51323607  0.83787838  0.37264098  1
  N  N167  1  0.65758394  0.34444874  0.37449313  1
  N  N168  1  0.00023240  -0.00194643  0.61987451  1
  N  N169  1  -0.00227438  0.33873092  0.87917766  1
  N  N170  1  0.83745525  0.17892930  0.62584070  1
  N  N171  1  0.47734506  0.20794212  0.60677780  1
  N  N172  1  0.68751731  -0.01223905  0.61778812  1
  N  N173  1  0.15865601  0.49501818  0.63151016  1
  N  N174  1  0.14695716  0.83588830  0.13330558  1
  N  N175  1  0.48864078  0.47889664  0.88337774  1
  N  N176  1  0.00139288  0.66670583  0.61871719  1
  O  O177  1  -0.00392600  0.65916276  0.86653937  1
  O  O178  1  0.84567547  0.84056680  0.37004673  1
  O  O179  1  0.49533693  0.15503828  0.81055441  1
  O  O180  1  0.67487632  0.34208799  0.12387273  1
  O  O181  1  0.16177530  0.49725515  0.87365800  1
  O  O182  1  0.00932233  0.33272661  0.63404258  1
  O  O183  1  0.34008382  -0.02449049  0.37624830  1
  O  O184  1  0.84249777  0.49468062  0.87475386  1
  O  O185  1  0.18051335  0.16101563  0.87762487  1
  O  O186  1  0.31145392  0.32807038  0.63065365  1
  O  O187  1  0.82678744  0.16682002  0.87598815  1
  O  O188  1  0.49135921  0.17105083  0.38082420  1
  O  O189  1  0.85750738  0.84137925  0.62419402  1
  O  O190  1  0.00813540  0.31517455  0.37234983  1
  O  O191  1  0.53247904  0.86555440  0.11382675  1
  O  O192  1  0.16895861  0.83904269  0.89237931  1
  O  O193  1  0.31031612  -0.01073860  0.87909566  1
  O  O194  1  0.50730279  0.85357949  0.87411523  1
  O  O195  1  -0.00455738  0.32523501  0.12703052  1
  O  O196  1  0.33309705  0.66142581  0.63040651  1
  O  O197  1  0.35331371  -0.00540581  0.12406053  1
  O  O198  1  0.48282502  0.51738988  0.38112149  1
  O  O199  1  0.20094979  0.81815521  0.35627559  1
  O  O200  1  0.83509759  0.50541624  0.12419047  1
  O  O201  1  0.83532572  0.83553609  0.12788359  1
  O  O202  1  0.66616245  0.32875460  0.87734999  1
  O  O203  1  0.31058593  -0.01714725  0.62617341  1
  O  O204  1  0.34673104  0.65362125  0.11341830  1
  O  O205  1  0.68219862  0.00152179  0.86235522  1
  O  O206  1  0.80966083  0.50684464  0.37776311  1
  O  O207  1  0.67559828  0.00217248  0.12221686  1
  O  O208  1  0.31826873  0.33300491  0.38310172  1
  O  O209  1  0.82364630  0.14774482  0.12603323  1
  O  O210  1  -0.01978793  0.01476169  0.12398329  1
  O  O211  1  0.86020614  0.84296995  0.87029605  1
  O  O212  1  0.32685674  0.32767903  0.87572312  1
  O  O213  1  0.33588024  0.66330527  0.36708445  1
  O  O214  1  0.67436375  0.69105748  0.12287888  1
  O  O215  1  0.68352124  0.69130967  0.87407700  1
