# generated using pymatgen
data_Sr24Ta24N11O13
_symmetry_space_group_name_H-M   'P 1'
_cell_length_a   16.75863549
_cell_length_b   16.75900151
_cell_length_c   15.75347779
_cell_angle_alpha   89.63443664
_cell_angle_beta   90.46709851
_cell_angle_gamma   89.97017791
_symmetry_Int_Tables_number   1
_chemical_formula_structural   Sr24Ta24N11O13
_chemical_formula_sum   'Sr72 Ta72 N33 O39'
_cell_volume   4424.25241864
_cell_formula_units_Z   3
loop_
 _symmetry_equiv_pos_site_id
 _symmetry_equiv_pos_as_xyz
  1  'x, y, z'
loop_
 _atom_site_type_symbol
 _atom_site_label
 _atom_site_symmetry_multiplicity
 _atom_site_fract_x
 _atom_site_fract_y
 _atom_site_fract_z
 _atom_site_occupancy
  Sr  Sr0  1  0.00552226  0.17543465  0.07612974  1
  Sr  Sr1  1  0.00927916  0.15981147  0.63386740  1
  Sr  Sr2  1  0.00845000  0.47657234  0.17287575  1
  Sr  Sr3  1  -0.00410053  0.50595311  0.62274947  1
  Sr  Sr4  1  0.00405386  0.84091692  0.13756818  1
  Sr  Sr5  1  -0.01650450  0.83243518  0.58592107  1
  Sr  Sr6  1  0.33981759  0.17695594  0.12670791  1
  Sr  Sr7  1  0.33762182  0.17660111  0.66304886  1
  Sr  Sr8  1  0.31421920  0.50789449  0.07354319  1
  Sr  Sr9  1  0.34981915  0.50204410  0.63845912  1
  Sr  Sr10  1  0.34561643  0.81753399  0.14476972  1
  Sr  Sr11  1  0.33876430  0.85323599  0.61134514  1
  Sr  Sr12  1  0.67593595  0.16103321  0.10631237  1
  Sr  Sr13  1  0.66283702  0.17967631  0.62679597  1
  Sr  Sr14  1  0.67014508  0.48625552  0.13775331  1
  Sr  Sr15  1  0.66860907  0.50980462  0.58559315  1
  Sr  Sr16  1  0.65791571  0.83616975  0.11889256  1
  Sr  Sr17  1  0.68114758  0.81977130  0.67062555  1
  Sr  Sr18  1  0.14223688  -0.00393831  0.12038672  1
  Sr  Sr19  1  0.17714927  0.00579965  0.64171730  1
  Sr  Sr20  1  0.17114157  0.32758994  0.12733542  1
  Sr  Sr21  1  0.16012519  0.34604512  0.58095055  1
  Sr  Sr22  1  0.15625422  0.67214555  0.11889399  1
  Sr  Sr23  1  0.16248513  0.65070805  0.66448252  1
  Sr  Sr24  1  0.48979570  0.01640556  0.10904546  1
  Sr  Sr25  1  0.50635839  0.00174265  0.59271862  1
  Sr  Sr26  1  0.49920692  0.34128845  0.15961544  1
  Sr  Sr27  1  0.50639007  0.34159223  0.61332801  1
  Sr  Sr28  1  0.49834668  0.65836749  0.13487205  1
  Sr  Sr29  1  0.49236279  0.68599220  0.63886077  1
  Sr  Sr30  1  0.82503132  -0.02057465  0.16798974  1
  Sr  Sr31  1  0.83573882  0.00695511  0.61259322  1
  Sr  Sr32  1  0.82046590  0.33115294  0.11198315  1
  Sr  Sr33  1  0.85899177  0.33430157  0.67778498  1
  Sr  Sr34  1  0.82522102  0.67675758  0.08020555  1
  Sr  Sr35  1  0.84000747  0.65556519  0.63026497  1
  Sr  Sr36  1  0.00837834  0.16702988  0.41377537  1
  Sr  Sr37  1  -0.00009431  0.15456562  0.86285405  1
  Sr  Sr38  1  0.00396471  0.49853780  0.38082361  1
  Sr  Sr39  1  -0.01564831  0.50772566  0.82942079  1
  Sr  Sr40  1  -0.00484722  0.84618877  0.36538104  1
  Sr  Sr41  1  0.01094045  0.81969672  0.92201567  1
  Sr  Sr42  1  0.32637808  0.17273809  0.33121362  1
  Sr  Sr43  1  0.34288611  0.16918000  0.87698653  1
  Sr  Sr44  1  0.32963383  0.47081284  0.42119103  1
  Sr  Sr45  1  0.34586434  0.50533374  0.86214027  1
  Sr  Sr46  1  0.34902698  0.82312250  0.38800002  1
  Sr  Sr47  1  0.32967801  0.84792965  0.85100509  1
  Sr  Sr48  1  0.67500706  0.14894203  0.40509205  1
  Sr  Sr49  1  0.66850435  0.17367485  0.87249229  1
  Sr  Sr50  1  0.65273310  0.49631927  0.36216352  1
  Sr  Sr51  1  0.68576313  0.49770167  0.92122105  1
  Sr  Sr52  1  0.66945251  0.83445644  0.33592559  1
  Sr  Sr53  1  0.66519581  0.82863804  0.87879935  1
  Sr  Sr54  1  0.16760351  -0.00096786  0.37831288  1
  Sr  Sr55  1  0.15263228  -0.00231786  0.86833523  1
  Sr  Sr56  1  0.15734324  0.33311786  0.36621865  1
  Sr  Sr57  1  0.17990804  0.32900907  0.91948052  1
  Sr  Sr58  1  0.14999824  0.67071118  0.33445559  1
  Sr  Sr59  1  0.16405266  0.65981135  0.88475507  1
  Sr  Sr60  1  0.49046316  0.00652992  0.38620902  1
  Sr  Sr61  1  0.50867771  -0.00060147  0.91178570  1
  Sr  Sr62  1  0.51006214  0.34386273  0.38590259  1
  Sr  Sr63  1  0.48686760  0.33048138  0.82976513  1
  Sr  Sr64  1  0.50724186  0.68233487  0.34947876  1
  Sr  Sr65  1  0.49299957  0.66371407  0.85989349  1
  Sr  Sr66  1  0.83811381  -0.00340429  0.38363211  1
  Sr  Sr67  1  0.81904956  -0.01041868  0.83533318  1
  Sr  Sr68  1  0.83600810  0.35756272  0.32975199  1
  Sr  Sr69  1  0.82456998  0.32190080  0.89082468  1
  Sr  Sr70  1  0.84435444  0.64689073  0.42180500  1
  Sr  Sr71  1  0.82662349  0.66724646  0.87269166  1
  Ta  Ta72  1  0.19279685  0.14025215  0.00219155  1
  Ta  Ta73  1  0.19859803  0.16415085  0.50488481  1
  Ta  Ta74  1  0.11741705  0.49751950  0.00543866  1
  Ta  Ta75  1  0.16646801  0.53948266  0.49926607  1
  Ta  Ta76  1  0.20545476  0.83876846  -0.00064084  1
  Ta  Ta77  1  0.16865121  0.79324072  0.50276323  1
  Ta  Ta78  1  0.50332746  0.20723142  -0.00140820  1
  Ta  Ta79  1  0.46442867  0.17573131  0.50395114  1
  Ta  Ta80  1  0.50362090  0.47684354  -0.00399870  1
  Ta  Ta81  1  0.49445049  0.54915238  0.49271529  1
  Ta  Ta82  1  0.48533394  0.81135095  -0.00466676  1
  Ta  Ta83  1  0.54687931  0.82738406  0.50398839  1
  Ta  Ta84  1  0.83259197  0.11422129  -0.00274272  1
  Ta  Ta85  1  0.83860083  0.22715777  0.50085790  1
  Ta  Ta86  1  0.87709403  0.49656256  0.00335961  1
  Ta  Ta87  1  0.83847500  0.44942423  0.50881852  1
  Ta  Ta88  1  0.83067160  0.86822804  -0.00298488  1
  Ta  Ta89  1  0.79133662  0.82412565  0.49755368  1
  Ta  Ta90  1  0.13286894  0.16315095  0.24379405  1
  Ta  Ta91  1  0.16997215  0.20852046  0.74970300  1
  Ta  Ta92  1  0.21407926  0.50220270  0.24513136  1
  Ta  Ta93  1  0.16967867  0.46571906  0.75486144  1
  Ta  Ta94  1  0.19251186  0.84889769  0.24699384  1
  Ta  Ta95  1  0.13449122  0.82628963  0.75492858  1
  Ta  Ta96  1  0.53169098  0.16241345  0.25526290  1
  Ta  Ta97  1  0.50838312  0.13037862  0.74620807  1
  Ta  Ta98  1  0.43560285  0.50519426  0.25307422  1
  Ta  Ta99  1  0.55405252  0.50310033  0.75408905  1
  Ta  Ta100  1  0.49707155  0.87519647  0.24259673  1
  Ta  Ta101  1  0.50000770  0.87204532  0.75038640  1
  Ta  Ta102  1  0.85370309  0.17125727  0.25022190  1
  Ta  Ta103  1  0.82874009  0.15883160  0.75192373  1
  Ta  Ta104  1  0.83590427  0.54809761  0.24387124  1
  Ta  Ta105  1  0.78982607  0.49888310  0.75362631  1
  Ta  Ta106  1  0.83675142  0.77750863  0.25663826  1
  Ta  Ta107  1  0.87573639  0.82365807  0.75607229  1
  Ta  Ta108  1  -0.00476846  0.05120792  0.24785381  1
  Ta  Ta109  1  -0.00369193  -0.04606085  0.75356289  1
  Ta  Ta110  1  -0.00371472  0.27303998  0.24471296  1
  Ta  Ta111  1  0.05321962  0.33548798  0.74902774  1
  Ta  Ta112  1  -0.03761569  0.66422989  0.24837751  1
  Ta  Ta113  1  -0.00095605  0.70765695  0.74948006  1
  Ta  Ta114  1  0.32945561  -0.01818952  0.25093967  1
  Ta  Ta115  1  0.37874092  0.00759481  0.74629341  1
  Ta  Ta116  1  0.32711299  0.37060631  0.24144076  1
  Ta  Ta117  1  0.28375111  0.34038302  0.75225187  1
  Ta  Ta118  1  0.32406839  0.63176079  0.24795648  1
  Ta  Ta119  1  0.32337062  0.68842592  0.75290406  1
  Ta  Ta120  1  0.63667344  0.01422466  0.24543932  1
  Ta  Ta121  1  0.63456560  0.00579060  0.75224278  1
  Ta  Ta122  1  0.66610093  0.29077587  0.25207777  1
  Ta  Ta123  1  0.66640905  0.36953895  0.75490111  1
  Ta  Ta124  1  0.71167525  0.66303746  0.24923283  1
  Ta  Ta125  1  0.66434337  0.62805126  0.75491197  1
  Ta  Ta126  1  -0.04512166  -0.00237884  -0.00230341  1
  Ta  Ta127  1  0.02037578  -0.00036717  0.50364872  1
  Ta  Ta128  1  -0.00221523  0.37754177  -0.00395625  1
  Ta  Ta129  1  -0.03284203  0.33661762  0.50508814  1
  Ta  Ta130  1  -0.00398665  0.61633676  0.00107930  1
  Ta  Ta131  1  0.04144405  0.66693389  0.50373768  1
  Ta  Ta132  1  0.30944559  -0.00481201  -0.00184233  1
  Ta  Ta133  1  0.32955171  0.05694204  0.50478707  1
  Ta  Ta134  1  0.37433906  0.33412968  -0.00385031  1
  Ta  Ta135  1  0.32979281  0.27972867  0.49846528  1
  Ta  Ta136  1  0.33828667  0.70006380  -0.00735548  1
  Ta  Ta137  1  0.29616970  0.65883451  0.49911821  1
  Ta  Ta138  1  0.70059010  -0.00304056  -0.00125518  1
  Ta  Ta139  1  0.67065872  -0.05559277  0.50098731  1
  Ta  Ta140  1  0.61942159  0.32964222  -0.00014260  1
  Ta  Ta141  1  0.70818844  0.33538380  0.49700428  1
  Ta  Ta142  1  0.63477030  0.66792780  -0.00196662  1
  Ta  Ta143  1  0.65589828  0.69620515  0.49936929  1
  N  N144  1  0.66483120  0.66447402  0.88058913  1
  N  N145  1  0.83337128  0.48831630  0.62851030  1
  N  N146  1  -0.00433540  0.01046738  0.37796903  1
  N  N147  1  0.83314719  0.81683661  0.38013662  1
  N  N148  1  0.00300159  0.67118225  0.62355249  1
  N  N149  1  -0.00690230  -0.00805474  0.87560157  1
  N  N150  1  0.50054009  0.84433807  0.12401845  1
  N  N151  1  0.66022572  -0.00030209  0.87505368  1
  N  N152  1  0.50785188  0.49662506  0.87477582  1
  N  N153  1  0.32228336  0.66160851  0.87104420  1
  N  N154  1  0.65928738  0.33562805  0.87449156  1
  N  N155  1  0.33513646  0.34098484  0.11832310  1
  N  N156  1  0.50308868  0.83983567  0.87510430  1
  N  N157  1  -0.00137101  -0.00436171  0.62859986  1
  N  N158  1  0.67349455  0.32854199  0.37275768  1
  N  N159  1  0.51271261  0.83796073  0.62413966  1
  N  N160  1  -0.01424616  0.00959211  0.13109352  1
  N  N161  1  0.16285739  0.83188567  0.87723644  1
  N  N162  1  0.17252912  0.17515243  0.62709435  1
  N  N163  1  0.34033157  0.01426751  0.62608007  1
  N  N164  1  0.83828128  0.50176584  0.12776284  1
  N  N165  1  0.33190144  0.33525589  0.86994597  1
  N  N166  1  0.83506836  0.49527254  0.86984972  1
  N  N167  1  0.66149270  0.00128540  0.12613330  1
  N  N168  1  0.48430251  0.51239912  0.37570727  1
  N  N169  1  0.66084751  0.32616849  0.12713654  1
  N  N170  1  0.83886186  0.82557009  0.88192614  1
  N  N171  1  0.16199895  0.49976882  0.13100690  1
  N  N172  1  0.83551812  0.16011477  0.87309485  1
  N  N173  1  0.00948412  0.33546188  0.63083502  1
  N  N174  1  0.17021665  0.16542336  0.12057904  1
  N  N175  1  0.50372274  0.17317816  0.62742035  1
  N  N176  1  0.17298063  0.83194953  0.12748410  1
  O  O177  1  0.17077655  0.16884968  0.36709831  1
  O  O178  1  0.50770465  0.17797037  0.13063330  1
  O  O179  1  0.83651663  0.18278025  0.62179611  1
  O  O180  1  0.16001697  0.48666914  0.88165110  1
  O  O181  1  0.00925316  0.35051108  0.87200255  1
  O  O182  1  0.31877848  0.66682499  0.62356353  1
  O  O183  1  0.31030780  0.66040086  0.37509189  1
  O  O184  1  -0.00493080  0.66130968  0.37859381  1
  O  O185  1  0.66775061  -0.02090408  0.62496631  1
  O  O186  1  0.33651909  0.00515875  0.87451618  1
  O  O187  1  0.83266812  0.81916449  0.62952567  1
  O  O188  1  0.18507624  0.81839264  0.37701779  1
  O  O189  1  0.67086388  0.66562173  0.12325957  1
  O  O190  1  0.33126343  0.01560750  0.37403203  1
  O  O191  1  0.66028517  -0.01005868  0.37915225  1
  O  O192  1  -0.00025146  0.31703594  0.36668533  1
  O  O193  1  0.66350344  0.33607852  0.62015432  1
  O  O194  1  0.83541846  0.15483556  0.12614650  1
  O  O195  1  0.16823818  0.50208588  0.62214072  1
  O  O196  1  0.31660703  0.32754794  0.61752685  1
  O  O197  1  0.33221830  0.66036994  0.11507530  1
  O  O198  1  0.51116652  0.51802294  0.61634924  1
  O  O199  1  0.47878016  0.50045535  0.13156772  1
  O  O200  1  -0.00320944  0.32384317  0.12451771  1
  O  O201  1  0.31962228  0.32177283  0.37453581  1
  O  O202  1  0.66662488  0.67665888  0.37059295  1
  O  O203  1  -0.01620318  0.66200255  0.12107845  1
  O  O204  1  0.32759698  -0.00481264  0.12769135  1
  O  O205  1  0.16278787  0.81563825  0.62344296  1
  O  O206  1  0.84040409  0.18147172  0.37752609  1
  O  O207  1  0.84658139  0.50124992  0.37325614  1
  O  O208  1  0.16747758  0.51880503  0.37166905  1
  O  O209  1  0.51153746  0.16440004  0.38192759  1
  O  O210  1  -0.00001036  0.65926067  0.87550011  1
  O  O211  1  0.83798453  0.82444939  0.12219412  1
  O  O212  1  0.66125822  0.66985092  0.62578520  1
  O  O213  1  0.18127311  0.17343077  0.87933654  1
  O  O214  1  0.50609042  0.83904492  0.36956875  1
  O  O215  1  0.50252063  0.17572651  0.86970754  1
