# generated using pymatgen
data_Sr24Ta24N11O13
_symmetry_space_group_name_H-M   'P 1'
_cell_length_a   16.79195642
_cell_length_b   16.77515604
_cell_length_c   15.74454556
_cell_angle_alpha   89.93977458
_cell_angle_beta   90.27736576
_cell_angle_gamma   90.00007439
_symmetry_Int_Tables_number   1
_chemical_formula_structural   Sr24Ta24N11O13
_chemical_formula_sum   'Sr72 Ta72 N33 O39'
_cell_volume   4434.99023884
_cell_formula_units_Z   3
loop_
 _symmetry_equiv_pos_site_id
 _symmetry_equiv_pos_as_xyz
  1  'x, y, z'
loop_
 _atom_site_type_symbol
 _atom_site_label
 _atom_site_symmetry_multiplicity
 _atom_site_fract_x
 _atom_site_fract_y
 _atom_site_fract_z
 _atom_site_occupancy
  Sr  Sr0  1  0.01048349  0.16325790  0.16915478  1
  Sr  Sr1  1  -0.00746359  0.16306913  0.61374121  1
  Sr  Sr2  1  0.00450689  0.47949932  0.13083907  1
  Sr  Sr3  1  0.00012751  0.50581334  0.59315802  1
  Sr  Sr4  1  -0.01666021  0.82568246  0.10482054  1
  Sr  Sr5  1  -0.01517262  0.81996670  0.66781502  1
  Sr  Sr6  1  0.31717142  0.15817208  0.07441920  1
  Sr  Sr7  1  0.33214261  0.18358194  0.63583226  1
  Sr  Sr8  1  0.33104337  0.49803880  0.12814586  1
  Sr  Sr9  1  0.33743717  0.51241446  0.59051550  1
  Sr  Sr10  1  0.33322761  0.84567886  0.16875830  1
  Sr  Sr11  1  0.30662693  0.83990031  0.62016629  1
  Sr  Sr12  1  0.65985661  0.15634157  0.13520701  1
  Sr  Sr13  1  0.66170416  0.18107055  0.58301301  1
  Sr  Sr14  1  0.67270664  0.50454951  0.11886323  1
  Sr  Sr15  1  0.66552747  0.48761331  0.67286966  1
  Sr  Sr16  1  0.63033810  0.82399503  0.08105047  1
  Sr  Sr17  1  0.65079747  0.84421508  0.62835632  1
  Sr  Sr18  1  0.17192404  0.00499612  0.12315099  1
  Sr  Sr19  1  0.16996985  0.02071548  0.57901727  1
  Sr  Sr20  1  0.16706506  0.34381009  0.11230914  1
  Sr  Sr21  1  0.15624282  0.32648207  0.66905217  1
  Sr  Sr22  1  0.19484318  0.68337792  0.13791353  1
  Sr  Sr23  1  0.16961498  0.67629441  0.62734985  1
  Sr  Sr24  1  0.50145383  0.00693119  0.11691022  1
  Sr  Sr25  1  0.50099132  -0.01340209  0.65397052  1
  Sr  Sr26  1  0.51762473  0.33881377  0.17593455  1
  Sr  Sr27  1  0.48917036  0.33064788  0.61523075  1
  Sr  Sr28  1  0.51347537  0.65611567  0.09736698  1
  Sr  Sr29  1  0.52191995  0.65925553  0.62320817  1
  Sr  Sr30  1  0.84373709  0.00094768  0.13129032  1
  Sr  Sr31  1  0.84622234  -0.00561185  0.65143927  1
  Sr  Sr32  1  0.81949506  0.34071780  0.08165981  1
  Sr  Sr33  1  0.82626811  0.32852244  0.62540700  1
  Sr  Sr34  1  0.85401868  0.66067021  0.15864943  1
  Sr  Sr35  1  0.84112590  0.66680371  0.61807471  1
  Sr  Sr36  1  0.00316944  0.15167677  0.38132068  1
  Sr  Sr37  1  -0.01943987  0.17617422  0.83038862  1
  Sr  Sr38  1  -0.00591224  0.50650567  0.37883987  1
  Sr  Sr39  1  0.01776033  0.47194057  0.89665886  1
  Sr  Sr40  1  -0.04192049  0.82213495  0.34372281  1
  Sr  Sr41  1  0.00788580  0.84553268  0.88951539  1
  Sr  Sr42  1  0.32416274  0.16787540  0.40905990  1
  Sr  Sr43  1  0.34868310  0.16857270  0.86082303  1
  Sr  Sr44  1  0.33456967  0.49040608  0.37180030  1
  Sr  Sr45  1  0.33042266  0.51648846  0.90958965  1
  Sr  Sr46  1  0.30572284  0.84340066  0.37496734  1
  Sr  Sr47  1  0.32142561  0.83250398  0.83813693  1
  Sr  Sr48  1  0.64414785  0.17127408  0.36144564  1
  Sr  Sr49  1  0.67464806  0.15938281  0.91785353  1
  Sr  Sr50  1  0.66717251  0.50588287  0.33248750  1
  Sr  Sr51  1  0.66721105  0.49614194  0.88383565  1
  Sr  Sr52  1  0.65863486  0.81527471  0.41577417  1
  Sr  Sr53  1  0.63372004  0.84589301  0.86426467  1
  Sr  Sr54  1  0.16812376  0.01203926  0.37393103  1
  Sr  Sr55  1  0.16953755  0.00966149  0.90769964  1
  Sr  Sr56  1  0.14258683  0.34151744  0.32677181  1
  Sr  Sr57  1  0.18481441  0.33034719  0.88560444  1
  Sr  Sr58  1  0.18251811  0.65828288  0.40523212  1
  Sr  Sr59  1  0.17198327  0.68935154  0.85944373  1
  Sr  Sr60  1  0.51019359  -0.00929020  0.35427576  1
  Sr  Sr61  1  0.49991421  0.01097367  0.88307843  1
  Sr  Sr62  1  0.48455489  0.33256996  0.38888692  1
  Sr  Sr63  1  0.50013514  0.33399022  0.83912673  1
  Sr  Sr64  1  0.51725297  0.66688159  0.39152534  1
  Sr  Sr65  1  0.51535727  0.65243445  0.88806135  1
  Sr  Sr66  1  0.83609979  -0.00197132  0.34494872  1
  Sr  Sr67  1  0.84967017  -0.00291044  0.86688696  1
  Sr  Sr68  1  0.83887434  0.31919445  0.41585199  1
  Sr  Sr69  1  0.81863930  0.33393355  0.87435943  1
  Sr  Sr70  1  0.83526353  0.65519785  0.37570606  1
  Sr  Sr71  1  0.86654407  0.67481570  0.86797428  1
  Ta  Ta72  1  0.12040106  0.17468257  0.00026742  1
  Ta  Ta73  1  0.15924804  0.21720505  0.49758525  1
  Ta  Ta74  1  0.15837532  0.54155701  0.00910505  1
  Ta  Ta75  1  0.16528342  0.45640883  0.49952881  1
  Ta  Ta76  1  0.20886136  0.83552601  0.00275564  1
  Ta  Ta77  1  0.10866126  0.83903015  0.50166564  1
  Ta  Ta78  1  0.49929332  0.21189650  0.00444331  1
  Ta  Ta79  1  0.49036951  0.12594415  0.50251959  1
  Ta  Ta80  1  0.50013171  0.45692916  0.00482061  1
  Ta  Ta81  1  0.54299596  0.49843819  0.49637266  1
  Ta  Ta82  1  0.44518178  0.83391866  0.00156850  1
  Ta  Ta83  1  0.46777212  0.84078937  0.50227917  1
  Ta  Ta84  1  0.86273844  0.15759759  0.00152927  1
  Ta  Ta85  1  0.82493222  0.12508626  0.49471531  1
  Ta  Ta86  1  0.85011217  0.53494191  0.00823913  1
  Ta  Ta87  1  0.79476518  0.49709285  0.49850750  1
  Ta  Ta88  1  0.80319456  0.82927103  -0.00919793  1
  Ta  Ta89  1  0.84015939  0.85350087  0.50562418  1
  Ta  Ta90  1  0.20398878  0.17041751  0.24699266  1
  Ta  Ta91  1  0.16315466  0.13091205  0.74530567  1
  Ta  Ta92  1  0.16291759  0.52942825  0.25404129  1
  Ta  Ta93  1  0.18371909  0.51021037  0.74485263  1
  Ta  Ta94  1  0.13281115  0.83872152  0.25175223  1
  Ta  Ta95  1  0.15525958  0.89359014  0.74154224  1
  Ta  Ta96  1  0.44442616  0.16680552  0.24239628  1
  Ta  Ta97  1  0.54854272  0.16328394  0.75531635  1
  Ta  Ta98  1  0.49131963  0.52734419  0.24925375  1
  Ta  Ta99  1  0.46687890  0.50556184  0.75561438  1
  Ta  Ta100  1  0.52001344  0.81345995  0.24447691  1
  Ta  Ta101  1  0.47984439  0.79806283  0.74580242  1
  Ta  Ta102  1  0.82825389  0.19962222  0.24267826  1
  Ta  Ta103  1  0.78772150  0.16648688  0.75199365  1
  Ta  Ta104  1  0.83883428  0.45938994  0.25225777  1
  Ta  Ta105  1  0.86759243  0.50062267  0.75150691  1
  Ta  Ta106  1  0.77578280  0.82654923  0.24019388  1
  Ta  Ta107  1  0.79947415  0.82061839  0.76552127  1
  Ta  Ta108  1  0.02135491  -0.02565181  0.24900393  1
  Ta  Ta109  1  0.03928529  0.00557099  0.74470314  1
  Ta  Ta110  1  -0.05462784  0.32758694  0.24611057  1
  Ta  Ta111  1  -0.02212686  0.36024138  0.74638186  1
  Ta  Ta112  1  0.04123405  0.66823879  0.25796355  1
  Ta  Ta113  1  0.01090356  0.61868446  0.74537740  1
  Ta  Ta114  1  0.33427930  0.03855764  0.24390116  1
  Ta  Ta115  1  0.29760711  0.00660512  0.75132315  1
  Ta  Ta116  1  0.32950736  0.29951194  0.24635156  1
  Ta  Ta117  1  0.32945258  0.38715693  0.74631038  1
  Ta  Ta118  1  0.37370598  0.66277428  0.24620912  1
  Ta  Ta119  1  0.35353993  0.64724104  0.75400078  1
  Ta  Ta120  1  0.66549223  -0.05678580  0.24463043  1
  Ta  Ta121  1  0.67473485  0.03407536  0.74887023  1
  Ta  Ta122  1  0.71356386  0.32986357  0.24856167  1
  Ta  Ta123  1  0.66471048  0.29368986  0.74648944  1
  Ta  Ta124  1  0.66278553  0.69960052  0.24244845  1
  Ta  Ta125  1  0.68936795  0.67918437  0.75679659  1
  Ta  Ta126  1  -0.00147267  0.05505493  -0.00016441  1
  Ta  Ta127  1  -0.02102886  -0.03510483  0.49466290  1
  Ta  Ta128  1  -0.00743067  0.28541742  0.00506688  1
  Ta  Ta129  1  0.03573720  0.33146747  0.49662346  1
  Ta  Ta130  1  0.02059830  0.64208983  0.00499356  1
  Ta  Ta131  1  0.00282762  0.70178054  0.50181720  1
  Ta  Ta132  1  0.33581923  -0.03716097  -0.00205899  1
  Ta  Ta133  1  0.36777929  -0.00356017  0.49959607  1
  Ta  Ta134  1  0.38088443  0.33599867  0.00095146  1
  Ta  Ta135  1  0.28257917  0.33646092  0.50477886  1
  Ta  Ta136  1  0.33318360  0.70507895  0.00061138  1
  Ta  Ta137  1  0.36077587  0.69324899  0.49976373  1
  Ta  Ta138  1  0.69789695  -0.01787406  -0.00583861  1
  Ta  Ta139  1  0.69338998  0.00276434  0.50152435  1
  Ta  Ta140  1  0.62536724  0.33035178  0.00739869  1
  Ta  Ta141  1  0.66275457  0.37616186  0.49988007  1
  Ta  Ta142  1  0.72093746  0.66967218  0.00339962  1
  Ta  Ta143  1  0.67616003  0.61106033  0.50336030  1
  N  N144  1  0.67812241  0.66587390  0.12160260  1
  N  N145  1  0.84317764  0.50399412  0.12606558  1
  N  N146  1  0.00316088  0.66128035  0.62884782  1
  N  N147  1  0.00714600  0.66660111  0.37782895  1
  N  N148  1  0.49103567  0.83204068  0.62917739  1
  N  N149  1  0.16326632  0.17262501  0.62789141  1
  N  N150  1  0.50997285  0.17042957  0.87272044  1
  N  N151  1  0.16435573  0.17233012  0.11946818  1
  N  N152  1  0.50195413  0.49591605  0.87548876  1
  N  N153  1  0.50891070  0.49773860  0.37532484  1
  N  N154  1  0.32901686  0.00223961  0.87038571  1
  N  N155  1  0.67316186  0.00028171  0.62178778  1
  N  N156  1  0.32156266  0.34352186  0.63222857  1
  N  N157  1  0.14912231  0.85230135  0.62099045  1
  N  N158  1  0.16553950  0.17881801  0.36672575  1
  N  N159  1  0.34948593  0.67046991  0.12631121  1
  N  N160  1  -0.00405463  -0.00914038  0.37012841  1
  N  N161  1  0.33277975  0.00437128  0.12411916  1
  N  N162  1  0.16932470  0.50137353  0.62387640  1
  N  N163  1  0.82527718  0.16419816  0.12247991  1
  N  N164  1  0.82665352  0.16781524  0.86966153  1
  N  N165  1  0.50600515  0.49623964  0.12704586  1
  N  N166  1  0.48750922  0.17068634  0.12439801  1
  N  N167  1  0.33796072  0.66771403  0.87440348  1
  N  N168  1  0.67435556  -0.00118307  0.87611286  1
  N  N169  1  0.83112748  0.49170035  0.37888756  1
  N  N170  1  -0.01188206  0.32200631  0.12564643  1
  N  N171  1  0.48530795  0.83297703  0.12765523  1
  N  N172  1  0.17536464  0.50414667  0.12664199  1
  N  N173  1  0.85262539  0.83673107  0.87364326  1
  N  N174  1  0.66717407  0.33073205  0.12700952  1
  N  N175  1  0.66182503  0.33642003  0.62407348  1
  N  N176  1  0.16943593  0.49655129  0.37579322  1
  O  O177  1  0.82972494  0.15112305  0.37035091  1
  O  O178  1  0.33723829  -0.00203986  0.62312142  1
  O  O179  1  0.32487824  0.32309645  0.37280313  1
  O  O180  1  0.66989657  0.65906148  0.37294020  1
  O  O181  1  0.83538211  0.49729606  0.62887997  1
  O  O182  1  0.34274704  0.66967076  0.62059066  1
  O  O183  1  0.68028294  0.33563622  0.37587715  1
  O  O184  1  -0.00851354  0.34585902  0.62138940  1
  O  O185  1  0.01343544  0.67085339  0.12717125  1
  O  O186  1  0.66082298  0.33709672  0.86937257  1
  O  O187  1  0.82937149  0.14871971  0.62022401  1
  O  O188  1  0.16627386  0.85230156  0.88071150  1
  O  O189  1  0.81128964  0.83707309  0.38071096  1
  O  O190  1  0.33218025  0.32509067  0.12011389  1
  O  O191  1  0.34045728  0.34482719  0.87474652  1
  O  O192  1  0.00762449  0.00972222  0.12354446  1
  O  O193  1  0.85840333  0.50866602  0.87706646  1
  O  O194  1  0.68286834  0.65039402  0.63300088  1
  O  O195  1  0.16191239  0.83798207  0.12505998  1
  O  O196  1  0.51122316  0.50027960  0.63384603  1
  O  O197  1  0.14995887  0.84363268  0.37751322  1
  O  O198  1  0.82657979  0.83127678  0.12180932  1
  O  O199  1  -0.02371531  0.32714781  0.87052762  1
  O  O200  1  0.01294859  0.01367868  0.87881665  1
  O  O201  1  0.48113584  0.82586210  0.87206688  1
  O  O202  1  0.35130628  0.68766347  0.37500252  1
  O  O203  1  0.17335419  0.51376077  0.88480010  1
  O  O204  1  0.01841942  0.64850460  0.87183202  1
  O  O205  1  -0.01011515  0.32737260  0.37655408  1
  O  O206  1  0.34878984  -0.00235764  0.37180748  1
  O  O207  1  0.00611777  0.00491712  0.61470023  1
  O  O208  1  0.67011639  -0.01610010  0.12505942  1
  O  O209  1  0.82812979  0.84052723  0.63337759  1
  O  O210  1  0.48570886  0.14981902  0.37597025  1
  O  O211  1  0.15939686  0.16965475  0.87172532  1
  O  O212  1  0.50352600  0.83537229  0.37797699  1
  O  O213  1  0.51074010  0.14500969  0.62493730  1
  O  O214  1  0.66802734  -0.02904986  0.37022482  1
  O  O215  1  0.67806234  0.65781052  0.87921785  1
