# generated using pymatgen
data_Sr24Ta24N11O13
_symmetry_space_group_name_H-M   'P 1'
_cell_length_a   16.75994933
_cell_length_b   16.84661676
_cell_length_c   15.73819561
_cell_angle_alpha   89.66157001
_cell_angle_beta   89.89289355
_cell_angle_gamma   90.00415734
_symmetry_Int_Tables_number   1
_chemical_formula_structural   Sr24Ta24N11O13
_chemical_formula_sum   'Sr72 Ta72 N33 O39'
_cell_volume   4443.56973218
_cell_formula_units_Z   3
loop_
 _symmetry_equiv_pos_site_id
 _symmetry_equiv_pos_as_xyz
  1  'x, y, z'
loop_
 _atom_site_type_symbol
 _atom_site_label
 _atom_site_symmetry_multiplicity
 _atom_site_fract_x
 _atom_site_fract_y
 _atom_site_fract_z
 _atom_site_occupancy
  Sr  Sr0  1  -0.00360330  0.16880405  0.08998803  1
  Sr  Sr1  1  0.00581378  0.15292584  0.63597106  1
  Sr  Sr2  1  0.01497952  0.48233711  0.17230375  1
  Sr  Sr3  1  -0.00907668  0.50210590  0.61566688  1
  Sr  Sr4  1  0.00316195  0.83384004  0.11962780  1
  Sr  Sr5  1  -0.02532856  0.82371143  0.66379926  1
  Sr  Sr6  1  0.32789446  0.16766884  0.14553581  1
  Sr  Sr7  1  0.35188971  0.16480993  0.58254954  1
  Sr  Sr8  1  0.32752207  0.50974029  0.07743421  1
  Sr  Sr9  1  0.33785499  0.48000606  0.63562342  1
  Sr  Sr10  1  0.33675487  0.81564971  0.17045838  1
  Sr  Sr11  1  0.32609766  0.83292941  0.61868286  1
  Sr  Sr12  1  0.66960771  0.15751412  0.12417664  1
  Sr  Sr13  1  0.66036519  0.15275148  0.66349885  1
  Sr  Sr14  1  0.68372792  0.48810735  0.11831778  1
  Sr  Sr15  1  0.65647498  0.48682016  0.64838834  1
  Sr  Sr16  1  0.66512851  0.82338630  0.12389402  1
  Sr  Sr17  1  0.67126258  0.82756657  0.58253170  1
  Sr  Sr18  1  0.15396429  0.01462061  0.09951629  1
  Sr  Sr19  1  0.17678274  -0.00473135  0.62212253  1
  Sr  Sr20  1  0.17428074  0.34299609  0.12998158  1
  Sr  Sr21  1  0.15618695  0.34493130  0.67288931  1
  Sr  Sr22  1  0.15377013  0.67297271  0.13472553  1
  Sr  Sr23  1  0.17477176  0.66068784  0.58547881  1
  Sr  Sr24  1  0.49180888  0.03020893  0.11279293  1
  Sr  Sr25  1  0.50282448  0.01378303  0.64563614  1
  Sr  Sr26  1  0.49288485  0.37382806  0.10315033  1
  Sr  Sr27  1  0.50300142  0.33901108  0.62788531  1
  Sr  Sr28  1  0.50262917  0.68330211  0.14055049  1
  Sr  Sr29  1  0.49865158  0.70059854  0.61634784  1
  Sr  Sr30  1  0.83563916  -0.01106472  0.16929388  1
  Sr  Sr31  1  0.83303562  0.00306836  0.61779039  1
  Sr  Sr32  1  0.82824968  0.32734253  0.13368491  1
  Sr  Sr33  1  0.85727594  0.32548072  0.58337987  1
  Sr  Sr34  1  0.83072972  0.68420365  0.07099738  1
  Sr  Sr35  1  0.83773099  0.64685514  0.63642831  1
  Sr  Sr36  1  -0.01722649  0.14813311  0.42664844  1
  Sr  Sr37  1  0.01120234  0.16466853  0.87092529  1
  Sr  Sr38  1  -0.01226874  0.50698189  0.39273164  1
  Sr  Sr39  1  0.00492172  0.49053149  0.83860605  1
  Sr  Sr40  1  -0.00308748  0.83589554  0.33590115  1
  Sr  Sr41  1  -0.00283044  0.81160313  0.89085968  1
  Sr  Sr42  1  0.32205319  0.17617407  0.36550142  1
  Sr  Sr43  1  0.34198059  0.13597838  0.91941426  1
  Sr  Sr44  1  0.33672374  0.48834588  0.40912250  1
  Sr  Sr45  1  0.33352794  0.48970115  0.87138587  1
  Sr  Sr46  1  0.31627000  0.82526117  0.38854572  1
  Sr  Sr47  1  0.34346924  0.84466306  0.82520819  1
  Sr  Sr48  1  0.67800735  0.15846748  0.34081347  1
  Sr  Sr49  1  0.66408046  0.15720634  0.87421872  1
  Sr  Sr50  1  0.64929408  0.48864979  0.34859392  1
  Sr  Sr51  1  0.68135285  0.48894576  0.87698052  1
  Sr  Sr52  1  0.67529299  0.82599744  0.37622719  1
  Sr  Sr53  1  0.65413224  0.82730763  0.91233730  1
  Sr  Sr54  1  0.16871860  0.01824954  0.40380777  1
  Sr  Sr55  1  0.17083699  -0.00745147  0.87609015  1
  Sr  Sr56  1  0.16708923  0.33682937  0.34052416  1
  Sr  Sr57  1  0.16743315  0.34833360  0.87329425  1
  Sr  Sr58  1  0.15114775  0.67493091  0.36088822  1
  Sr  Sr59  1  0.17121709  0.66997588  0.90534640  1
  Sr  Sr60  1  0.48690683  0.04371996  0.35274139  1
  Sr  Sr61  1  0.50755830  0.00523394  0.88183669  1
  Sr  Sr62  1  0.49040341  0.35086513  0.40602787  1
  Sr  Sr63  1  0.50755781  0.35932076  0.85325313  1
  Sr  Sr64  1  0.51348761  0.68804187  0.35798213  1
  Sr  Sr65  1  0.48671924  0.68985622  0.86848633  1
  Sr  Sr66  1  0.82982037  -0.00687170  0.38106863  1
  Sr  Sr67  1  0.84347888  0.00594806  0.83012210  1
  Sr  Sr68  1  0.82710500  0.33703854  0.36272788  1
  Sr  Sr69  1  0.83337197  0.31105243  0.91651228  1
  Sr  Sr70  1  0.82868732  0.66106170  0.41436584  1
  Sr  Sr71  1  0.84081633  0.64208315  0.85653943  1
  Ta  Ta72  1  0.17760959  0.19661425  0.00115089  1
  Ta  Ta73  1  0.16589552  0.20400652  0.50712838  1
  Ta  Ta74  1  0.13092583  0.50023094  0.00253522  1
  Ta  Ta75  1  0.16684878  0.46893862  0.50122061  1
  Ta  Ta76  1  0.21136667  0.83407299  0.00312200  1
  Ta  Ta77  1  0.12331558  0.83537408  0.50044264  1
  Ta  Ta78  1  0.50074697  0.21165141  0.00390099  1
  Ta  Ta79  1  0.54407905  0.17181638  0.50465775  1
  Ta  Ta80  1  0.52048630  0.54141595  -0.00501262  1
  Ta  Ta81  1  0.51176975  0.53995001  0.49689891  1
  Ta  Ta82  1  0.46239498  0.83861522  -0.00326788  1
  Ta  Ta83  1  0.49392380  0.88108886  0.50055088  1
  Ta  Ta84  1  0.82951201  0.11767794  -0.00447568  1
  Ta  Ta85  1  0.78702098  0.16385969  0.50336077  1
  Ta  Ta86  1  0.87829839  0.48956719  -0.00166779  1
  Ta  Ta87  1  0.78676376  0.49114240  0.50317263  1
  Ta  Ta88  1  0.82998134  0.87873948  0.00094720  1
  Ta  Ta89  1  0.86604192  0.82949100  0.49571927  1
  Ta  Ta90  1  0.11749532  0.16185603  0.25534329  1
  Ta  Ta91  1  0.21591673  0.16353004  0.75209993  1
  Ta  Ta92  1  0.21791186  0.50816365  0.24539002  1
  Ta  Ta93  1  0.17592108  0.54187954  0.75389781  1
  Ta  Ta94  1  0.16897669  0.88194486  0.25543586  1
  Ta  Ta95  1  0.15666927  0.80556372  0.74304210  1
  Ta  Ta96  1  0.49959994  0.22533295  0.24463008  1
  Ta  Ta97  1  0.46392781  0.17554660  0.75123469  1
  Ta  Ta98  1  0.45725958  0.50716464  0.25181286  1
  Ta  Ta99  1  0.49424445  0.54595824  0.75341093  1
  Ta  Ta100  1  0.50946559  0.87496060  0.25123216  1
  Ta  Ta101  1  0.54019605  0.84379086  0.74783743  1
  Ta  Ta102  1  0.87637145  0.16378969  0.25864803  1
  Ta  Ta103  1  0.83832470  0.19601962  0.74745212  1
  Ta  Ta104  1  0.83169190  0.52736996  0.25401994  1
  Ta  Ta105  1  0.83403117  0.44558758  0.74913855  1
  Ta  Ta106  1  0.82759602  0.79472519  0.24669677  1
  Ta  Ta107  1  0.78655324  0.82318702  0.75172132  1
  Ta  Ta108  1  0.01728944  0.02532555  0.25690857  1
  Ta  Ta109  1  0.02220774  -0.01979322  0.74854836  1
  Ta  Ta110  1  -0.00242507  0.28352812  0.25750104  1
  Ta  Ta111  1  -0.03523521  0.32261613  0.75199175  1
  Ta  Ta112  1  -0.06177043  0.65848672  0.24715921  1
  Ta  Ta113  1  0.04534663  0.66281948  0.74394650  1
  Ta  Ta114  1  0.31349604  -0.01195375  0.25359142  1
  Ta  Ta115  1  0.33368586  0.03667067  0.74843266  1
  Ta  Ta116  1  0.35164189  0.36133438  0.24450234  1
  Ta  Ta117  1  0.33437421  0.28470762  0.75007652  1
  Ta  Ta118  1  0.33440560  0.62455487  0.24913827  1
  Ta  Ta119  1  0.31333285  0.65559045  0.74896762  1
  Ta  Ta120  1  0.64532111  -0.02138469  0.24777193  1
  Ta  Ta121  1  0.67105919  -0.04621179  0.74464442  1
  Ta  Ta122  1  0.63272455  0.32365777  0.24161416  1
  Ta  Ta123  1  0.71173989  0.32406886  0.74958798  1
  Ta  Ta124  1  0.72371460  0.65709571  0.24644084  1
  Ta  Ta125  1  0.65717624  0.69343835  0.74744550  1
  Ta  Ta126  1  -0.03871383  -0.00661524  0.00438387  1
  Ta  Ta127  1  -0.00148180  -0.04697758  0.50180337  1
  Ta  Ta128  1  0.01062294  0.35777153  -0.00108191  1
  Ta  Ta129  1  0.05165860  0.32861173  0.50772613  1
  Ta  Ta130  1  0.00039022  0.61477701  0.00115549  1
  Ta  Ta131  1  -0.00246248  0.70793890  0.50373072  1
  Ta  Ta132  1  0.33379168  -0.04931018  -0.00181096  1
  Ta  Ta133  1  0.35865278  -0.01029901  0.49950036  1
  Ta  Ta134  1  0.33241273  0.31003287  -0.00079388  1
  Ta  Ta135  1  0.27778655  0.32909347  0.51036865  1
  Ta  Ta136  1  0.33880149  0.71930159  0.00088888  1
  Ta  Ta137  1  0.35660986  0.65340386  0.49506382  1
  Ta  Ta138  1  0.70991822  -0.00216531  -0.00278700  1
  Ta  Ta139  1  0.64653069  0.02049543  0.50257757  1
  Ta  Ta140  1  0.64637330  0.31604039  -0.00273968  1
  Ta  Ta141  1  0.67246160  0.30876149  0.50597222  1
  Ta  Ta142  1  0.64485118  0.64658205  -0.00135577  1
  Ta  Ta143  1  0.65668617  0.62750022  0.49780835  1
  N  N144  1  0.82735319  0.48694124  0.62072899  1
  N  N145  1  0.83059308  0.16124123  0.61996908  1
  N  N146  1  0.33547337  0.00389997  0.62629351  1
  N  N147  1  0.00134037  -0.00788403  0.62880459  1
  N  N148  1  0.00170308  0.32978473  0.87939967  1
  N  N149  1  0.67315723  0.32768029  0.87340960  1
  N  N150  1  0.83437537  0.82737763  0.37497037  1
  N  N151  1  0.49906114  0.84512314  0.87421629  1
  N  N152  1  0.16863508  0.50864408  0.87626216  1
  N  N153  1  0.32402852  0.32433839  0.62779189  1
  N  N154  1  0.16786678  0.82766560  0.62337268  1
  N  N155  1  -0.00356830  -0.00541166  0.37860905  1
  N  N156  1  0.66620770  0.32634778  0.62670570  1
  N  N157  1  0.82454045  0.49629239  0.37751574  1
  N  N158  1  0.50461912  0.17799916  0.62477452  1
  N  N159  1  0.33240175  0.34146532  0.12087625  1
  N  N160  1  0.66969707  -0.00752288  0.62035609  1
  N  N161  1  -0.00693889  -0.00098851  0.12457155  1
  N  N162  1  0.00896930  0.32862295  0.62584557  1
  N  N163  1  0.49508377  0.51370441  0.37190318  1
  N  N164  1  0.67251650  0.33303956  0.12386080  1
  N  N165  1  0.83684519  0.15417024  0.87640032  1
  N  N166  1  0.32716585  0.01245116  0.37438174  1
  N  N167  1  0.84342615  0.48251996  0.87899884  1
  N  N168  1  0.50482792  0.85181576  0.62175252  1
  N  N169  1  0.49118757  0.18437468  0.12726609  1
  N  N170  1  0.00530576  0.66635789  0.62336122  1
  N  N171  1  0.17282680  0.50322309  0.12831921  1
  N  N172  1  0.15953873  0.84406666  0.37261017  1
  N  N173  1  0.83222452  0.16124472  0.37816397  1
  N  N174  1  0.83066730  0.83554506  0.11982570  1
  N  N175  1  0.49374175  0.51512483  0.87215204  1
  N  N176  1  0.33635398  -0.00961992  0.87537375  1
  O  O177  1  0.48919013  0.52605318  0.11958018  1
  O  O178  1  0.33148577  0.33646312  0.87044398  1
  O  O179  1  -0.01287723  0.63843583  0.12886718  1
  O  O180  1  0.65837691  -0.00508957  0.37179190  1
  O  O181  1  0.33249256  0.65506237  0.61758618  1
  O  O182  1  0.68617747  -0.00591388  0.86746239  1
  O  O183  1  0.17084364  0.49850743  0.62514820  1
  O  O184  1  0.81015806  0.83355664  0.87570699  1
  O  O185  1  0.01002403  0.31048770  0.38225441  1
  O  O186  1  0.15534668  0.17879237  0.12622136  1
  O  O187  1  0.32552140  0.68111985  0.87246592  1
  O  O188  1  0.66462247  0.33108512  0.36638780  1
  O  O189  1  0.35005179  0.66576577  0.37102425  1
  O  O190  1  0.81967729  0.82231975  0.62648683  1
  O  O191  1  0.16944396  0.17782214  0.63588029  1
  O  O192  1  0.18574230  0.82622493  0.87598370  1
  O  O193  1  0.49296526  0.84994176  0.12819723  1
  O  O194  1  -0.01853617  0.66500602  0.37097926  1
  O  O195  1  0.18028861  0.48666903  0.37422352  1
  O  O196  1  0.67362618  0.64771445  0.36561494  1
  O  O197  1  0.18372876  0.84025160  0.13100361  1
  O  O198  1  0.68015756  0.65268848  0.12146644  1
  O  O199  1  0.84036462  0.48383885  0.12591124  1
  O  O200  1  0.49697192  0.52114222  0.62830452  1
  O  O201  1  0.17604710  0.17682263  0.87759979  1
  O  O202  1  0.51257633  0.85178083  0.37440474  1
  O  O203  1  0.33426628  -0.00543564  0.12373630  1
  O  O204  1  0.49503716  0.17415415  0.87718712  1
  O  O205  1  0.31945856  0.33537807  0.37244691  1
  O  O206  1  0.50759745  0.19249657  0.38037689  1
  O  O207  1  0.00762570  0.64744394  0.87489168  1
  O  O208  1  0.84556516  0.14739405  0.13221797  1
  O  O209  1  0.65585676  0.67475198  0.87163611  1
  O  O210  1  0.67351027  -0.01174461  0.12516245  1
  O  O211  1  0.16256341  0.17984358  0.37371860  1
  O  O212  1  -0.00332248  -0.01025679  0.87381990  1
  O  O213  1  0.33947163  0.67031410  0.12026787  1
  O  O214  1  0.65989411  0.66728441  0.62425109  1
  O  O215  1  0.00067543  0.32057553  0.13160402  1
