# generated using pymatgen
data_Sr24Ta24N11O13
_symmetry_space_group_name_H-M   'P 1'
_cell_length_a   17.49483224
_cell_length_b   16.61662874
_cell_length_c   15.28913422
_cell_angle_alpha   89.67526756
_cell_angle_beta   88.55391241
_cell_angle_gamma   90.95116617
_symmetry_Int_Tables_number   1
_chemical_formula_structural   Sr24Ta24N11O13
_chemical_formula_sum   'Sr72 Ta72 N33 O39'
_cell_volume   4442.51961766
_cell_formula_units_Z   3
loop_
 _symmetry_equiv_pos_site_id
 _symmetry_equiv_pos_as_xyz
  1  'x, y, z'
loop_
 _atom_site_type_symbol
 _atom_site_label
 _atom_site_symmetry_multiplicity
 _atom_site_fract_x
 _atom_site_fract_y
 _atom_site_fract_z
 _atom_site_occupancy
  Sr  Sr0  1  -0.00938757  0.16344698  0.13285454  1
  Sr  Sr1  1  -0.03841647  0.21101433  0.62509217  1
  Sr  Sr2  1  -0.00920523  0.51429028  0.10733805  1
  Sr  Sr3  1  -0.03172762  0.49989946  0.63497317  1
  Sr  Sr4  1  -0.03700881  0.83670816  0.17114539  1
  Sr  Sr5  1  0.01862982  0.82903792  0.61707286  1
  Sr  Sr6  1  0.32818879  0.17895186  0.09676800  1
  Sr  Sr7  1  0.31616427  0.16152001  0.63580292  1
  Sr  Sr8  1  0.29569358  0.49766896  0.17078298  1
  Sr  Sr9  1  0.34328855  0.50576471  0.62039631  1
  Sr  Sr10  1  0.32962109  0.84022021  0.13055516  1
  Sr  Sr11  1  0.30477322  0.86204650  0.63881776  1
  Sr  Sr12  1  0.62458971  0.16953588  0.16122993  1
  Sr  Sr13  1  0.66284171  0.17471820  0.61874551  1
  Sr  Sr14  1  0.66353294  0.50282368  0.13485062  1
  Sr  Sr15  1  0.63583731  0.52003715  0.62585010  1
  Sr  Sr16  1  0.66391160  0.84798606  0.10155630  1
  Sr  Sr17  1  0.63213078  0.82807366  0.63266029  1
  Sr  Sr18  1  0.19792139  -0.00680982  0.08663270  1
  Sr  Sr19  1  0.16727350  0.00633601  0.63198246  1
  Sr  Sr20  1  0.17626436  0.31733310  0.15416765  1
  Sr  Sr21  1  0.20332731  0.34357081  0.61340823  1
  Sr  Sr22  1  0.17219911  0.66601797  0.12109906  1
  Sr  Sr23  1  0.19826220  0.63608143  0.61730535  1
  Sr  Sr24  1  0.51122370  -0.01778259  0.14595850  1
  Sr  Sr25  1  0.53063237  0.00636742  0.61167337  1
  Sr  Sr26  1  0.50647709  0.34210866  0.12056527  1
  Sr  Sr27  1  0.52488268  0.31222241  0.62354729  1
  Sr  Sr28  1  0.54105824  0.67246875  0.07439662  1
  Sr  Sr29  1  0.49750805  0.66273630  0.63218367  1
  Sr  Sr30  1  0.83751180  -0.00579183  0.11609881  1
  Sr  Sr31  1  0.86437824  -0.03925422  0.61482937  1
  Sr  Sr32  1  0.87198590  0.32831623  0.08672498  1
  Sr  Sr33  1  0.81732057  0.33755139  0.63155240  1
  Sr  Sr34  1  0.83745503  0.65078666  0.15064984  1
  Sr  Sr35  1  0.86281586  0.67583812  0.60713998  1
  Sr  Sr36  1  -0.00575305  0.18122559  0.35387706  1
  Sr  Sr37  1  -0.03881341  0.17299431  0.89704189  1
  Sr  Sr38  1  -0.04346602  0.50445485  0.39671995  1
  Sr  Sr39  1  -0.00787068  0.49962497  0.89151867  1
  Sr  Sr40  1  -0.00787251  0.83487637  0.39931659  1
  Sr  Sr41  1  -0.01585028  0.85256637  0.83425077  1
  Sr  Sr42  1  0.29270605  0.16651798  0.41100572  1
  Sr  Sr43  1  0.31569250  0.16683722  0.87897773  1
  Sr  Sr44  1  0.33843338  0.50848726  0.38881965  1
  Sr  Sr45  1  0.31644113  0.51598060  0.85278564  1
  Sr  Sr46  1  0.33164704  0.84930666  0.34522637  1
  Sr  Sr47  1  0.28325753  0.83611821  0.91104535  1
  Sr  Sr48  1  0.65822364  0.17075810  0.39245176  1
  Sr  Sr49  1  0.65700994  0.18340316  0.84463615  1
  Sr  Sr50  1  0.65629722  0.51152488  0.34966085  1
  Sr  Sr51  1  0.61749154  0.50010131  0.91712310  1
  Sr  Sr52  1  0.62309521  0.83776400  0.39465858  1
  Sr  Sr53  1  0.65936093  0.83158296  0.88505459  1
  Sr  Sr54  1  0.18320664  -0.01550951  0.41200822  1
  Sr  Sr55  1  0.16324189  -0.00451879  0.85164258  1
  Sr  Sr56  1  0.17673488  0.32908092  0.36688246  1
  Sr  Sr57  1  0.20523371  0.33219656  0.85311042  1
  Sr  Sr58  1  0.21650455  0.66189182  0.34034336  1
  Sr  Sr59  1  0.17294942  0.64965850  0.90866137  1
  Sr  Sr60  1  0.50915402  0.00144348  0.36367794  1
  Sr  Sr61  1  0.54922618  -0.00378666  0.84618298  1
  Sr  Sr62  1  0.54141646  0.33058576  0.33719429  1
  Sr  Sr63  1  0.50968405  0.31454917  0.90515208  1
  Sr  Sr64  1  0.51322012  0.65257211  0.40547534  1
  Sr  Sr65  1  0.50231829  0.66334892  0.85740830  1
  Sr  Sr66  1  0.87944088  -0.00537735  0.34953743  1
  Sr  Sr67  1  0.84565202  -0.01140194  0.89507665  1
  Sr  Sr68  1  0.84527180  0.31720369  0.40460610  1
  Sr  Sr69  1  0.83399637  0.32707106  0.85680837  1
  Sr  Sr70  1  0.84061539  0.66522301  0.36234997  1
  Sr  Sr71  1  0.87075142  0.66331662  0.84684710  1
  Ta  Ta72  1  0.13831645  0.17316536  -0.00961139  1
  Ta  Ta73  1  0.11744431  0.17706370  0.51474505  1
  Ta  Ta74  1  0.17140592  0.46529915  0.01013021  1
  Ta  Ta75  1  0.12983966  0.49893413  0.47873052  1
  Ta  Ta76  1  0.09346016  0.83337752  -0.00283746  1
  Ta  Ta77  1  0.18123550  0.79216452  0.49436652  1
  Ta  Ta78  1  0.50136654  0.12519177  -0.00457826  1
  Ta  Ta79  1  0.46874415  0.16938863  0.48752249  1
  Ta  Ta80  1  0.43850193  0.50863069  0.01753362  1
  Ta  Ta81  1  0.50017732  0.46013239  0.49360401  1
  Ta  Ta82  1  0.46553415  0.84714587  -0.02377065  1
  Ta  Ta83  1  0.45264298  0.83834878  0.50384215  1
  Ta  Ta84  1  0.77918992  0.16532763  -0.00190161  1
  Ta  Ta85  1  0.83231920  0.12461794  0.50777779  1
  Ta  Ta86  1  0.80228243  0.50376345  -0.01167575  1
  Ta  Ta87  1  0.78693252  0.50687939  0.50172931  1
  Ta  Ta88  1  0.84386567  0.80021559  0.00720157  1
  Ta  Ta89  1  0.79272998  0.83085661  0.47155533  1
  Ta  Ta90  1  0.17345760  0.12636755  0.25104609  1
  Ta  Ta91  1  0.11589799  0.18160123  0.73976959  1
  Ta  Ta92  1  0.11561083  0.50314705  0.26435820  1
  Ta  Ta93  1  0.13482726  0.49810391  0.75541697  1
  Ta  Ta94  1  0.14233144  0.84175771  0.24638055  1
  Ta  Ta95  1  0.15962115  0.78081695  0.75808343  1
  Ta  Ta96  1  0.44602726  0.16705438  0.26496402  1
  Ta  Ta97  1  0.47170277  0.16092541  0.74945253  1
  Ta  Ta98  1  0.48199417  0.52848460  0.22619425  1
  Ta  Ta99  1  0.48847201  0.46155197  0.75192419  1
  Ta  Ta100  1  0.50290401  0.79178357  0.23901311  1
  Ta  Ta101  1  0.44634862  0.84237885  0.77026628  1
  Ta  Ta102  1  0.80745886  0.16730953  0.24513226  1
  Ta  Ta103  1  0.82332490  0.12618943  0.74112613  1
  Ta  Ta104  1  0.83279389  0.45912691  0.23976430  1
  Ta  Ta105  1  0.77442837  0.50993859  0.76682531  1
  Ta  Ta106  1  0.78056257  0.83521811  0.26264492  1
  Ta  Ta107  1  0.79836564  0.82502386  0.74398463  1
  Ta  Ta108  1  0.06150560  -0.00024775  0.25468864  1
  Ta  Ta109  1  -0.00513068  0.04695112  0.73711972  1
  Ta  Ta110  1  -0.00666786  0.36640593  0.24813500  1
  Ta  Ta111  1  0.03661792  0.33962990  0.76134655  1
  Ta  Ta112  1  0.03476686  0.66445899  0.27328550  1
  Ta  Ta113  1  0.04627082  0.65792446  0.74909940  1
  Ta  Ta114  1  0.32322129  0.03646138  0.25059959  1
  Ta  Ta115  1  0.37589037  0.00055640  0.77424755  1
  Ta  Ta116  1  0.35873659  0.31518737  0.26337880  1
  Ta  Ta117  1  0.37934412  0.32933753  0.75236267  1
  Ta  Ta118  1  0.39354631  0.66719414  0.23900928  1
  Ta  Ta119  1  0.32845880  0.70260154  0.76183754  1
  Ta  Ta120  1  0.69980502  0.00014116  0.26354950  1
  Ta  Ta121  1  0.71606796  -0.01084066  0.74353163  1
  Ta  Ta122  1  0.72148907  0.32753099  0.24069882  1
  Ta  Ta123  1  0.66016828  0.37315523  0.75906891  1
  Ta  Ta124  1  0.65365637  0.69591243  0.24597080  1
  Ta  Ta125  1  0.69745053  0.66518099  0.75276037  1
  Ta  Ta126  1  0.02220125  -0.00190138  -0.00711101  1
  Ta  Ta127  1  0.00810483  0.04427135  0.51712194  1
  Ta  Ta128  1  0.05559199  0.32684000  -0.00089099  1
  Ta  Ta129  1  0.03533691  0.34626196  0.49544777  1
  Ta  Ta130  1  -0.00862052  0.69861972  0.00914095  1
  Ta  Ta131  1  0.05814911  0.65708197  0.47946289  1
  Ta  Ta132  1  0.38754058  -0.00443468  -0.02322595  1
  Ta  Ta133  1  0.36684827  -0.00075797  0.50053488  1
  Ta  Ta134  1  0.33243545  0.37101818  0.01215978  1
  Ta  Ta135  1  0.38649777  0.32804848  0.48541370  1
  Ta  Ta136  1  0.35725339  0.66036849  0.01426863  1
  Ta  Ta137  1  0.34410599  0.70988148  0.49631395  1
  Ta  Ta138  1  0.66961900  0.03774256  0.00771944  1
  Ta  Ta139  1  0.71697833  -0.00857077  0.48317556  1
  Ta  Ta140  1  0.69263103  0.32495031  0.01358088  1
  Ta  Ta141  1  0.67052146  0.36853240  0.49747196  1
  Ta  Ta142  1  0.71990952  0.66092592  -0.00881855  1
  Ta  Ta143  1  0.69448311  0.66899601  0.49902961  1
  N  N144  1  0.00063275  0.33414991  0.37550741  1
  N  N145  1  0.68479233  0.66833109  0.11183167  1
  N  N146  1  0.68546376  0.33424759  0.37237225  1
  N  N147  1  0.49484776  0.15808061  0.61700874  1
  N  N148  1  0.51432322  0.16291342  0.36243174  1
  N  N149  1  0.33681934  0.33400180  0.13786656  1
  N  N150  1  0.00147267  0.01035534  0.86806013  1
  N  N151  1  0.67053032  0.33943612  0.63094657  1
  N  N152  1  0.83143967  0.49218775  0.10956470  1
  N  N153  1  0.82021324  0.82692660  0.12906423  1
  N  N154  1  0.51984767  0.50544204  0.10505769  1
  N  N155  1  0.33142267  0.67190214  0.88826299  1
  N  N156  1  0.65140077  0.00725634  0.38470658  1
  N  N157  1  0.16112777  0.49537458  0.87957423  1
  N  N158  1  0.13926798  0.82731739  0.87901105  1
  N  N159  1  0.35842946  0.67655044  0.37162676  1
  N  N160  1  0.51150336  0.16176778  0.87382685  1
  N  N161  1  0.49031125  0.49072023  0.62342819  1
  N  N162  1  0.81347618  0.16008171  0.87278534  1
  N  N163  1  0.33561886  0.00534594  0.37614315  1
  N  N164  1  0.01774601  0.33215824  0.12000994  1
  N  N165  1  0.65342902  0.33358444  0.14167823  1
  N  N166  1  0.14869860  0.49716769  0.14141663  1
  N  N167  1  0.66297954  0.66897837  0.37253715  1
  N  N168  1  0.01714756  -0.01516929  0.62975936  1
  N  N169  1  0.66308265  0.67547938  0.63195379  1
  N  N170  1  -0.01644445  0.67480965  0.38767627  1
  N  N171  1  0.17072151  0.18089601  0.62692496  1
  N  N172  1  0.85365293  0.83007001  0.35732805  1
  N  N173  1  0.66290914  0.33733558  0.88800132  1
  N  N174  1  0.81416870  0.17694716  0.61792911  1
  N  N175  1  0.67161218  0.00639392  0.13188815  1
  N  N176  1  0.51808648  0.82336500  0.86441328  1
  O  O177  1  0.19583297  0.48746440  0.36720436  1
  O  O178  1  0.34393195  -0.00142513  0.12260899  1
  O  O179  1  0.02939234  0.35404464  0.63397535  1
  O  O180  1  0.46987249  0.83948182  0.63427133  1
  O  O181  1  0.03650865  0.65641819  0.61724198  1
  O  O182  1  0.80725702  0.50408763  0.63031490  1
  O  O183  1  0.34380043  0.66751825  0.63214333  1
  O  O184  1  0.47979032  0.83341235  0.36722848  1
  O  O185  1  0.16437581  0.16352044  0.86420588  1
  O  O186  1  0.30556872  0.00870829  0.88472565  1
  O  O187  1  0.47852327  0.15683447  0.12668570  1
  O  O188  1  0.15097879  0.17132671  0.37399681  1
  O  O189  1  0.35255278  0.32682595  0.88602961  1
  O  O190  1  0.36094431  0.00525398  0.64049280  1
  O  O191  1  0.80257462  0.82135873  0.61235280  1
  O  O192  1  0.15594641  0.15949265  0.12015741  1
  O  O193  1  0.31690768  0.35142203  0.38458620  1
  O  O194  1  0.65071911  0.67602363  0.88086723  1
  O  O195  1  0.01114252  0.66339953  0.88315499  1
  O  O196  1  0.14459503  0.49373905  0.61229365  1
  O  O197  1  0.16819124  0.79893598  0.62211918  1
  O  O198  1  -0.00841507  0.33735268  0.88469338  1
  O  O199  1  0.14379600  0.83441385  0.11870863  1
  O  O200  1  0.69294783  -0.00949350  0.87674796  1
  O  O201  1  -0.00210688  0.68087381  0.14223949  1
  O  O202  1  0.83689335  0.15836523  0.11946656  1
  O  O203  1  0.03922365  0.00532765  0.13025765  1
  O  O204  1  0.36127016  0.32645819  0.62210482  1
  O  O205  1  0.03029765  0.00851280  0.38520142  1
  O  O206  1  0.81024887  0.50208432  0.36858445  1
  O  O207  1  0.18017175  0.82878910  0.36568685  1
  O  O208  1  0.83225903  0.82201330  0.86920511  1
  O  O209  1  0.82724229  0.16319051  0.37470070  1
  O  O210  1  0.49512068  0.49924050  0.36561207  1
  O  O211  1  0.31517056  0.68581812  0.13876649  1
  O  O212  1  0.49401275  0.82896606  0.11087575  1
  O  O213  1  0.85342993  0.50077395  0.85877990  1
  O  O214  1  0.47594410  0.50507210  0.87757590  1
  O  O215  1  0.68484980  -0.01621813  0.61780413  1
