# generated using pymatgen
data_Sr24Ta24N11O13
_symmetry_space_group_name_H-M   'P 1'
_cell_length_a   16.79274038
_cell_length_b   16.68662869
_cell_length_c   15.72104794
_cell_angle_alpha   89.73680024
_cell_angle_beta   89.89747310
_cell_angle_gamma   89.62142177
_symmetry_Int_Tables_number   1
_chemical_formula_structural   Sr24Ta24N11O13
_chemical_formula_sum   'Sr72 Ta72 N33 O39'
_cell_volume   4405.11178192
_cell_formula_units_Z   3
loop_
 _symmetry_equiv_pos_site_id
 _symmetry_equiv_pos_as_xyz
  1  'x, y, z'
loop_
 _atom_site_type_symbol
 _atom_site_label
 _atom_site_symmetry_multiplicity
 _atom_site_fract_x
 _atom_site_fract_y
 _atom_site_fract_z
 _atom_site_occupancy
  Sr  Sr0  1  -0.01767394  0.18139262  0.08170332  1
  Sr  Sr1  1  -0.01161901  0.15451732  0.62264917  1
  Sr  Sr2  1  0.00397250  0.49722529  0.15997650  1
  Sr  Sr3  1  -0.00103603  0.51070203  0.61328707  1
  Sr  Sr4  1  0.00426065  0.83477649  0.13457135  1
  Sr  Sr5  1  -0.00471001  0.84810162  0.59030307  1
  Sr  Sr6  1  0.31927164  0.16766687  0.11110855  1
  Sr  Sr7  1  0.30855259  0.17708532  0.65560878  1
  Sr  Sr8  1  0.32198646  0.50394859  0.12231056  1
  Sr  Sr9  1  0.34896732  0.50880064  0.58434428  1
  Sr  Sr10  1  0.33797625  0.84156532  0.16561268  1
  Sr  Sr11  1  0.30964254  0.85572591  0.62342957  1
  Sr  Sr12  1  0.65980503  0.14916909  0.16437270  1
  Sr  Sr13  1  0.65231259  0.18045229  0.61243709  1
  Sr  Sr14  1  0.67448134  0.49363716  0.11513602  1
  Sr  Sr15  1  0.65335816  0.49878213  0.66671408  1
  Sr  Sr16  1  0.64150643  0.82999819  0.06099222  1
  Sr  Sr17  1  0.67653444  0.83047319  0.63250786  1
  Sr  Sr18  1  0.17830479  -0.01467101  0.17419340  1
  Sr  Sr19  1  0.15287200  0.00624217  0.60833902  1
  Sr  Sr20  1  0.17476962  0.33113373  0.11469245  1
  Sr  Sr21  1  0.16052203  0.33980199  0.67164986  1
  Sr  Sr22  1  0.16377789  0.67058026  0.09475513  1
  Sr  Sr23  1  0.17761972  0.65896281  0.63173337  1
  Sr  Sr24  1  0.50432883  0.00543314  0.12535248  1
  Sr  Sr25  1  0.51633132  0.00200450  0.58194098  1
  Sr  Sr26  1  0.53441689  0.32302331  0.15719712  1
  Sr  Sr27  1  0.50037677  0.33673587  0.61990624  1
  Sr  Sr28  1  0.50586073  0.65030810  0.11777989  1
  Sr  Sr29  1  0.50585420  0.67596365  0.63693779  1
  Sr  Sr30  1  0.84154199  -0.00957785  0.11580322  1
  Sr  Sr31  1  0.81086385  0.00532714  0.67827959  1
  Sr  Sr32  1  0.83533186  0.33703708  0.09974492  1
  Sr  Sr33  1  0.84239468  0.32492683  0.59788482  1
  Sr  Sr34  1  0.85791479  0.64651193  0.16864099  1
  Sr  Sr35  1  0.83323770  0.66765235  0.61603191  1
  Sr  Sr36  1  -0.00683559  0.16895325  0.40409730  1
  Sr  Sr37  1  -0.01838810  0.14681964  0.87813614  1
  Sr  Sr38  1  -0.00433204  0.50006220  0.38613448  1
  Sr  Sr39  1  0.01828197  0.51013368  0.82752302  1
  Sr  Sr40  1  -0.01376774  0.85315285  0.35382681  1
  Sr  Sr41  1  0.01811012  0.82441543  0.91588226  1
  Sr  Sr42  1  0.28892575  0.17596670  0.35105791  1
  Sr  Sr43  1  0.33419135  0.16448349  0.88247576  1
  Sr  Sr44  1  0.33643632  0.49535575  0.37725019  1
  Sr  Sr45  1  0.32872052  0.51498503  0.91999422  1
  Sr  Sr46  1  0.32273611  0.85666956  0.37421403  1
  Sr  Sr47  1  0.31747119  0.82839877  0.83571015  1
  Sr  Sr48  1  0.65681965  0.18195017  0.38650185  1
  Sr  Sr49  1  0.65879409  0.16229521  0.84992423  1
  Sr  Sr50  1  0.66621464  0.51766707  0.33068116  1
  Sr  Sr51  1  0.67244333  0.49044875  0.88466311  1
  Sr  Sr52  1  0.65936964  0.81616565  0.41679430  1
  Sr  Sr53  1  0.69675189  0.84207669  0.85894834  1
  Sr  Sr54  1  0.14937683  0.00612868  0.38861703  1
  Sr  Sr55  1  0.18859299  -0.00667119  0.84228055  1
  Sr  Sr56  1  0.16548340  0.34289081  0.32700885  1
  Sr  Sr57  1  0.18044419  0.32252544  0.89234384  1
  Sr  Sr58  1  0.18548559  0.63219248  0.42217238  1
  Sr  Sr59  1  0.17014561  0.67197762  0.87306928  1
  Sr  Sr60  1  0.52440792  0.00215231  0.36943555  1
  Sr  Sr61  1  0.49369061  0.00899241  0.91907772  1
  Sr  Sr62  1  0.50972989  0.33586778  0.38624470  1
  Sr  Sr63  1  0.51978839  0.32417109  0.83822871  1
  Sr  Sr64  1  0.49501168  0.66244710  0.35780519  1
  Sr  Sr65  1  0.50831135  0.65980143  0.88833120  1
  Sr  Sr66  1  0.81855562  0.00978185  0.32701737  1
  Sr  Sr67  1  0.85843460  -0.02244553  0.90145549  1
  Sr  Sr68  1  0.84259486  0.31975166  0.40289252  1
  Sr  Sr69  1  0.83424637  0.33639411  0.90117636  1
  Sr  Sr70  1  0.82975035  0.67006220  0.38438380  1
  Sr  Sr71  1  0.84638964  0.64726701  0.83315579  1
  Ta  Ta72  1  0.16033193  0.11834879  0.00762587  1
  Ta  Ta73  1  0.16609225  0.22477647  0.50260102  1
  Ta  Ta74  1  0.13094614  0.49984410  0.00192755  1
  Ta  Ta75  1  0.17024528  0.44597077  0.50351914  1
  Ta  Ta76  1  0.19629969  0.85403052  0.01424792  1
  Ta  Ta77  1  0.15633451  0.80855036  0.48578979  1
  Ta  Ta78  1  0.51163699  0.19412011  0.00268432  1
  Ta  Ta79  1  0.43968185  0.17400214  0.49842910  1
  Ta  Ta80  1  0.50461812  0.45230600  0.00035974  1
  Ta  Ta81  1  0.54177876  0.51056339  0.49849600  1
  Ta  Ta82  1  0.44064194  0.83368714  -0.00279945  1
  Ta  Ta83  1  0.47481110  0.82524683  0.49778619  1
  Ta  Ta84  1  0.78549391  0.15939859  0.00561312  1
  Ta  Ta85  1  0.81824625  0.12146172  0.50042816  1
  Ta  Ta86  1  0.86591508  0.51979354  -0.00839803  1
  Ta  Ta87  1  0.79432139  0.50175820  0.50215238  1
  Ta  Ta88  1  0.84378827  0.77322887  0.00007220  1
  Ta  Ta89  1  0.83005318  0.87374361  0.49501155  1
  Ta  Ta90  1  0.10959079  0.17000965  0.23740059  1
  Ta  Ta91  1  0.12971235  0.16678759  0.75769590  1
  Ta  Ta92  1  0.17133963  0.53391234  0.25469435  1
  Ta  Ta93  1  0.22083276  0.50338905  0.74690330  1
  Ta  Ta94  1  0.16514117  0.78752084  0.26485826  1
  Ta  Ta95  1  0.12249224  0.83316292  0.73685751  1
  Ta  Ta96  1  0.46265268  0.16939648  0.24863073  1
  Ta  Ta97  1  0.49175133  0.13466477  0.74992536  1
  Ta  Ta98  1  0.48035525  0.48260806  0.24139050  1
  Ta  Ta99  1  0.45927116  0.50235044  0.76012988  1
  Ta  Ta100  1  0.52995828  0.83051657  0.24332351  1
  Ta  Ta101  1  0.49821441  0.86598199  0.75241084  1
  Ta  Ta102  1  0.85601715  0.19215741  0.24335358  1
  Ta  Ta103  1  0.83288277  0.19873006  0.75237665  1
  Ta  Ta104  1  0.83863928  0.45276019  0.26259129  1
  Ta  Ta105  1  0.83781493  0.46000845  0.74259082  1
  Ta  Ta106  1  0.79889957  0.82467079  0.24656078  1
  Ta  Ta107  1  0.88612203  0.82983471  0.75622404  1
  Ta  Ta108  1  -0.00352948  0.04445790  0.24183913  1
  Ta  Ta109  1  0.00660170  -0.02699087  0.75848153  1
  Ta  Ta110  1  -0.02243644  0.31014322  0.24679861  1
  Ta  Ta111  1  -0.02478816  0.31687329  0.75315462  1
  Ta  Ta112  1  0.04856964  0.66710947  0.26202128  1
  Ta  Ta113  1  0.01000615  0.70705184  0.74677948  1
  Ta  Ta114  1  0.35673290  0.02433450  0.25575315  1
  Ta  Ta115  1  0.38591999  0.00260981  0.75264637  1
  Ta  Ta116  1  0.36191900  0.33622018  0.23855063  1
  Ta  Ta117  1  0.33980215  0.38123310  0.75639441  1
  Ta  Ta118  1  0.30224481  0.66382513  0.25744564  1
  Ta  Ta119  1  0.34339509  0.63361997  0.75569923  1
  Ta  Ta120  1  0.66472186  -0.07287856  0.23609593  1
  Ta  Ta121  1  0.60648782  -0.00390276  0.75106257  1
  Ta  Ta122  1  0.71036169  0.33265709  0.25280923  1
  Ta  Ta123  1  0.70773504  0.32879410  0.74662807  1
  Ta  Ta124  1  0.66341002  0.72280828  0.24036765  1
  Ta  Ta125  1  0.66744145  0.66887666  0.75215308  1
  Ta  Ta126  1  0.05301635  -0.00329466  0.01076463  1
  Ta  Ta127  1  -0.05980410  0.00253031  0.49168064  1
  Ta  Ta128  1  0.00688180  0.38944014  -0.00479410  1
  Ta  Ta129  1  0.04055445  0.33584962  0.50292246  1
  Ta  Ta130  1  -0.01380972  0.63475909  -0.00755494  1
  Ta  Ta131  1  0.01619409  0.68657696  0.49202703  1
  Ta  Ta132  1  0.31319896  -0.02074132  0.00574747  1
  Ta  Ta133  1  0.34224394  0.02987250  0.49144249  1
  Ta  Ta134  1  0.38516986  0.33364460  0.00694775  1
  Ta  Ta135  1  0.30838150  0.31839800  0.49994567  1
  Ta  Ta136  1  0.33441362  0.71116624  0.00074364  1
  Ta  Ta137  1  0.35084234  0.70155063  0.49972779  1
  Ta  Ta138  1  0.67616796  0.02600334  0.00121419  1
  Ta  Ta139  1  0.71040253  -0.00512526  0.49710247  1
  Ta  Ta140  1  0.65511547  0.30585123  0.00051164  1
  Ta  Ta141  1  0.67040880  0.38162384  0.49858554  1
  Ta  Ta142  1  0.72777997  0.65734649  0.00267605  1
  Ta  Ta143  1  0.65875498  0.62534251  0.50349701  1
  N  N144  1  0.17602890  0.82980490  0.13504717  1
  N  N145  1  0.67235372  0.33950593  0.37883388  1
  N  N146  1  0.85462314  0.81756903  0.88209458  1
  N  N147  1  -0.00126916  -0.00391160  0.12169384  1
  N  N148  1  0.00788756  0.66222966  0.87155071  1
  N  N149  1  0.32999919  0.33470828  0.11874024  1
  N  N150  1  0.18529459  0.49297575  0.61928702  1
  N  N151  1  0.15558449  0.83839396  0.61449454  1
  N  N152  1  0.16134315  0.50401815  0.12278772  1
  N  N153  1  0.67456123  0.32827173  0.87398926  1
  N  N154  1  0.49563249  0.16541333  0.87240174  1
  N  N155  1  0.49329026  0.16515851  0.12523739  1
  N  N156  1  0.51538528  0.49324939  0.12481596  1
  N  N157  1  0.33829898  0.00219805  0.12883659  1
  N  N158  1  -0.02222436  0.01230341  0.36879999  1
  N  N159  1  0.16230955  0.85321738  0.36634186  1
  N  N160  1  0.33610349  0.67120938  0.87615689  1
  N  N161  1  0.15766776  0.16897401  0.12172549  1
  N  N162  1  0.82580168  0.83821877  0.37257302  1
  N  N163  1  0.01580852  -0.01312544  0.88133893  1
  N  N164  1  0.83580237  0.49731786  0.37666707  1
  N  N165  1  0.34325266  -0.00047267  0.87129212  1
  N  N166  1  0.66804783  0.66398641  0.63010607  1
  N  N167  1  0.17176822  0.48663557  0.37141231  1
  N  N168  1  0.84647481  0.49613286  0.87116201  1
  N  N169  1  0.83609104  0.50126382  0.62598716  1
  N  N170  1  0.66973243  0.33783460  0.62453895  1
  N  N171  1  0.50017728  0.49489910  0.87808065  1
  N  N172  1  0.66600935  -0.01905248  0.11511445  1
  N  N173  1  0.33724064  0.66936566  0.37665401  1
  N  N174  1  0.68255147  0.32951466  0.12685881  1
  N  N175  1  0.82684330  0.16554099  0.12400217  1
  N  N176  1  0.30725184  0.01398419  0.37360904  1
  O  O177  1  -0.00954903  0.00125568  0.61434742  1
  O  O178  1  0.49043926  0.84535954  0.62095547  1
  O  O179  1  0.47758441  0.18108093  0.38180354  1
  O  O180  1  0.14233554  0.16460016  0.88222657  1
  O  O181  1  0.00239884  0.32568017  0.37916590  1
  O  O182  1  -0.00686189  0.34412241  0.11600968  1
  O  O183  1  0.15040351  0.18373386  0.63259349  1
  O  O184  1  -0.01494205  0.66753060  0.37289536  1
  O  O185  1  0.46482976  0.17872536  0.62421625  1
  O  O186  1  0.32234902  0.67663975  0.12551964  1
  O  O187  1  0.16875485  0.83565092  0.86294178  1
  O  O188  1  0.85125304  0.80204371  0.13017121  1
  O  O189  1  0.17433779  0.50957936  0.86871544  1
  O  O190  1  0.82745447  0.16356673  0.62912281  1
  O  O191  1  0.32640734  0.33062571  0.37178202  1
  O  O192  1  0.01265842  0.65489343  0.13563813  1
  O  O193  1  0.83188497  0.16392863  0.37789693  1
  O  O194  1  0.67385210  -0.03042207  0.37421309  1
  O  O195  1  0.34059799  0.34012858  0.87874117  1
  O  O196  1  0.49926891  0.49837890  0.62226360  1
  O  O197  1  0.49333609  0.83313277  0.11749807  1
  O  O198  1  0.69039996  0.65645652  0.88276127  1
  O  O199  1  0.83803637  0.84853143  0.63831093  1
  O  O200  1  -0.00668312  0.34313429  0.87439867  1
  O  O201  1  0.84944201  0.49509360  0.13939195  1
  O  O202  1  -0.00394432  0.31770921  0.62653296  1
  O  O203  1  0.67241946  0.67796096  0.12005737  1
  O  O204  1  0.34757617  0.00676719  0.62152842  1
  O  O205  1  0.50810545  0.49823529  0.36976833  1
  O  O206  1  0.50189173  0.82863820  0.37435084  1
  O  O207  1  0.66043358  -0.00880101  0.63114273  1
  O  O208  1  0.66156362  0.67288790  0.36329356  1
  O  O209  1  0.48067880  0.84390504  0.87525363  1
  O  O210  1  0.14295770  0.19128827  0.37328180  1
  O  O211  1  0.64643835  -0.00326982  0.87484170  1
  O  O212  1  0.32863328  0.33683974  0.63354876  1
  O  O213  1  0.34357296  0.66600985  0.62411894  1
  O  O214  1  0.01598031  0.67071362  0.61901232  1
  O  O215  1  0.82825649  0.17869810  0.87968457  1
