# generated using pymatgen
data_Sr24Ta24N11O13
_symmetry_space_group_name_H-M   'P 1'
_cell_length_a   17.07693132
_cell_length_b   17.14188950
_cell_length_c   15.19976114
_cell_angle_alpha   88.49826955
_cell_angle_beta   91.11685512
_cell_angle_gamma   89.12225539
_symmetry_Int_Tables_number   1
_chemical_formula_structural   Sr24Ta24N11O13
_chemical_formula_sum   'Sr72 Ta72 N33 O39'
_cell_volume   4446.50825164
_cell_formula_units_Z   3
loop_
 _symmetry_equiv_pos_site_id
 _symmetry_equiv_pos_as_xyz
  1  'x, y, z'
loop_
 _atom_site_type_symbol
 _atom_site_label
 _atom_site_symmetry_multiplicity
 _atom_site_fract_x
 _atom_site_fract_y
 _atom_site_fract_z
 _atom_site_occupancy
  Sr  Sr0  1  0.00425236  0.15693590  0.14886624  1
  Sr  Sr1  1  -0.03094436  0.15770777  0.60137647  1
  Sr  Sr2  1  0.00025636  0.50130045  0.11591245  1
  Sr  Sr3  1  -0.00910029  0.46233158  0.65425104  1
  Sr  Sr4  1  -0.03551186  0.78699538  0.12884516  1
  Sr  Sr5  1  0.00350239  0.84034261  0.62678704  1
  Sr  Sr6  1  0.30718614  0.14670074  0.12799552  1
  Sr  Sr7  1  0.32614000  0.16960060  0.62555592  1
  Sr  Sr8  1  0.32973749  0.48195801  0.12666006  1
  Sr  Sr9  1  0.28676963  0.49666957  0.58510940  1
  Sr  Sr10  1  0.32285614  0.83496649  0.10670386  1
  Sr  Sr11  1  0.31910115  0.79922416  0.66373679  1
  Sr  Sr12  1  0.65078401  0.17214068  0.11520283  1
  Sr  Sr13  1  0.66400956  0.11218055  0.67615696  1
  Sr  Sr14  1  0.62721898  0.45820891  0.12450507  1
  Sr  Sr15  1  0.67297562  0.50548555  0.62472023  1
  Sr  Sr16  1  0.66545077  0.82522406  0.13481167  1
  Sr  Sr17  1  0.62665602  0.82392894  0.60345076  1
  Sr  Sr18  1  0.17245935  -0.00556447  0.12723340  1
  Sr  Sr19  1  0.18919162  0.03253826  0.61265004  1
  Sr  Sr20  1  0.17245972  0.37294949  0.11084190  1
  Sr  Sr21  1  0.16827006  0.33607811  0.63984607  1
  Sr  Sr22  1  0.20414280  0.65158158  0.14490728  1
  Sr  Sr23  1  0.16015345  0.67183260  0.59973841  1
  Sr  Sr24  1  0.53729519  0.00994867  0.14119463  1
  Sr  Sr25  1  0.49726044  0.00627453  0.60816210  1
  Sr  Sr26  1  0.48646408  0.33328753  0.12464047  1
  Sr  Sr27  1  0.53812733  0.37588753  0.63326959  1
  Sr  Sr28  1  0.50716903  0.70990736  0.07760047  1
  Sr  Sr29  1  0.51131509  0.67050435  0.63464427  1
  Sr  Sr30  1  0.83793442  0.03993213  0.08685096  1
  Sr  Sr31  1  0.85303663  -0.00580847  0.64064025  1
  Sr  Sr32  1  0.87559149  0.33562977  0.17110233  1
  Sr  Sr33  1  0.84096838  0.34529049  0.61465453  1
  Sr  Sr34  1  0.82585894  0.65331300  0.12747653  1
  Sr  Sr35  1  0.86518028  0.69376643  0.60867638  1
  Sr  Sr36  1  -0.02919830  0.17008866  0.36652486  1
  Sr  Sr37  1  -0.00759998  0.13044284  0.91073980  1
  Sr  Sr38  1  -0.05662655  0.48302960  0.33431603  1
  Sr  Sr39  1  0.00000659  0.48621501  0.89208791  1
  Sr  Sr40  1  -0.01799518  0.81787229  0.40022658  1
  Sr  Sr41  1  -0.01627351  0.82585486  0.84597392  1
  Sr  Sr42  1  0.34477338  0.13754243  0.41182297  1
  Sr  Sr43  1  0.31651183  0.16246748  0.84275860  1
  Sr  Sr44  1  0.33202787  0.50453709  0.35119946  1
  Sr  Sr45  1  0.32199236  0.46185003  0.89577482  1
  Sr  Sr46  1  0.30166586  0.82788929  0.34038573  1
  Sr  Sr47  1  0.32656992  0.83365151  0.89260698  1
  Sr  Sr48  1  0.63738270  0.15128675  0.36967331  1
  Sr  Sr49  1  0.66762035  0.16274389  0.89667685  1
  Sr  Sr50  1  0.64541760  0.49487743  0.40303247  1
  Sr  Sr51  1  0.64998646  0.48815865  0.84671875  1
  Sr  Sr52  1  0.65662932  0.82836993  0.35643855  1
  Sr  Sr53  1  0.65812170  0.77947880  0.91332260  1
  Sr  Sr54  1  0.18290433  0.01830473  0.35023065  1
  Sr  Sr55  1  0.18149827  0.01933070  0.91141144  1
  Sr  Sr56  1  0.22254707  0.34474466  0.42324191  1
  Sr  Sr57  1  0.16898306  0.33890546  0.85590683  1
  Sr  Sr58  1  0.19243473  0.66444849  0.38370765  1
  Sr  Sr59  1  0.17213843  0.71907208  0.82699058  1
  Sr  Sr60  1  0.51351015  -0.01226216  0.38638426  1
  Sr  Sr61  1  0.50810690  0.04698603  0.83437337  1
  Sr  Sr62  1  0.51315539  0.34710836  0.35701848  1
  Sr  Sr63  1  0.50840397  0.34689390  0.89814714  1
  Sr  Sr64  1  0.52568487  0.67669341  0.39327032  1
  Sr  Sr65  1  0.49762264  0.67294211  0.84777326  1
  Sr  Sr66  1  0.86051859  0.00967574  0.39762022  1
  Sr  Sr67  1  0.83441709  0.01260752  0.85645148  1
  Sr  Sr68  1  0.82725231  0.33049319  0.40113990  1
  Sr  Sr69  1  0.84279781  0.37230630  0.84608996  1
  Sr  Sr70  1  0.83184824  0.68249802  0.34231889  1
  Sr  Sr71  1  0.85176085  0.66653412  0.90756764  1
  Ta  Ta72  1  0.15527847  0.20484640  0.00009949  1
  Ta  Ta73  1  0.12939047  0.18511129  0.49588215  1
  Ta  Ta74  1  0.17561578  0.56499135  -0.04716284  1
  Ta  Ta75  1  0.10535785  0.49093505  0.49690884  1
  Ta  Ta76  1  0.12782794  0.82586392  0.00356647  1
  Ta  Ta77  1  0.16709501  0.86735075  0.50127867  1
  Ta  Ta78  1  0.46486517  0.16741333  -0.00657982  1
  Ta  Ta79  1  0.51097088  0.20372520  0.53366943  1
  Ta  Ta80  1  0.48739072  0.53525402  -0.00017838  1
  Ta  Ta81  1  0.46392736  0.51322360  0.50914692  1
  Ta  Ta82  1  0.50670925  0.89359755  -0.01846843  1
  Ta  Ta83  1  0.44505166  0.82597724  0.50210173  1
  Ta  Ta84  1  0.84172053  0.22251947  0.00067185  1
  Ta  Ta85  1  0.78346795  0.15681937  0.51584596  1
  Ta  Ta86  1  0.80050624  0.48384585  0.02320930  1
  Ta  Ta87  1  0.83238200  0.53293560  0.50010022  1
  Ta  Ta88  1  0.82494463  0.86015840  -0.00504084  1
  Ta  Ta89  1  0.79554125  0.84430035  0.49901489  1
  Ta  Ta90  1  0.17749578  0.21231232  0.26844632  1
  Ta  Ta91  1  0.11958041  0.16587507  0.75083235  1
  Ta  Ta92  1  0.12723797  0.49479522  0.31104193  1
  Ta  Ta93  1  0.16039395  0.53300288  0.75324907  1
  Ta  Ta94  1  0.11629156  0.83046839  0.24044495  1
  Ta  Ta95  1  0.16687174  0.89807166  0.75863212  1
  Ta  Ta96  1  0.46542374  0.16824937  0.25646214  1
  Ta  Ta97  1  0.50519081  0.22250506  0.73850137  1
  Ta  Ta98  1  0.49696919  0.55044789  0.23218824  1
  Ta  Ta99  1  0.44854737  0.50149562  0.73696995  1
  Ta  Ta100  1  0.47723506  0.83529922  0.23966327  1
  Ta  Ta101  1  0.49359774  0.86666528  0.76831466  1
  Ta  Ta102  1  0.79996942  0.16436494  0.25576877  1
  Ta  Ta103  1  0.83709767  0.19371494  0.76380244  1
  Ta  Ta104  1  0.77142686  0.49147057  0.24686263  1
  Ta  Ta105  1  0.83621136  0.55104448  0.74221434  1
  Ta  Ta106  1  0.83505331  0.88664603  0.25029455  1
  Ta  Ta107  1  0.78721855  0.81780472  0.74762890  1
  Ta  Ta108  1  -0.00362590  -0.04495091  0.23308160  1
  Ta  Ta109  1  0.03871588  0.00530951  0.75652831  1
  Ta  Ta110  1  0.05926235  0.33557320  0.28146269  1
  Ta  Ta111  1  -0.00462310  0.27809931  0.75425054  1
  Ta  Ta112  1  0.03773681  0.64850898  0.26013826  1
  Ta  Ta113  1  0.00303359  0.63539473  0.74715795  1
  Ta  Ta114  1  0.36879834  -0.00424758  0.24372618  1
  Ta  Ta115  1  0.33835750  -0.02514013  0.74304987  1
  Ta  Ta116  1  0.33446370  0.29629421  0.25099693  1
  Ta  Ta117  1  0.36496547  0.34122235  0.73461081  1
  Ta  Ta118  1  0.38813601  0.67762050  0.23464870  1
  Ta  Ta119  1  0.32237604  0.61500023  0.75426463  1
  Ta  Ta120  1  0.71184333  0.00476313  0.24339131  1
  Ta  Ta121  1  0.65811776  -0.06853712  0.77476164  1
  Ta  Ta122  1  0.69248886  0.31898034  0.25862598  1
  Ta  Ta123  1  0.68091329  0.29597145  0.73601029  1
  Ta  Ta124  1  0.65142210  0.63293076  0.23352976  1
  Ta  Ta125  1  0.71045318  0.67060004  0.74524475  1
  Ta  Ta126  1  -0.00422149  -0.05554513  0.00520991  1
  Ta  Ta127  1  0.03919635  -0.00287209  0.49242372  1
  Ta  Ta128  1  0.00523467  0.30835320  0.00470377  1
  Ta  Ta129  1  0.02646757  0.33381695  0.47727130  1
  Ta  Ta130  1  0.05303561  0.67305622  -0.00568730  1
  Ta  Ta131  1  -0.00464864  0.60690901  0.48462758  1
  Ta  Ta132  1  0.37922171  0.00958744  0.00392930  1
  Ta  Ta133  1  0.33063702  -0.05199266  0.50043983  1
  Ta  Ta134  1  0.32883587  0.28857329  -0.00607968  1
  Ta  Ta135  1  0.39209623  0.33662062  0.52340501  1
  Ta  Ta136  1  0.33468514  0.64347722  -0.03186947  1
  Ta  Ta137  1  0.35830665  0.67339047  0.50217564  1
  Ta  Ta138  1  0.66901844  -0.03289937  -0.02798947  1
  Ta  Ta139  1  0.69434840  -0.01165444  0.50617497  1
  Ta  Ta140  1  0.71531090  0.33842667  -0.00228988  1
  Ta  Ta141  1  0.66329400  0.28303897  0.52623756  1
  Ta  Ta142  1  0.66520731  0.60649620  0.01305530  1
  Ta  Ta143  1  0.70644647  0.67017811  0.49040970  1
  N  N144  1  0.49861315  0.19064846  0.87235038  1
  N  N145  1  0.33902640  0.69219025  0.84805971  1
  N  N146  1  0.84573264  0.49407550  0.14323246  1
  N  N147  1  0.49601137  0.14533250  0.64776728  1
  N  N148  1  0.82799067  0.84384097  0.37457966  1
  N  N149  1  0.32670061  -0.00873274  0.11442301  1
  N  N150  1  0.83171243  0.49717851  0.63096010  1
  N  N151  1  0.33558863  0.31903633  0.86157815  1
  N  N152  1  0.19761225  0.50337091  0.41846622  1
  N  N153  1  0.31360511  0.32912390  0.61060787  1
  N  N154  1  0.82407266  0.14673584  0.64703080  1
  N  N155  1  0.82079610  0.16390333  0.39253230  1
  N  N156  1  0.16750964  0.85702938  0.88837067  1
  N  N157  1  0.80138221  0.49893318  0.37346523  1
  N  N158  1  0.16033911  0.17081261  0.87913888  1
  N  N159  1  0.32320024  0.65686014  0.62146025  1
  N  N160  1  0.34212958  0.00406647  0.61882044  1
  N  N161  1  0.83725763  0.18373870  0.13192739  1
  N  N162  1  0.66875636  0.67655388  0.11090052  1
  N  N163  1  0.69087075  0.35190156  0.62393528  1
  N  N164  1  0.67296245  0.02055615  0.85413394  1
  N  N165  1  0.15590046  0.18029290  0.61942892  1
  N  N166  1  0.50763161  0.52414330  0.62995776  1
  N  N167  1  0.47804623  0.49269827  0.12077322  1
  N  N168  1  0.00073982  -0.01875800  0.88322501  1
  N  N169  1  -0.03000770  0.32576204  0.36243614  1
  N  N170  1  0.50176225  0.85558879  0.11528306  1
  N  N171  1  0.67474416  0.66396895  0.36692708  1
  N  N172  1  0.14266109  0.49507675  0.63230368  1
  N  N173  1  0.83303482  0.15853603  0.89659649  1
  N  N174  1  0.33796682  -0.01470026  0.37071691  1
  N  N175  1  0.33151335  0.32286799  0.12471514  1
  N  N176  1  0.15214388  0.47990929  0.87080071  1
  O  O177  1  0.33510945  0.00618068  0.87570129  1
  O  O178  1  0.49080305  0.50272447  0.87008617  1
  O  O179  1  0.48905326  0.17543470  0.38902424  1
  O  O180  1  0.48101741  0.83414817  0.63739379  1
  O  O181  1  0.34377982  0.67298538  0.35786554  1
  O  O182  1  0.01962677  -0.01063534  0.36358471  1
  O  O183  1  0.36495013  0.32670122  0.38702275  1
  O  O184  1  0.49400749  0.83260229  0.38191414  1
  O  O185  1  0.66399857  -0.03086243  0.63530483  1
  O  O186  1  0.69030721  0.31866209  0.12790707  1
  O  O187  1  0.00789817  0.63961217  0.61570305  1
  O  O188  1  -0.00403898  0.31323888  0.62279272  1
  O  O189  1  0.68360701  0.63828557  0.87750563  1
  O  O190  1  0.69201073  0.33954723  0.86537268  1
  O  O191  1  0.66470204  0.67194363  0.62118340  1
  O  O192  1  0.01187420  0.00054687  0.61974520  1
  O  O193  1  0.82034603  0.84912633  0.12260089  1
  O  O194  1  0.17691967  0.83853820  0.13257940  1
  O  O195  1  -0.00555328  0.01393998  0.11609589  1
  O  O196  1  0.48765147  0.81030739  0.89268317  1
  O  O197  1  0.68857250  0.00108127  0.11175153  1
  O  O198  1  0.16047121  0.20234449  0.14127732  1
  O  O199  1  0.16414817  0.85602441  0.63106699  1
  O  O200  1  -0.00208026  0.33428413  0.87295602  1
  O  O201  1  0.19001878  0.51181197  0.06544422  1
  O  O202  1  0.48909116  0.52193480  0.37706211  1
  O  O203  1  0.68594374  0.00116965  0.37578615  1
  O  O204  1  0.34674712  0.67913747  0.10458992  1
  O  O205  1  0.82987911  0.82449264  0.86917142  1
  O  O206  1  0.83048884  0.51602652  0.87590415  1
  O  O207  1  -0.01451270  0.66997129  0.37049656  1
  O  O208  1  0.49130674  0.17225505  0.12993573  1
  O  O209  1  0.84438872  0.83964616  0.62593715  1
  O  O210  1  0.02334439  0.32717762  0.13606944  1
  O  O211  1  0.05019196  0.64756109  0.13003697  1
  O  O212  1  0.14926413  0.84035115  0.37311411  1
  O  O213  1  0.66567188  0.31073906  0.38760444  1
  O  O214  1  0.20178225  0.16920528  0.39257396  1
  O  O215  1  0.00322690  0.67287059  0.86853770  1
