# generated using pymatgen
data_Sr24Ta24N11O13
_symmetry_space_group_name_H-M   'P 1'
_cell_length_a   16.71223257
_cell_length_b   16.83859188
_cell_length_c   15.63533458
_cell_angle_alpha   89.54303240
_cell_angle_beta   90.21110850
_cell_angle_gamma   90.29271693
_symmetry_Int_Tables_number   1
_chemical_formula_structural   Sr24Ta24N11O13
_chemical_formula_sum   'Sr72 Ta72 N33 O39'
_cell_volume   4399.72018490
_cell_formula_units_Z   3
loop_
 _symmetry_equiv_pos_site_id
 _symmetry_equiv_pos_as_xyz
  1  'x, y, z'
loop_
 _atom_site_type_symbol
 _atom_site_label
 _atom_site_symmetry_multiplicity
 _atom_site_fract_x
 _atom_site_fract_y
 _atom_site_fract_z
 _atom_site_occupancy
  Sr  Sr0  1  -0.01435219  0.18589156  0.12655156  1
  Sr  Sr1  1  0.00362924  0.16191749  0.66758952  1
  Sr  Sr2  1  0.00577422  0.50513245  0.16466205  1
  Sr  Sr3  1  0.01140360  0.50551426  0.62034365  1
  Sr  Sr4  1  0.01640926  0.83836839  0.12612966  1
  Sr  Sr5  1  0.00102136  0.85330017  0.57806711  1
  Sr  Sr6  1  0.33375962  0.16184352  0.12492035  1
  Sr  Sr7  1  0.31073141  0.18983101  0.61186566  1
  Sr  Sr8  1  0.31397534  0.53027612  0.07199024  1
  Sr  Sr9  1  0.33427677  0.50139622  0.62896283  1
  Sr  Sr10  1  0.34422611  0.82879146  0.16485477  1
  Sr  Sr11  1  0.34443227  0.84794327  0.60916017  1
  Sr  Sr12  1  0.67383666  0.18586180  0.09202733  1
  Sr  Sr13  1  0.65483873  0.17864617  0.63323250  1
  Sr  Sr14  1  0.65047209  0.49941603  0.13850624  1
  Sr  Sr15  1  0.66035870  0.52142464  0.57609529  1
  Sr  Sr16  1  0.66623875  0.84679405  0.10732637  1
  Sr  Sr17  1  0.69082400  0.83270154  0.66233818  1
  Sr  Sr18  1  0.17637743  -0.00439029  0.09187909  1
  Sr  Sr19  1  0.16848921  0.01673275  0.64098663  1
  Sr  Sr20  1  0.14673763  0.32391715  0.13892854  1
  Sr  Sr21  1  0.17434340  0.35444706  0.57992946  1
  Sr  Sr22  1  0.15980142  0.67932652  0.11472765  1
  Sr  Sr23  1  0.19657092  0.66523681  0.67793159  1
  Sr  Sr24  1  0.49269674  -0.01380225  0.14701980  1
  Sr  Sr25  1  0.51923535  -0.01816636  0.62949785  1
  Sr  Sr26  1  0.49621582  0.30906242  0.12529504  1
  Sr  Sr27  1  0.47144821  0.33654630  0.66434069  1
  Sr  Sr28  1  0.50876243  0.65666807  0.12242460  1
  Sr  Sr29  1  0.49641308  0.65868078  0.57920195  1
  Sr  Sr30  1  0.84468899  -0.01898565  0.14478309  1
  Sr  Sr31  1  0.83921722  -0.01251521  0.60907285  1
  Sr  Sr32  1  0.81888377  0.32475647  0.08550762  1
  Sr  Sr33  1  0.84608580  0.31592221  0.65199079  1
  Sr  Sr34  1  0.82790667  0.61599264  0.16471460  1
  Sr  Sr35  1  0.83624890  0.66430040  0.61891082  1
  Sr  Sr36  1  -0.00482319  0.16907683  0.34010205  1
  Sr  Sr37  1  -0.01047100  0.19263663  0.87985786  1
  Sr  Sr38  1  0.01279229  0.49656654  0.38259097  1
  Sr  Sr39  1  -0.01928578  0.51773895  0.83357876  1
  Sr  Sr40  1  0.00225202  0.84289048  0.37313191  1
  Sr  Sr41  1  0.01583191  0.83435128  0.91664365  1
  Sr  Sr42  1  0.32851561  0.18354079  0.35742005  1
  Sr  Sr43  1  0.32207681  0.17046094  0.89566346  1
  Sr  Sr44  1  0.32045069  0.49923577  0.40395014  1
  Sr  Sr45  1  0.33140440  0.51005836  0.86398797  1
  Sr  Sr46  1  0.34733987  0.83624967  0.38382751  1
  Sr  Sr47  1  0.32623359  0.84739014  0.82541206  1
  Sr  Sr48  1  0.67752344  0.15716857  0.42445400  1
  Sr  Sr49  1  0.66346732  0.19196673  0.86162943  1
  Sr  Sr50  1  0.65089815  0.49874902  0.35888465  1
  Sr  Sr51  1  0.66394177  0.51589718  0.89802116  1
  Sr  Sr52  1  0.68362716  0.86797163  0.33288357  1
  Sr  Sr53  1  0.66234798  0.82489670  0.88253916  1
  Sr  Sr54  1  0.17985957  -0.01778372  0.43034154  1
  Sr  Sr55  1  0.17363281  0.00822247  0.86221052  1
  Sr  Sr56  1  0.16083256  0.32426933  0.36237639  1
  Sr  Sr57  1  0.16537761  0.33271770  0.92235250  1
  Sr  Sr58  1  0.15964969  0.68203551  0.32678565  1
  Sr  Sr59  1  0.16039289  0.66620842  0.88572389  1
  Sr  Sr60  1  0.50584371  -0.00060099  0.37087165  1
  Sr  Sr61  1  0.51308771  -0.02459103  0.85772479  1
  Sr  Sr62  1  0.49741893  0.32843923  0.32841611  1
  Sr  Sr63  1  0.48325701  0.31098055  0.86716637  1
  Sr  Sr64  1  0.49663964  0.64979073  0.37114640  1
  Sr  Sr65  1  0.51872627  0.65917663  0.91252163  1
  Sr  Sr66  1  0.84974560  0.00001418  0.36578855  1
  Sr  Sr67  1  0.83349280  -0.04394145  0.89810549  1
  Sr  Sr68  1  0.79595697  0.31807673  0.42396784  1
  Sr  Sr69  1  0.82769928  0.33880681  0.86845451  1
  Sr  Sr70  1  0.83823380  0.63821174  0.39503757  1
  Sr  Sr71  1  0.82386339  0.66431510  0.84308391  1
  Ta  Ta72  1  0.14110641  0.15400975  0.00120899  1
  Ta  Ta73  1  0.12702846  0.17125987  0.50081023  1
  Ta  Ta74  1  0.11628347  0.50358685  -0.00536678  1
  Ta  Ta75  1  0.16972000  0.57043741  0.50236846  1
  Ta  Ta76  1  0.21993581  0.83773114  0.00068236  1
  Ta  Ta77  1  0.17209879  0.77821610  0.49908180  1
  Ta  Ta78  1  0.50843563  0.12707660  -0.00070929  1
  Ta  Ta79  1  0.48477133  0.18667570  0.49614822  1
  Ta  Ta80  1  0.49049600  0.46302306  0.00091052  1
  Ta  Ta81  1  0.49088471  0.46327544  0.48537594  1
  Ta  Ta82  1  0.46022702  0.83568763  -0.00693534  1
  Ta  Ta83  1  0.55047843  0.83266264  0.49012801  1
  Ta  Ta84  1  0.83533216  0.12471710  0.00289379  1
  Ta  Ta85  1  0.87817513  0.16051298  0.50251560  1
  Ta  Ta86  1  0.84485545  0.51055635  -0.00753638  1
  Ta  Ta87  1  0.84170081  0.47335214  0.51824880  1
  Ta  Ta88  1  0.84517031  0.77285737  0.01648899  1
  Ta  Ta89  1  0.80755721  0.82667885  0.49137932  1
  Ta  Ta90  1  0.16947275  0.12336028  0.25826982  1
  Ta  Ta91  1  0.17130379  0.21162758  0.75308236  1
  Ta  Ta92  1  0.20806296  0.50741261  0.24286920  1
  Ta  Ta93  1  0.16602209  0.46580978  0.75874009  1
  Ta  Ta94  1  0.17540946  0.87260125  0.25492338  1
  Ta  Ta95  1  0.11837850  0.83754747  0.74604902  1
  Ta  Ta96  1  0.56014636  0.15973783  0.25016935  1
  Ta  Ta97  1  0.47549768  0.14367877  0.74543719  1
  Ta  Ta98  1  0.44271088  0.49662800  0.23770079  1
  Ta  Ta99  1  0.51564084  0.52430119  0.74577574  1
  Ta  Ta100  1  0.52459672  0.80690162  0.25583949  1
  Ta  Ta101  1  0.50641816  0.78682211  0.74658796  1
  Ta  Ta102  1  0.80477774  0.18966373  0.25852608  1
  Ta  Ta103  1  0.82609039  0.11922213  0.75265504  1
  Ta  Ta104  1  0.81998318  0.44103832  0.25811177  1
  Ta  Ta105  1  0.78915918  0.49659772  0.73825064  1
  Ta  Ta106  1  0.83880271  0.79070967  0.25210382  1
  Ta  Ta107  1  0.88770591  0.83114753  0.74164260  1
  Ta  Ta108  1  0.05458137  0.00077565  0.25801281  1
  Ta  Ta109  1  -0.00987814  -0.02693767  0.74935985  1
  Ta  Ta110  1  -0.05848487  0.33643357  0.24936506  1
  Ta  Ta111  1  0.04651358  0.34530686  0.75683679  1
  Ta  Ta112  1  -0.02222056  0.68703544  0.25201739  1
  Ta  Ta113  1  0.00553382  0.71033883  0.74548513  1
  Ta  Ta114  1  0.29002513  0.00307826  0.25793040  1
  Ta  Ta115  1  0.35234299  0.03537127  0.74097702  1
  Ta  Ta116  1  0.32105017  0.37489550  0.23997620  1
  Ta  Ta117  1  0.28233575  0.33894136  0.75932773  1
  Ta  Ta118  1  0.33493337  0.63846746  0.24066885  1
  Ta  Ta119  1  0.39577198  0.66679891  0.75003832  1
  Ta  Ta120  1  0.67562113  0.04727729  0.25074919  1
  Ta  Ta121  1  0.69116085  0.01755794  0.75356381  1
  Ta  Ta122  1  0.68500881  0.30783819  0.25168450  1
  Ta  Ta123  1  0.65240163  0.38816181  0.74213193  1
  Ta  Ta124  1  0.67087965  0.69396968  0.26167199  1
  Ta  Ta125  1  0.63819312  0.64955589  0.73318940  1
  Ta  Ta126  1  -0.00088966  0.02830138  0.00483434  1
  Ta  Ta127  1  0.00429267  0.04248194  0.50041548  1
  Ta  Ta128  1  -0.01028615  0.38406183  -0.00106363  1
  Ta  Ta129  1  -0.01125694  0.30412591  0.50193023  1
  Ta  Ta130  1  -0.02820688  0.64167774  0.00716844  1
  Ta  Ta131  1  0.03475576  0.67094378  0.49830983  1
  Ta  Ta132  1  0.35083904  -0.02212551  -0.00901829  1
  Ta  Ta133  1  0.36404672  0.03937198  0.50921765  1
  Ta  Ta134  1  0.34384851  0.35116971  0.00626779  1
  Ta  Ta135  1  0.37764264  0.33282176  0.48559387  1
  Ta  Ta136  1  0.33914948  0.71500428  -0.00567957  1
  Ta  Ta137  1  0.30212718  0.67038270  0.49606054  1
  Ta  Ta138  1  0.66648605  0.02530379  -0.00632817  1
  Ta  Ta139  1  0.67522221  -0.03285972  0.50049573  1
  Ta  Ta140  1  0.63495710  0.35505182  -0.01032327  1
  Ta  Ta141  1  0.59193082  0.33537866  0.50075120  1
  Ta  Ta142  1  0.71271332  0.66798002  0.01807061  1
  Ta  Ta143  1  0.67042135  0.71394751  0.48424213  1
  N  N144  1  0.32440685  0.00324949  0.61693081  1
  N  N145  1  0.48846357  0.49431220  0.36183475  1
  N  N146  1  0.82403198  0.50283316  0.86866153  1
  N  N147  1  0.50262939  0.84175253  0.37134518  1
  N  N148  1  0.18606693  0.84088105  0.12198186  1
  N  N149  1  0.33115588  0.33908258  0.36856478  1
  N  N150  1  0.00235560  0.66435788  0.37651275  1
  N  N151  1  0.83348062  0.16725468  0.37945274  1
  N  N152  1  -0.02418236  0.34481364  0.12639203  1
  N  N153  1  0.15796627  0.18269424  0.62640561  1
  N  N154  1  0.32367726  0.33935274  0.88554687  1
  N  N155  1  0.16210931  0.50894149  0.88046162  1
  N  N156  1  0.66158461  0.67218811  0.61443903  1
  N  N157  1  0.00495430  0.00412657  0.62978019  1
  N  N158  1  0.67425833  -0.00257291  0.62546146  1
  N  N159  1  0.66614795  0.64870341  0.38216980  1
  N  N160  1  0.67082535  -0.01854935  0.87962882  1
  N  N161  1  0.49236789  0.50088192  0.11913244  1
  N  N162  1  0.65259935  0.34951673  0.86546053  1
  N  N163  1  0.17406472  0.82839714  0.38447377  1
  N  N164  1  -0.00288971  0.34869210  0.87078576  1
  N  N165  1  0.33440499  0.67647532  0.12086111  1
  N  N166  1  0.66997034  0.65838469  0.13406017  1
  N  N167  1  0.49766814  0.82111346  0.87173680  1
  N  N168  1  0.01398899  0.00142123  0.37662805  1
  N  N169  1  0.16748121  0.16710866  0.37566533  1
  N  N170  1  0.84859045  0.82737397  0.62171439  1
  N  N171  1  0.33953320  0.00125454  0.86906573  1
  N  N172  1  0.67771791  0.01358557  0.37528236  1
  N  N173  1  0.00164649  0.65974918  0.12604061  1
  N  N174  1  0.15924058  0.17106205  0.88066223  1
  N  N175  1  0.86032760  0.49521426  0.63704582  1
  N  N176  1  0.84389795  0.83315474  0.36891680  1
  O  O177  1  0.00510125  0.00775694  0.13214973  1
  O  O178  1  0.16573232  0.84111619  0.86978863  1
  O  O179  1  0.49461806  0.14442618  0.87654682  1
  O  O180  1  0.82252239  0.46498957  0.38507040  1
  O  O181  1  0.33312602  0.00317677  0.13394350  1
  O  O182  1  0.64498149  0.32534293  0.38341338  1
  O  O183  1  0.16140679  0.51282570  0.12146364  1
  O  O184  1  -0.00430266  0.66352106  0.62753076  1
  O  O185  1  0.84006675  0.15151793  0.62758823  1
  O  O186  1  0.65932110  0.33482709  0.12268455  1
  O  O187  1  0.49135044  0.17983321  0.62729780  1
  O  O188  1  0.16310320  0.81829824  0.62904762  1
  O  O189  1  0.32735807  0.34462830  0.61291356  1
  O  O190  1  0.49345933  0.50663939  0.61790053  1
  O  O191  1  0.17347924  0.52207267  0.62627072  1
  O  O192  1  0.33457494  0.67000372  0.37082558  1
  O  O193  1  0.62470218  0.33910823  0.62843505  1
  O  O194  1  0.34686113  0.65951931  0.62786924  1
  O  O195  1  0.51479868  0.17061659  0.36913804  1
  O  O196  1  0.68333969  0.00108109  0.12850578  1
  O  O197  1  0.51040258  0.14555261  0.12642031  1
  O  O198  1  -0.01277620  0.32492016  0.37596968  1
  O  O199  1  0.17021224  0.52981317  0.36565242  1
  O  O200  1  0.35756734  0.66865086  0.87315777  1
  O  O201  1  0.81628352  0.47101479  0.12887300  1
  O  O202  1  0.33255052  0.01691727  0.38446758  1
  O  O203  1  0.83844950  0.83440570  0.12331440  1
  O  O204  1  0.86307412  0.80740887  0.88695027  1
  O  O205  1  0.50118622  0.50826815  0.87365623  1
  O  O206  1  0.67173137  0.66880599  0.88902173  1
  O  O207  1  0.50936856  0.82340517  0.61683063  1
  O  O208  1  0.31108327  0.31339944  0.12941570  1
  O  O209  1  0.50198528  0.83112451  0.12661776  1
  O  O210  1  0.17271855  0.16803790  0.12802965  1
  O  O211  1  0.84010480  0.12717690  0.87496918  1
  O  O212  1  0.00050155  0.67430448  0.87224838  1
  O  O213  1  0.82918325  0.15750641  0.12550046  1
  O  O214  1  -0.00355905  0.00070537  0.88276165  1
  O  O215  1  0.00597862  0.32548965  0.62787942  1
