# generated using pymatgen
data_Sr24Ta24N11O13
_symmetry_space_group_name_H-M   'P 1'
_cell_length_a   16.64955019
_cell_length_b   17.06991726
_cell_length_c   15.69240478
_cell_angle_alpha   90.20290639
_cell_angle_beta   90.18495975
_cell_angle_gamma   90.54759566
_symmetry_Int_Tables_number   1
_chemical_formula_structural   Sr24Ta24N11O13
_chemical_formula_sum   'Sr72 Ta72 N33 O39'
_cell_volume   4459.62718382
_cell_formula_units_Z   3
loop_
 _symmetry_equiv_pos_site_id
 _symmetry_equiv_pos_as_xyz
  1  'x, y, z'
loop_
 _atom_site_type_symbol
 _atom_site_label
 _atom_site_symmetry_multiplicity
 _atom_site_fract_x
 _atom_site_fract_y
 _atom_site_fract_z
 _atom_site_occupancy
  Sr  Sr0  1  -0.00575064  0.19018963  0.10852615  1
  Sr  Sr1  1  -0.01133365  0.17148109  0.63560979  1
  Sr  Sr2  1  -0.00497313  0.51043910  0.13148199  1
  Sr  Sr3  1  -0.00013976  0.52255437  0.66747276  1
  Sr  Sr4  1  0.00802885  0.85795971  0.13346816  1
  Sr  Sr5  1  -0.01628645  0.83506957  0.59173733  1
  Sr  Sr6  1  0.32648645  0.18481809  0.14098364  1
  Sr  Sr7  1  0.33380333  0.20204906  0.64145418  1
  Sr  Sr8  1  0.35153971  0.52020890  0.13936152  1
  Sr  Sr9  1  0.31902713  0.51056249  0.58720615  1
  Sr  Sr10  1  0.32845370  0.87247263  0.10159199  1
  Sr  Sr11  1  0.33629137  0.84612822  0.63577534  1
  Sr  Sr12  1  0.67106578  0.17725551  0.12356369  1
  Sr  Sr13  1  0.66363929  0.17051525  0.59139966  1
  Sr  Sr14  1  0.66702957  0.54233072  0.07937716  1
  Sr  Sr15  1  0.67048296  0.49791805  0.62933872  1
  Sr  Sr16  1  0.65461547  0.84565211  0.14911135  1
  Sr  Sr17  1  0.65430985  0.86125000  0.64357070  1
  Sr  Sr18  1  0.16917661  -0.00011548  0.14395459  1
  Sr  Sr19  1  0.17134687  -0.03723280  0.59522218  1
  Sr  Sr20  1  0.16426741  0.31282282  0.09380596  1
  Sr  Sr21  1  0.15066492  0.31207040  0.63596387  1
  Sr  Sr22  1  0.17582641  0.63430904  0.13483811  1
  Sr  Sr23  1  0.17271839  0.65380601  0.64554435  1
  Sr  Sr24  1  0.51852929  -0.01131864  0.09848523  1
  Sr  Sr25  1  0.49797558  -0.00504402  0.62478781  1
  Sr  Sr26  1  0.50496097  0.31182209  0.12394740  1
  Sr  Sr27  1  0.50988702  0.33377811  0.65848906  1
  Sr  Sr28  1  0.50390341  0.66817676  0.13676059  1
  Sr  Sr29  1  0.50697241  0.63197630  0.59857068  1
  Sr  Sr30  1  0.84268638  -0.02290181  0.14671841  1
  Sr  Sr31  1  0.84900637  -0.00807580  0.64240996  1
  Sr  Sr32  1  0.84043023  0.31837419  0.14104444  1
  Sr  Sr33  1  0.82130040  0.30937600  0.58777762  1
  Sr  Sr34  1  0.84278509  0.65836290  0.09917093  1
  Sr  Sr35  1  0.83028305  0.64790005  0.63015667  1
  Sr  Sr36  1  -0.00589991  0.20619227  0.40405331  1
  Sr  Sr37  1  -0.00518147  0.17040968  0.86450659  1
  Sr  Sr38  1  -0.01605556  0.50883982  0.34164065  1
  Sr  Sr39  1  -0.00145476  0.51698511  0.87231516  1
  Sr  Sr40  1  0.01206973  0.84159814  0.37872631  1
  Sr  Sr41  1  -0.01748382  0.84439462  0.90626876  1
  Sr  Sr42  1  0.32761796  0.18370075  0.35822147  1
  Sr  Sr43  1  0.32362339  0.19742159  0.86488784  1
  Sr  Sr44  1  0.34770062  0.51335819  0.36459525  1
  Sr  Sr45  1  0.32844483  0.52440763  0.90499872  1
  Sr  Sr46  1  0.33216976  0.87110334  0.40367180  1
  Sr  Sr47  1  0.32977940  0.84108126  0.86005960  1
  Sr  Sr48  1  0.66904041  0.19258520  0.36518725  1
  Sr  Sr49  1  0.66202853  0.17544074  0.90794235  1
  Sr  Sr50  1  0.67653179  0.51880856  0.41172949  1
  Sr  Sr51  1  0.65810575  0.50473054  0.85530123  1
  Sr  Sr52  1  0.65143070  0.83984270  0.35424337  1
  Sr  Sr53  1  0.65838328  0.85929664  0.85697555  1
  Sr  Sr54  1  0.17640101  -0.00511489  0.36126047  1
  Sr  Sr55  1  0.17198754  -0.03199753  0.90055207  1
  Sr  Sr56  1  0.17554555  0.32657964  0.41840835  1
  Sr  Sr57  1  0.14947451  0.31817202  0.86455040  1
  Sr  Sr58  1  0.16803696  0.63501012  0.36018948  1
  Sr  Sr59  1  0.17255965  0.64984680  0.85895264  1
  Sr  Sr60  1  0.51247805  -0.00461775  0.40675002  1
  Sr  Sr61  1  0.49064726  -0.01494857  0.86726525  1
  Sr  Sr62  1  0.49123275  0.32738561  0.32681942  1
  Sr  Sr63  1  0.50860749  0.32135237  0.87146873  1
  Sr  Sr64  1  0.50788992  0.66354448  0.36088607  1
  Sr  Sr65  1  0.50715855  0.64003925  0.90398892  1
  Sr  Sr66  1  0.84649265  -0.03451733  0.36105135  1
  Sr  Sr67  1  0.84676989  -0.01019881  0.85231561  1
  Sr  Sr68  1  0.83104140  0.33571006  0.36927081  1
  Sr  Sr69  1  0.83266481  0.29659641  0.90500221  1
  Sr  Sr70  1  0.83999232  0.65742061  0.39714623  1
  Sr  Sr71  1  0.82923648  0.65076641  0.87671618  1
  Ta  Ta72  1  0.16870990  0.13452682  0.00371160  1
  Ta  Ta73  1  0.16443343  0.13721358  0.50260142  1
  Ta  Ta74  1  0.15772962  0.47770733  -0.00398570  1
  Ta  Ta75  1  0.11434440  0.49977968  0.50403210  1
  Ta  Ta76  1  0.16810277  0.78915536  -0.00024892  1
  Ta  Ta77  1  0.17608016  0.78009012  0.50102028  1
  Ta  Ta78  1  0.47065395  0.14974545  0.00294744  1
  Ta  Ta79  1  0.48467332  0.19530156  0.49454414  1
  Ta  Ta80  1  0.49992067  0.46427394  0.00314749  1
  Ta  Ta81  1  0.50028761  0.45859924  0.49179420  1
  Ta  Ta82  1  0.50007902  0.81097083  0.00243643  1
  Ta  Ta83  1  0.50215256  0.80621384  0.49772287  1
  Ta  Ta84  1  0.83811302  0.11631267  -0.00046824  1
  Ta  Ta85  1  0.83689468  0.12051820  0.49192576  1
  Ta  Ta86  1  0.83270704  0.46867371  -0.00155258  1
  Ta  Ta87  1  0.87158703  0.49242059  0.51084147  1
  Ta  Ta88  1  0.79842721  0.84009820  0.00054461  1
  Ta  Ta89  1  0.79469578  0.82966687  0.50257254  1
  Ta  Ta90  1  0.14218442  0.18417273  0.25116453  1
  Ta  Ta91  1  0.16429668  0.10724016  0.74707195  1
  Ta  Ta92  1  0.16672722  0.45635199  0.25388052  1
  Ta  Ta93  1  0.19552039  0.47778575  0.75058189  1
  Ta  Ta94  1  0.18116441  0.80214482  0.24842851  1
  Ta  Ta95  1  0.12375299  0.83067368  0.75086178  1
  Ta  Ta96  1  0.50542935  0.12399445  0.24646446  1
  Ta  Ta97  1  0.52291243  0.15186359  0.74881570  1
  Ta  Ta98  1  0.55362503  0.50045222  0.23943256  1
  Ta  Ta99  1  0.46022395  0.50446715  0.75460535  1
  Ta  Ta100  1  0.46460829  0.84979647  0.25060011  1
  Ta  Ta101  1  0.49853851  0.77566488  0.75007735  1
  Ta  Ta102  1  0.84011072  0.14158518  0.26488556  1
  Ta  Ta103  1  0.80439716  0.17002772  0.74594708  1
  Ta  Ta104  1  0.78795898  0.50701086  0.24584134  1
  Ta  Ta105  1  0.82833018  0.44207631  0.74768465  1
  Ta  Ta106  1  0.83788192  0.79081406  0.24890042  1
  Ta  Ta107  1  0.83505463  0.80689997  0.75477458  1
  Ta  Ta108  1  0.00218172  0.05656859  0.26195072  1
  Ta  Ta109  1  0.03516993  -0.01994509  0.74752924  1
  Ta  Ta110  1  0.03589843  0.33463236  0.25336269  1
  Ta  Ta111  1  -0.03717557  0.34265975  0.74730528  1
  Ta  Ta112  1  -0.01014603  0.69440562  0.25369154  1
  Ta  Ta113  1  -0.00485329  0.71354165  0.75105998  1
  Ta  Ta114  1  0.37197116  0.01122335  0.25613164  1
  Ta  Ta115  1  0.31657522  0.02956775  0.73825982  1
  Ta  Ta116  1  0.29012266  0.35123415  0.25421034  1
  Ta  Ta117  1  0.33147303  0.38042588  0.74953109  1
  Ta  Ta118  1  0.33100312  0.72465259  0.24513045  1
  Ta  Ta119  1  0.36568915  0.65962812  0.75023560  1
  Ta  Ta120  1  0.66488419  0.02729902  0.25073042  1
  Ta  Ta121  1  0.66513386  0.04737703  0.74685788  1
  Ta  Ta122  1  0.67245279  0.38277632  0.23920939  1
  Ta  Ta123  1  0.69197431  0.31554372  0.75561827  1
  Ta  Ta124  1  0.69144988  0.65808925  0.24775534  1
  Ta  Ta125  1  0.65472389  0.68858549  0.75308616  1
  Ta  Ta126  1  -0.00018454  0.02521787  0.01093327  1
  Ta  Ta127  1  0.00534019  0.02989685  0.48596890  1
  Ta  Ta128  1  -0.00644002  0.36773450  -0.00177306  1
  Ta  Ta129  1  -0.00388537  0.38033877  0.50926147  1
  Ta  Ta130  1  0.03019501  0.67926829  -0.00396509  1
  Ta  Ta131  1  0.01798310  0.64706041  0.50507971  1
  Ta  Ta132  1  0.33429507  0.04665154  -0.00061617  1
  Ta  Ta133  1  0.33221237  0.05572709  0.50590903  1
  Ta  Ta134  1  0.34079029  0.36089021  0.00381203  1
  Ta  Ta135  1  0.38050657  0.33907779  0.49317768  1
  Ta  Ta136  1  0.33062074  0.70320604  0.00951256  1
  Ta  Ta137  1  0.33387077  0.69442441  0.49412860  1
  Ta  Ta138  1  0.70272570  -0.00354500  0.00210232  1
  Ta  Ta139  1  0.70330492  -0.00766214  0.50179548  1
  Ta  Ta140  1  0.67071947  0.36596759  0.00802950  1
  Ta  Ta141  1  0.61924831  0.34093715  0.48759975  1
  Ta  Ta142  1  0.66536275  0.71934918  -0.00151011  1
  Ta  Ta143  1  0.66664561  0.70931066  0.50099915  1
  N  N144  1  0.33238649  0.34309932  0.37502948  1
  N  N145  1  0.33749461  -0.00021732  0.61788906  1
  N  N146  1  0.01332704  -0.00565715  0.36699735  1
  N  N147  1  0.00170419  0.67284130  0.87614859  1
  N  N148  1  0.49474986  0.48996153  0.87392747  1
  N  N149  1  0.66977007  0.68743943  0.12642027  1
  N  N150  1  0.49588528  0.83583282  0.12297036  1
  N  N151  1  0.66831714  0.67746600  0.38053127  1
  N  N152  1  -0.00532056  0.32624795  0.62176040  1
  N  N153  1  0.00032383  0.34455167  0.12602780  1
  N  N154  1  0.82771991  0.83119463  0.87506024  1
  N  N155  1  0.00108537  0.35204628  0.37271536  1
  N  N156  1  0.00055472  0.67034510  0.37304879  1
  N  N157  1  0.83111491  0.15399087  0.61776192  1
  N  N158  1  0.66851221  0.32701034  0.12688536  1
  N  N159  1  0.00477339  0.01700865  0.13518276  1
  N  N160  1  0.66017866  0.34643154  0.37010427  1
  N  N161  1  0.83237711  0.14580824  0.87245904  1
  N  N162  1  0.83096269  0.49018761  0.62873270  1
  N  N163  1  -0.00217781  0.67585763  0.62577516  1
  N  N164  1  0.82954259  0.17988872  0.38149169  1
  N  N165  1  0.16588197  0.16171093  0.12732131  1
  N  N166  1  0.33696706  0.67436586  0.12946480  1
  N  N167  1  0.34430383  0.02217115  0.38137860  1
  N  N168  1  0.66587350  0.67475398  0.87453274  1
  N  N169  1  0.67075503  0.33181527  0.87602898  1
  N  N170  1  0.67271133  0.01060673  0.62388982  1
  N  N171  1  0.50191842  0.15800194  0.12465968  1
  N  N172  1  0.51057009  0.51026244  0.12369847  1
  N  N173  1  -0.00661412  0.33326727  0.87306264  1
  N  N174  1  0.16321380  0.49111652  0.87243607  1
  N  N175  1  0.49566277  0.83347526  0.37794149  1
  N  N176  1  0.67650454  0.00481399  0.12942326  1
  O  O177  1  0.83354995  0.49930033  0.12571069  1
  O  O178  1  0.01444285  -0.01063751  0.61883623  1
  O  O179  1  0.16981655  0.16432871  0.37993990  1
  O  O180  1  0.16489304  0.81272270  0.12599823  1
  O  O181  1  0.00342690  0.66741035  0.12369398  1
  O  O182  1  0.83498411  0.14726564  0.12653332  1
  O  O183  1  0.15779212  0.48263554  0.38462069  1
  O  O184  1  0.33327877  0.35545358  0.87863556  1
  O  O185  1  0.81535863  0.83657968  0.62784782  1
  O  O186  1  0.16967816  0.81416936  0.86921679  1
  O  O187  1  0.34670528  0.66652779  0.61826343  1
  O  O188  1  0.33014565  0.34432574  0.12863840  1
  O  O189  1  0.82916155  0.50303717  0.37236965  1
  O  O190  1  0.50728718  0.48666910  0.36182387  1
  O  O191  1  0.16730790  0.79573325  0.37873439  1
  O  O192  1  0.16155613  0.47983983  0.13015954  1
  O  O193  1  0.34630739  0.35648923  0.62185948  1
  O  O194  1  0.83904494  0.81506669  0.12109675  1
  O  O195  1  0.16373002  0.80741870  0.62684894  1
  O  O196  1  0.66852487  -0.00497426  0.37839645  1
  O  O197  1  0.49334291  0.17540976  0.36881134  1
  O  O198  1  0.50260261  0.15036269  0.87315386  1
  O  O199  1  0.82620834  0.48076483  0.87337178  1
  O  O200  1  0.66381257  0.65389566  0.61905680  1
  O  O201  1  0.16173508  0.14201495  0.86943099  1
  O  O202  1  0.67545449  0.01104953  0.87188510  1
  O  O203  1  0.48791647  0.82515057  0.86624168  1
  O  O204  1  0.16279670  0.49978804  0.62784183  1
  O  O205  1  0.15436422  0.15085367  0.63247961  1
  O  O206  1  0.65907194  0.32693802  0.61483353  1
  O  O207  1  0.33348548  0.02797309  0.87133688  1
  O  O208  1  0.50280141  0.17799286  0.62560370  1
  O  O209  1  0.49592288  0.81630986  0.63235916  1
  O  O210  1  0.34407284  0.67542667  0.87556255  1
  O  O211  1  0.01445040  -0.00488939  0.87462818  1
  O  O212  1  0.33854202  0.67839761  0.36895451  1
  O  O213  1  0.33177377  0.02414452  0.13181044  1
  O  O214  1  0.82069021  0.81258305  0.37293471  1
  O  O215  1  0.49070680  0.48420282  0.62741877  1
