# generated using pymatgen
data_Sr24Ta24N11O13
_symmetry_space_group_name_H-M   'P 1'
_cell_length_a   16.87238143
_cell_length_b   16.77015144
_cell_length_c   15.71972078
_cell_angle_alpha   90.24712227
_cell_angle_beta   90.33648139
_cell_angle_gamma   89.79096790
_symmetry_Int_Tables_number   1
_chemical_formula_structural   Sr24Ta24N11O13
_chemical_formula_sum   'Sr72 Ta72 N33 O39'
_cell_volume   4447.78532884
_cell_formula_units_Z   3
loop_
 _symmetry_equiv_pos_site_id
 _symmetry_equiv_pos_as_xyz
  1  'x, y, z'
loop_
 _atom_site_type_symbol
 _atom_site_label
 _atom_site_symmetry_multiplicity
 _atom_site_fract_x
 _atom_site_fract_y
 _atom_site_fract_z
 _atom_site_occupancy
  Sr  Sr0  1  0.00795071  0.18319275  0.11497995  1
  Sr  Sr1  1  0.02259471  0.16115939  0.65446767  1
  Sr  Sr2  1  0.00953964  0.50643888  0.17422157  1
  Sr  Sr3  1  -0.00677881  0.47910896  0.61454675  1
  Sr  Sr4  1  0.00265797  0.81185305  0.08377041  1
  Sr  Sr5  1  0.01454199  0.84424888  0.61115740  1
  Sr  Sr6  1  0.35753232  0.18487644  0.14111513  1
  Sr  Sr7  1  0.33231476  0.17867025  0.60033754  1
  Sr  Sr8  1  0.31723080  0.51743093  0.07535217  1
  Sr  Sr9  1  0.34541868  0.51828233  0.64442984  1
  Sr  Sr10  1  0.34308327  0.83707375  0.14225850  1
  Sr  Sr11  1  0.33892449  0.85421929  0.64090296  1
  Sr  Sr12  1  0.67971402  0.15704149  0.09542363  1
  Sr  Sr13  1  0.68793544  0.17327004  0.63763986  1
  Sr  Sr14  1  0.66953029  0.49783404  0.13360145  1
  Sr  Sr15  1  0.67027063  0.49554325  0.59239049  1
  Sr  Sr16  1  0.69505105  0.83629194  0.16401074  1
  Sr  Sr17  1  0.68374361  0.82963285  0.62379318  1
  Sr  Sr18  1  0.11989449  -0.01272636  0.10860364  1
  Sr  Sr19  1  0.15290086  -0.00304174  0.64813836  1
  Sr  Sr20  1  0.17644921  0.33922430  0.13365268  1
  Sr  Sr21  1  0.16930347  0.31418559  0.59173293  1
  Sr  Sr22  1  0.16580156  0.66722574  0.12264555  1
  Sr  Sr23  1  0.15903286  0.64168069  0.62165079  1
  Sr  Sr24  1  0.48847881  -0.00407112  0.12728240  1
  Sr  Sr25  1  0.46249407  0.00884111  0.59702708  1
  Sr  Sr26  1  0.51384126  0.34328489  0.16454047  1
  Sr  Sr27  1  0.48721548  0.32523462  0.63546846  1
  Sr  Sr28  1  0.49083937  0.65350968  0.09019298  1
  Sr  Sr29  1  0.49548149  0.67097037  0.63239118  1
  Sr  Sr30  1  0.81690100  0.00885891  0.15345671  1
  Sr  Sr31  1  0.81955452  -0.01073428  0.60125717  1
  Sr  Sr32  1  0.81537795  0.32634225  0.08015565  1
  Sr  Sr33  1  0.84075053  0.33086182  0.63414185  1
  Sr  Sr34  1  0.82812847  0.65381164  0.11835369  1
  Sr  Sr35  1  0.83722645  0.66321568  0.66838857  1
  Sr  Sr36  1  0.00633482  0.15025316  0.33089859  1
  Sr  Sr37  1  0.02062661  0.17792414  0.88829393  1
  Sr  Sr38  1  0.00470171  0.48472953  0.38757267  1
  Sr  Sr39  1  -0.01225875  0.50508405  0.82883728  1
  Sr  Sr40  1  0.00476697  0.83384374  0.41087107  1
  Sr  Sr41  1  0.01153227  0.84058898  0.88490383  1
  Sr  Sr42  1  0.32840863  0.18626187  0.37480248  1
  Sr  Sr43  1  0.34425446  0.17847620  0.89133250  1
  Sr  Sr44  1  0.33764580  0.53624442  0.40535257  1
  Sr  Sr45  1  0.34744449  0.50302448  0.86196146  1
  Sr  Sr46  1  0.33682321  0.83715416  0.35634169  1
  Sr  Sr47  1  0.35003244  0.86569068  0.86860275  1
  Sr  Sr48  1  0.69947499  0.16512311  0.39504072  1
  Sr  Sr49  1  0.66839113  0.17857098  0.86497136  1
  Sr  Sr50  1  0.65602480  0.49051570  0.36541842  1
  Sr  Sr51  1  0.68258212  0.51200307  0.92102025  1
  Sr  Sr52  1  0.68881136  0.83783344  0.37925506  1
  Sr  Sr53  1  0.68041688  0.82181437  0.83371143  1
  Sr  Sr54  1  0.14343388  -0.01231849  0.36726544  1
  Sr  Sr55  1  0.14778965  0.00254663  0.86714637  1
  Sr  Sr56  1  0.15265747  0.31974166  0.35598015  1
  Sr  Sr57  1  0.18251912  0.32441598  0.91881505  1
  Sr  Sr58  1  0.15667633  0.66423427  0.38042018  1
  Sr  Sr59  1  0.16295778  0.64033590  0.87827547  1
  Sr  Sr60  1  0.46365390  0.00755920  0.36177147  1
  Sr  Sr61  1  0.48496164  0.01979101  0.91694343  1
  Sr  Sr62  1  0.49638774  0.32395446  0.36872050  1
  Sr  Sr63  1  0.49332725  0.32888024  0.83629785  1
  Sr  Sr64  1  0.49759623  0.66617220  0.40587314  1
  Sr  Sr65  1  0.49592678  0.66520716  0.86949420  1
  Sr  Sr66  1  0.83072851  -0.00197175  0.37615616  1
  Sr  Sr67  1  0.79144039  -0.00159233  0.85320020  1
  Sr  Sr68  1  0.82209095  0.35025582  0.41993301  1
  Sr  Sr69  1  0.84337283  0.32859098  0.86511753  1
  Sr  Sr70  1  0.81739680  0.64607200  0.32983798  1
  Sr  Sr71  1  0.83342741  0.66858916  0.88611382  1
  Ta  Ta72  1  0.19362957  0.14356682  0.01536620  1
  Ta  Ta73  1  0.14723401  0.14285261  0.48772306  1
  Ta  Ta74  1  0.11803023  0.49558004  0.00543219  1
  Ta  Ta75  1  0.18651936  0.47878658  0.49710024  1
  Ta  Ta76  1  0.20226897  0.83600756  0.00139635  1
  Ta  Ta77  1  0.19517224  0.83321116  0.50096639  1
  Ta  Ta78  1  0.50815190  0.21577749  -0.00141153  1
  Ta  Ta79  1  0.53327871  0.16656201  0.50189505  1
  Ta  Ta80  1  0.50204325  0.46094589  -0.00549018  1
  Ta  Ta81  1  0.49560035  0.47507619  0.50885618  1
  Ta  Ta82  1  0.53459210  0.83194071  -0.00038850  1
  Ta  Ta83  1  0.52033221  0.84844915  0.49881176  1
  Ta  Ta84  1  0.85081646  0.13849382  -0.00323852  1
  Ta  Ta85  1  0.88399398  0.16371757  0.49977290  1
  Ta  Ta86  1  0.87901536  0.49655649  0.00091961  1
  Ta  Ta87  1  0.83362566  0.55209794  0.50491438  1
  Ta  Ta88  1  0.81782838  0.85232893  -0.00327895  1
  Ta  Ta89  1  0.83983759  0.76377565  0.50177144  1
  Ta  Ta90  1  0.18367492  0.14041444  0.23484469  1
  Ta  Ta91  1  0.19275648  0.18648156  0.76077544  1
  Ta  Ta92  1  0.20954367  0.51009560  0.24625370  1
  Ta  Ta93  1  0.16971630  0.45305890  0.75352384  1
  Ta  Ta94  1  0.13501404  0.83051804  0.24335782  1
  Ta  Ta95  1  0.16767321  0.80508167  0.75412674  1
  Ta  Ta96  1  0.54972871  0.16018559  0.24723050  1
  Ta  Ta97  1  0.49294472  0.13341450  0.75418938  1
  Ta  Ta98  1  0.47265217  0.52339879  0.24918019  1
  Ta  Ta99  1  0.54720191  0.50290826  0.75395123  1
  Ta  Ta100  1  0.51974097  0.80210107  0.24776976  1
  Ta  Ta101  1  0.50920093  0.87314008  0.75049778  1
  Ta  Ta102  1  0.83308748  0.20251362  0.24481154  1
  Ta  Ta103  1  0.86080351  0.14556894  0.74327622  1
  Ta  Ta104  1  0.83209232  0.45377693  0.24476557  1
  Ta  Ta105  1  0.79563223  0.49798792  0.75321762  1
  Ta  Ta106  1  0.87733519  0.82049236  0.25097449  1
  Ta  Ta107  1  0.87125688  0.83833784  0.74022470  1
  Ta  Ta108  1  -0.01293984  -0.05315663  0.25263471  1
  Ta  Ta109  1  -0.03832938  -0.00498084  0.74448869  1
  Ta  Ta110  1  -0.04950886  0.32954615  0.25315725  1
  Ta  Ta111  1  0.04674781  0.32912253  0.75205940  1
  Ta  Ta112  1  -0.00145478  0.70211389  0.24798906  1
  Ta  Ta113  1  0.00990918  0.70117519  0.75329658  1
  Ta  Ta114  1  0.28497143  0.01148963  0.23400231  1
  Ta  Ta115  1  0.33497830  0.03600373  0.74897072  1
  Ta  Ta116  1  0.33841002  0.39601288  0.24882466  1
  Ta  Ta117  1  0.29645484  0.33308164  0.74713405  1
  Ta  Ta118  1  0.34542770  0.65050546  0.23833996  1
  Ta  Ta119  1  0.31143730  0.69661290  0.76058765  1
  Ta  Ta120  1  0.64019244  0.01803077  0.24828177  1
  Ta  Ta121  1  0.61235078  0.00170207  0.75160420  1
  Ta  Ta122  1  0.69525277  0.31345888  0.24987487  1
  Ta  Ta123  1  0.67056254  0.36926199  0.75328560  1
  Ta  Ta124  1  0.62500662  0.67011740  0.24767918  1
  Ta  Ta125  1  0.66491342  0.62865532  0.75688461  1
  Ta  Ta126  1  -0.05403032  -0.00108351  -0.00237559  1
  Ta  Ta127  1  -0.00219191  0.03303659  0.49905202  1
  Ta  Ta128  1  0.00088066  0.37541860  -0.00109063  1
  Ta  Ta129  1  0.00011284  0.28619180  0.49811349  1
  Ta  Ta130  1  -0.00092754  0.61892374  0.00469314  1
  Ta  Ta131  1  -0.02846264  0.65746268  0.50132158  1
  Ta  Ta132  1  0.29515979  0.00403090  0.01657992  1
  Ta  Ta133  1  0.28468409  -0.00541428  0.49875050  1
  Ta  Ta134  1  0.38041271  0.34109219  0.00787278  1
  Ta  Ta135  1  0.33533841  0.36977495  0.50009259  1
  Ta  Ta136  1  0.32080006  0.70717308  -0.01258478  1
  Ta  Ta137  1  0.31978942  0.70588226  0.51190411  1
  Ta  Ta138  1  0.66272136  -0.05079984  0.00514082  1
  Ta  Ta139  1  0.62568599  0.00104487  0.50019833  1
  Ta  Ta140  1  0.62827107  0.33507115  -0.00339590  1
  Ta  Ta141  1  0.63665857  0.32455582  0.50468307  1
  Ta  Ta142  1  0.66228448  0.72011335  -0.00282060  1
  Ta  Ta143  1  0.69031537  0.66820425  0.50206872  1
  N  N144  1  0.33779658  0.65471662  0.87875111  1
  N  N145  1  0.66978569  0.33551394  0.87900167  1
  N  N146  1  0.66010762  -0.01113859  0.12513225  1
  N  N147  1  0.16281907  0.19114186  0.12338225  1
  N  N148  1  -0.00758807  0.32462032  0.37512043  1
  N  N149  1  0.50593444  0.49890369  0.87543197  1
  N  N150  1  0.01213636  0.32050467  0.62654606  1
  N  N151  1  0.83716504  0.16676061  0.12099905  1
  N  N152  1  0.66527282  0.33314267  0.12851510  1
  N  N153  1  -0.01306502  -0.01054083  0.36999183  1
  N  N154  1  0.66858282  0.33296988  0.62732115  1
  N  N155  1  0.16134066  0.82962829  0.12319186  1
  N  N156  1  -0.00518043  0.65996352  0.12748712  1
  N  N157  1  0.31034576  0.01251062  0.62403794  1
  N  N158  1  0.84409421  0.16366377  0.62291185  1
  N  N159  1  0.50361526  0.17242857  0.87277511  1
  N  N160  1  0.16455045  0.16029740  0.36676484  1
  N  N161  1  0.32937205  0.34255370  0.62233995  1
  N  N162  1  0.84499167  0.81928985  0.62045917  1
  N  N163  1  0.34550040  -0.00275533  0.12989405  1
  N  N164  1  0.83739629  0.49141383  0.12812956  1
  N  N165  1  0.83742786  0.50234322  0.87099845  1
  N  N166  1  0.16409042  0.50376075  0.13015763  1
  N  N167  1  0.66946711  0.67217685  0.88121083  1
  N  N168  1  0.33135546  0.67914417  0.63126459  1
  N  N169  1  0.50409213  0.49741197  0.62803093  1
  N  N170  1  0.33527860  0.67071537  0.11736518  1
  N  N171  1  0.34596822  0.35355578  0.12865464  1
  N  N172  1  0.18076208  0.16914389  0.88303603  1
  N  N173  1  0.66600195  0.33116554  0.37855640  1
  N  N174  1  0.01138197  0.33911178  0.87764719  1
  N  N175  1  0.83094629  0.50836606  0.62115009  1
  N  N176  1  -0.00904022  -0.00263371  0.62035543  1
  O  O177  1  -0.00287920  0.66635356  0.63242229  1
  O  O178  1  0.00352029  0.66324475  0.87489244  1
  O  O179  1  0.30898872  -0.00742906  0.37002149  1
  O  O180  1  0.17372828  0.82757192  0.63079126  1
  O  O181  1  -0.00546146  0.66139661  0.37522875  1
  O  O182  1  0.67596297  0.66837088  0.62972096  1
  O  O183  1  0.32575497  0.01508456  0.87714602  1
  O  O184  1  0.64006032  -0.00698221  0.88178492  1
  O  O185  1  -0.03239084  -0.01601996  0.12449284  1
  O  O186  1  0.63625854  0.00539180  0.62628071  1
  O  O187  1  0.50296025  0.16418882  0.62650293  1
  O  O188  1  0.51016824  0.85068902  0.87262225  1
  O  O189  1  0.17145869  0.82597939  0.37456654  1
  O  O190  1  0.53528074  0.16652464  0.37713655  1
  O  O191  1  0.17464181  0.16309700  0.62077368  1
  O  O192  1  0.64739231  0.67257280  0.12044021  1
  O  O193  1  0.52387702  0.17591717  0.12373388  1
  O  O194  1  0.84276823  0.16541855  0.87167062  1
  O  O195  1  0.52239215  0.82381060  0.37711664  1
  O  O196  1  0.49483757  0.50267913  0.12572368  1
  O  O197  1  0.16373371  0.83820048  0.87757429  1
  O  O198  1  0.33861188  0.33820649  0.87178021  1
  O  O199  1  0.64756854  -0.00478252  0.37670622  1
  O  O200  1  0.50916981  0.82387435  0.12646771  1
  O  O201  1  0.65700481  0.66574108  0.37243151  1
  O  O202  1  0.17459842  0.50566377  0.37483692  1
  O  O203  1  -0.00524175  0.33649248  0.13201138  1
  O  O204  1  0.84718247  0.15810890  0.36622424  1
  O  O205  1  0.49029055  0.51225026  0.37738324  1
  O  O206  1  0.17166760  0.47467072  0.62181976  1
  O  O207  1  0.83137101  0.84261692  0.86951786  1
  O  O208  1  0.34217677  0.34454409  0.36642412  1
  O  O209  1  0.84406315  0.83381181  0.11926840  1
  O  O210  1  0.34014771  0.68487862  0.37993571  1
  O  O211  1  0.84781323  0.80157930  0.37874492  1
  O  O212  1  0.15823924  0.47996857  0.87757801  1
  O  O213  1  0.83031449  0.50251652  0.37943309  1
  O  O214  1  -0.02199647  -0.00596059  0.87738791  1
  O  O215  1  0.50406298  0.84683138  0.62337677  1
