# generated using pymatgen
data_Sr24Ta24N11O13
_symmetry_space_group_name_H-M   'P 1'
_cell_length_a   16.84715622
_cell_length_b   16.83967709
_cell_length_c   15.71562187
_cell_angle_alpha   90.08842880
_cell_angle_beta   90.04404490
_cell_angle_gamma   90.13688789
_symmetry_Int_Tables_number   1
_chemical_formula_structural   Sr24Ta24N11O13
_chemical_formula_sum   'Sr72 Ta72 N33 O39'
_cell_volume   4458.51310084
_cell_formula_units_Z   3
loop_
 _symmetry_equiv_pos_site_id
 _symmetry_equiv_pos_as_xyz
  1  'x, y, z'
loop_
 _atom_site_type_symbol
 _atom_site_label
 _atom_site_symmetry_multiplicity
 _atom_site_fract_x
 _atom_site_fract_y
 _atom_site_fract_z
 _atom_site_occupancy
  Sr  Sr0  1  -0.01414334  0.18068665  0.14848004  1
  Sr  Sr1  1  0.00335748  0.18696827  0.61010185  1
  Sr  Sr2  1  -0.00227674  0.51642580  0.12547842  1
  Sr  Sr3  1  -0.03355669  0.50079012  0.58279931  1
  Sr  Sr4  1  -0.02035422  0.84814829  0.12547504  1
  Sr  Sr5  1  0.01219308  0.81830188  0.63290845  1
  Sr  Sr6  1  0.32948548  0.17049855  0.11536856  1
  Sr  Sr7  1  0.32630021  0.15439952  0.66954397  1
  Sr  Sr8  1  0.31655359  0.51699192  0.15672977  1
  Sr  Sr9  1  0.35256974  0.48979217  0.60698175  1
  Sr  Sr10  1  0.32168045  0.82703273  0.12505397  1
  Sr  Sr11  1  0.32819720  0.86994978  0.57844304  1
  Sr  Sr12  1  0.66342685  0.16619548  0.08983140  1
  Sr  Sr13  1  0.66434438  0.16650163  0.63256715  1
  Sr  Sr14  1  0.65826671  0.49997410  0.11654388  1
  Sr  Sr15  1  0.68026120  0.50960525  0.67076331  1
  Sr  Sr16  1  0.65908073  0.85510782  0.15909839  1
  Sr  Sr17  1  0.64979406  0.83305644  0.60821849  1
  Sr  Sr18  1  0.19060168  -0.01192495  0.08727932  1
  Sr  Sr19  1  0.15962318  -0.00739579  0.62450855  1
  Sr  Sr20  1  0.17072901  0.31651079  0.11053140  1
  Sr  Sr21  1  0.18842782  0.32924740  0.64609882  1
  Sr  Sr22  1  0.16229155  0.67026498  0.13208555  1
  Sr  Sr23  1  0.18475753  0.64553477  0.63459743  1
  Sr  Sr24  1  0.48994945  -0.00654438  0.17046275  1
  Sr  Sr25  1  0.51779578  0.00299348  0.61874472  1
  Sr  Sr26  1  0.51005994  0.32809278  0.12687440  1
  Sr  Sr27  1  0.50534357  0.32865247  0.59467652  1
  Sr  Sr28  1  0.51447679  0.65973459  0.10719003  1
  Sr  Sr29  1  0.50860718  0.64724818  0.64359390  1
  Sr  Sr30  1  0.82412362  0.01179920  0.11640480  1
  Sr  Sr31  1  0.85843699  -0.02145898  0.65316967  1
  Sr  Sr32  1  0.83551451  0.35636101  0.17384018  1
  Sr  Sr33  1  0.83587029  0.32301092  0.61830681  1
  Sr  Sr34  1  0.83667656  0.65577765  0.08626313  1
  Sr  Sr35  1  0.83894838  0.67055023  0.62604180  1
  Sr  Sr36  1  0.00730271  0.17205853  0.37701003  1
  Sr  Sr37  1  -0.00947363  0.19667021  0.86965433  1
  Sr  Sr38  1  -0.01778514  0.50807875  0.36908888  1
  Sr  Sr39  1  0.01030067  0.50588343  0.91817471  1
  Sr  Sr40  1  0.00026529  0.83332169  0.37796853  1
  Sr  Sr41  1  -0.01996655  0.85142745  0.85689173  1
  Sr  Sr42  1  0.34653900  0.16996229  0.33178207  1
  Sr  Sr43  1  0.32442696  0.16300363  0.88575350  1
  Sr  Sr44  1  0.33415626  0.50422139  0.39516489  1
  Sr  Sr45  1  0.32127191  0.51199975  0.82135494  1
  Sr  Sr46  1  0.32494213  0.84269003  0.36596852  1
  Sr  Sr47  1  0.32738677  0.82129246  0.91688056  1
  Sr  Sr48  1  0.65411333  0.17642218  0.42318361  1
  Sr  Sr49  1  0.66681033  0.16601006  0.87391717  1
  Sr  Sr50  1  0.66100311  0.48684511  0.33207991  1
  Sr  Sr51  1  0.66220152  0.51187289  0.88824718  1
  Sr  Sr52  1  0.66350040  0.82911555  0.38283484  1
  Sr  Sr53  1  0.62865011  0.84814913  0.85045159  1
  Sr  Sr54  1  0.16086503  -0.01298066  0.41123550  1
  Sr  Sr55  1  0.17567366  -0.01139719  0.87267234  1
  Sr  Sr56  1  0.18445164  0.30646494  0.35663763  1
  Sr  Sr57  1  0.16210774  0.32665685  0.87855709  1
  Sr  Sr58  1  0.18175373  0.65654882  0.34124842  1
  Sr  Sr59  1  0.16972819  0.66255363  0.86512864  1
  Sr  Sr60  1  0.50219834  -0.00652546  0.38724518  1
  Sr  Sr61  1  0.50457397  0.01401643  0.83412508  1
  Sr  Sr62  1  0.50389249  0.33221700  0.37805795  1
  Sr  Sr63  1  0.51240886  0.32150102  0.91850242  1
  Sr  Sr64  1  0.51881992  0.64700052  0.37283617  1
  Sr  Sr65  1  0.50174723  0.65955707  0.87196902  1
  Sr  Sr66  1  0.84811527  -0.01575035  0.32613363  1
  Sr  Sr67  1  0.83329702  0.00605261  0.90132309  1
  Sr  Sr68  1  0.84933340  0.33375811  0.38767052  1
  Sr  Sr69  1  0.81984583  0.33308134  0.83559784  1
  Sr  Sr70  1  0.84573689  0.67518582  0.41519301  1
  Sr  Sr71  1  0.84039014  0.66198790  0.87522824  1
  Ta  Ta72  1  0.13276127  0.14795821  0.00441294  1
  Ta  Ta73  1  0.19768571  0.16845786  0.49659392  1
  Ta  Ta74  1  0.20840930  0.50075941  -0.00543667  1
  Ta  Ta75  1  0.14781069  0.49052129  0.49555184  1
  Ta  Ta76  1  0.13370709  0.82075767  -0.00249939  1
  Ta  Ta77  1  0.16847108  0.78799297  0.48862770  1
  Ta  Ta78  1  0.49786460  0.12189648  -0.00107382  1
  Ta  Ta79  1  0.46119827  0.16166304  0.50618084  1
  Ta  Ta80  1  0.44998868  0.49843087  -0.00706613  1
  Ta  Ta81  1  0.54876551  0.49751182  0.50498902  1
  Ta  Ta82  1  0.50800908  0.87014075  0.00276541  1
  Ta  Ta83  1  0.48124454  0.79509696  0.49928169  1
  Ta  Ta84  1  0.83738403  0.21267477  0.00489940  1
  Ta  Ta85  1  0.83876154  0.11875472  0.49594532  1
  Ta  Ta86  1  0.83074567  0.46621847  0.00119830  1
  Ta  Ta87  1  0.78129336  0.49986981  0.49139929  1
  Ta  Ta88  1  0.79478912  0.83241846  0.00077928  1
  Ta  Ta89  1  0.83409482  0.86927212  0.49491696  1
  Ta  Ta90  1  0.16402714  0.12047743  0.24684515  1
  Ta  Ta91  1  0.14259455  0.14987450  0.75749300  1
  Ta  Ta92  1  0.15490226  0.46902874  0.24708805  1
  Ta  Ta93  1  0.11148928  0.49314375  0.74562122  1
  Ta  Ta94  1  0.15530176  0.86262032  0.24528640  1
  Ta  Ta95  1  0.21209767  0.82570077  0.74441470  1
  Ta  Ta96  1  0.53581174  0.16815489  0.25760636  1
  Ta  Ta97  1  0.50056355  0.20222426  0.75196192  1
  Ta  Ta98  1  0.47679625  0.49295294  0.25412495  1
  Ta  Ta99  1  0.50361566  0.45628148  0.75408203  1
  Ta  Ta100  1  0.48380715  0.80171730  0.24935838  1
  Ta  Ta101  1  0.44585100  0.83253088  0.74821876  1
  Ta  Ta102  1  0.78593218  0.16932298  0.25452365  1
  Ta  Ta103  1  0.83783013  0.13900942  0.75146039  1
  Ta  Ta104  1  0.82878324  0.54903655  0.24969187  1
  Ta  Ta105  1  0.87371706  0.50493926  0.75844358  1
  Ta  Ta106  1  0.82901977  0.78631396  0.25276375  1
  Ta  Ta107  1  0.79708994  0.83104162  0.75019736  1
  Ta  Ta108  1  0.04208085  0.00305053  0.24833361  1
  Ta  Ta109  1  0.00604225  0.03963885  0.75288652  1
  Ta  Ta110  1  0.02796803  0.35805987  0.25168654  1
  Ta  Ta111  1  -0.00051597  0.37593077  0.75343397  1
  Ta  Ta112  1  -0.02966504  0.67775212  0.24782595  1
  Ta  Ta113  1  0.00511815  0.62448927  0.74566273  1
  Ta  Ta114  1  0.29886889  -0.00274567  0.25024420  1
  Ta  Ta115  1  0.33122869  -0.03821332  0.75686602  1
  Ta  Ta116  1  0.34461687  0.35848959  0.24989410  1
  Ta  Ta117  1  0.37765666  0.33015483  0.75012136  1
  Ta  Ta118  1  0.37018646  0.67509632  0.25152847  1
  Ta  Ta119  1  0.33794775  0.70693721  0.74526235  1
  Ta  Ta120  1  0.66592528  0.04967847  0.25430565  1
  Ta  Ta121  1  0.70070575  0.00072532  0.74703173  1
  Ta  Ta122  1  0.66870971  0.29100291  0.25054657  1
  Ta  Ta123  1  0.63268219  0.33422894  0.75841308  1
  Ta  Ta124  1  0.69803005  0.67237188  0.25400321  1
  Ta  Ta125  1  0.68456838  0.69406144  0.75367110  1
  Ta  Ta126  1  0.01259558  0.02187803  0.00617355  1
  Ta  Ta127  1  -0.03297794  0.00344404  0.49322371  1
  Ta  Ta128  1  -0.04787039  0.33626979  0.00195846  1
  Ta  Ta129  1  0.04441897  0.34959624  0.49307303  1
  Ta  Ta130  1  0.01399915  0.69718078  -0.00186798  1
  Ta  Ta131  1  0.04630235  0.66247444  0.48844585  1
  Ta  Ta132  1  0.37734286  -0.00248862  0.00236990  1
  Ta  Ta133  1  0.33303323  0.05236653  0.49372725  1
  Ta  Ta134  1  0.32910874  0.38116073  -0.00731163  1
  Ta  Ta135  1  0.33250186  0.28438007  0.50549888  1
  Ta  Ta136  1  0.32745293  0.62896774  -0.00785183  1
  Ta  Ta137  1  0.34140324  0.68634430  0.49632149  1
  Ta  Ta138  1  0.63125725  -0.01400123  0.00711557  1
  Ta  Ta139  1  0.71763691  0.00077789  0.50085098  1
  Ta  Ta140  1  0.70994926  0.33567293  0.00516579  1
  Ta  Ta141  1  0.67432281  0.37068608  0.50492734  1
  Ta  Ta142  1  0.67115457  0.71873730  -0.00620217  1
  Ta  Ta143  1  0.66679948  0.63652455  0.50317998  1
  N  N144  1  0.16911602  0.82086684  0.36931522  1
  N  N145  1  0.00137375  0.00072527  0.37119968  1
  N  N146  1  0.50402277  0.16432254  0.37738189  1
  N  N147  1  0.16936952  0.16162312  0.12460599  1
  N  N148  1  0.33150624  0.66526373  0.87116496  1
  N  N149  1  0.17277264  0.15463270  0.37536766  1
  N  N150  1  0.83178063  0.83218290  0.37473893  1
  N  N151  1  0.00734760  0.33357852  0.37668197  1
  N  N152  1  0.67203695  0.66960295  0.62856211  1
  N  N153  1  0.01184630  0.66262821  0.36920329  1
  N  N154  1  0.49122756  0.49850636  0.87230135  1
  N  N155  1  0.49902515  0.16129002  0.63371392  1
  N  N156  1  0.16536429  0.16593060  0.87800143  1
  N  N157  1  0.33768472  -0.00707527  0.87767735  1
  N  N158  1  0.82265312  0.50386378  0.37400787  1
  N  N159  1  0.82953766  0.50583054  0.13213823  1
  N  N160  1  0.83583036  0.50305935  0.87656910  1
  N  N161  1  0.50395322  0.49196392  0.37457032  1
  N  N162  1  0.15616295  0.83123689  0.12012491  1
  N  N163  1  0.67867349  0.00291140  0.62422159  1
  N  N164  1  0.33768738  0.66084543  0.37574903  1
  N  N165  1  -0.01027351  0.34997813  0.87679667  1
  N  N166  1  0.67580220  0.66861289  0.37613046  1
  N  N167  1  0.67230139  0.33149724  0.13121840  1
  N  N168  1  -0.00060454  0.67609774  0.11880458  1
  N  N169  1  0.50196647  0.16298467  0.88223063  1
  N  N170  1  0.65805450  0.00920691  0.12876710  1
  N  N171  1  0.34029661  -0.00219854  0.12950538  1
  N  N172  1  0.34264976  0.32372328  0.62406118  1
  N  N173  1  0.51018277  0.49193073  0.62379949  1
  N  N174  1  0.66610962  0.33294879  0.87928400  1
  N  N175  1  0.66128451  0.67121263  0.88023972  1
  N  N176  1  0.33288803  0.00945456  0.37702420  1
  O  O177  1  -0.01690106  0.01853674  0.13022766  1
  O  O178  1  0.81613695  0.82875974  0.62057046  1
  O  O179  1  0.48733893  0.50241200  0.11750357  1
  O  O180  1  0.47873064  0.84063251  0.88022064  1
  O  O181  1  -0.00917032  0.34190801  0.12869766  1
  O  O182  1  0.34047682  0.32857875  0.37421895  1
  O  O183  1  0.84128444  0.14393729  0.62553480  1
  O  O184  1  0.83431675  0.16587752  0.87716883  1
  O  O185  1  0.00640093  0.65581789  0.87042695  1
  O  O186  1  0.16409016  0.49986270  0.87286903  1
  O  O187  1  0.16682349  0.48481044  0.11809908  1
  O  O188  1  0.01642091  0.64834146  0.61977287  1
  O  O189  1  0.66952910  0.01504336  0.38058269  1
  O  O190  1  0.83207136  0.14881455  0.37261792  1
  O  O191  1  -0.00225833  0.01066216  0.88113369  1
  O  O192  1  0.50255107  0.80997729  0.37735471  1
  O  O193  1  0.16736694  0.16088908  0.63067254  1
  O  O194  1  0.34005863  0.66294241  0.12264286  1
  O  O195  1  0.82645793  0.17057915  0.12788292  1
  O  O196  1  0.49427656  0.82500197  0.12537457  1
  O  O197  1  0.81742604  0.84677485  0.87857613  1
  O  O198  1  0.66732148  0.68085539  0.11716699  1
  O  O199  1  0.00555578  0.02757309  0.62264930  1
  O  O200  1  0.32163891  0.00880837  0.63165407  1
  O  O201  1  0.17923169  0.82472505  0.86982426  1
  O  O202  1  0.47648493  0.82483448  0.62135497  1
  O  O203  1  0.50830008  0.16469482  0.12222311  1
  O  O204  1  0.17169605  0.49242245  0.37328602  1
  O  O205  1  0.66778078  -0.00104139  0.87431480  1
  O  O206  1  0.32829090  0.35468104  0.86709386  1
  O  O207  1  0.67781614  0.35093161  0.63426657  1
  O  O208  1  0.82636574  0.50862701  0.63316119  1
  O  O209  1  0.18594583  0.81904605  0.61986000  1
  O  O210  1  0.33240921  0.35930298  0.12451015  1
  O  O211  1  0.81575500  0.82818100  0.12830857  1
  O  O212  1  0.66811661  0.33433020  0.37916705  1
  O  O213  1  0.15348170  0.49262756  0.62319112  1
  O  O214  1  0.33831079  0.65185389  0.62928471  1
  O  O215  1  -0.00835889  0.34486637  0.60938793  1
