# generated using pymatgen
data_Sr24Ta24N11O13
_symmetry_space_group_name_H-M   'P 1'
_cell_length_a   16.83349426
_cell_length_b   16.82976820
_cell_length_c   15.69659748
_cell_angle_alpha   90.11800521
_cell_angle_beta   89.82928502
_cell_angle_gamma   89.83917992
_symmetry_Int_Tables_number   1
_chemical_formula_structural   Sr24Ta24N11O13
_chemical_formula_sum   'Sr72 Ta72 N33 O39'
_cell_volume   4446.85904655
_cell_formula_units_Z   3
loop_
 _symmetry_equiv_pos_site_id
 _symmetry_equiv_pos_as_xyz
  1  'x, y, z'
loop_
 _atom_site_type_symbol
 _atom_site_label
 _atom_site_symmetry_multiplicity
 _atom_site_fract_x
 _atom_site_fract_y
 _atom_site_fract_z
 _atom_site_occupancy
  Sr  Sr0  1  0.01003230  0.16518568  0.11469476  1
  Sr  Sr1  1  -0.02102725  0.17043264  0.67117255  1
  Sr  Sr2  1  -0.00598543  0.51508796  0.14958863  1
  Sr  Sr3  1  -0.02276989  0.49326356  0.59641376  1
  Sr  Sr4  1  -0.02578769  0.82791156  0.09852108  1
  Sr  Sr5  1  -0.00134183  0.83466165  0.63114672  1
  Sr  Sr6  1  0.33757526  0.16764777  0.16371536  1
  Sr  Sr7  1  0.31383880  0.14860472  0.62868010  1
  Sr  Sr8  1  0.32587761  0.47845019  0.09029197  1
  Sr  Sr9  1  0.32595341  0.50399256  0.63629388  1
  Sr  Sr10  1  0.32567383  0.83219144  0.13463228  1
  Sr  Sr11  1  0.32086829  0.83287686  0.58777901  1
  Sr  Sr12  1  0.65936124  0.16303287  0.11780862  1
  Sr  Sr13  1  0.66812519  0.17417319  0.59168882  1
  Sr  Sr14  1  0.64944375  0.49224582  0.11075306  1
  Sr  Sr15  1  0.67063686  0.48519979  0.65973812  1
  Sr  Sr16  1  0.67203794  0.81812294  0.13166615  1
  Sr  Sr17  1  0.65359141  0.81086721  0.63283028  1
  Sr  Sr18  1  0.17107962  0.01370596  0.14164099  1
  Sr  Sr19  1  0.17750112  -0.01521151  0.59411245  1
  Sr  Sr20  1  0.16546603  0.33903371  0.08013842  1
  Sr  Sr21  1  0.18082935  0.32649284  0.63409234  1
  Sr  Sr22  1  0.19387444  0.66332416  0.11286693  1
  Sr  Sr23  1  0.15895048  0.67467794  0.66451538  1
  Sr  Sr24  1  0.51871559  -0.00582259  0.08301415  1
  Sr  Sr25  1  0.50752938  0.01786643  0.64655226  1
  Sr  Sr26  1  0.50118709  0.33067392  0.13907746  1
  Sr  Sr27  1  0.51555366  0.32561556  0.59403973  1
  Sr  Sr28  1  0.49572589  0.69717855  0.16853832  1
  Sr  Sr29  1  0.47693412  0.67272084  0.60841820  1
  Sr  Sr30  1  0.84492784  0.02384080  0.12507828  1
  Sr  Sr31  1  0.85024177  -0.00463640  0.64796942  1
  Sr  Sr32  1  0.87003458  0.34347914  0.16216716  1
  Sr  Sr33  1  0.83239768  0.33810278  0.62315544  1
  Sr  Sr34  1  0.83251587  0.66337725  0.13116349  1
  Sr  Sr35  1  0.84834381  0.66736219  0.57965281  1
  Sr  Sr36  1  -0.00590016  0.15405928  0.33308455  1
  Sr  Sr37  1  0.00771073  0.17765631  0.88984954  1
  Sr  Sr38  1  -0.01102459  0.51119142  0.36915492  1
  Sr  Sr39  1  -0.01921566  0.50959127  0.88097309  1
  Sr  Sr40  1  -0.01207122  0.84862131  0.41805510  1
  Sr  Sr41  1  -0.00726378  0.82774727  0.85888190  1
  Sr  Sr42  1  0.31219025  0.15194468  0.37335458  1
  Sr  Sr43  1  0.34056158  0.14945593  0.83564611  1
  Sr  Sr44  1  0.33919560  0.48439748  0.40449654  1
  Sr  Sr45  1  0.31890606  0.51211186  0.86518508  1
  Sr  Sr46  1  0.31953593  0.82120787  0.35779869  1
  Sr  Sr47  1  0.32163910  0.84472270  0.92071441  1
  Sr  Sr48  1  0.66192243  0.17587171  0.38167081  1
  Sr  Sr49  1  0.65884378  0.16508679  0.91096632  1
  Sr  Sr50  1  0.63479473  0.48135835  0.34143208  1
  Sr  Sr51  1  0.66896828  0.49456245  0.88079389  1
  Sr  Sr52  1  0.66358166  0.80989630  0.36965995  1
  Sr  Sr53  1  0.65780112  0.83942538  0.85249839  1
  Sr  Sr54  1  0.16849272  -0.00981727  0.37279554  1
  Sr  Sr55  1  0.17937918  -0.00234171  0.89867740  1
  Sr  Sr56  1  0.16559494  0.35789910  0.41841615  1
  Sr  Sr57  1  0.18488497  0.32939599  0.86398692  1
  Sr  Sr58  1  0.15946882  0.65680399  0.32752774  1
  Sr  Sr59  1  0.18212375  0.67323087  0.87935978  1
  Sr  Sr60  1  0.52855233  0.01552903  0.40477214  1
  Sr  Sr61  1  0.50600735  0.00463823  0.86841947  1
  Sr  Sr62  1  0.49880317  0.31878395  0.35596348  1
  Sr  Sr63  1  0.52670135  0.33802424  0.92512913  1
  Sr  Sr64  1  0.48220250  0.67661169  0.38733463  1
  Sr  Sr65  1  0.50706146  0.64325757  0.81652000  1
  Sr  Sr66  1  0.83256565  0.01307051  0.36975053  1
  Sr  Sr67  1  0.85456963  0.02593994  0.87465748  1
  Sr  Sr68  1  0.84925965  0.34044002  0.38208592  1
  Sr  Sr69  1  0.83592098  0.35220058  0.83927972  1
  Sr  Sr70  1  0.83257580  0.67072884  0.37109443  1
  Sr  Sr71  1  0.81589492  0.66644242  0.92541784  1
  Ta  Ta72  1  0.21064480  0.16489124  0.00119061  1
  Ta  Ta73  1  0.12833431  0.16819485  0.49999717  1
  Ta  Ta74  1  0.12921141  0.51141880  -0.00377499  1
  Ta  Ta75  1  0.16091391  0.54483158  0.50190725  1
  Ta  Ta76  1  0.13322884  0.83198957  0.00521948  1
  Ta  Ta77  1  0.15787576  0.78565796  0.48894820  1
  Ta  Ta78  1  0.46199214  0.16857632  0.00313727  1
  Ta  Ta79  1  0.46460908  0.16688456  0.49438940  1
  Ta  Ta80  1  0.49261999  0.53864036  0.00013387  1
  Ta  Ta81  1  0.52889206  0.50128126  0.50409185  1
  Ta  Ta82  1  0.50645147  0.80260308  -0.00600056  1
  Ta  Ta83  1  0.50135595  0.86495817  0.50482025  1
  Ta  Ta84  1  0.83795685  0.21808322  -0.00063489  1
  Ta  Ta85  1  0.86333705  0.16633787  0.50698053  1
  Ta  Ta86  1  0.83525073  0.47123423  0.00766322  1
  Ta  Ta87  1  0.78067290  0.50300940  0.48641214  1
  Ta  Ta88  1  0.82038880  0.86099565  -0.00848560  1
  Ta  Ta89  1  0.80668358  0.85571452  0.51075995  1
  Ta  Ta90  1  0.16446693  0.21628684  0.24615514  1
  Ta  Ta91  1  0.15388792  0.13742384  0.75588776  1
  Ta  Ta92  1  0.18488573  0.47506024  0.24126784  1
  Ta  Ta93  1  0.12264570  0.49696585  0.75266296  1
  Ta  Ta94  1  0.11941778  0.83289821  0.24854195  1
  Ta  Ta95  1  0.18456330  0.85148974  0.75727108  1
  Ta  Ta96  1  0.50906257  0.12148611  0.24662050  1
  Ta  Ta97  1  0.52485479  0.19736031  0.75789756  1
  Ta  Ta98  1  0.46936857  0.51506940  0.24281556  1
  Ta  Ta99  1  0.49895302  0.44114948  0.75582094  1
  Ta  Ta100  1  0.50972928  0.88637179  0.25078730  1
  Ta  Ta101  1  0.45039844  0.83824489  0.75176000  1
  Ta  Ta102  1  0.81145587  0.18395134  0.24478076  1
  Ta  Ta103  1  0.79118391  0.17519727  0.75523765  1
  Ta  Ta104  1  0.79632854  0.50415113  0.25244107  1
  Ta  Ta105  1  0.83423162  0.55135685  0.75703281  1
  Ta  Ta106  1  0.85220392  0.84503294  0.25294544  1
  Ta  Ta107  1  0.82879222  0.77358267  0.74678078  1
  Ta  Ta108  1  -0.00272994  -0.03924708  0.25306166  1
  Ta  Ta109  1  0.04797514  -0.00166539  0.74725421  1
  Ta  Ta110  1  0.05351253  0.33926991  0.24878675  1
  Ta  Ta111  1  0.01829678  0.35650698  0.74569918  1
  Ta  Ta112  1  -0.01082098  0.71871974  0.25762111  1
  Ta  Ta113  1  -0.02488531  0.65306500  0.74490691  1
  Ta  Ta114  1  0.38365233  -0.00824618  0.24885392  1
  Ta  Ta115  1  0.32685033  -0.04030033  0.75091562  1
  Ta  Ta116  1  0.28681250  0.34216347  0.25069117  1
  Ta  Ta117  1  0.38871170  0.32475419  0.75325487  1
  Ta  Ta118  1  0.33572830  0.61772467  0.24806053  1
  Ta  Ta119  1  0.33360847  0.72334627  0.75447426  1
  Ta  Ta120  1  0.65440919  -0.00840422  0.24975720  1
  Ta  Ta121  1  0.67874707  0.04311744  0.75402719  1
  Ta  Ta122  1  0.69490175  0.32666143  0.23910193  1
  Ta  Ta123  1  0.65109907  0.30951644  0.75682145  1
  Ta  Ta124  1  0.66440177  0.63861529  0.24768882  1
  Ta  Ta125  1  0.70575009  0.65932531  0.75010554  1
  Ta  Ta126  1  0.01230922  -0.02124830  0.00518747  1
  Ta  Ta127  1  -0.00080537  0.04001894  0.50299334  1
  Ta  Ta128  1  -0.01781640  0.35402731  0.00343048  1
  Ta  Ta129  1  0.00360192  0.28358432  0.50309567  1
  Ta  Ta130  1  0.02077573  0.66713668  0.00337644  1
  Ta  Ta131  1  0.03863477  0.66672526  0.49589732  1
  Ta  Ta132  1  0.34099625  0.03648876  0.00051497  1
  Ta  Ta133  1  0.36839022  -0.00183442  0.50333624  1
  Ta  Ta134  1  0.34172532  0.28787771  -0.00187645  1
  Ta  Ta135  1  0.34543590  0.30309714  0.50249947  1
  Ta  Ta136  1  0.39366160  0.67230365  -0.00827547  1
  Ta  Ta137  1  0.28411928  0.65992240  0.49294542  1
  Ta  Ta138  1  0.69838514  -0.02516694  -0.00757172  1
  Ta  Ta139  1  0.68298332  -0.03080707  0.51032488  1
  Ta  Ta140  1  0.71624191  0.33381960  0.00971287  1
  Ta  Ta141  1  0.67389556  0.36432290  0.49236628  1
  Ta  Ta142  1  0.60351826  0.66770959  -0.00571260  1
  Ta  Ta143  1  0.65432392  0.62184549  0.50169392  1
  N  N144  1  0.00271513  -0.00016565  0.12574049  1
  N  N145  1  0.17369254  0.16316299  0.87400853  1
  N  N146  1  -0.00002691  0.66390475  0.62473186  1
  N  N147  1  0.82653462  0.51423917  0.87768420  1
  N  N148  1  0.50404133  0.17276340  0.87780785  1
  N  N149  1  0.34062895  -0.00171372  0.88211310  1
  N  N150  1  0.01087220  -0.00101560  0.62449519  1
  N  N151  1  -0.00788454  0.67294984  0.37162161  1
  N  N152  1  0.67025677  0.33176129  0.61503549  1
  N  N153  1  0.83449277  0.50985620  0.37677245  1
  N  N154  1  0.67416986  0.00118080  0.87239057  1
  N  N155  1  0.84177632  0.17872837  0.12617629  1
  N  N156  1  0.67592807  0.33353660  0.87837342  1
  N  N157  1  0.82852445  0.17487275  0.62517784  1
  N  N158  1  0.16350756  0.83252971  0.88039239  1
  N  N159  1  0.16035789  0.82863757  0.36579969  1
  N  N160  1  0.32152789  0.65050697  0.37142461  1
  N  N161  1  0.49321122  0.16432787  0.37195097  1
  N  N162  1  0.66555913  0.32845448  0.36530027  1
  N  N163  1  0.00105496  0.00154055  0.37622675  1
  N  N164  1  0.34826038  0.67803117  0.87368103  1
  N  N165  1  0.65434428  0.33072938  0.11499842  1
  N  N166  1  0.01684661  0.34073503  0.12488571  1
  N  N167  1  0.16669388  0.50056324  0.11950754  1
  N  N168  1  0.49060864  0.49725642  0.12138801  1
  N  N169  1  0.00407347  0.32668980  0.62424716  1
  N  N170  1  0.33906474  -0.00632758  0.62806308  1
  N  N171  1  0.17339941  0.17600583  0.12574083  1
  N  N172  1  0.83449683  0.18379081  0.87333117  1
  N  N173  1  0.50086112  0.16267285  0.12985877  1
  N  N174  1  0.16109324  0.50355207  0.87004599  1
  N  N175  1  0.82814834  0.82254321  0.63041894  1
  N  N176  1  0.83236396  0.50764922  0.12694049  1
  O  O177  1  0.00828097  -0.01454235  0.86807715  1
  O  O178  1  0.32667438  0.32170983  0.12402471  1
  O  O179  1  0.36038721  -0.01131535  0.12088413  1
  O  O180  1  0.67336925  -0.01562667  0.12517100  1
  O  O181  1  0.51286339  0.84473654  0.11838640  1
  O  O182  1  0.15509181  0.16793416  0.62510993  1
  O  O183  1  0.67567352  -0.02125947  0.37541570  1
  O  O184  1  -0.00784582  0.67273902  0.12945302  1
  O  O185  1  0.34545846  0.30913774  0.62949919  1
  O  O186  1  0.32296644  0.68237965  0.62423617  1
  O  O187  1  0.67337985  -0.00130127  0.63378655  1
  O  O188  1  0.00375157  0.33600492  0.87273795  1
  O  O189  1  0.49216856  0.51025283  0.38178124  1
  O  O190  1  0.16184996  0.52283726  0.63229814  1
  O  O191  1  0.51664566  0.48108847  0.62984652  1
  O  O192  1  0.64433906  0.65887944  0.12270892  1
  O  O193  1  0.65081240  0.64880131  0.37318164  1
  O  O194  1  0.49790778  0.84210377  0.87360674  1
  O  O195  1  0.15174367  0.17153296  0.37351027  1
  O  O196  1  0.35370221  -0.00349768  0.37152096  1
  O  O197  1  0.16709748  0.50839390  0.37782663  1
  O  O198  1  0.49603792  0.84205728  0.62920430  1
  O  O199  1  0.16630353  0.82547204  0.61518401  1
  O  O200  1  0.34779958  0.67565034  0.13272547  1
  O  O201  1  0.51194227  0.85756162  0.37931201  1
  O  O202  1  0.82789480  0.85082698  0.12611140  1
  O  O203  1  0.01668752  0.32669124  0.37967758  1
  O  O204  1  0.82836578  0.84639048  0.37794006  1
  O  O205  1  0.65464055  0.66320033  0.87498845  1
  O  O206  1  0.82516902  0.82217766  0.87057197  1
  O  O207  1  0.17296523  0.82255493  0.12631789  1
  O  O208  1  0.83519732  0.17219070  0.37467999  1
  O  O209  1  0.32028153  0.32389090  0.37997577  1
  O  O210  1  0.82298803  0.51469104  0.61276734  1
  O  O211  1  0.66491807  0.64485489  0.62667893  1
  O  O212  1  0.00467931  0.67074554  0.87841750  1
  O  O213  1  0.50968529  0.17074003  0.61694063  1
  O  O214  1  0.34514476  0.30616240  0.86816088  1
  O  O215  1  0.50039228  0.49059879  0.87345646  1
