# generated using pymatgen
data_Sr24Ta24N11O13
_symmetry_space_group_name_H-M   'P 1'
_cell_length_a   16.86620257
_cell_length_b   16.78527427
_cell_length_c   15.66946291
_cell_angle_alpha   90.40281503
_cell_angle_beta   89.54958387
_cell_angle_gamma   89.94599710
_symmetry_Int_Tables_number   1
_chemical_formula_structural   Sr24Ta24N11O13
_chemical_formula_sum   'Sr72 Ta72 N33 O39'
_cell_volume   4435.83615007
_cell_formula_units_Z   3
loop_
 _symmetry_equiv_pos_site_id
 _symmetry_equiv_pos_as_xyz
  1  'x, y, z'
loop_
 _atom_site_type_symbol
 _atom_site_label
 _atom_site_symmetry_multiplicity
 _atom_site_fract_x
 _atom_site_fract_y
 _atom_site_fract_z
 _atom_site_occupancy
  Sr  Sr0  1  -0.00188554  0.16336365  0.09019063  1
  Sr  Sr1  1  0.00408174  0.16389508  0.63288506  1
  Sr  Sr2  1  0.02056122  0.49256312  0.10840783  1
  Sr  Sr3  1  -0.00282650  0.49682641  0.65877713  1
  Sr  Sr4  1  -0.00926865  0.83430358  0.14254794  1
  Sr  Sr5  1  0.02208131  0.81746316  0.59538493  1
  Sr  Sr6  1  0.31879590  0.17099027  0.13468168  1
  Sr  Sr7  1  0.35355233  0.16436775  0.58224082  1
  Sr  Sr8  1  0.34041124  0.49971682  0.15628568  1
  Sr  Sr9  1  0.34025508  0.49621253  0.61957809  1
  Sr  Sr10  1  0.35466036  0.82072457  0.10696670  1
  Sr  Sr11  1  0.34377053  0.83341527  0.64886367  1
  Sr  Sr12  1  0.68234203  0.14784779  0.13709692  1
  Sr  Sr13  1  0.66163847  0.17759354  0.65892588  1
  Sr  Sr14  1  0.66280302  0.50580698  0.13280224  1
  Sr  Sr15  1  0.68145781  0.48755390  0.57307844  1
  Sr  Sr16  1  0.67392210  0.83555796  0.08424096  1
  Sr  Sr17  1  0.65896444  0.83023418  0.63533732  1
  Sr  Sr18  1  0.14532102  -0.00573739  0.16326889  1
  Sr  Sr19  1  0.15625461  0.00548738  0.61852160  1
  Sr  Sr20  1  0.16991731  0.32910470  0.11769613  1
  Sr  Sr21  1  0.15559868  0.34803191  0.66437644  1
  Sr  Sr22  1  0.15288511  0.68068142  0.11019400  1
  Sr  Sr23  1  0.17983670  0.66304419  0.59186061  1
  Sr  Sr24  1  0.48121528  0.01714169  0.14275259  1
  Sr  Sr25  1  0.49526584  -0.01320895  0.59505310  1
  Sr  Sr26  1  0.49818130  0.33252370  0.09218424  1
  Sr  Sr27  1  0.49658936  0.33447604  0.63315167  1
  Sr  Sr28  1  0.51150305  0.66876192  0.11002577  1
  Sr  Sr29  1  0.48971321  0.67838054  0.67409368  1
  Sr  Sr30  1  0.83749626  -0.00168722  0.11357448  1
  Sr  Sr31  1  0.78955781  0.01955999  0.67157243  1
  Sr  Sr32  1  0.81319423  0.34439357  0.15021816  1
  Sr  Sr33  1  0.83456144  0.33133911  0.59691329  1
  Sr  Sr34  1  0.84122902  0.67672482  0.16061822  1
  Sr  Sr35  1  0.82927003  0.66937398  0.61292307  1
  Sr  Sr36  1  -0.01153950  0.17127133  0.42274857  1
  Sr  Sr37  1  0.01404769  0.15456523  0.86191545  1
  Sr  Sr38  1  0.01523510  0.46512775  0.33765316  1
  Sr  Sr39  1  0.01425017  0.50193942  0.88186854  1
  Sr  Sr40  1  0.00410607  0.83369424  0.36958641  1
  Sr  Sr41  1  0.00696380  0.82794823  0.88250651  1
  Sr  Sr42  1  0.31764973  0.16191818  0.36288214  1
  Sr  Sr43  1  0.34088409  0.18177186  0.91885493  1
  Sr  Sr44  1  0.33133562  0.50418883  0.38244996  1
  Sr  Sr45  1  0.34865373  0.48379331  0.83032468  1
  Sr  Sr46  1  0.36423717  0.82456778  0.35966577  1
  Sr  Sr47  1  0.33297044  0.82119128  0.88234677  1
  Sr  Sr48  1  0.67985439  0.15513283  0.34046008  1
  Sr  Sr49  1  0.67546269  0.16500341  0.86252610  1
  Sr  Sr50  1  0.67249642  0.51195482  0.36131117  1
  Sr  Sr51  1  0.65544898  0.48979992  0.91853919  1
  Sr  Sr52  1  0.66682693  0.84095968  0.41513464  1
  Sr  Sr53  1  0.68545921  0.82662706  0.85697415  1
  Sr  Sr54  1  0.13948965  0.01546526  0.39506821  1
  Sr  Sr55  1  0.15892591  -0.01310097  0.82732300  1
  Sr  Sr56  1  0.17524462  0.34093804  0.33654873  1
  Sr  Sr57  1  0.16289191  0.33320061  0.88326176  1
  Sr  Sr58  1  0.16717755  0.67598492  0.38656988  1
  Sr  Sr59  1  0.16136327  0.67716815  0.91054965  1
  Sr  Sr60  1  0.49896401  -0.00078359  0.37261689  1
  Sr  Sr61  1  0.45099343  0.01467172  0.91170123  1
  Sr  Sr62  1  0.47916409  0.34750195  0.42379150  1
  Sr  Sr63  1  0.50423192  0.32753830  0.86529725  1
  Sr  Sr64  1  0.49207748  0.65358562  0.32675046  1
  Sr  Sr65  1  0.50723196  0.66644695  0.88441461  1
  Sr  Sr66  1  0.82296864  0.00285607  0.35235626  1
  Sr  Sr67  1  0.82874286  0.00291850  0.89276729  1
  Sr  Sr68  1  0.83054973  0.32938972  0.37780717  1
  Sr  Sr69  1  0.81839934  0.36293405  0.88907084  1
  Sr  Sr70  1  0.83615506  0.69032537  0.38949012  1
  Sr  Sr71  1  0.85168163  0.66742840  0.83268838  1
  Ta  Ta72  1  0.16570192  0.12084359  0.00362244  1
  Ta  Ta73  1  0.16776901  0.21174107  0.49873561  1
  Ta  Ta74  1  0.21368269  0.50361628  -0.00398452  1
  Ta  Ta75  1  0.14830881  0.48102781  0.49917444  1
  Ta  Ta76  1  0.16314345  0.87228683  -0.00356337  1
  Ta  Ta77  1  0.21126811  0.84497910  0.50291220  1
  Ta  Ta78  1  0.53802124  0.16470736  -0.00141688  1
  Ta  Ta79  1  0.54469577  0.16545485  0.49738866  1
  Ta  Ta80  1  0.46474180  0.49793870  -0.00592758  1
  Ta  Ta81  1  0.50038493  0.54645002  0.49885554  1
  Ta  Ta82  1  0.52079009  0.86198708  -0.01433043  1
  Ta  Ta83  1  0.49876467  0.78735415  0.49788358  1
  Ta  Ta84  1  0.82936966  0.19974299  0.00268942  1
  Ta  Ta85  1  0.80311475  0.14649140  0.50427406  1
  Ta  Ta86  1  0.84309548  0.53676927  -0.00046727  1
  Ta  Ta87  1  0.88942556  0.50167106  0.49485671  1
  Ta  Ta88  1  0.84255067  0.79817844  0.00068389  1
  Ta  Ta89  1  0.83361227  0.87905764  0.51498988  1
  Ta  Ta90  1  0.12327461  0.16692530  0.25260704  1
  Ta  Ta91  1  0.21782488  0.16556531  0.74718502  1
  Ta  Ta92  1  0.17233132  0.53641765  0.24186771  1
  Ta  Ta93  1  0.17187986  0.54233545  0.75754794  1
  Ta  Ta94  1  0.19675161  0.82812114  0.25052195  1
  Ta  Ta95  1  0.16627158  0.79745499  0.74774421  1
  Ta  Ta96  1  0.50241266  0.21431925  0.25377105  1
  Ta  Ta97  1  0.47519687  0.14521025  0.75570540  1
  Ta  Ta98  1  0.50260370  0.45645186  0.25646176  1
  Ta  Ta99  1  0.54578786  0.49868853  0.74855028  1
  Ta  Ta100  1  0.54417020  0.83428301  0.24928221  1
  Ta  Ta101  1  0.50082458  0.87522595  0.76875066  1
  Ta  Ta102  1  0.87066946  0.16793495  0.25211090  1
  Ta  Ta103  1  0.84416229  0.20192695  0.75326250  1
  Ta  Ta104  1  0.85763974  0.51718937  0.25281842  1
  Ta  Ta105  1  0.79657625  0.49219884  0.74232243  1
  Ta  Ta106  1  0.78606392  0.83959877  0.24593076  1
  Ta  Ta107  1  0.86709267  0.84857296  0.73752051  1
  Ta  Ta108  1  -0.01262647  0.04758150  0.25775838  1
  Ta  Ta109  1  -0.02784212  -0.02778806  0.73520257  1
  Ta  Ta110  1  -0.00561367  0.28352446  0.25548167  1
  Ta  Ta111  1  -0.03676085  0.32728200  0.74968629  1
  Ta  Ta112  1  0.00967825  0.63963384  0.25589346  1
  Ta  Ta113  1  0.03845456  0.67181764  0.75155213  1
  Ta  Ta114  1  0.30610500  -0.02679196  0.24965911  1
  Ta  Ta115  1  0.34343850  0.03285238  0.74731314  1
  Ta  Ta116  1  0.36753200  0.33135943  0.25295056  1
  Ta  Ta117  1  0.33192299  0.29068066  0.74860829  1
  Ta  Ta118  1  0.30240301  0.67192751  0.23859052  1
  Ta  Ta119  1  0.29757697  0.66227766  0.75552381  1
  Ta  Ta120  1  0.65992677  -0.04192363  0.24647233  1
  Ta  Ta121  1  0.60420541  0.00146839  0.77256143  1
  Ta  Ta122  1  0.62343161  0.33235246  0.25412403  1
  Ta  Ta123  1  0.67824648  0.37045906  0.74097800  1
  Ta  Ta124  1  0.67058564  0.70964660  0.24553727  1
  Ta  Ta125  1  0.67122737  0.61407136  0.74787515  1
  Ta  Ta126  1  0.03287269  -0.00508117  -0.00405423  1
  Ta  Ta127  1  -0.05802915  -0.00303418  0.51736514  1
  Ta  Ta128  1  -0.03445421  0.32789181  0.00398802  1
  Ta  Ta129  1  0.02562657  0.35290584  0.50082191  1
  Ta  Ta130  1  -0.03362740  0.66620068  0.00438529  1
  Ta  Ta131  1  0.00574891  0.61711350  0.48585772  1
  Ta  Ta132  1  0.27482577  -0.00646889  0.00066870  1
  Ta  Ta133  1  0.31593040  -0.02528153  0.49658250  1
  Ta  Ta134  1  0.33409138  0.36903613  -0.00109486  1
  Ta  Ta135  1  0.28745182  0.33710811  0.50285239  1
  Ta  Ta136  1  0.33661308  0.62372222  -0.00561532  1
  Ta  Ta137  1  0.36797905  0.67614502  0.50593386  1
  Ta  Ta138  1  0.63086973  0.00468687  -0.01470065  1
  Ta  Ta139  1  0.67235486  0.02545562  0.49805104  1
  Ta  Ta140  1  0.66907591  0.29939733  0.00730469  1
  Ta  Ta141  1  0.66020449  0.29061703  0.49720043  1
  Ta  Ta142  1  0.72030118  0.66324122  0.00175753  1
  Ta  Ta143  1  0.61603319  0.66652861  0.49904347  1
  N  N144  1  0.00432025  0.67805166  0.38032028  1
  N  N145  1  0.00558109  0.00386465  0.62035218  1
  N  N146  1  0.16663608  0.83579185  0.87491099  1
  N  N147  1  0.34063926  0.66805740  0.62673090  1
  N  N148  1  0.33806582  0.66652265  0.12051085  1
  N  N149  1  0.16026369  0.15698192  0.12488584  1
  N  N150  1  0.66150642  -0.00160731  0.37549126  1
  N  N151  1  0.32794086  0.33670923  0.37546502  1
  N  N152  1  0.49893397  0.16851973  0.87770272  1
  N  N153  1  0.17865906  0.83195290  0.62390088  1
  N  N154  1  0.33449211  0.32970464  0.87084149  1
  N  N155  1  0.83153436  0.16732126  0.38429437  1
  N  N156  1  0.17415360  0.50490466  0.12276336  1
  N  N157  1  -0.00426020  0.33495984  0.63001026  1
  N  N158  1  0.32926172  0.33176988  0.62198005  1
  N  N159  1  0.65974436  0.33067575  0.12718442  1
  N  N160  1  0.67841558  0.00167186  0.86892169  1
  N  N161  1  0.33458234  0.33402339  0.12301664  1
  N  N162  1  0.34259690  0.66317552  0.87005274  1
  N  N163  1  0.67590035  0.67088738  0.11947463  1
  N  N164  1  0.51445374  0.82254182  0.37228991  1
  N  N165  1  0.17183102  0.49919982  0.87226860  1
  N  N166  1  0.83444281  0.17156839  0.12201647  1
  N  N167  1  0.66669904  0.33493850  0.62015338  1
  N  N168  1  -0.00070136  0.66548093  0.12760238  1
  N  N169  1  -0.00084822  0.32108493  0.37934282  1
  N  N170  1  0.82852813  0.17290488  0.63416321  1
  N  N171  1  0.50536275  0.49459332  0.87355722  1
  N  N172  1  0.83098751  0.83533036  0.12086775  1
  N  N173  1  0.15947664  0.17615131  0.37987912  1
  N  N174  1  0.00686609  0.66663722  0.87193442  1
  N  N175  1  0.49097468  0.81780630  0.87522698  1
  N  N176  1  0.50027331  0.50226140  0.37793814  1
  O  O177  1  0.17484856  0.82889985  0.37668549  1
  O  O178  1  0.00976858  -0.00713465  0.86669413  1
  O  O179  1  -0.01583010  0.32545956  0.12802114  1
  O  O180  1  0.02192756  0.65862310  0.61089704  1
  O  O181  1  0.17192662  0.83562119  0.12583021  1
  O  O182  1  0.51067601  0.15968500  0.62184082  1
  O  O183  1  -0.02126757  0.34523764  0.88091784  1
  O  O184  1  0.67102482  0.33137950  0.37534507  1
  O  O185  1  0.80828722  0.82505301  0.62932541  1
  O  O186  1  0.16807217  0.49946582  0.37285809  1
  O  O187  1  0.51179721  0.82729573  0.10919802  1
  O  O188  1  0.19343005  0.16522525  0.62097842  1
  O  O189  1  0.84011048  0.50305919  0.61890923  1
  O  O190  1  0.68387757  0.63871686  0.87443830  1
  O  O191  1  0.50156301  0.83394153  0.64011604  1
  O  O192  1  0.84577255  0.51458205  0.12883111  1
  O  O193  1  0.50072778  0.49047986  0.12884388  1
  O  O194  1  0.33789340  -0.00228422  0.62527587  1
  O  O195  1  0.30861663  -0.00291821  0.37276356  1
  O  O196  1  -0.02153229  0.01841660  0.38842560  1
  O  O197  1  0.52174195  0.16393973  0.37086834  1
  O  O198  1  0.83015594  0.51560813  0.87170873  1
  O  O199  1  0.83141047  0.15693285  0.87424369  1
  O  O200  1  0.65884221  0.64418183  0.62390926  1
  O  O201  1  0.85043813  0.49270700  0.37631737  1
  O  O202  1  0.34108646  0.66968616  0.36518989  1
  O  O203  1  0.30918213  0.00386985  0.86765790  1
  O  O204  1  0.50539058  0.50838217  0.62631303  1
  O  O205  1  0.15680546  0.50140333  0.62680838  1
  O  O206  1  0.84834966  0.82396469  0.86600090  1
  O  O207  1  0.31498167  -0.01594355  0.12525242  1
  O  O208  1  0.18831938  0.15516848  0.87219451  1
  O  O209  1  -0.00006123  0.01017938  0.12132375  1
  O  O210  1  0.81892236  0.84980683  0.38684686  1
  O  O211  1  0.66847831  0.33931637  0.88051062  1
  O  O212  1  0.65665068  -0.00475841  0.12032022  1
  O  O213  1  0.64177294  0.00706479  0.64075110  1
  O  O214  1  0.65075292  0.66949561  0.36749680  1
  O  O215  1  0.50853835  0.17366622  0.12847542  1
