# generated using pymatgen
data_Sr24Ta24N11O13
_symmetry_space_group_name_H-M   'P 1'
_cell_length_a   16.93557528
_cell_length_b   16.65847455
_cell_length_c   15.61990736
_cell_angle_alpha   90.42478272
_cell_angle_beta   90.37020040
_cell_angle_gamma   89.51833725
_symmetry_Int_Tables_number   1
_chemical_formula_structural   Sr24Ta24N11O13
_chemical_formula_sum   'Sr72 Ta72 N33 O39'
_cell_volume   4406.33449971
_cell_formula_units_Z   3
loop_
 _symmetry_equiv_pos_site_id
 _symmetry_equiv_pos_as_xyz
  1  'x, y, z'
loop_
 _atom_site_type_symbol
 _atom_site_label
 _atom_site_symmetry_multiplicity
 _atom_site_fract_x
 _atom_site_fract_y
 _atom_site_fract_z
 _atom_site_occupancy
  Sr  Sr0  1  -0.01874781  0.15033713  0.07363689  1
  Sr  Sr1  1  -0.00946081  0.17148586  0.63461714  1
  Sr  Sr2  1  0.00459734  0.49500954  0.13022830  1
  Sr  Sr3  1  -0.04348326  0.48682740  0.58294422  1
  Sr  Sr4  1  -0.00152201  0.85195538  0.17176180  1
  Sr  Sr5  1  0.01003891  0.82645549  0.60894029  1
  Sr  Sr6  1  0.32024625  0.18435754  0.16417600  1
  Sr  Sr7  1  0.31899748  0.15189173  0.60432585  1
  Sr  Sr8  1  0.33240472  0.49774545  0.08484529  1
  Sr  Sr9  1  0.32015005  0.51276346  0.62473830  1
  Sr  Sr10  1  0.32276788  0.83748671  0.11525039  1
  Sr  Sr11  1  0.35051074  0.83700596  0.67496168  1
  Sr  Sr12  1  0.65275861  0.18121966  0.13887396  1
  Sr  Sr13  1  0.65828999  0.15780464  0.62975280  1
  Sr  Sr14  1  0.64192707  0.49299963  0.12729934  1
  Sr  Sr15  1  0.66225373  0.51824446  0.65821599  1
  Sr  Sr16  1  0.66721858  0.83851224  0.13195865  1
  Sr  Sr17  1  0.65403316  0.82781114  0.57984302  1
  Sr  Sr18  1  0.17177086  -0.00751621  0.13235634  1
  Sr  Sr19  1  0.14236576  -0.00176735  0.56835369  1
  Sr  Sr20  1  0.17218067  0.33378036  0.16246596  1
  Sr  Sr21  1  0.18887143  0.32741059  0.62546103  1
  Sr  Sr22  1  0.18462142  0.64876555  0.07661495  1
  Sr  Sr23  1  0.17916374  0.67731803  0.64317075  1
  Sr  Sr24  1  0.49307334  -0.02225351  0.07899077  1
  Sr  Sr25  1  0.49119049  0.00880754  0.63688908  1
  Sr  Sr26  1  0.49005651  0.33062776  0.12101394  1
  Sr  Sr27  1  0.54699011  0.34318621  0.66214192  1
  Sr  Sr28  1  0.51198545  0.68334015  0.17171292  1
  Sr  Sr29  1  0.50952591  0.66194144  0.61440918  1
  Sr  Sr30  1  0.81948310  0.00041303  0.11638192  1
  Sr  Sr31  1  0.84017368  0.00453719  0.67240070  1
  Sr  Sr32  1  0.86692964  0.33637967  0.11712915  1
  Sr  Sr33  1  0.84307379  0.32042942  0.60333367  1
  Sr  Sr34  1  0.85437249  0.65244769  0.11552973  1
  Sr  Sr35  1  0.83810403  0.66835754  0.62286587  1
  Sr  Sr36  1  -0.02157637  0.16256902  0.40907883  1
  Sr  Sr37  1  0.00278835  0.16889103  0.86159691  1
  Sr  Sr38  1  -0.00148975  0.48191088  0.35241409  1
  Sr  Sr39  1  -0.01200329  0.50801583  0.90985745  1
  Sr  Sr40  1  0.01311929  0.83089599  0.38648643  1
  Sr  Sr41  1  -0.01427500  0.81317336  0.82024523  1
  Sr  Sr42  1  0.33197278  0.16930581  0.38128903  1
  Sr  Sr43  1  0.31487528  0.16828706  0.84652818  1
  Sr  Sr44  1  0.33118497  0.51808668  0.41624878  1
  Sr  Sr45  1  0.30897919  0.49608406  0.87272274  1
  Sr  Sr46  1  0.33677692  0.82383748  0.33546839  1
  Sr  Sr47  1  0.31067451  0.84666978  0.89338824  1
  Sr  Sr48  1  0.67057335  0.17172009  0.37759955  1
  Sr  Sr49  1  0.62882652  0.17014993  0.85397140  1
  Sr  Sr50  1  0.62869944  0.50267028  0.34490101  1
  Sr  Sr51  1  0.65420105  0.50417575  0.86566158  1
  Sr  Sr52  1  0.65979217  0.83042412  0.37062861  1
  Sr  Sr53  1  0.68343737  0.84510253  0.92026015  1
  Sr  Sr54  1  0.17700289  -0.02116229  0.35346775  1
  Sr  Sr55  1  0.15545787  0.00826880  0.91175557  1
  Sr  Sr56  1  0.19306314  0.34852592  0.37844083  1
  Sr  Sr57  1  0.17677903  0.31747451  0.83057632  1
  Sr  Sr58  1  0.18566702  0.65801598  0.40247440  1
  Sr  Sr59  1  0.16472033  0.67546881  0.86174731  1
  Sr  Sr60  1  0.51993809  0.01623154  0.42685970  1
  Sr  Sr61  1  0.48375910  0.00254766  0.86101975  1
  Sr  Sr62  1  0.51543332  0.32106550  0.34043871  1
  Sr  Sr63  1  0.50191452  0.34773380  0.90202826  1
  Sr  Sr64  1  0.49803872  0.67327171  0.38316170  1
  Sr  Sr65  1  0.51979054  0.66992429  0.83992704  1
  Sr  Sr66  1  0.81545948  -0.00930967  0.33074822  1
  Sr  Sr67  1  0.83222535  0.00313961  0.88182587  1
  Sr  Sr68  1  0.85261982  0.33098872  0.38915580  1
  Sr  Sr69  1  0.87453964  0.33563266  0.89746711  1
  Sr  Sr70  1  0.86667406  0.66200939  0.39372300  1
  Sr  Sr71  1  0.82978412  0.65865773  0.87472195  1
  Ta  Ta72  1  0.18435587  0.19239869  0.00267815  1
  Ta  Ta73  1  0.14660533  0.18188635  0.48834871  1
  Ta  Ta74  1  0.16151694  0.44880252  -0.00307911  1
  Ta  Ta75  1  0.13234846  0.49799366  0.51709920  1
  Ta  Ta76  1  0.11514549  0.83086333  -0.00675657  1
  Ta  Ta77  1  0.21168169  0.82675634  0.50252163  1
  Ta  Ta78  1  0.45930008  0.16420298  -0.00347010  1
  Ta  Ta79  1  0.49623704  0.21144773  0.51063920  1
  Ta  Ta80  1  0.49952714  0.55854092  -0.00160399  1
  Ta  Ta81  1  0.51652545  0.46705158  0.50519601  1
  Ta  Ta82  1  0.50698916  0.78384268  -0.00020703  1
  Ta  Ta83  1  0.46100152  0.83918109  0.49993317  1
  Ta  Ta84  1  0.78930283  0.17668212  -0.01110115  1
  Ta  Ta85  1  0.82282585  0.12788687  0.50718243  1
  Ta  Ta86  1  0.79624548  0.49213409  0.00076784  1
  Ta  Ta87  1  0.77992706  0.49780037  0.49616494  1
  Ta  Ta88  1  0.88173725  0.82529320  0.00026945  1
  Ta  Ta89  1  0.83321611  0.86732460  0.49963331  1
  Ta  Ta90  1  0.12465864  0.15477362  0.25451237  1
  Ta  Ta91  1  0.15594485  0.11784965  0.73486153  1
  Ta  Ta92  1  0.19269633  0.52240171  0.24324630  1
  Ta  Ta93  1  0.12059977  0.49766231  0.73920300  1
  Ta  Ta94  1  0.16788563  0.77900463  0.24615668  1
  Ta  Ta95  1  0.16337408  0.87714198  0.74425743  1
  Ta  Ta96  1  0.49412917  0.11975841  0.24880389  1
  Ta  Ta97  1  0.46516571  0.19583004  0.74230012  1
  Ta  Ta98  1  0.44654522  0.51014751  0.25005454  1
  Ta  Ta99  1  0.46546530  0.50141749  0.75956014  1
  Ta  Ta100  1  0.50136155  0.88718637  0.25857334  1
  Ta  Ta101  1  0.54751642  0.83667154  0.75231097  1
  Ta  Ta102  1  0.84621461  0.17640991  0.24007921  1
  Ta  Ta103  1  0.81304372  0.19152440  0.76916646  1
  Ta  Ta104  1  0.80764271  0.49706565  0.25079870  1
  Ta  Ta105  1  0.84402154  0.47951783  0.74992724  1
  Ta  Ta106  1  0.82578113  0.79870605  0.25652038  1
  Ta  Ta107  1  0.78556273  0.83047400  0.74798976  1
  Ta  Ta108  1  -0.00782498  0.05034927  0.24837484  1
  Ta  Ta109  1  0.03351907  -0.00400453  0.74103873  1
  Ta  Ta110  1  0.00545431  0.27472610  0.25385269  1
  Ta  Ta111  1  0.00012784  0.36731361  0.74275913  1
  Ta  Ta112  1  0.04687360  0.66212781  0.24783865  1
  Ta  Ta113  1  0.00122559  0.61315438  0.73658359  1
  Ta  Ta114  1  0.37279680  0.00350620  0.25037951  1
  Ta  Ta115  1  0.27704005  0.00157524  0.74108757  1
  Ta  Ta116  1  0.34372109  0.38703158  0.25702145  1
  Ta  Ta117  1  0.36923527  0.34124374  0.74764843  1
  Ta  Ta118  1  0.31874514  0.64147927  0.23905505  1
  Ta  Ta119  1  0.35292084  0.65734402  0.76945468  1
  Ta  Ta120  1  0.62225358  0.00836926  0.24306272  1
  Ta  Ta121  1  0.66152287  -0.03907601  0.74863571  1
  Ta  Ta122  1  0.71442573  0.34019868  0.25025388  1
  Ta  Ta123  1  0.72234281  0.33213582  0.76293494  1
  Ta  Ta124  1  0.70854405  0.66119232  0.26043355  1
  Ta  Ta125  1  0.67668491  0.71057958  0.74622829  1
  Ta  Ta126  1  -0.00904266  -0.05349795  -0.00677137  1
  Ta  Ta127  1  -0.05999123  -0.00179200  0.50117999  1
  Ta  Ta128  1  0.05645978  0.32447838  -0.00726304  1
  Ta  Ta129  1  0.03931287  0.32928083  0.49794801  1
  Ta  Ta130  1  0.00494892  0.70829340  -0.00172808  1
  Ta  Ta131  1  0.02983707  0.64137492  0.51129189  1
  Ta  Ta132  1  0.32635932  0.05246724  0.00872193  1
  Ta  Ta133  1  0.33272322  -0.04302238  0.50092518  1
  Ta  Ta134  1  0.30667004  0.31084985  -0.00620004  1
  Ta  Ta135  1  0.38760463  0.34114100  0.50463147  1
  Ta  Ta136  1  0.37813426  0.67543742  -0.00701712  1
  Ta  Ta137  1  0.34234032  0.71907839  0.51048180  1
  Ta  Ta138  1  0.65904030  0.03868299  -0.00552936  1
  Ta  Ta139  1  0.71302632  0.00206324  0.50731194  1
  Ta  Ta140  1  0.69917664  0.33354827  -0.00836686  1
  Ta  Ta141  1  0.66132721  0.36731888  0.50039100  1
  Ta  Ta142  1  0.65079705  0.66016144  0.00002961  1
  Ta  Ta143  1  0.68004241  0.64043707  0.49057545  1
  N  N144  1  0.50324305  0.16314021  0.62289171  1
  N  N145  1  0.02381797  0.33018086  0.87045783  1
  N  N146  1  0.85381371  0.16446927  0.88679210  1
  N  N147  1  0.15821517  0.15652922  0.60857221  1
  N  N148  1  0.82649684  0.16772972  0.11773163  1
  N  N149  1  0.16929611  0.83407589  0.62108772  1
  N  N150  1  0.65403997  0.00313786  0.12110756  1
  N  N151  1  0.33197850  0.33499470  0.87342338  1
  N  N152  1  0.15261571  0.83810650  0.87392622  1
  N  N153  1  0.82808247  0.50098438  0.87799272  1
  N  N154  1  0.66775031  0.67145797  0.61396666  1
  N  N155  1  0.35197425  0.35106590  0.38184241  1
  N  N156  1  0.64935240  0.66877794  0.36546231  1
  N  N157  1  0.17789144  0.81750638  0.36576826  1
  N  N158  1  0.33690578  0.66854670  0.11963367  1
  N  N159  1  0.17249961  0.49283620  0.12288829  1
  N  N160  1  0.31503324  0.67603867  0.88471452  1
  N  N161  1  0.65396640  0.00297789  0.87501672  1
  N  N162  1  0.66568080  -0.00158108  0.62194377  1
  N  N163  1  0.00199865  0.32817191  0.62394147  1
  N  N164  1  0.49598216  0.50599220  0.87999303  1
  N  N165  1  0.83154934  0.49818492  0.12946813  1
  N  N166  1  0.17899015  0.49079953  0.63155677  1
  N  N167  1  0.32888931  0.01084917  0.12668193  1
  N  N168  1  -0.00132134  0.67189229  0.62945066  1
  N  N169  1  0.00658889  0.32438788  0.36855252  1
  N  N170  1  -0.00971580  -0.00292204  0.62018895  1
  N  N171  1  0.50182781  0.84771548  0.38018275  1
  N  N172  1  0.81073059  0.49656422  0.62222350  1
  N  N173  1  0.84083972  0.82695738  0.37736284  1
  N  N174  1  0.32160250  -0.00530155  0.61899329  1
  N  N175  1  0.47545921  0.17243722  0.87242088  1
  N  N176  1  0.67217594  0.67358895  0.87868955  1
  O  O177  1  0.00240626  0.66225731  0.86243574  1
  O  O178  1  0.83368598  0.82866769  0.87002179  1
  O  O179  1  0.66830391  0.01131011  0.37960649  1
  O  O180  1  0.53084365  0.82816215  0.88292054  1
  O  O181  1  0.69112090  0.34119334  0.62721471  1
  O  O182  1  0.66815321  0.66253936  0.13815467  1
  O  O183  1  0.33884516  0.67341079  0.38490212  1
  O  O184  1  0.16430418  0.16207982  0.13143349  1
  O  O185  1  -0.03104376  0.01117960  0.36769881  1
  O  O186  1  0.01775848  0.66433766  0.12057987  1
  O  O187  1  0.50955433  0.83802346  0.62813355  1
  O  O188  1  0.65784262  0.34111723  0.87036997  1
  O  O189  1  -0.01035625  0.00106972  0.12653217  1
  O  O190  1  0.01893765  0.31139811  0.12637681  1
  O  O191  1  0.82546979  0.15481588  0.37566341  1
  O  O192  1  0.68616304  0.33061575  0.37846929  1
  O  O193  1  0.15694225  0.48363948  0.87092509  1
  O  O194  1  0.18027047  0.13595943  0.37349582  1
  O  O195  1  0.32787635  0.00455991  0.37274409  1
  O  O196  1  0.82714766  0.83294165  0.62507151  1
  O  O197  1  0.16116809  0.15986991  0.87371426  1
  O  O198  1  0.82085209  0.15829924  0.64195973  1
  O  O199  1  0.17945619  0.50281569  0.39231115  1
  O  O200  1  0.33308653  0.35695845  0.61980389  1
  O  O201  1  0.16404403  0.83252088  0.12725964  1
  O  O202  1  0.85186354  0.81711812  0.13101696  1
  O  O203  1  0.48545451  0.51099166  0.38589748  1
  O  O204  1  0.50451515  0.50198077  0.62876044  1
  O  O205  1  0.84282719  0.49145827  0.38407431  1
  O  O206  1  0.49276551  0.16569162  0.38191448  1
  O  O207  1  0.48029828  0.17094272  0.13327528  1
  O  O208  1  0.70378493  0.33542184  0.12575153  1
  O  O209  1  0.50980768  0.83065793  0.12481504  1
  O  O210  1  -0.00650705  -0.02123078  0.86624519  1
  O  O211  1  0.34760995  0.68003548  0.63928202  1
  O  O212  1  0.03016318  0.65428912  0.37444101  1
  O  O213  1  0.30721827  0.00997052  0.88574843  1
  O  O214  1  0.48892372  0.52724616  0.12772173  1
  O  O215  1  0.33338174  0.33963887  0.13306026  1
