# generated using pymatgen
data_Sr24Ta24N11O13
_symmetry_space_group_name_H-M   'P 1'
_cell_length_a   16.78397394
_cell_length_b   16.79244422
_cell_length_c   15.74142436
_cell_angle_alpha   90.12362843
_cell_angle_beta   89.80121948
_cell_angle_gamma   90.10932520
_symmetry_Int_Tables_number   1
_chemical_formula_structural   Sr24Ta24N11O13
_chemical_formula_sum   'Sr72 Ta72 N33 O39'
_cell_volume   4436.58011627
_cell_formula_units_Z   3
loop_
 _symmetry_equiv_pos_site_id
 _symmetry_equiv_pos_as_xyz
  1  'x, y, z'
loop_
 _atom_site_type_symbol
 _atom_site_label
 _atom_site_symmetry_multiplicity
 _atom_site_fract_x
 _atom_site_fract_y
 _atom_site_fract_z
 _atom_site_occupancy
  Sr  Sr0  1  0.00556944  0.19480450  0.16209181  1
  Sr  Sr1  1  0.00708299  0.15409238  0.61911357  1
  Sr  Sr2  1  0.00425460  0.49115691  0.08344213  1
  Sr  Sr3  1  -0.00369419  0.52000644  0.63444384  1
  Sr  Sr4  1  -0.00407931  0.82276614  0.14266927  1
  Sr  Sr5  1  0.02834094  0.84842895  0.58919902  1
  Sr  Sr6  1  0.32330558  0.16431229  0.11594297  1
  Sr  Sr7  1  0.34064713  0.16956502  0.62959930  1
  Sr  Sr8  1  0.32937733  0.50861673  0.14187224  1
  Sr  Sr9  1  0.34659778  0.51234333  0.58140471  1
  Sr  Sr10  1  0.36207416  0.82786893  0.15424112  1
  Sr  Sr11  1  0.32955262  0.83033666  0.65224062  1
  Sr  Sr12  1  0.68342540  0.16808203  0.14960543  1
  Sr  Sr13  1  0.66926944  0.17682136  0.61451685  1
  Sr  Sr14  1  0.67448446  0.50046198  0.12285076  1
  Sr  Sr15  1  0.65672267  0.50498832  0.65835985  1
  Sr  Sr16  1  0.65218741  0.84102391  0.07816331  1
  Sr  Sr17  1  0.69007238  0.83644325  0.63699394  1
  Sr  Sr18  1  0.15187911  -0.01199038  0.10376195  1
  Sr  Sr19  1  0.18965744  -0.00045935  0.63587630  1
  Sr  Sr20  1  0.16790067  0.33011101  0.12758617  1
  Sr  Sr21  1  0.15126895  0.34066362  0.66222458  1
  Sr  Sr22  1  0.14111577  0.66039107  0.09746924  1
  Sr  Sr23  1  0.16047499  0.66069551  0.62708178  1
  Sr  Sr24  1  0.48832955  0.01129132  0.13644723  1
  Sr  Sr25  1  0.52825059  -0.01517194  0.58645689  1
  Sr  Sr26  1  0.48328377  0.31507737  0.09464509  1
  Sr  Sr27  1  0.51056058  0.32334160  0.63423906  1
  Sr  Sr28  1  0.50661713  0.64838873  0.11871737  1
  Sr  Sr29  1  0.49433105  0.67137135  0.62220218  1
  Sr  Sr30  1  0.83646745  -0.02077248  0.11458902  1
  Sr  Sr31  1  0.82755495  0.02672815  0.68307588  1
  Sr  Sr32  1  0.82590282  0.34201371  0.12999555  1
  Sr  Sr33  1  0.85106449  0.32879689  0.57033588  1
  Sr  Sr34  1  0.83109556  0.66782657  0.16265071  1
  Sr  Sr35  1  0.82263126  0.66721779  0.62204539  1
  Sr  Sr36  1  0.00333076  0.18074655  0.38470523  1
  Sr  Sr37  1  0.00469712  0.16165720  0.83420755  1
  Sr  Sr38  1  -0.01314522  0.50255638  0.41600193  1
  Sr  Sr39  1  0.01257627  0.50578116  0.86326852  1
  Sr  Sr40  1  0.01038391  0.83294062  0.36368109  1
  Sr  Sr41  1  0.01546271  0.84902203  0.93028188  1
  Sr  Sr42  1  0.32941603  0.15615355  0.37497049  1
  Sr  Sr43  1  0.33727675  0.16999171  0.88702589  1
  Sr  Sr44  1  0.32791483  0.50463858  0.36610575  1
  Sr  Sr45  1  0.34695039  0.52303599  0.91295758  1
  Sr  Sr46  1  0.35120979  0.83743831  0.34747395  1
  Sr  Sr47  1  0.32783894  0.82561992  0.84551856  1
  Sr  Sr48  1  0.66352526  0.16914500  0.38239299  1
  Sr  Sr49  1  0.68877192  0.17006504  0.85743963  1
  Sr  Sr50  1  0.67554464  0.51014955  0.33190530  1
  Sr  Sr51  1  0.66482972  0.49528008  0.87312189  1
  Sr  Sr52  1  0.65199416  0.82184011  0.42782804  1
  Sr  Sr53  1  0.67395257  0.83889194  0.87238247  1
  Sr  Sr54  1  0.14807390  0.00191755  0.41438662  1
  Sr  Sr55  1  0.17549974  0.00155257  0.87564421  1
  Sr  Sr56  1  0.17451116  0.32709950  0.33089849  1
  Sr  Sr57  1  0.15692892  0.33056375  0.87188523  1
  Sr  Sr58  1  0.15114761  0.65316247  0.40314223  1
  Sr  Sr59  1  0.15830128  0.66455526  0.87769001  1
  Sr  Sr60  1  0.49221055  0.00675671  0.35733424  1
  Sr  Sr61  1  0.50013949  -0.00550763  0.90840526  1
  Sr  Sr62  1  0.48370964  0.32857105  0.41884853  1
  Sr  Sr63  1  0.50652822  0.31863945  0.85141641  1
  Sr  Sr64  1  0.48771039  0.65261117  0.35840925  1
  Sr  Sr65  1  0.50269164  0.66446588  0.88325676  1
  Sr  Sr66  1  0.83795210  -0.01976079  0.33585163  1
  Sr  Sr67  1  0.83147472  -0.01242386  0.88986153  1
  Sr  Sr68  1  0.82426682  0.33061657  0.35964640  1
  Sr  Sr69  1  0.82988480  0.35203106  0.91444553  1
  Sr  Sr70  1  0.82100040  0.67502775  0.37863210  1
  Sr  Sr71  1  0.82964548  0.64571911  0.82844769  1
  Ta  Ta72  1  0.13066040  0.16798519  0.00019976  1
  Ta  Ta73  1  0.17377137  0.20838731  0.49827980  1
  Ta  Ta74  1  0.18651319  0.48017435  -0.00141455  1
  Ta  Ta75  1  0.16807572  0.46035226  0.49461248  1
  Ta  Ta76  1  0.21038749  0.82926986  0.00809300  1
  Ta  Ta77  1  0.21570858  0.82978135  0.49601769  1
  Ta  Ta78  1  0.54495763  0.16446450  -0.00023956  1
  Ta  Ta79  1  0.48710281  0.14836318  0.50228708  1
  Ta  Ta80  1  0.50904724  0.46838382  -0.00396631  1
  Ta  Ta81  1  0.53872326  0.50177537  0.49237385  1
  Ta  Ta82  1  0.46229517  0.82744364  -0.00465454  1
  Ta  Ta83  1  0.45345934  0.82338516  0.49694706  1
  Ta  Ta84  1  0.86517149  0.16767255  -0.00504785  1
  Ta  Ta85  1  0.83530380  0.13162242  0.50330276  1
  Ta  Ta86  1  0.83190756  0.54128142  0.00209872  1
  Ta  Ta87  1  0.79452095  0.50519995  0.49747126  1
  Ta  Ta88  1  0.83007707  0.78253904  -0.00249135  1
  Ta  Ta89  1  0.84376264  0.85391507  0.50203393  1
  Ta  Ta90  1  0.16417758  0.12556055  0.25598368  1
  Ta  Ta91  1  0.18312902  0.16458291  0.75381031  1
  Ta  Ta92  1  0.13620548  0.51464854  0.24847884  1
  Ta  Ta93  1  0.21860890  0.50393240  0.75537214  1
  Ta  Ta94  1  0.17993928  0.83023321  0.24164102  1
  Ta  Ta95  1  0.13477947  0.83492014  0.76249980  1
  Ta  Ta96  1  0.49814973  0.20439448  0.25514186  1
  Ta  Ta97  1  0.51066032  0.12111078  0.74588148  1
  Ta  Ta98  1  0.49954654  0.44983096  0.25236376  1
  Ta  Ta99  1  0.46298752  0.50191016  0.75088552  1
  Ta  Ta100  1  0.55378837  0.83668020  0.25146424  1
  Ta  Ta101  1  0.51312525  0.85662970  0.75264301  1
  Ta  Ta102  1  0.85031507  0.14827108  0.25106912  1
  Ta  Ta103  1  0.84022590  0.22773706  0.74109653  1
  Ta  Ta104  1  0.87279426  0.50237434  0.25167085  1
  Ta  Ta105  1  0.83372173  0.45311001  0.73716979  1
  Ta  Ta106  1  0.75914917  0.82942383  0.24893324  1
  Ta  Ta107  1  0.88459425  0.83569520  0.75484079  1
  Ta  Ta108  1  0.01064068  0.02253312  0.25181282  1
  Ta  Ta109  1  0.00399678  -0.03864040  0.75938596  1
  Ta  Ta110  1  -0.00190498  0.37851589  0.24997034  1
  Ta  Ta111  1  -0.03598118  0.33942773  0.75096571  1
  Ta  Ta112  1  0.00652048  0.62429615  0.25264243  1
  Ta  Ta113  1  0.00110432  0.72053394  0.75464050  1
  Ta  Ta114  1  0.28313629  -0.00382935  0.25461656  1
  Ta  Ta115  1  0.38097091  0.00417505  0.74557054  1
  Ta  Ta116  1  0.36709809  0.32853841  0.24902288  1
  Ta  Ta117  1  0.33352405  0.37348176  0.74997508  1
  Ta  Ta118  1  0.27197699  0.67576378  0.24751765  1
  Ta  Ta119  1  0.33428839  0.63450237  0.75322352  1
  Ta  Ta120  1  0.66297374  -0.03344074  0.25374039  1
  Ta  Ta121  1  0.63257936  -0.00183641  0.75691309  1
  Ta  Ta122  1  0.62193239  0.33275035  0.25604496  1
  Ta  Ta123  1  0.70809438  0.33483085  0.74086993  1
  Ta  Ta124  1  0.65428354  0.70172884  0.24792448  1
  Ta  Ta125  1  0.64544677  0.68259401  0.74452519  1
  Ta  Ta126  1  -0.00263671  0.05501590  -0.00288338  1
  Ta  Ta127  1  -0.06447645  -0.00389843  0.50427676  1
  Ta  Ta128  1  0.00107416  0.29928636  -0.00110899  1
  Ta  Ta129  1  0.04653665  0.33713292  0.49276551  1
  Ta  Ta130  1  -0.04866544  0.66800186  -0.00792020  1
  Ta  Ta131  1  -0.02320840  0.68650399  0.50584773  1
  Ta  Ta132  1  0.33230731  -0.04225326  0.00239842  1
  Ta  Ta133  1  0.34392407  -0.02841940  0.49878526  1
  Ta  Ta134  1  0.32363187  0.35595835  0.00154685  1
  Ta  Ta135  1  0.28711209  0.33382971  0.50062044  1
  Ta  Ta136  1  0.32757784  0.70158186  -0.00027446  1
  Ta  Ta137  1  0.32973288  0.70571114  0.49599926  1
  Ta  Ta138  1  0.66322507  0.03456229  0.00102660  1
  Ta  Ta139  1  0.73302664  -0.00411482  0.50434478  1
  Ta  Ta140  1  0.64730103  0.32177874  -0.00428450  1
  Ta  Ta141  1  0.66528424  0.37462118  0.49680693  1
  Ta  Ta142  1  0.70253640  0.66303686  0.00108796  1
  Ta  Ta143  1  0.65573616  0.62985712  0.49569700  1
  N  N144  1  0.84159321  0.17538563  0.62417986  1
  N  N145  1  -0.00770366  0.67305313  0.87408329  1
  N  N146  1  0.66044747  0.67438815  0.62304551  1
  N  N147  1  0.65804440  0.66749959  0.37624318  1
  N  N148  1  0.16545206  0.83427611  0.88307390  1
  N  N149  1  -0.00563153  0.33445183  0.87235484  1
  N  N150  1  0.00784620  0.33891880  0.36835863  1
  N  N151  1  -0.00252603  0.34061077  0.11836076  1
  N  N152  1  0.49925182  0.83462297  0.87490787  1
  N  N153  1  0.32971797  0.33429892  0.12624131  1
  N  N154  1  0.66278693  0.33252448  0.37285955  1
  N  N155  1  0.67005306  0.33124030  0.87539994  1
  N  N156  1  0.16588557  0.49851557  0.12177829  1
  N  N157  1  0.00157763  0.00281318  0.88064952  1
  N  N158  1  0.17055078  0.16863998  0.87505805  1
  N  N159  1  -0.00291006  0.68115925  0.62486018  1
  N  N160  1  0.66796632  0.33697205  0.62097794  1
  N  N161  1  0.83071453  0.50248773  0.37007839  1
  N  N162  1  0.15099045  0.82978417  0.12053586  1
  N  N163  1  0.50189961  0.16787006  0.37621597  1
  N  N164  1  0.66535133  0.66562336  0.11963027  1
  N  N165  1  0.16615349  0.49420046  0.37559953  1
  N  N166  1  0.49961338  0.49298282  0.37372730  1
  N  N167  1  0.17107854  0.50393737  0.87051178  1
  N  N168  1  0.33102699  0.67267297  0.87510691  1
  N  N169  1  0.66906808  -0.00036562  0.87873415  1
  N  N170  1  0.32197880  -0.00373254  0.37207073  1
  N  N171  1  0.51263529  0.16401914  0.62755413  1
  N  N172  1  0.83612746  0.50618308  0.12134056  1
  N  N173  1  0.34783189  -0.00416177  0.62822705  1
  N  N174  1  0.50042372  0.49114197  0.87320982  1
  N  N175  1  0.83333030  0.49529239  0.61980516  1
  N  N176  1  0.16418424  0.16482450  0.37535705  1
  O  O177  1  0.84690245  0.16019338  0.12682556  1
  O  O178  1  -0.00907499  0.66620062  0.13074810  1
  O  O179  1  -0.00226380  0.66773295  0.37502789  1
  O  O180  1  0.66996511  0.66738746  0.87015115  1
  O  O181  1  0.82831222  0.49892759  0.87324782  1
  O  O182  1  0.33349808  0.66702137  0.62599119  1
  O  O183  1  0.16955196  0.17218330  0.62241956  1
  O  O184  1  0.33950657  0.34453591  0.86975733  1
  O  O185  1  0.30072633  0.66478757  0.12587931  1
  O  O186  1  0.50269949  0.48827586  0.12488861  1
  O  O187  1  0.50874980  0.83506411  0.11746215  1
  O  O188  1  0.68665901  -0.01643249  0.38690960  1
  O  O189  1  -0.00150041  0.01637218  0.12545481  1
  O  O190  1  0.80610107  0.83342508  0.37066189  1
  O  O191  1  0.52279060  0.16242098  0.87245240  1
  O  O192  1  0.80513792  0.82236292  0.12159071  1
  O  O193  1  0.17750000  0.49633804  0.63061826  1
  O  O194  1  0.32865645  0.33683182  0.37325681  1
  O  O195  1  0.16331873  0.16199462  0.12563931  1
  O  O196  1  0.32494505  0.35530889  0.62189421  1
  O  O197  1  -0.01250829  0.00170162  0.37661882  1
  O  O198  1  0.50637105  0.83230321  0.37725133  1
  O  O199  1  0.66188091  -0.00178528  0.12392082  1
  O  O200  1  0.52243396  0.16523726  0.13029949  1
  O  O201  1  0.83695840  0.82996707  0.87761608  1
  O  O202  1  0.00564330  0.33718485  0.61593281  1
  O  O203  1  -0.02606586  -0.00209295  0.63513819  1
  O  O204  1  0.83891621  0.16450281  0.37433503  1
  O  O205  1  0.84641553  0.83892409  0.63348817  1
  O  O206  1  0.66788630  0.32540610  0.13182037  1
  O  O207  1  0.32894776  -0.01778781  0.13055192  1
  O  O208  1  0.48707359  0.83220778  0.62116447  1
  O  O209  1  0.34465575  -0.01724887  0.87650876  1
  O  O210  1  0.68596697  -0.00781729  0.62933988  1
  O  O211  1  0.16710482  0.83646284  0.37952505  1
  O  O212  1  0.84643642  0.18667668  0.87202470  1
  O  O213  1  0.49581102  0.50060236  0.62482175  1
  O  O214  1  0.17723420  0.83987484  0.62294625  1
  O  O215  1  0.30601770  0.66726717  0.36911715  1
