# generated using pymatgen
data_Sr24Ta24N11O13
_symmetry_space_group_name_H-M   'P 1'
_cell_length_a   16.71417554
_cell_length_b   16.98011283
_cell_length_c   15.73074565
_cell_angle_alpha   89.53856138
_cell_angle_beta   90.13891189
_cell_angle_gamma   90.16931264
_symmetry_Int_Tables_number   1
_chemical_formula_structural   Sr24Ta24N11O13
_chemical_formula_sum   'Sr72 Ta72 N33 O39'
_cell_volume   4464.34354605
_cell_formula_units_Z   3
loop_
 _symmetry_equiv_pos_site_id
 _symmetry_equiv_pos_as_xyz
  1  'x, y, z'
loop_
 _atom_site_type_symbol
 _atom_site_label
 _atom_site_symmetry_multiplicity
 _atom_site_fract_x
 _atom_site_fract_y
 _atom_site_fract_z
 _atom_site_occupancy
  Sr  Sr0  1  0.00730864  0.16038103  0.13305371  1
  Sr  Sr1  1  0.00001937  0.19057240  0.57882881  1
  Sr  Sr2  1  0.00017547  0.52110496  0.09834731  1
  Sr  Sr3  1  -0.01308799  0.49623037  0.66187272  1
  Sr  Sr4  1  0.00109045  0.83664467  0.15982671  1
  Sr  Sr5  1  -0.00352735  0.83123200  0.61538418  1
  Sr  Sr6  1  0.33466561  0.20260905  0.08464486  1
  Sr  Sr7  1  0.31881706  0.16980542  0.63332371  1
  Sr  Sr8  1  0.33208433  0.49951408  0.16330279  1
  Sr  Sr9  1  0.32580083  0.52649196  0.60861959  1
  Sr  Sr10  1  0.33019111  0.84362509  0.10724571  1
  Sr  Sr11  1  0.34563865  0.84169279  0.65381794  1
  Sr  Sr12  1  0.65796339  0.17802081  0.14584040  1
  Sr  Sr13  1  0.68781422  0.17763011  0.64249246  1
  Sr  Sr14  1  0.66575177  0.51773803  0.11255977  1
  Sr  Sr15  1  0.66063919  0.53418867  0.62052589  1
  Sr  Sr16  1  0.67661287  0.85539387  0.11351844  1
  Sr  Sr17  1  0.66721092  0.86459741  0.60058855  1
  Sr  Sr18  1  0.16328676  -0.01530097  0.13760030  1
  Sr  Sr19  1  0.17019355  -0.01529875  0.65603786  1
  Sr  Sr20  1  0.16242318  0.33083034  0.11915147  1
  Sr  Sr21  1  0.17233727  0.33840719  0.63096020  1
  Sr  Sr22  1  0.17629133  0.65743587  0.11281667  1
  Sr  Sr23  1  0.15407341  0.67232957  0.58993506  1
  Sr  Sr24  1  0.50786049  -0.01899843  0.14013330  1
  Sr  Sr25  1  0.48963006  -0.01918872  0.58971413  1
  Sr  Sr26  1  0.50708059  0.32558566  0.11478874  1
  Sr  Sr27  1  0.50925657  0.28839641  0.63996112  1
  Sr  Sr28  1  0.49520160  0.63366061  0.13937728  1
  Sr  Sr29  1  0.49322311  0.66126632  0.63186325  1
  Sr  Sr30  1  0.83512232  0.00279842  0.08583516  1
  Sr  Sr31  1  0.83360344  -0.00539302  0.63704737  1
  Sr  Sr32  1  0.83527819  0.29781926  0.16763254  1
  Sr  Sr33  1  0.83365374  0.32609047  0.61475641  1
  Sr  Sr34  1  0.83418588  0.66722256  0.12163099  1
  Sr  Sr35  1  0.83619692  0.65286866  0.65537444  1
  Sr  Sr36  1  0.00808473  0.18623654  0.36045759  1
  Sr  Sr37  1  -0.00349913  0.16220682  0.91618520  1
  Sr  Sr38  1  -0.01351594  0.51961835  0.35954472  1
  Sr  Sr39  1  0.00125014  0.50334371  0.88181859  1
  Sr  Sr40  1  0.00359033  0.82520068  0.38462061  1
  Sr  Sr41  1  -0.00859608  0.85199366  0.83552267  1
  Sr  Sr42  1  0.34063223  0.17509933  0.41682208  1
  Sr  Sr43  1  0.32143077  0.18451420  0.86107720  1
  Sr  Sr44  1  0.32048749  0.49713660  0.37655018  1
  Sr  Sr45  1  0.33423048  0.50978228  0.84091582  1
  Sr  Sr46  1  0.34649246  0.86472408  0.34817024  1
  Sr  Sr47  1  0.32904200  0.82550304  0.88265548  1
  Sr  Sr48  1  0.67223333  0.19235855  0.35854525  1
  Sr  Sr49  1  0.67092421  0.17886926  0.85211282  1
  Sr  Sr50  1  0.67449575  0.52645617  0.38443020  1
  Sr  Sr51  1  0.65433428  0.51325954  0.89146228  1
  Sr  Sr52  1  0.66415632  0.85576052  0.37614209  1
  Sr  Sr53  1  0.67941571  0.86230711  0.90080839  1
  Sr  Sr54  1  0.15552694  -0.00987137  0.34293163  1
  Sr  Sr55  1  0.17684301  -0.01262925  0.86559102  1
  Sr  Sr56  1  0.17425233  0.32206216  0.38678860  1
  Sr  Sr57  1  0.16652581  0.33396344  0.87517776  1
  Sr  Sr58  1  0.17189710  0.65578031  0.38472397  1
  Sr  Sr59  1  0.16640498  0.66571997  0.90839843  1
  Sr  Sr60  1  0.50931813  -0.00234949  0.36371683  1
  Sr  Sr61  1  0.49524488  -0.03515364  0.90760624  1
  Sr  Sr62  1  0.50704629  0.31236231  0.36839895  1
  Sr  Sr63  1  0.50739160  0.31379586  0.89106259  1
  Sr  Sr64  1  0.49084421  0.63466059  0.38503991  1
  Sr  Sr65  1  0.49177711  0.64612411  0.84227136  1
  Sr  Sr66  1  0.84223637  -0.03069609  0.41654592  1
  Sr  Sr67  1  0.82427798  0.01058719  0.86783622  1
  Sr  Sr68  1  0.83461071  0.32600323  0.38993193  1
  Sr  Sr69  1  0.83039977  0.31906848  0.84631765  1
  Sr  Sr70  1  0.83468398  0.66424129  0.33979078  1
  Sr  Sr71  1  0.83623630  0.64750991  0.88424760  1
  Ta  Ta72  1  0.17523519  0.13098374  -0.00177206  1
  Ta  Ta73  1  0.16467279  0.11700778  0.49619167  1
  Ta  Ta74  1  0.20675998  0.49430149  -0.00212737  1
  Ta  Ta75  1  0.12742881  0.49301583  0.50102629  1
  Ta  Ta76  1  0.12739758  0.83794286  0.00157731  1
  Ta  Ta77  1  0.19842957  0.85321203  0.49759357  1
  Ta  Ta78  1  0.50177660  0.13401520  0.00094547  1
  Ta  Ta79  1  0.53209297  0.15058230  0.49456290  1
  Ta  Ta80  1  0.46673458  0.49518902  -0.00371092  1
  Ta  Ta81  1  0.50014913  0.45531313  0.50976701  1
  Ta  Ta82  1  0.50191940  0.77817762  -0.00540480  1
  Ta  Ta83  1  0.49467464  0.80353749  0.50073411  1
  Ta  Ta84  1  0.81446311  0.18627213  0.00097327  1
  Ta  Ta85  1  0.82315916  0.14237116  0.49177377  1
  Ta  Ta86  1  0.82955430  0.44805196  0.00320353  1
  Ta  Ta87  1  0.84945874  0.50685162  0.49757499  1
  Ta  Ta88  1  0.87153622  0.83093595  0.00292094  1
  Ta  Ta89  1  0.82782050  0.78191196  0.49504720  1
  Ta  Ta90  1  0.21177558  0.16754474  0.25225446  1
  Ta  Ta91  1  0.12253409  0.16409131  0.75139709  1
  Ta  Ta92  1  0.14010050  0.49600497  0.24315285  1
  Ta  Ta93  1  0.16241940  0.53913315  0.75491516  1
  Ta  Ta94  1  0.17905640  0.79780469  0.24426695  1
  Ta  Ta95  1  0.16590073  0.79219390  0.75034415  1
  Ta  Ta96  1  0.45607965  0.16143371  0.25019933  1
  Ta  Ta97  1  0.49208538  0.11409337  0.74924229  1
  Ta  Ta98  1  0.51837093  0.46848329  0.24931176  1
  Ta  Ta99  1  0.50494372  0.45877850  0.74864468  1
  Ta  Ta100  1  0.50610278  0.79222912  0.24617943  1
  Ta  Ta101  1  0.52983772  0.84212773  0.74816146  1
  Ta  Ta102  1  0.83841265  0.11891823  0.25572063  1
  Ta  Ta103  1  0.87954178  0.16279093  0.74496507  1
  Ta  Ta104  1  0.82840137  0.47510601  0.24780177  1
  Ta  Ta105  1  0.80416711  0.47995232  0.75735113  1
  Ta  Ta106  1  0.82669041  0.86002052  0.24919593  1
  Ta  Ta107  1  0.80746098  0.82105170  0.74840460  1
  Ta  Ta108  1  -0.04336717  -0.00103747  0.24970207  1
  Ta  Ta109  1  0.00094467  0.04738005  0.74989131  1
  Ta  Ta110  1  0.00290661  0.37137223  0.25452842  1
  Ta  Ta111  1  0.00279730  0.30002824  0.74658876  1
  Ta  Ta112  1  0.03127355  0.66731604  0.24312109  1
  Ta  Ta113  1  0.03318987  0.67328396  0.75549986  1
  Ta  Ta114  1  0.33158843  0.05264636  0.24614771  1
  Ta  Ta115  1  0.36599364  0.01073829  0.75411522  1
  Ta  Ta116  1  0.33844995  0.31014283  0.25126179  1
  Ta  Ta117  1  0.35600844  0.35233240  0.75229284  1
  Ta  Ta118  1  0.32919340  0.69277826  0.24955108  1
  Ta  Ta119  1  0.28684949  0.67498679  0.74676942  1
  Ta  Ta120  1  0.71208690  0.00756840  0.24652192  1
  Ta  Ta121  1  0.62821032  -0.00033951  0.75394250  1
  Ta  Ta122  1  0.67150917  0.37475868  0.25805179  1
  Ta  Ta123  1  0.66277694  0.37259071  0.74340884  1
  Ta  Ta124  1  0.65125994  0.70044478  0.24721768  1
  Ta  Ta125  1  0.66797439  0.72251326  0.74923164  1
  Ta  Ta126  1  0.01172430  -0.02846257  0.00450856  1
  Ta  Ta127  1  0.02674885  0.00879980  0.50054386  1
  Ta  Ta128  1  -0.03938582  0.33525869  0.00418998  1
  Ta  Ta129  1  0.00300658  0.37967099  0.50033578  1
  Ta  Ta130  1  -0.00219500  0.71359518  -0.00336022  1
  Ta  Ta131  1  -0.02902783  0.64714533  0.50715271  1
  Ta  Ta132  1  0.32952861  0.03017279  0.00669444  1
  Ta  Ta133  1  0.29930901  -0.00592514  0.49999667  1
  Ta  Ta134  1  0.33554004  0.38094593  -0.00008288  1
  Ta  Ta135  1  0.36305780  0.35238188  0.50364230  1
  Ta  Ta136  1  0.35221179  0.64214732  -0.00763577  1
  Ta  Ta137  1  0.33614427  0.72068476  0.50259262  1
  Ta  Ta138  1  0.65736746  0.04679265  0.00136349  1
  Ta  Ta139  1  0.66975375  0.04245219  0.49771963  1
  Ta  Ta140  1  0.70088394  0.33081364  0.00338990  1
  Ta  Ta141  1  0.65104952  0.36053382  0.50818383  1
  Ta  Ta142  1  0.63967383  0.68986519  -0.00589092  1
  Ta  Ta143  1  0.67486421  0.69896059  0.50394950  1
  N  N144  1  0.50239561  0.48232024  0.12780529  1
  N  N145  1  0.00005081  0.33863509  0.62867235  1
  N  N146  1  0.33807061  0.33949511  0.87241048  1
  N  N147  1  0.67448294  0.32712758  0.63000446  1
  N  N148  1  0.83050678  0.50104665  0.37298622  1
  N  N149  1  0.67336676  0.01386247  0.12520880  1
  N  N150  1  0.83607942  0.15558355  0.12030850  1
  N  N151  1  0.16678573  0.82794025  0.12339484  1
  N  N152  1  0.16854749  0.50734342  0.87487535  1
  N  N153  1  0.33012234  0.66697789  0.87311072  1
  N  N154  1  0.82756539  0.48819207  0.88014382  1
  N  N155  1  -0.00438860  -0.00432611  0.12577509  1
  N  N156  1  0.66012767  0.01358734  0.87345062  1
  N  N157  1  0.84356970  0.17186364  0.36804845  1
  N  N158  1  0.33930295  0.33791146  0.38222752  1
  N  N159  1  0.84464885  0.16315842  0.61670945  1
  N  N160  1  0.17706529  0.15419024  0.37468621  1
  N  N161  1  0.50076298  0.48539847  0.87274351  1
  N  N162  1  0.33494027  0.34668453  0.13187681  1
  N  N163  1  -0.00426003  0.67325383  0.87419604  1
  N  N164  1  0.00671105  0.67309902  0.12346603  1
  N  N165  1  0.50369583  0.82939375  0.62566476  1
  N  N166  1  0.66315492  0.68692726  0.62971148  1
  N  N167  1  -0.00603168  0.66377907  0.62606374  1
  N  N168  1  0.32433867  0.68328787  0.61946748  1
  N  N169  1  0.83479860  0.81895718  0.37489793  1
  N  N170  1  0.50148354  0.15493057  0.37343817  1
  N  N171  1  0.16659260  0.49881953  0.12342304  1
  N  N172  1  0.67373489  0.34893473  0.38113460  1
  N  N173  1  0.83779337  0.83358862  0.12261753  1
  N  N174  1  0.83886720  0.16509416  0.87048420  1
  N  N175  1  -0.00098253  0.34352799  0.37422347  1
  N  N176  1  0.16017836  0.15515404  0.87690520  1
  O  O177  1  0.49111933  0.79846803  0.11709633  1
  O  O178  1  0.66288185  0.68596830  0.37003049  1
  O  O179  1  0.33763747  0.66887502  0.12561710  1
  O  O180  1  0.33217640  0.32396933  0.62569359  1
  O  O181  1  0.50070745  0.81588030  0.36840310  1
  O  O182  1  0.49540575  0.14139167  0.87656984  1
  O  O183  1  0.83125666  0.82177241  0.62302659  1
  O  O184  1  0.66577513  0.68902559  0.11865180  1
  O  O185  1  0.49748164  0.15499128  0.12807477  1
  O  O186  1  0.83132170  0.83207622  0.87264215  1
  O  O187  1  0.82698657  0.50406108  0.11946612  1
  O  O188  1  0.18763654  0.83942299  0.37120869  1
  O  O189  1  0.16263601  0.14704579  0.62723381  1
  O  O190  1  0.16900656  0.15804630  0.12643007  1
  O  O191  1  0.67302715  0.33478752  0.87733726  1
  O  O192  1  0.14501319  0.50873587  0.62553900  1
  O  O193  1  0.66869193  0.01522905  0.37134113  1
  O  O194  1  0.49354470  0.13666873  0.61823347  1
  O  O195  1  0.16753348  0.83126428  0.87831287  1
  O  O196  1  0.33064790  0.68501565  0.37568211  1
  O  O197  1  0.33307929  0.00015790  0.12833293  1
  O  O198  1  0.31760605  0.01080104  0.37379208  1
  O  O199  1  0.82867291  0.49578403  0.63096751  1
  O  O200  1  0.15795965  0.49954450  0.37771305  1
  O  O201  1  0.49956631  0.48229342  0.38258386  1
  O  O202  1  -0.01549757  0.32336131  0.88030416  1
  O  O203  1  0.00131909  -0.00750691  0.37718496  1
  O  O204  1  0.65677267  0.67287315  0.87076347  1
  O  O205  1  0.17358116  0.83471096  0.62159504  1
  O  O206  1  0.01257815  0.00373101  0.62527307  1
  O  O207  1  0.68009952  0.33399952  0.12921970  1
  O  O208  1  0.34262898  0.01444919  0.87835847  1
  O  O209  1  -0.01442395  0.33518400  0.12815426  1
  O  O210  1  0.49014158  0.80744975  0.86828590  1
  O  O211  1  0.00268721  0.00558153  0.87274059  1
  O  O212  1  0.00907263  0.67050141  0.37898650  1
  O  O213  1  0.33187042  0.00034443  0.62569105  1
  O  O214  1  0.66771262  0.02011239  0.62838045  1
  O  O215  1  0.49818902  0.50786955  0.62479900  1
