# generated using pymatgen
data_Sr24Ta24N11O13
_symmetry_space_group_name_H-M   'P 1'
_cell_length_a   16.88054565
_cell_length_b   16.70252833
_cell_length_c   15.70858501
_cell_angle_alpha   89.98743379
_cell_angle_beta   90.29438485
_cell_angle_gamma   89.90133724
_symmetry_Int_Tables_number   1
_chemical_formula_structural   Sr24Ta24N11O13
_chemical_formula_sum   'Sr72 Ta72 N33 O39'
_cell_volume   4428.93571467
_cell_formula_units_Z   3
loop_
 _symmetry_equiv_pos_site_id
 _symmetry_equiv_pos_as_xyz
  1  'x, y, z'
loop_
 _atom_site_type_symbol
 _atom_site_label
 _atom_site_symmetry_multiplicity
 _atom_site_fract_x
 _atom_site_fract_y
 _atom_site_fract_z
 _atom_site_occupancy
  Sr  Sr0  1  0.02307572  0.15956901  0.13830880  1
  Sr  Sr1  1  0.01756282  0.17475625  0.64881410  1
  Sr  Sr2  1  0.02745931  0.49797884  0.13930200  1
  Sr  Sr3  1  0.01309093  0.49669484  0.60361647  1
  Sr  Sr4  1  -0.01223038  0.83346246  0.08804381  1
  Sr  Sr5  1  0.00327116  0.83016998  0.63254868  1
  Sr  Sr6  1  0.34140528  0.16846895  0.11595729  1
  Sr  Sr7  1  0.33865879  0.15297207  0.58499416  1
  Sr  Sr8  1  0.36986168  0.49323310  0.15223559  1
  Sr  Sr9  1  0.33229655  0.50336924  0.61948553  1
  Sr  Sr10  1  0.33102416  0.82888324  0.11813030  1
  Sr  Sr11  1  0.32758890  0.85462674  0.67399357  1
  Sr  Sr12  1  0.66985404  0.15469095  0.11423885  1
  Sr  Sr13  1  0.67427198  0.18262037  0.65640865  1
  Sr  Sr14  1  0.67098545  0.51644596  0.08597663  1
  Sr  Sr15  1  0.69833950  0.50464515  0.63030404  1
  Sr  Sr16  1  0.67720976  0.82123283  0.17885795  1
  Sr  Sr17  1  0.65387863  0.83589566  0.61366921  1
  Sr  Sr18  1  0.17591501  -0.00178876  0.15818752  1
  Sr  Sr19  1  0.16143844  0.00387200  0.61740961  1
  Sr  Sr20  1  0.15806030  0.32733037  0.10252469  1
  Sr  Sr21  1  0.15464183  0.34158036  0.66313496  1
  Sr  Sr22  1  0.15610474  0.67234304  0.12200516  1
  Sr  Sr23  1  0.15313088  0.65575227  0.59134172  1
  Sr  Sr24  1  0.48884248  0.01291992  0.07387254  1
  Sr  Sr25  1  0.50471902  -0.01056127  0.63778845  1
  Sr  Sr26  1  0.49526447  0.31993992  0.16578588  1
  Sr  Sr27  1  0.47158550  0.33029957  0.61500373  1
  Sr  Sr28  1  0.49677903  0.67667875  0.13528446  1
  Sr  Sr29  1  0.49248877  0.65476107  0.59679340  1
  Sr  Sr30  1  0.83172921  -0.00149655  0.13449550  1
  Sr  Sr31  1  0.83106794  -0.02524088  0.57368041  1
  Sr  Sr32  1  0.79074498  0.33753605  0.09631127  1
  Sr  Sr33  1  0.83273635  0.33376385  0.62264249  1
  Sr  Sr34  1  0.82405665  0.66535206  0.12857495  1
  Sr  Sr35  1  0.82919603  0.67462165  0.66533276  1
  Sr  Sr36  1  0.01333349  0.16468909  0.35192883  1
  Sr  Sr37  1  0.01978811  0.17288609  0.86407091  1
  Sr  Sr38  1  0.00095078  0.51229904  0.36288773  1
  Sr  Sr39  1  0.03899347  0.48655104  0.90149940  1
  Sr  Sr40  1  0.01107431  0.84648019  0.41987229  1
  Sr  Sr41  1  -0.00369517  0.82985380  0.87043379  1
  Sr  Sr42  1  0.34237889  0.15658470  0.38010455  1
  Sr  Sr43  1  0.33758086  0.16696661  0.90926805  1
  Sr  Sr44  1  0.34652983  0.50681193  0.39415975  1
  Sr  Sr45  1  0.34625828  0.48878032  0.83909641  1
  Sr  Sr46  1  0.31684827  0.83864023  0.33527919  1
  Sr  Sr47  1  0.33888911  0.82326214  0.88992943  1
  Sr  Sr48  1  0.68118781  0.18138194  0.34704539  1
  Sr  Sr49  1  0.65683693  0.14562324  0.88117089  1
  Sr  Sr50  1  0.68633343  0.49824873  0.40699661  1
  Sr  Sr51  1  0.69597196  0.51451690  0.87842425  1
  Sr  Sr52  1  0.65783148  0.83890347  0.38835234  1
  Sr  Sr53  1  0.66214709  0.83850601  0.83476389  1
  Sr  Sr54  1  0.17184500  0.00462763  0.37916258  1
  Sr  Sr55  1  0.15037262  -0.01565147  0.83113826  1
  Sr  Sr56  1  0.12749272  0.34409482  0.33127615  1
  Sr  Sr57  1  0.17614467  0.32572556  0.88445613  1
  Sr  Sr58  1  0.15426395  0.66192150  0.38009593  1
  Sr  Sr59  1  0.15907203  0.66962146  0.90826816  1
  Sr  Sr60  1  0.49385810  0.00073359  0.41204231  1
  Sr  Sr61  1  0.49536592  -0.01111146  0.86333337  1
  Sr  Sr62  1  0.47358025  0.32125924  0.37535693  1
  Sr  Sr63  1  0.48766190  0.33611274  0.83680616  1
  Sr  Sr64  1  0.50292041  0.68214214  0.36979912  1
  Sr  Sr65  1  0.48978210  0.65248066  0.90080370  1
  Sr  Sr66  1  0.81531705  0.00516595  0.35869015  1
  Sr  Sr67  1  0.84278556  0.00030488  0.92083970  1
  Sr  Sr68  1  0.82790962  0.34210185  0.40757654  1
  Sr  Sr69  1  0.81248965  0.32067673  0.86586405  1
  Sr  Sr70  1  0.83008812  0.66405374  0.34135744  1
  Sr  Sr71  1  0.82763453  0.67620285  0.87471948  1
  Ta  Ta72  1  0.16794473  0.12287160  -0.00568034  1
  Ta  Ta73  1  0.15646308  0.20083222  0.50080151  1
  Ta  Ta74  1  0.22307136  0.49681805  0.00228541  1
  Ta  Ta75  1  0.16917584  0.46161768  0.49510725  1
  Ta  Ta76  1  0.16349843  0.86719203  -0.00073372  1
  Ta  Ta77  1  0.20011746  0.83339150  0.50590474  1
  Ta  Ta78  1  0.50451994  0.21426586  -0.00692116  1
  Ta  Ta79  1  0.54331051  0.17146105  0.50223252  1
  Ta  Ta80  1  0.49237122  0.45960601  -0.00158060  1
  Ta  Ta81  1  0.53020386  0.47904677  0.49439721  1
  Ta  Ta82  1  0.53379122  0.83183205  -0.00289615  1
  Ta  Ta83  1  0.45120573  0.83114872  0.50324137  1
  Ta  Ta84  1  0.87293154  0.17551596  0.00664333  1
  Ta  Ta85  1  0.86221055  0.15865197  0.49519197  1
  Ta  Ta86  1  0.86985156  0.50253512  0.00272285  1
  Ta  Ta87  1  0.84718184  0.54451557  0.50263133  1
  Ta  Ta88  1  0.79405902  0.82963674  0.00572667  1
  Ta  Ta89  1  0.82934992  0.79005031  0.49673070  1
  Ta  Ta90  1  0.20016707  0.18005843  0.24428474  1
  Ta  Ta91  1  0.20998792  0.16203787  0.74910208  1
  Ta  Ta92  1  0.20577739  0.50510195  0.24709929  1
  Ta  Ta93  1  0.16744915  0.53167096  0.75089555  1
  Ta  Ta94  1  0.12741143  0.82940036  0.25200335  1
  Ta  Ta95  1  0.16464829  0.78687139  0.75129333  1
  Ta  Ta96  1  0.49983036  0.12279772  0.24756943  1
  Ta  Ta97  1  0.46426472  0.16421982  0.75145814  1
  Ta  Ta98  1  0.55097777  0.49882626  0.25433108  1
  Ta  Ta99  1  0.53700101  0.51242186  0.74846146  1
  Ta  Ta100  1  0.49574882  0.87995040  0.25149702  1
  Ta  Ta101  1  0.49339072  0.78602897  0.74853374  1
  Ta  Ta102  1  0.84795122  0.20343174  0.24683732  1
  Ta  Ta103  1  0.84567193  0.13700090  0.75006513  1
  Ta  Ta104  1  0.81559358  0.47981632  0.25443138  1
  Ta  Ta105  1  0.88367165  0.49616640  0.74853177  1
  Ta  Ta106  1  0.87427006  0.83729344  0.26314447  1
  Ta  Ta107  1  0.83345971  0.86674787  0.74414756  1
  Ta  Ta108  1  -0.00162693  -0.03684342  0.24586879  1
  Ta  Ta109  1  -0.05184684  0.00175735  0.75196154  1
  Ta  Ta110  1  -0.05548092  0.33615788  0.23714568  1
  Ta  Ta111  1  -0.01821666  0.35628600  0.75400443  1
  Ta  Ta112  1  -0.00283261  0.71369845  0.25816258  1
  Ta  Ta113  1  0.01746653  0.64469445  0.74896198  1
  Ta  Ta114  1  0.36723825  0.00875385  0.23807804  1
  Ta  Ta115  1  0.33102730  0.03999281  0.75357973  1
  Ta  Ta116  1  0.30337573  0.32733743  0.24953817  1
  Ta  Ta117  1  0.32592964  0.28441118  0.74901241  1
  Ta  Ta118  1  0.31314627  0.65586204  0.25258829  1
  Ta  Ta119  1  0.30718378  0.66973632  0.75235909  1
  Ta  Ta120  1  0.61847531  0.00338514  0.24814005  1
  Ta  Ta121  1  0.73693210  0.00692957  0.74981568  1
  Ta  Ta122  1  0.67139297  0.37914245  0.25153791  1
  Ta  Ta123  1  0.64506057  0.36270814  0.75134297  1
  Ta  Ta124  1  0.66115106  0.62573017  0.25340259  1
  Ta  Ta125  1  0.62992804  0.66121005  0.75045735  1
  Ta  Ta126  1  0.02897838  0.00895434  -0.00209704  1
  Ta  Ta127  1  -0.00608527  0.03583541  0.49880629  1
  Ta  Ta128  1  -0.03512394  0.32656786  0.01405679  1
  Ta  Ta129  1  0.01558248  0.31930082  0.50153858  1
  Ta  Ta130  1  -0.02324950  0.64699714  0.00472354  1
  Ta  Ta131  1  -0.03893795  0.66871162  0.50196101  1
  Ta  Ta132  1  0.29488914  -0.00664702  -0.00916879  1
  Ta  Ta133  1  0.33043238  -0.04302411  0.50651904  1
  Ta  Ta134  1  0.36079116  0.35198746  -0.00599261  1
  Ta  Ta135  1  0.27383570  0.32952692  0.49806564  1
  Ta  Ta136  1  0.32736311  0.62868408  -0.00044690  1
  Ta  Ta137  1  0.32532918  0.71954297  0.50543228  1
  Ta  Ta138  1  0.66635829  -0.05955792  0.00310994  1
  Ta  Ta139  1  0.66270496  0.04909542  0.50282339  1
  Ta  Ta140  1  0.61107727  0.33841879  -0.00306992  1
  Ta  Ta141  1  0.63442907  0.32373825  0.49860345  1
  Ta  Ta142  1  0.66260210  0.71545564  0.00567908  1
  Ta  Ta143  1  0.69760087  0.66697123  0.49664125  1
  N  N144  1  -0.00323332  0.66746764  0.63012288  1
  N  N145  1  0.17279327  0.16838753  0.61844162  1
  N  N146  1  0.18783260  0.49637757  0.86999474  1
  N  N147  1  0.49201424  0.82757437  0.63190302  1
  N  N148  1  0.18053246  0.49442949  0.11922472  1
  N  N149  1  0.17522289  0.49879733  0.62290698  1
  N  N150  1  -0.00178552  0.67522880  0.37577852  1
  N  N151  1  0.18102445  0.16180696  0.12427219  1
  N  N152  1  0.33945245  0.00076087  0.11697559  1
  N  N153  1  0.49800116  0.16864582  0.87600538  1
  N  N154  1  0.15741749  0.83348366  0.11882902  1
  N  N155  1  0.15809359  0.82632654  0.86969001  1
  N  N156  1  0.84236709  0.17524714  0.37215246  1
  N  N157  1  0.00645981  0.33704342  0.13209353  1
  N  N158  1  0.85102683  0.50624368  0.62764396  1
  N  N159  1  0.32964120  0.65715704  0.87607721  1
  N  N160  1  -0.00832230  -0.00140256  0.86944238  1
  N  N161  1  -0.00505122  0.33261791  0.62247959  1
  N  N162  1  0.00001004  -0.00745087  0.12472945  1
  N  N163  1  0.33649155  -0.00573700  0.87151059  1
  N  N164  1  0.83861998  0.50356986  0.37394873  1
  N  N165  1  0.82724280  0.82885797  0.62579656  1
  N  N166  1  0.16188683  0.82866720  0.62564936  1
  N  N167  1  0.17248018  0.16291668  0.87730761  1
  N  N168  1  0.33499098  0.32731566  0.87312248  1
  N  N169  1  0.66945290  0.66664986  0.37352308  1
  N  N170  1  0.17270595  0.49708666  0.37191669  1
  N  N171  1  0.66254764  0.67038047  0.12313102  1
  N  N172  1  0.83258589  0.84105339  0.38147187  1
  N  N173  1  0.33485243  0.00178546  0.62177526  1
  N  N174  1  0.48726360  0.84355515  0.37105016  1
  N  N175  1  0.16288424  0.83708537  0.37283310  1
  N  N176  1  0.50055046  0.82394915  0.87536512  1
  O  O177  1  0.65125372  0.66927651  0.88080125  1
  O  O178  1  0.85965340  0.16245836  0.88166299  1
  O  O179  1  0.50491390  0.16905018  0.12415774  1
  O  O180  1  0.31828361  0.32421951  0.62225186  1
  O  O181  1  -0.02112497  0.33554219  0.88120850  1
  O  O182  1  -0.00783808  0.01588656  0.62430936  1
  O  O183  1  0.64218806  0.33575103  0.62989540  1
  O  O184  1  0.17811382  0.16250592  0.37503181  1
  O  O185  1  0.65915547  0.66567469  0.62567781  1
  O  O186  1  0.50270135  0.16374671  0.37155826  1
  O  O187  1  0.33190088  0.66316006  0.12773825  1
  O  O188  1  0.53173292  0.50148485  0.61621657  1
  O  O189  1  0.31889193  0.67862043  0.37664963  1
  O  O190  1  -0.01341905  0.67028592  0.12962364  1
  O  O191  1  0.69106230  0.02915082  0.62521629  1
  O  O192  1  0.32720964  0.66282997  0.61813541  1
  O  O193  1  0.66154066  0.33133203  0.37283836  1
  O  O194  1  0.81692248  0.83256803  0.87697100  1
  O  O195  1  0.00399423  0.00885741  0.37475291  1
  O  O196  1  0.65028227  0.02290598  0.37861652  1
  O  O197  1  0.33616320  0.33403207  0.12816828  1
  O  O198  1  -0.01123975  0.66235993  0.88058574  1
  O  O199  1  0.49857137  0.47980955  0.37071840  1
  O  O200  1  0.85054150  0.14929549  0.12833683  1
  O  O201  1  0.31547562  0.32610259  0.37821445  1
  O  O202  1  0.50915943  0.50009369  0.87333276  1
  O  O203  1  0.49502084  0.83837054  0.12639365  1
  O  O204  1  0.85484074  0.50269633  0.87760648  1
  O  O205  1  0.51674037  0.48901993  0.12431474  1
  O  O206  1  0.64605652  0.34599694  0.12758185  1
  O  O207  1  -0.01848295  0.33566276  0.37030829  1
  O  O208  1  0.83431899  0.50287664  0.12278066  1
  O  O209  1  0.84115066  0.16395150  0.62613170  1
  O  O210  1  0.50106139  0.16973762  0.62583494  1
  O  O211  1  0.33972560  -0.00106249  0.38013763  1
  O  O212  1  0.65891430  0.35791803  0.87682815  1
  O  O213  1  0.64691216  -0.01421541  0.12131859  1
  O  O214  1  0.82533975  0.83428265  0.13382163  1
  O  O215  1  0.69491844  -0.00928117  0.87254772  1
