# generated using pymatgen
data_Sr24Ta24N11O13
_symmetry_space_group_name_H-M   'P 1'
_cell_length_a   16.83293506
_cell_length_b   16.72693901
_cell_length_c   15.68771364
_cell_angle_alpha   90.21275810
_cell_angle_beta   90.49260453
_cell_angle_gamma   90.26513401
_symmetry_Int_Tables_number   1
_chemical_formula_structural   Sr24Ta24N11O13
_chemical_formula_sum   'Sr72 Ta72 N33 O39'
_cell_volume   4416.84556354
_cell_formula_units_Z   3
loop_
 _symmetry_equiv_pos_site_id
 _symmetry_equiv_pos_as_xyz
  1  'x, y, z'
loop_
 _atom_site_type_symbol
 _atom_site_label
 _atom_site_symmetry_multiplicity
 _atom_site_fract_x
 _atom_site_fract_y
 _atom_site_fract_z
 _atom_site_occupancy
  Sr  Sr0  1  0.00129790  0.16295813  0.12175716  1
  Sr  Sr1  1  0.03705724  0.18689091  0.66189980  1
  Sr  Sr2  1  0.01330433  0.50763071  0.13977171  1
  Sr  Sr3  1  0.00042107  0.48963265  0.58465949  1
  Sr  Sr4  1  0.00290315  0.83417791  0.08568778  1
  Sr  Sr5  1  -0.01011078  0.81460128  0.64649962  1
  Sr  Sr6  1  0.38526348  0.17002058  0.17924378  1
  Sr  Sr7  1  0.32224235  0.16077714  0.62362220  1
  Sr  Sr8  1  0.34952240  0.48823121  0.10301361  1
  Sr  Sr9  1  0.32644680  0.48739720  0.61408716  1
  Sr  Sr10  1  0.33626420  0.84250145  0.11819985  1
  Sr  Sr11  1  0.34962418  0.82782595  0.66761173  1
  Sr  Sr12  1  0.66729146  0.18597340  0.07752454  1
  Sr  Sr13  1  0.67144454  0.15897368  0.63868864  1
  Sr  Sr14  1  0.65922967  0.49621128  0.15743707  1
  Sr  Sr15  1  0.68847486  0.50325679  0.62855449  1
  Sr  Sr16  1  0.67844664  0.82742874  0.13800004  1
  Sr  Sr17  1  0.65876304  0.82931507  0.58499401  1
  Sr  Sr18  1  0.14572011  0.00347524  0.13493315  1
  Sr  Sr19  1  0.17107510  0.01593599  0.59565299  1
  Sr  Sr20  1  0.14967421  0.34302854  0.10069498  1
  Sr  Sr21  1  0.17786050  0.32543399  0.65936880  1
  Sr  Sr22  1  0.17217061  0.66791850  0.16609273  1
  Sr  Sr23  1  0.15136638  0.64546873  0.60057163  1
  Sr  Sr24  1  0.51610036  -0.00087804  0.12910199  1
  Sr  Sr25  1  0.48304611  0.01087019  0.65565445  1
  Sr  Sr26  1  0.50876541  0.34332350  0.13541721  1
  Sr  Sr27  1  0.46325740  0.31511751  0.57141984  1
  Sr  Sr28  1  0.47409632  0.67203902  0.07655627  1
  Sr  Sr29  1  0.50086119  0.65514587  0.63112392  1
  Sr  Sr30  1  0.83270275  0.00590921  0.16193963  1
  Sr  Sr31  1  0.83752170  -0.01901668  0.60894120  1
  Sr  Sr32  1  0.81695889  0.32259037  0.08575534  1
  Sr  Sr33  1  0.83221622  0.33609152  0.62620669  1
  Sr  Sr34  1  0.86052673  0.67160661  0.10871937  1
  Sr  Sr35  1  0.83436290  0.66291598  0.66261207  1
  Sr  Sr36  1  0.00061675  0.15601820  0.32571413  1
  Sr  Sr37  1  0.01919503  0.16810895  0.88795771  1
  Sr  Sr38  1  0.00113913  0.51234702  0.36155500  1
  Sr  Sr39  1  -0.01415669  0.49479593  0.92292229  1
  Sr  Sr40  1  0.00975685  0.85403775  0.43200744  1
  Sr  Sr41  1  -0.00763569  0.83077808  0.86571833  1
  Sr  Sr42  1  0.33654686  0.15531820  0.39444074  1
  Sr  Sr43  1  0.33645173  0.16900768  0.85366713  1
  Sr  Sr44  1  0.34604867  0.50673566  0.39765348  1
  Sr  Sr45  1  0.33523854  0.48388503  0.88298279  1
  Sr  Sr46  1  0.32411784  0.83658955  0.34004255  1
  Sr  Sr47  1  0.34253667  0.83142737  0.88474587  1
  Sr  Sr48  1  0.69516551  0.17847131  0.41793112  1
  Sr  Sr49  1  0.66009923  0.16417747  0.86484034  1
  Sr  Sr50  1  0.67008383  0.49508401  0.36563454  1
  Sr  Sr51  1  0.67209886  0.50848297  0.82913634  1
  Sr  Sr52  1  0.66561821  0.84089118  0.36465918  1
  Sr  Sr53  1  0.67173247  0.81303992  0.91299551  1
  Sr  Sr54  1  0.16318370  0.01573268  0.37897660  1
  Sr  Sr55  1  0.14472283  -0.01422126  0.93944766  1
  Sr  Sr56  1  0.11387435  0.33435058  0.31284803  1
  Sr  Sr57  1  0.16959389  0.31876480  0.87734196  1
  Sr  Sr58  1  0.16233507  0.65345097  0.38334391  1
  Sr  Sr59  1  0.15881967  0.70278132  0.81772776  1
  Sr  Sr60  1  0.48546883  -0.01291235  0.34092943  1
  Sr  Sr61  1  0.50367326  0.01037788  0.87312247  1
  Sr  Sr62  1  0.49633333  0.33758180  0.35327201  1
  Sr  Sr63  1  0.49325706  0.33292720  0.91078336  1
  Sr  Sr64  1  0.50166102  0.67083038  0.41688431  1
  Sr  Sr65  1  0.48252462  0.65851281  0.86108661  1
  Sr  Sr66  1  0.82636410  -0.01079516  0.38882310  1
  Sr  Sr67  1  0.83661022  -0.00214514  0.83442966  1
  Sr  Sr68  1  0.82778331  0.34943052  0.41218903  1
  Sr  Sr69  1  0.81404380  0.32716316  0.85675991  1
  Sr  Sr70  1  0.80867232  0.66187959  0.32006808  1
  Sr  Sr71  1  0.84883579  0.67593023  0.88618963  1
  Ta  Ta72  1  0.22257614  0.16263010  0.02568315  1
  Ta  Ta73  1  0.14625341  0.20976954  0.46731497  1
  Ta  Ta74  1  0.17053035  0.53259599  0.00017867  1
  Ta  Ta75  1  0.16372372  0.44084626  0.48071178  1
  Ta  Ta76  1  0.17398406  0.79756332  -0.00184343  1
  Ta  Ta77  1  0.20596212  0.83451768  0.51176187  1
  Ta  Ta78  1  0.47542709  0.16461692  0.00333595  1
  Ta  Ta79  1  0.51450745  0.13649963  0.49774657  1
  Ta  Ta80  1  0.54347533  0.50408247  -0.01252581  1
  Ta  Ta81  1  0.53015449  0.48768137  0.49901508  1
  Ta  Ta82  1  0.51386816  0.85305250  0.00112702  1
  Ta  Ta83  1  0.47388034  0.85229000  0.49600743  1
  Ta  Ta84  1  0.84197582  0.13349908  -0.00600219  1
  Ta  Ta85  1  0.89256524  0.17384871  0.49842661  1
  Ta  Ta86  1  0.79035158  0.50256347  -0.00349213  1
  Ta  Ta87  1  0.83257086  0.55608981  0.49136929  1
  Ta  Ta88  1  0.83085760  0.87552879  -0.00477288  1
  Ta  Ta89  1  0.83146580  0.77867436  0.49654460  1
  Ta  Ta90  1  0.20364670  0.17592583  0.23069511  1
  Ta  Ta91  1  0.17517372  0.09564771  0.78819388  1
  Ta  Ta92  1  0.20976868  0.48945706  0.24892686  1
  Ta  Ta93  1  0.14617767  0.50111711  0.75285473  1
  Ta  Ta94  1  0.13440489  0.84245060  0.25700800  1
  Ta  Ta95  1  0.17200454  0.89663549  0.76087768  1
  Ta  Ta96  1  0.56650633  0.17195117  0.25012154  1
  Ta  Ta97  1  0.49557868  0.20799071  0.74572562  1
  Ta  Ta98  1  0.48912335  0.54573035  0.25163751  1
  Ta  Ta99  1  0.49155135  0.45674270  0.74467679  1
  Ta  Ta100  1  0.49615814  0.78877702  0.24700902  1
  Ta  Ta101  1  0.54158558  0.83059785  0.75663385  1
  Ta  Ta102  1  0.80844393  0.19013140  0.24891010  1
  Ta  Ta103  1  0.86225517  0.16223832  0.74235190  1
  Ta  Ta104  1  0.83271134  0.46085933  0.24274948  1
  Ta  Ta105  1  0.87544727  0.49546857  0.75010458  1
  Ta  Ta106  1  0.87587550  0.83317508  0.25840590  1
  Ta  Ta107  1  0.78909912  0.83057199  0.74666335  1
  Ta  Ta108  1  -0.00015133  -0.04942344  0.25115870  1
  Ta  Ta109  1  0.02380106  0.00631164  0.75732132  1
  Ta  Ta110  1  -0.06514789  0.33493273  0.23653449  1
  Ta  Ta111  1  -0.00415565  0.37599677  0.75380158  1
  Ta  Ta112  1  0.00570436  0.73217099  0.25826559  1
  Ta  Ta113  1  0.00407213  0.60622450  0.75664992  1
  Ta  Ta114  1  0.30585408  0.01136056  0.24492987  1
  Ta  Ta115  1  0.30849071  -0.00391104  0.75893078  1
  Ta  Ta116  1  0.30221125  0.33574640  0.24991670  1
  Ta  Ta117  1  0.37546532  0.33281424  0.74962515  1
  Ta  Ta118  1  0.35844207  0.65476169  0.24946120  1
  Ta  Ta119  1  0.31176179  0.63420894  0.74810975  1
  Ta  Ta120  1  0.67078471  0.04899087  0.25263944  1
  Ta  Ta121  1  0.66098123  -0.04544986  0.75407985  1
  Ta  Ta122  1  0.69316112  0.31477648  0.24737314  1
  Ta  Ta123  1  0.61411860  0.33388932  0.74527183  1
  Ta  Ta124  1  0.61040592  0.66596473  0.24615361  1
  Ta  Ta125  1  0.66232849  0.70104346  0.74553580  1
  Ta  Ta126  1  -0.04782241  0.00571817  0.00243121  1
  Ta  Ta127  1  0.00238875  0.05982125  0.50057767  1
  Ta  Ta128  1  -0.02507054  0.32023591  -0.00178867  1
  Ta  Ta129  1  0.01844224  0.30919902  0.50085654  1
  Ta  Ta130  1  0.06083250  0.66550327  -0.00773026  1
  Ta  Ta131  1  -0.04225320  0.66741074  0.49570179  1
  Ta  Ta132  1  0.34308008  0.03263233  0.01685602  1
  Ta  Ta133  1  0.34439050  -0.03274787  0.50187074  1
  Ta  Ta134  1  0.33190331  0.28933277  0.02171355  1
  Ta  Ta135  1  0.27401847  0.32446004  0.47782330  1
  Ta  Ta136  1  0.27591884  0.66261673  -0.00908259  1
  Ta  Ta137  1  0.32611029  0.71639682  0.50319619  1
  Ta  Ta138  1  0.70088417  -0.00102266  -0.00590026  1
  Ta  Ta139  1  0.62016817  0.00446494  0.49998360  1
  Ta  Ta140  1  0.66127291  0.37967165  -0.00852889  1
  Ta  Ta141  1  0.64138921  0.34860795  0.50347905  1
  Ta  Ta142  1  0.66410154  0.62667733  -0.00144673  1
  Ta  Ta143  1  0.69406508  0.65437392  0.49906373  1
  N  N144  1  0.49613205  0.16602628  0.61799286  1
  N  N145  1  0.50460825  0.49783646  0.86526574  1
  N  N146  1  0.66724431  0.66433352  0.62476984  1
  N  N147  1  0.66737337  0.34171046  0.12446488  1
  N  N148  1  0.17712516  0.50366372  0.12501446  1
  N  N149  1  0.35312037  0.33298952  0.13807892  1
  N  N150  1  0.36209848  -0.00262811  0.13815742  1
  N  N151  1  0.32013157  0.65796963  0.86769000  1
  N  N152  1  0.49675287  0.82703623  0.12390326  1
  N  N153  1  -0.00052998  0.33963460  0.87524609  1
  N  N154  1  0.49941909  0.17294518  0.88065353  1
  N  N155  1  0.82713570  0.82182449  0.62696719  1
  N  N156  1  0.16113348  0.49433999  0.36896050  1
  N  N157  1  0.00799023  0.33594317  0.62341947  1
  N  N158  1  0.17560548  0.14466063  0.90518153  1
  N  N159  1  0.50120886  0.82501807  0.87738400  1
  N  N160  1  0.14551396  0.16787885  0.12071373  1
  N  N161  1  -0.01038706  -0.00897359  0.13227393  1
  N  N162  1  0.83098179  0.83491900  0.87664114  1
  N  N163  1  0.32672204  -0.00221291  0.37474251  1
  N  N164  1  0.16750026  0.84580563  0.87439584  1
  N  N165  1  -0.00530303  -0.00268469  0.87703705  1
  N  N166  1  0.32815871  -0.00354904  0.62875089  1
  N  N167  1  0.50278879  0.50693535  0.37685001  1
  N  N168  1  0.15333043  0.17362199  0.34357439  1
  N  N169  1  0.65497883  0.33934160  0.86219405  1
  N  N170  1  0.66891478  -0.00085487  0.87483847  1
  N  N171  1  0.01075075  0.65653057  0.87729328  1
  N  N172  1  0.66887624  0.33652050  0.38349633  1
  N  N173  1  0.52675810  0.17350719  0.12926957  1
  N  N174  1  -0.00665715  0.33621805  0.12673966  1
  N  N175  1  0.49191464  0.82977496  0.37547298  1
  N  N176  1  0.83600359  0.82686056  0.38029468  1
  O  O177  1  0.00462225  0.68458989  0.37758842  1
  O  O178  1  0.15624171  0.48084643  0.62353009  1
  O  O179  1  0.84366623  0.15638212  0.86449669  1
  O  O180  1  0.15824691  0.82886316  0.12620059  1
  O  O181  1  0.84381569  0.51097893  0.61515823  1
  O  O182  1  0.63909879  -0.01000767  0.62542449  1
  O  O183  1  0.31091056  0.66565580  0.62141155  1
  O  O184  1  0.00454878  0.00656608  0.38044508  1
  O  O185  1  0.66862900  0.65704026  0.87306434  1
  O  O186  1  0.85302039  0.17729400  0.61909598  1
  O  O187  1  0.50273991  0.50695976  0.12536713  1
  O  O188  1  0.65131227  0.65202994  0.12283823  1
  O  O189  1  0.81168676  0.50342093  0.12332778  1
  O  O190  1  0.32659614  0.65962894  0.12421229  1
  O  O191  1  0.33857393  0.32537203  0.87523458  1
  O  O192  1  0.82194888  0.16279692  0.12453406  1
  O  O193  1  0.65752122  0.01417399  0.37791020  1
  O  O194  1  0.52072715  0.17660850  0.37479343  1
  O  O195  1  0.84158992  0.18540829  0.37542447  1
  O  O196  1  0.83813705  0.82934596  0.11759558  1
  O  O197  1  -0.02645763  0.33116381  0.36246356  1
  O  O198  1  0.01710400  0.02804421  0.62034354  1
  O  O199  1  0.65556108  0.66257474  0.36946425  1
  O  O200  1  0.18754583  0.18640441  0.71283512  1
  O  O201  1  0.48522339  0.50037334  0.61784733  1
  O  O202  1  0.19123213  0.85129237  0.63497280  1
  O  O203  1  0.16756351  0.48305891  0.87492791  1
  O  O204  1  0.31980409  0.32838667  0.60888841  1
  O  O205  1  0.50111089  0.83367286  0.63100892  1
  O  O206  1  0.82601908  0.50097792  0.87441679  1
  O  O207  1  0.34348938  0.67716929  0.38071314  1
  O  O208  1  0.68145597  0.02711703  0.12726339  1
  O  O209  1  0.34536870  0.32128063  0.37698679  1
  O  O210  1  0.67449010  0.32477404  0.62852758  1
  O  O211  1  0.01805842  0.68392403  0.12089892  1
  O  O212  1  0.16765983  0.84000785  0.38879701  1
  O  O213  1  0.83203817  0.50794193  0.36695599  1
  O  O214  1  0.34387233  -0.00420748  0.89288614  1
  O  O215  1  -0.00233736  0.65395024  0.63461070  1
