# generated using pymatgen
data_Sr24Ta24N11O13
_symmetry_space_group_name_H-M   'P 1'
_cell_length_a   16.81283356
_cell_length_b   16.70630754
_cell_length_c   15.64099173
_cell_angle_alpha   89.82062989
_cell_angle_beta   89.85554511
_cell_angle_gamma   90.49807634
_symmetry_Int_Tables_number   1
_chemical_formula_structural   Sr24Ta24N11O13
_chemical_formula_sum   'Sr72 Ta72 N33 O39'
_cell_volume   4393.04572315
_cell_formula_units_Z   3
loop_
 _symmetry_equiv_pos_site_id
 _symmetry_equiv_pos_as_xyz
  1  'x, y, z'
loop_
 _atom_site_type_symbol
 _atom_site_label
 _atom_site_symmetry_multiplicity
 _atom_site_fract_x
 _atom_site_fract_y
 _atom_site_fract_z
 _atom_site_occupancy
  Sr  Sr0  1  0.01477117  0.17168433  0.17055667  1
  Sr  Sr1  1  0.00969905  0.15666316  0.62889220  1
  Sr  Sr2  1  -0.01907941  0.48832033  0.07905254  1
  Sr  Sr3  1  0.01752369  0.51491560  0.64096396  1
  Sr  Sr4  1  -0.01282128  0.83511155  0.11133597  1
  Sr  Sr5  1  0.02177773  0.84111743  0.64729372  1
  Sr  Sr6  1  0.33297945  0.14334561  0.08552317  1
  Sr  Sr7  1  0.34803674  0.18228236  0.64019973  1
  Sr  Sr8  1  0.31775707  0.50664358  0.14198211  1
  Sr  Sr9  1  0.36152940  0.50957221  0.58850721  1
  Sr  Sr10  1  0.39227148  0.84180992  0.18834768  1
  Sr  Sr11  1  0.32872840  0.83515660  0.62223445  1
  Sr  Sr12  1  0.67264295  0.16062292  0.14335612  1
  Sr  Sr13  1  0.68218548  0.18409501  0.58631697  1
  Sr  Sr14  1  0.69882568  0.49560623  0.11521312  1
  Sr  Sr15  1  0.65710630  0.48811390  0.66043981  1
  Sr  Sr16  1  0.68911272  0.83490652  0.07867375  1
  Sr  Sr17  1  0.68203162  0.81876801  0.63918054  1
  Sr  Sr18  1  0.15001766  -0.00484770  0.14581689  1
  Sr  Sr19  1  0.18750885  0.00507725  0.57506892  1
  Sr  Sr20  1  0.15491554  0.33118622  0.14665794  1
  Sr  Sr21  1  0.15224996  0.33304410  0.65659839  1
  Sr  Sr22  1  0.14420235  0.65325311  0.10276748  1
  Sr  Sr23  1  0.15821920  0.67828561  0.65895340  1
  Sr  Sr24  1  0.50389952  0.00848290  0.13138995  1
  Sr  Sr25  1  0.50364912  -0.00903513  0.67197443  1
  Sr  Sr26  1  0.45554454  0.31715632  0.09315667  1
  Sr  Sr27  1  0.50816358  0.33082146  0.63250650  1
  Sr  Sr28  1  0.50453702  0.65714880  0.13457887  1
  Sr  Sr29  1  0.47937269  0.68529471  0.57236702  1
  Sr  Sr30  1  0.82531528  -0.01926220  0.08522029  1
  Sr  Sr31  1  0.83039643  -0.00794433  0.63966555  1
  Sr  Sr32  1  0.82180064  0.31361827  0.14206071  1
  Sr  Sr33  1  0.83191914  0.33139522  0.58619801  1
  Sr  Sr34  1  0.83967736  0.68808297  0.13766974  1
  Sr  Sr35  1  0.83725966  0.65453377  0.60004074  1
  Sr  Sr36  1  0.01488688  0.16128970  0.37057014  1
  Sr  Sr37  1  0.00838418  0.16690507  0.84674236  1
  Sr  Sr38  1  -0.02860648  0.50354774  0.42871172  1
  Sr  Sr39  1  0.00923823  0.48883585  0.86220885  1
  Sr  Sr40  1  0.00521278  0.82231815  0.33705470  1
  Sr  Sr41  1  0.02213224  0.85233072  0.89656346  1
  Sr  Sr42  1  0.33725412  0.16835549  0.41141742  1
  Sr  Sr43  1  0.33767462  0.18608108  0.86930039  1
  Sr  Sr44  1  0.33599748  0.50016360  0.36799566  1
  Sr  Sr45  1  0.34309128  0.52878329  0.92096073  1
  Sr  Sr46  1  0.33006229  0.84296065  0.39165551  1
  Sr  Sr47  1  0.33793615  0.83322521  0.84107614  1
  Sr  Sr48  1  0.66636946  0.17006703  0.36715327  1
  Sr  Sr49  1  0.71182430  0.18075775  0.91977131  1
  Sr  Sr50  1  0.66843915  0.50933428  0.32018233  1
  Sr  Sr51  1  0.66121732  0.48475938  0.87113158  1
  Sr  Sr52  1  0.68159423  0.81793465  0.43039029  1
  Sr  Sr53  1  0.65809067  0.85652343  0.85898306  1
  Sr  Sr54  1  0.15738424  -0.00785365  0.36713660  1
  Sr  Sr55  1  0.18137254  0.01249464  0.92647326  1
  Sr  Sr56  1  0.16080421  0.33746471  0.35089489  1
  Sr  Sr57  1  0.15228320  0.32028997  0.85625963  1
  Sr  Sr58  1  0.14971901  0.65084932  0.37012513  1
  Sr  Sr59  1  0.18310226  0.67930031  0.87375025  1
  Sr  Sr60  1  0.50926063  0.00495487  0.33654934  1
  Sr  Sr61  1  0.47557863  0.00649588  0.87600822  1
  Sr  Sr62  1  0.48069673  0.31987263  0.41151558  1
  Sr  Sr63  1  0.49643810  0.33587002  0.86042632  1
  Sr  Sr64  1  0.49557580  0.65805506  0.35842571  1
  Sr  Sr65  1  0.49703057  0.66334617  0.91598562  1
  Sr  Sr66  1  0.80995177  -0.00699449  0.41372496  1
  Sr  Sr67  1  0.85156624  -0.00577886  0.86581320  1
  Sr  Sr68  1  0.82228971  0.32290192  0.36372744  1
  Sr  Sr69  1  0.82422775  0.35767003  0.92109191  1
  Sr  Sr70  1  0.83303545  0.67032455  0.37570196  1
  Sr  Sr71  1  0.76815012  0.64168116  0.78572958  1
  Ta  Ta72  1  0.14057895  0.18640599  0.01075848  1
  Ta  Ta73  1  0.16609004  0.20223849  0.49853777  1
  Ta  Ta74  1  0.16625402  0.46880540  -0.00368650  1
  Ta  Ta75  1  0.17150898  0.48376900  0.50322273  1
  Ta  Ta76  1  0.20311139  0.83360386  0.00933239  1
  Ta  Ta77  1  0.15149732  0.81189295  0.49190213  1
  Ta  Ta78  1  0.53203160  0.16444809  0.00089878  1
  Ta  Ta79  1  0.50834065  0.12771340  0.50033550  1
  Ta  Ta80  1  0.51996145  0.48090091  0.01064713  1
  Ta  Ta81  1  0.54614443  0.49492122  0.48720432  1
  Ta  Ta82  1  0.48986206  0.84473996  -0.00154603  1
  Ta  Ta83  1  0.50727106  0.88247140  0.49877758  1
  Ta  Ta84  1  0.88920011  0.16593574  0.01240761  1
  Ta  Ta85  1  0.86672340  0.15408356  0.49175361  1
  Ta  Ta86  1  0.83283932  0.57157747  -0.03413926  1
  Ta  Ta87  1  0.77353156  0.49702973  0.48710704  1
  Ta  Ta88  1  0.83913513  0.76047756  -0.06560210  1
  Ta  Ta89  1  0.88493993  0.83181470  0.50601072  1
  Ta  Ta90  1  0.21446249  0.16324924  0.25399431  1
  Ta  Ta91  1  0.17901069  0.11523336  0.74890578  1
  Ta  Ta92  1  0.09953871  0.50272487  0.25107705  1
  Ta  Ta93  1  0.22521102  0.50827642  0.75144597  1
  Ta  Ta94  1  0.19172757  0.81042097  0.24006059  1
  Ta  Ta95  1  0.17562445  0.89260094  0.75859861  1
  Ta  Ta96  1  0.47343154  0.18703052  0.25074953  1
  Ta  Ta97  1  0.55596702  0.16913048  0.75867756  1
  Ta  Ta98  1  0.49264532  0.45091010  0.24761840  1
  Ta  Ta99  1  0.47257858  0.51659493  0.75744398  1
  Ta  Ta100  1  0.58188574  0.83565678  0.25323740  1
  Ta  Ta101  1  0.49783703  0.79469910  0.74975092  1
  Ta  Ta102  1  0.83583217  0.11821972  0.24898400  1
  Ta  Ta103  1  0.82804896  0.18933618  0.75024098  1
  Ta  Ta104  1  0.87033263  0.50660503  0.24857518  1
  Ta  Ta105  1  0.84123452  0.46059294  0.74122157  1
  Ta  Ta106  1  0.79840834  0.85357050  0.27010469  1
  Ta  Ta107  1  0.86293982  0.81163725  0.74925840  1
  Ta  Ta108  1  -0.05398508  -0.00842201  0.25135534  1
  Ta  Ta109  1  0.04922925  0.00212635  0.75744165  1
  Ta  Ta110  1  -0.01447541  0.37743270  0.25837288  1
  Ta  Ta111  1  -0.05404231  0.32908283  0.74887302  1
  Ta  Ta112  1  -0.00463045  0.62729259  0.25274114  1
  Ta  Ta113  1  -0.03570316  0.67853595  0.77920638  1
  Ta  Ta114  1  0.32861979  0.03141967  0.26199595  1
  Ta  Ta115  1  0.29986314  0.00761909  0.75517694  1
  Ta  Ta116  1  0.34204518  0.31138395  0.25835790  1
  Ta  Ta117  1  0.33031197  0.38746481  0.75285697  1
  Ta  Ta118  1  0.30183564  0.68336945  0.24718031  1
  Ta  Ta119  1  0.36224683  0.65241351  0.75177580  1
  Ta  Ta120  1  0.69197595  -0.02158166  0.25099521  1
  Ta  Ta121  1  0.67730759  0.06333655  0.75649997  1
  Ta  Ta122  1  0.61001834  0.33090779  0.24069919  1
  Ta  Ta123  1  0.69110634  0.30533839  0.75311057  1
  Ta  Ta124  1  0.67431928  0.70462800  0.25251616  1
  Ta  Ta125  1  0.58676017  0.65995845  0.73684142  1
  Ta  Ta126  1  0.00371284  0.04147777  0.01015924  1
  Ta  Ta127  1  -0.01115809  -0.01341034  0.49365203  1
  Ta  Ta128  1  0.00703422  0.30037382  0.00561951  1
  Ta  Ta129  1  0.02481624  0.32020016  0.49931242  1
  Ta  Ta130  1  -0.02472278  0.66222982  -0.02557063  1
  Ta  Ta131  1  0.00959694  0.69623197  0.50230033  1
  Ta  Ta132  1  0.34045278  -0.06739162  0.01744789  1
  Ta  Ta133  1  0.38704524  0.00235680  0.50409436  1
  Ta  Ta134  1  0.28421859  0.34828629  0.00127230  1
  Ta  Ta135  1  0.28391996  0.34239034  0.50339756  1
  Ta  Ta136  1  0.33588959  0.72928078  0.00958823  1
  Ta  Ta137  1  0.28649241  0.67021261  0.50664429  1
  Ta  Ta138  1  0.63995339  0.01684860  -0.00383292  1
  Ta  Ta139  1  0.62913747  0.00369853  0.50196922  1
  Ta  Ta140  1  0.63066785  0.33149965  0.01095691  1
  Ta  Ta141  1  0.65837078  0.36882085  0.48627385  1
  Ta  Ta142  1  0.68667147  0.65787997  -0.01442986  1
  Ta  Ta143  1  0.65755734  0.62316968  0.49908707  1
  N  N144  1  0.33971804  0.00061796  0.38071766  1
  N  N145  1  0.66822124  0.33407309  0.63104250  1
  N  N146  1  0.66677902  0.33042579  0.88362971  1
  N  N147  1  0.80538221  0.84486403  0.85129265  1
  N  N148  1  0.01613541  0.00952007  0.88376460  1
  N  N149  1  0.17381825  0.16683913  0.37940536  1
  N  N150  1  0.82117801  0.50146923  0.36457558  1
  N  N151  1  0.83643706  0.82612087  0.62106618  1
  N  N152  1  0.64382805  0.65861878  0.62716159  1
  N  N153  1  0.49964096  0.49177650  0.36443734  1
  N  N154  1  0.65360733  0.33204514  0.36565384  1
  N  N155  1  0.17819638  0.84980392  0.88366825  1
  N  N156  1  0.34077415  0.68464540  0.89147446  1
  N  N157  1  -0.00027561  -0.00902356  0.37060892  1
  N  N158  1  0.32426619  0.67207080  0.62514362  1
  N  N159  1  0.50075148  0.16133177  0.37754307  1
  N  N160  1  0.17296710  0.16668070  0.13030454  1
  N  N161  1  0.49717018  0.16391493  0.12164483  1
  N  N162  1  0.66090102  0.00217617  0.37945107  1
  N  N163  1  0.67094860  0.32941673  0.13383974  1
  N  N164  1  -0.00649300  0.33992244  0.38152030  1
  N  N165  1  0.83218174  0.83173204  0.39013454  1
  N  N166  1  0.66934717  0.00010169  0.11399394  1
  N  N167  1  0.83564103  0.15667411  0.12325721  1
  N  N168  1  -0.00528348  0.66065264  0.38381716  1
  N  N169  1  0.83824843  0.16214563  0.37357632  1
  N  N170  1  0.32275759  0.33723728  0.38007101  1
  N  N171  1  -0.00639818  -0.00385644  0.13462831  1
  N  N172  1  0.82741532  0.50437317  0.85725846  1
  N  N173  1  0.16736325  0.82734389  0.36621600  1
  N  N174  1  0.66277102  0.66917046  0.37191485  1
  N  N175  1  0.49860173  0.83386482  0.87312195  1
  N  N176  1  0.49865020  0.49637934  0.88728789  1
  O  O177  1  0.64025867  0.65336725  0.86349148  1
  O  O178  1  0.49551578  0.17015864  0.87012540  1
  O  O179  1  0.14245988  0.49359430  0.38112238  1
  O  O180  1  -0.00251660  0.33260356  0.13114960  1
  O  O181  1  0.84260044  0.53208233  0.11545985  1
  O  O182  1  0.16851336  0.16559395  0.88178643  1
  O  O183  1  0.67237553  0.02828518  0.63275709  1
  O  O184  1  0.32991080  -0.01667072  0.89440139  1
  O  O185  1  0.81080259  0.48640282  0.61620868  1
  O  O186  1  0.53415500  0.84594880  0.37535493  1
  O  O187  1  0.13437828  0.48796372  0.11933865  1
  O  O188  1  0.33605202  0.66576395  0.12462706  1
  O  O189  1  0.17225222  0.15431272  0.62342234  1
  O  O190  1  0.34252345  -0.02011189  0.13754746  1
  O  O191  1  0.04264780  0.64047492  0.86726756  1
  O  O192  1  0.34558772  0.00351852  0.62875736  1
  O  O193  1  0.31039336  0.34159259  0.87492170  1
  O  O194  1  0.52456643  0.17009446  0.63139746  1
  O  O195  1  0.17853274  0.50364745  0.87338714  1
  O  O196  1  0.01470129  -0.00001407  0.63002024  1
  O  O197  1  0.84117639  0.17203266  0.62195948  1
  O  O198  1  0.30709545  0.67009751  0.37449085  1
  O  O199  1  0.31907107  0.34458697  0.62998290  1
  O  O200  1  0.53527033  0.83701830  0.13031340  1
  O  O201  1  -0.00989439  0.65314047  0.10595303  1
  O  O202  1  -0.00645107  0.32055474  0.62923086  1
  O  O203  1  0.00024477  0.66820573  0.64555825  1
  O  O204  1  0.13939488  0.82902548  0.12577210  1
  O  O205  1  0.49708803  0.83818278  0.62174701  1
  O  O206  1  -0.00794526  0.32277045  0.87273290  1
  O  O207  1  0.17637316  0.49941310  0.63095346  1
  O  O208  1  0.85412273  0.17134896  0.87760268  1
  O  O209  1  0.50511892  0.48458092  0.62973584  1
  O  O210  1  0.84541670  0.82469087  0.03919081  1
  O  O211  1  0.17219993  0.85319015  0.61643026  1
  O  O212  1  0.30662122  0.34365773  0.12863900  1
  O  O213  1  0.69546534  0.01659233  0.87477083  1
  O  O214  1  0.47179466  0.50586302  0.12610334  1
  O  O215  1  0.68568864  0.67738609  0.11329033  1
