# generated using pymatgen
data_Sr24Ta24N11O13
_symmetry_space_group_name_H-M   'P 1'
_cell_length_a   19.94242045
_cell_length_b   15.96895764
_cell_length_c   14.05079008
_cell_angle_alpha   90.03103181
_cell_angle_beta   90.09648397
_cell_angle_gamma   90.23441503
_symmetry_Int_Tables_number   1
_chemical_formula_structural   Sr24Ta24N11O13
_chemical_formula_sum   'Sr72 Ta72 N33 O39'
_cell_volume   4474.56546887
_cell_formula_units_Z   3
loop_
 _symmetry_equiv_pos_site_id
 _symmetry_equiv_pos_as_xyz
  1  'x, y, z'
loop_
 _atom_site_type_symbol
 _atom_site_label
 _atom_site_symmetry_multiplicity
 _atom_site_fract_x
 _atom_site_fract_y
 _atom_site_fract_z
 _atom_site_occupancy
  Sr  Sr0  1  -0.04653063  0.16714564  0.11859625  1
  Sr  Sr1  1  -0.04619214  0.16708999  0.61651162  1
  Sr  Sr2  1  -0.04882505  0.49945922  0.11810637  1
  Sr  Sr3  1  -0.04589113  0.50025257  0.61805590  1
  Sr  Sr4  1  -0.04821504  0.83377832  0.11704538  1
  Sr  Sr5  1  -0.04751732  0.83277185  0.62026467  1
  Sr  Sr6  1  0.31613595  0.16828113  0.12711138  1
  Sr  Sr7  1  0.31822356  0.16546490  0.62939424  1
  Sr  Sr8  1  0.31072070  0.49400267  0.13032696  1
  Sr  Sr9  1  0.32100781  0.49807381  0.63467497  1
  Sr  Sr10  1  0.30862859  0.83539892  0.12469982  1
  Sr  Sr11  1  0.31806969  0.83493445  0.63443473  1
  Sr  Sr12  1  0.67036714  0.17239407  0.12562360  1
  Sr  Sr13  1  0.65527434  0.15873382  0.62559588  1
  Sr  Sr14  1  0.64589545  0.47232287  0.12467269  1
  Sr  Sr15  1  0.65329790  0.50653941  0.62350287  1
  Sr  Sr16  1  0.65163689  0.85383342  0.12315284  1
  Sr  Sr17  1  0.64300992  0.83691166  0.62686388  1
  Sr  Sr18  1  0.20927816  0.00241834  0.11776603  1
  Sr  Sr19  1  0.21258222  -0.00030023  0.62121727  1
  Sr  Sr20  1  0.20677466  0.33173727  0.11799977  1
  Sr  Sr21  1  0.21342897  0.33399308  0.61973142  1
  Sr  Sr22  1  0.20027562  0.66627995  0.11826972  1
  Sr  Sr23  1  0.21228986  0.66557388  0.61968816  1
  Sr  Sr24  1  0.50998456  0.02146120  0.12733486  1
  Sr  Sr25  1  0.50710755  0.00630150  0.63357386  1
  Sr  Sr26  1  0.51035161  0.31516721  0.13075213  1
  Sr  Sr27  1  0.52946844  0.33151199  0.63282757  1
  Sr  Sr28  1  0.55620754  0.66358424  0.12853222  1
  Sr  Sr29  1  0.51628805  0.66182827  0.64097902  1
  Sr  Sr30  1  0.84993828  -0.00155970  0.12804477  1
  Sr  Sr31  1  0.84706525  0.00016330  0.62648650  1
  Sr  Sr32  1  0.84668899  0.33368240  0.12810579  1
  Sr  Sr33  1  0.85022107  0.33392987  0.62951196  1
  Sr  Sr34  1  0.84612444  0.66849874  0.12779474  1
  Sr  Sr35  1  0.84685909  0.66565440  0.62461851  1
  Sr  Sr36  1  -0.00752913  0.16827580  0.36942651  1
  Sr  Sr37  1  -0.01075083  0.16604806  0.86736416  1
  Sr  Sr38  1  -0.01299006  0.49957602  0.36939342  1
  Sr  Sr39  1  -0.00930742  0.50065939  0.86678032  1
  Sr  Sr40  1  -0.00859457  0.83497359  0.36892749  1
  Sr  Sr41  1  -0.01003535  0.83263872  0.86699013  1
  Sr  Sr42  1  0.27369082  0.16467607  0.37890375  1
  Sr  Sr43  1  0.27768300  0.16677217  0.87714180  1
  Sr  Sr44  1  0.30191051  0.51499535  0.37555261  1
  Sr  Sr45  1  0.28646845  0.50070017  0.88549661  1
  Sr  Sr46  1  0.30354021  0.81871417  0.37209753  1
  Sr  Sr47  1  0.28321203  0.83136471  0.88324459  1
  Sr  Sr48  1  0.63505404  0.16603532  0.37416224  1
  Sr  Sr49  1  0.63668738  0.16681245  0.87567583  1
  Sr  Sr50  1  0.63020684  0.50067490  0.37432084  1
  Sr  Sr51  1  0.63569278  0.49946853  0.87315607  1
  Sr  Sr52  1  0.62970127  0.83228268  0.37221255  1
  Sr  Sr53  1  0.63521963  0.83213000  0.87620428  1
  Sr  Sr54  1  0.17691951  -0.01614277  0.36907987  1
  Sr  Sr55  1  0.17376663  -0.00162606  0.87019480  1
  Sr  Sr56  1  0.17687605  0.34488853  0.36799775  1
  Sr  Sr57  1  0.17189534  0.33617072  0.86864370  1
  Sr  Sr58  1  0.16677495  0.66860696  0.36894251  1
  Sr  Sr59  1  0.17730630  0.66406659  0.87013251  1
  Sr  Sr60  1  0.52618466  -0.00207220  0.37799754  1
  Sr  Sr61  1  0.52784398  0.00003239  0.88392489  1
  Sr  Sr62  1  0.52917253  0.33395384  0.37716936  1
  Sr  Sr63  1  0.53191847  0.33385720  0.88654653  1
  Sr  Sr64  1  0.52190888  0.66737302  0.37844219  1
  Sr  Sr65  1  0.52763030  0.66775474  0.88837216  1
  Sr  Sr66  1  0.88776337  0.00080741  0.37825060  1
  Sr  Sr67  1  0.88665685  -0.00177592  0.87524483  1
  Sr  Sr68  1  0.88473396  0.33363619  0.38180226  1
  Sr  Sr69  1  0.88468980  0.33467246  0.87623188  1
  Sr  Sr70  1  0.88305178  0.66706469  0.37706588  1
  Sr  Sr71  1  0.88359859  0.66758124  0.87592355  1
  Ta  Ta72  1  0.11550760  0.16666080  0.01617570  1
  Ta  Ta73  1  0.12116772  0.16700951  0.51612894  1
  Ta  Ta74  1  0.11614757  0.49972008  0.01583187  1
  Ta  Ta75  1  0.11945331  0.50277446  0.51568372  1
  Ta  Ta76  1  0.11893311  0.83306421  0.00979131  1
  Ta  Ta77  1  0.11830533  0.83114569  0.52131974  1
  Ta  Ta78  1  0.43674857  0.17142605  -0.02216313  1
  Ta  Ta79  1  0.44472978  0.16926305  0.48692317  1
  Ta  Ta80  1  0.45386572  0.50119749  0.01438548  1
  Ta  Ta81  1  0.45509858  0.49871971  0.49581507  1
  Ta  Ta82  1  0.45485259  0.83079091  0.00636908  1
  Ta  Ta83  1  0.45853032  0.83219517  0.51148704  1
  Ta  Ta84  1  0.79983331  0.16317451  -0.02476296  1
  Ta  Ta85  1  0.79285392  0.16937997  0.48750419  1
  Ta  Ta86  1  0.78960272  0.50519051  -0.02005817  1
  Ta  Ta87  1  0.79118162  0.49525547  0.47907691  1
  Ta  Ta88  1  0.79366805  0.83357082  -0.01775321  1
  Ta  Ta89  1  0.79198170  0.83330252  0.48544081  1
  Ta  Ta90  1  0.11932861  0.16640859  0.22260746  1
  Ta  Ta91  1  0.11904836  0.16594374  0.72255551  1
  Ta  Ta92  1  0.11474988  0.50245715  0.22219301  1
  Ta  Ta93  1  0.11980833  0.49997102  0.72187549  1
  Ta  Ta94  1  0.11794812  0.83250474  0.21793789  1
  Ta  Ta95  1  0.12343303  0.83227236  0.73058914  1
  Ta  Ta96  1  0.43406336  0.16825004  0.28109803  1
  Ta  Ta97  1  0.44605147  0.16918839  0.77337205  1
  Ta  Ta98  1  0.45918520  0.49860386  0.24502004  1
  Ta  Ta99  1  0.44627154  0.49779079  0.78994342  1
  Ta  Ta100  1  0.46294435  0.83224555  0.22913261  1
  Ta  Ta101  1  0.45259815  0.83453797  0.77324302  1
  Ta  Ta102  1  0.80091508  0.16707000  0.27781259  1
  Ta  Ta103  1  0.79338598  0.16698530  0.76490545  1
  Ta  Ta104  1  0.79152274  0.50208196  0.27089750  1
  Ta  Ta105  1  0.79005720  0.49977152  0.77128585  1
  Ta  Ta106  1  0.79237293  0.83263176  0.26736663  1
  Ta  Ta107  1  0.79371947  0.83277492  0.76643670  1
  Ta  Ta108  1  0.04355517  0.00288512  0.22536733  1
  Ta  Ta109  1  0.04382136  0.00110145  0.72770804  1
  Ta  Ta110  1  0.04301848  0.33373296  0.22021565  1
  Ta  Ta111  1  0.04163876  0.33209127  0.72840634  1
  Ta  Ta112  1  0.03677556  0.66609963  0.22767884  1
  Ta  Ta113  1  0.04473165  0.66617011  0.72015878  1
  Ta  Ta114  1  0.37091795  -0.00250429  0.26327445  1
  Ta  Ta115  1  0.36959629  0.00171181  0.77347019  1
  Ta  Ta116  1  0.37171559  0.33327441  0.27571080  1
  Ta  Ta117  1  0.37595856  0.32926205  0.76840495  1
  Ta  Ta118  1  0.39593505  0.66964775  0.21555749  1
  Ta  Ta119  1  0.37379042  0.66647731  0.78805553  1
  Ta  Ta120  1  0.72114607  0.00277819  0.27298891  1
  Ta  Ta121  1  0.71973114  -0.00145912  0.77024853  1
  Ta  Ta122  1  0.72252727  0.33358301  0.28448450  1
  Ta  Ta123  1  0.71181542  0.33457609  0.75426900  1
  Ta  Ta124  1  0.71364545  0.66589065  0.26799044  1
  Ta  Ta125  1  0.72144354  0.66194249  0.77227154  1
  Ta  Ta126  1  0.04235143  0.00096475  0.01380386  1
  Ta  Ta127  1  0.04699770  0.00153372  0.51276175  1
  Ta  Ta128  1  0.04143708  0.33336551  0.01048789  1
  Ta  Ta129  1  0.04747179  0.33465493  0.51938488  1
  Ta  Ta130  1  0.04167691  0.66538572  0.01813165  1
  Ta  Ta131  1  0.03998622  0.66686752  0.51100431  1
  Ta  Ta132  1  0.37037711  -0.00180940  -0.01427808  1
  Ta  Ta133  1  0.37171326  -0.00104111  0.48792378  1
  Ta  Ta134  1  0.37461875  0.33565461  -0.02011387  1
  Ta  Ta135  1  0.37673875  0.33046651  0.48949014  1
  Ta  Ta136  1  0.38157466  0.66605807  -0.00084370  1
  Ta  Ta137  1  0.37951383  0.66956916  0.50134928  1
  Ta  Ta138  1  0.72389362  0.00460641  -0.02165802  1
  Ta  Ta139  1  0.71789502  -0.00326906  0.48166406  1
  Ta  Ta140  1  0.72359111  0.33432721  -0.02891254  1
  Ta  Ta141  1  0.71042533  0.33357058  0.49856808  1
  Ta  Ta142  1  0.71976217  0.66268227  -0.01781170  1
  Ta  Ta143  1  0.71684192  0.66758814  0.47786418  1
  N  N144  1  0.86493229  0.16663866  0.38420325  1
  N  N145  1  -0.02562606  0.66651186  0.62464342  1
  N  N146  1  0.66627256  0.33569812  0.62955957  1
  N  N147  1  0.34960400  0.33242088  0.63316020  1
  N  N148  1  0.02342455  -0.00048155  0.86299928  1
  N  N149  1  0.86309157  0.16758822  0.86694924  1
  N  N150  1  0.30365072  0.00140775  0.88013684  1
  N  N151  1  0.02677391  0.00141019  0.37743762  1
  N  N152  1  0.82014278  0.16715629  0.62246362  1
  N  N153  1  0.01730614  0.66614329  0.37270698  1
  N  N154  1  0.14540381  0.82917018  0.86499354  1
  N  N155  1  0.31018709  0.66450333  0.89332842  1
  N  N156  1  0.51460433  0.48599666  0.12111868  1
  N  N157  1  0.18562285  0.83596677  0.11491533  1
  N  N158  1  0.85876495  0.83120766  0.87608349  1
  N  N159  1  0.35059968  0.00018953  0.62280110  1
  N  N160  1  0.65212624  -0.00252543  0.37470378  1
  N  N161  1  0.64862460  0.66686139  0.37185473  1
  N  N162  1  0.52123298  0.84147535  0.11900462  1
  N  N163  1  0.85801184  0.50124727  0.37621997  1
  N  N164  1  0.49654957  0.83522259  0.63929119  1
  N  N165  1  0.65167913  0.33274336  0.38308118  1
  N  N166  1  0.34379803  0.00083495  0.13175801  1
  N  N167  1  0.51116563  0.83424754  0.88794772  1
  N  N168  1  0.01841178  0.33452604  0.86513947  1
  N  N169  1  0.50155216  0.50157220  0.36972693  1
  N  N170  1  -0.02295787  0.00133938  0.12050844  1
  N  N171  1  -0.02775004  0.66544764  0.11657732  1
  N  N172  1  -0.02385011  0.33380740  0.61276688  1
  N  N173  1  0.65382980  0.33325398  0.87461867  1
  N  N174  1  -0.02502084  0.33362364  0.11698160  1
  N  N175  1  0.81297789  0.83334336  0.13182585  1
  N  N176  1  0.81626281  0.83162015  0.62083386  1
  O  O177  1  0.12642812  0.50109925  0.86696240  1
  O  O178  1  0.03405530  0.33347940  0.36910910  1
  O  O179  1  0.32029565  0.65973466  0.11937167  1
  O  O180  1  0.69347772  0.66663525  0.12009739  1
  O  O181  1  0.36654498  0.67139015  0.36207177  1
  O  O182  1  0.70533201  -0.00204616  0.62612479  1
  O  O183  1  0.86541288  0.83420473  0.37548659  1
  O  O184  1  0.19413939  0.16602882  0.62456151  1
  O  O185  1  0.64750842  0.66809208  0.87023120  1
  O  O186  1  0.81277966  0.49804059  0.12092677  1
  O  O187  1  0.19323787  0.17273415  0.12176748  1
  O  O188  1  0.02136944  0.66350837  0.86750466  1
  O  O189  1  -0.02854750  -0.00073978  0.61620566  1
  O  O190  1  0.70957358  0.66054604  0.62299194  1
  O  O191  1  0.12795355  0.82921574  0.37155478  1
  O  O192  1  0.86681454  0.50406540  0.87438877  1
  O  O193  1  0.13295105  0.17384057  0.37148855  1
  O  O194  1  0.51247029  0.16321478  0.37266082  1
  O  O195  1  0.81162354  0.17051455  0.12634411  1
  O  O196  1  0.71210256  0.00870203  0.12800971  1
  O  O197  1  0.45715561  0.16538949  0.62865770  1
  O  O198  1  0.81365429  0.50157350  0.62817760  1
  O  O199  1  0.19535432  0.50090636  0.61776107  1
  O  O200  1  0.13645953  0.17053674  0.87367109  1
  O  O201  1  0.50027039  0.83617931  0.37305056  1
  O  O202  1  0.64949699  -0.00368146  0.87969039  1
  O  O203  1  0.51543920  0.17062136  0.88561057  1
  O  O204  1  0.19500655  0.83248446  0.61671669  1
  O  O205  1  0.30288970  0.34551822  0.39082990  1
  O  O206  1  0.51675495  0.49791996  0.89655669  1
  O  O207  1  0.30168983  -0.01806792  0.37614922  1
  O  O208  1  0.45060247  0.17003358  0.12938231  1
  O  O209  1  0.71245601  0.32976434  0.12192063  1
  O  O210  1  0.29997856  0.33401265  0.87920437  1
  O  O211  1  0.18919558  0.49552563  0.11918916  1
  O  O212  1  0.35428061  0.66472618  0.64025653  1
  O  O213  1  0.35414844  0.33320097  0.13229680  1
  O  O214  1  0.12411210  0.50235485  0.36934369  1
  O  O215  1  0.45705512  0.50184390  0.64190746  1
