# generated using pymatgen
data_Sr24Ta24N11O13
_symmetry_space_group_name_H-M   'P 1'
_cell_length_a   16.84740981
_cell_length_b   16.78256207
_cell_length_c   15.64157875
_cell_angle_alpha   90.46534259
_cell_angle_beta   89.62551070
_cell_angle_gamma   90.25971908
_symmetry_Int_Tables_number   1
_chemical_formula_structural   Sr24Ta24N11O13
_chemical_formula_sum   'Sr72 Ta72 N33 O39'
_cell_volume   4422.25751550
_cell_formula_units_Z   3
loop_
 _symmetry_equiv_pos_site_id
 _symmetry_equiv_pos_as_xyz
  1  'x, y, z'
loop_
 _atom_site_type_symbol
 _atom_site_label
 _atom_site_symmetry_multiplicity
 _atom_site_fract_x
 _atom_site_fract_y
 _atom_site_fract_z
 _atom_site_occupancy
  Sr  Sr0  1  0.01581702  0.15990362  0.11503043  1
  Sr  Sr1  1  0.00981155  0.16792457  0.63313855  1
  Sr  Sr2  1  -0.00561961  0.49496565  0.13915309  1
  Sr  Sr3  1  0.03365678  0.48221168  0.59103298  1
  Sr  Sr4  1  0.00708633  0.83730648  0.15663215  1
  Sr  Sr5  1  0.00333484  0.82591357  0.61175913  1
  Sr  Sr6  1  0.36417441  0.17515007  0.08638831  1
  Sr  Sr7  1  0.31427690  0.13945824  0.64672856  1
  Sr  Sr8  1  0.34793457  0.48307422  0.13294137  1
  Sr  Sr9  1  0.32509390  0.52068708  0.67182550  1
  Sr  Sr10  1  0.32665102  0.85058920  0.12920628  1
  Sr  Sr11  1  0.34263530  0.81774857  0.57352718  1
  Sr  Sr12  1  0.66037133  0.17279421  0.14202754  1
  Sr  Sr13  1  0.69945518  0.13889610  0.58096859  1
  Sr  Sr14  1  0.67036401  0.48927069  0.09039415  1
  Sr  Sr15  1  0.69435306  0.49880395  0.63184568  1
  Sr  Sr16  1  0.68062300  0.82978511  0.09981646  1
  Sr  Sr17  1  0.65318528  0.82731702  0.66269207  1
  Sr  Sr18  1  0.17121946  0.01014858  0.11062272  1
  Sr  Sr19  1  0.13652961  0.00537526  0.68141589  1
  Sr  Sr20  1  0.14362673  0.33371254  0.14418831  1
  Sr  Sr21  1  0.15715462  0.30446130  0.58013208  1
  Sr  Sr22  1  0.16886454  0.67041844  0.08422530  1
  Sr  Sr23  1  0.16497725  0.67326612  0.63575754  1
  Sr  Sr24  1  0.51312214  0.03846658  0.15280090  1
  Sr  Sr25  1  0.50255078  -0.00208972  0.60619990  1
  Sr  Sr26  1  0.49950268  0.32383816  0.12056858  1
  Sr  Sr27  1  0.44250913  0.34792601  0.65965344  1
  Sr  Sr28  1  0.48980214  0.69440731  0.14078693  1
  Sr  Sr29  1  0.49754450  0.66714274  0.61406605  1
  Sr  Sr30  1  0.81904318  0.01794370  0.11720056  1
  Sr  Sr31  1  0.84501911  -0.01391459  0.57863590  1
  Sr  Sr32  1  0.80665036  0.32147150  0.16608221  1
  Sr  Sr33  1  0.83283256  0.31803930  0.62491406  1
  Sr  Sr34  1  0.83657334  0.65566889  0.12171884  1
  Sr  Sr35  1  0.82204034  0.67130879  0.64697204  1
  Sr  Sr36  1  0.05245192  0.16869837  0.35232821  1
  Sr  Sr37  1  -0.00590137  0.16055829  0.88128141  1
  Sr  Sr38  1  0.00324155  0.49905678  0.36305225  1
  Sr  Sr39  1  0.00814981  0.51436293  0.91850344  1
  Sr  Sr40  1  -0.01030236  0.83658024  0.38484933  1
  Sr  Sr41  1  0.01731594  0.81914472  0.82212226  1
  Sr  Sr42  1  0.31879415  0.20459435  0.44162844  1
  Sr  Sr43  1  0.35598395  0.16682798  0.85087010  1
  Sr  Sr44  1  0.34154936  0.49945567  0.33582676  1
  Sr  Sr45  1  0.35068286  0.49240095  0.86924018  1
  Sr  Sr46  1  0.33359968  0.83893785  0.36300483  1
  Sr  Sr47  1  0.32652668  0.82807694  0.91536393  1
  Sr  Sr48  1  0.65127573  0.16124092  0.36262761  1
  Sr  Sr49  1  0.68146966  0.16570431  0.86267056  1
  Sr  Sr50  1  0.65758270  0.49964181  0.42863697  1
  Sr  Sr51  1  0.69560383  0.48700772  0.86646239  1
  Sr  Sr52  1  0.66601719  0.79010992  0.32397336  1
  Sr  Sr53  1  0.67489857  0.83397514  0.87886264  1
  Sr  Sr54  1  0.15988162  -0.01829249  0.32186010  1
  Sr  Sr55  1  0.19033521  0.00697517  0.88537000  1
  Sr  Sr56  1  0.16673781  0.36375259  0.36091802  1
  Sr  Sr57  1  0.11570240  0.34221301  0.91481097  1
  Sr  Sr58  1  0.15593734  0.69180029  0.42739336  1
  Sr  Sr59  1  0.16983435  0.66215421  0.86331117  1
  Sr  Sr60  1  0.49629488  0.01779047  0.39243264  1
  Sr  Sr61  1  0.53281568  -0.00160616  0.81043803  1
  Sr  Sr62  1  0.48380257  0.33970104  0.37093340  1
  Sr  Sr63  1  0.49574008  0.32483366  0.89440206  1
  Sr  Sr64  1  0.49513562  0.66502032  0.37192967  1
  Sr  Sr65  1  0.49583007  0.69944920  0.88585302  1
  Sr  Sr66  1  0.82421247  0.00418656  0.37701685  1
  Sr  Sr67  1  0.82915577  0.01213303  0.91392676  1
  Sr  Sr68  1  0.78620594  0.33074736  0.40029396  1
  Sr  Sr69  1  0.82972689  0.31309067  0.83542769  1
  Sr  Sr70  1  0.83669635  0.66085367  0.35989151  1
  Sr  Sr71  1  0.83097359  0.66948539  0.87672020  1
  Ta  Ta72  1  0.19507593  0.18823958  -0.00505332  1
  Ta  Ta73  1  0.16842951  0.09152060  0.49935172  1
  Ta  Ta74  1  0.20220888  0.49645398  0.00214091  1
  Ta  Ta75  1  0.20559825  0.51310435  0.49747246  1
  Ta  Ta76  1  0.12872770  0.83839316  -0.01019181  1
  Ta  Ta77  1  0.16714093  0.89420569  0.50711929  1
  Ta  Ta78  1  0.51621659  0.11501331  -0.03887414  1
  Ta  Ta79  1  0.51039942  0.19833325  0.52309250  1
  Ta  Ta80  1  0.50252093  0.53680671  0.00279341  1
  Ta  Ta81  1  0.46413846  0.49387265  0.50259194  1
  Ta  Ta82  1  0.50444614  0.89426878  -0.01103626  1
  Ta  Ta83  1  0.54104667  0.82991380  0.49339431  1
  Ta  Ta84  1  0.82786244  0.20153475  0.01318598  1
  Ta  Ta85  1  0.88248666  0.16786048  0.47488042  1
  Ta  Ta86  1  0.83853509  0.44404591  0.00174816  1
  Ta  Ta87  1  0.86185862  0.50323036  0.50745244  1
  Ta  Ta88  1  0.88389831  0.83513701  -0.00996318  1
  Ta  Ta89  1  0.78804428  0.81461894  0.49494751  1
  Ta  Ta90  1  0.23604601  0.16248132  0.24416556  1
  Ta  Ta91  1  0.16339466  0.20727417  0.76921765  1
  Ta  Ta92  1  0.16658791  0.56391655  0.25535728  1
  Ta  Ta93  1  0.14383791  0.47623152  0.75965518  1
  Ta  Ta94  1  0.16685001  0.78212605  0.25199101  1
  Ta  Ta95  1  0.21372476  0.83715160  0.74436985  1
  Ta  Ta96  1  0.42893697  0.17321521  0.28167562  1
  Ta  Ta97  1  0.54093554  0.18912727  0.71882562  1
  Ta  Ta98  1  0.53367447  0.50173718  0.25450602  1
  Ta  Ta99  1  0.52908233  0.50794908  0.75402980  1
  Ta  Ta100  1  0.50641828  0.87104392  0.24748788  1
  Ta  Ta101  1  0.46073006  0.83139374  0.74299886  1
  Ta  Ta102  1  0.86262007  0.16473656  0.26596574  1
  Ta  Ta103  1  0.84062566  0.12718000  0.73129490  1
  Ta  Ta104  1  0.79932179  0.48710546  0.26306658  1
  Ta  Ta105  1  0.89187230  0.48994439  0.74368085  1
  Ta  Ta106  1  0.83167021  0.85966105  0.24349475  1
  Ta  Ta107  1  0.83640337  0.86785765  0.75182786  1
  Ta  Ta108  1  -0.03123607  0.00765223  0.24500817  1
  Ta  Ta109  1  -0.05485762  -0.00262819  0.75075055  1
  Ta  Ta110  1  -0.04039370  0.31875383  0.26893980  1
  Ta  Ta111  1  0.01762325  0.34570074  0.73933118  1
  Ta  Ta112  1  0.03608844  0.67122803  0.25272798  1
  Ta  Ta113  1  -0.00396643  0.62287985  0.74612103  1
  Ta  Ta114  1  0.34574205  0.02847915  0.24732421  1
  Ta  Ta115  1  0.33982137  -0.05237595  0.74214946  1
  Ta  Ta116  1  0.32372938  0.30419404  0.24355110  1
  Ta  Ta117  1  0.25999573  0.33901673  0.76518370  1
  Ta  Ta118  1  0.29579054  0.67283018  0.25261693  1
  Ta  Ta119  1  0.33985203  0.70925265  0.74526635  1
  Ta  Ta120  1  0.66763803  -0.03187207  0.25112948  1
  Ta  Ta121  1  0.72375123  -0.00079155  0.74540521  1
  Ta  Ta122  1  0.64778744  0.37918751  0.25112399  1
  Ta  Ta123  1  0.63047076  0.33216659  0.74435577  1
  Ta  Ta124  1  0.66903007  0.60295725  0.25654296  1
  Ta  Ta125  1  0.63915382  0.64522032  0.75037242  1
  Ta  Ta126  1  0.00497849  -0.03983506  -0.00356911  1
  Ta  Ta127  1  0.02510048  0.01274847  0.48926031  1
  Ta  Ta128  1  -0.05238107  0.32587275  0.01837448  1
  Ta  Ta129  1  -0.02770310  0.32136204  0.48202652  1
  Ta  Ta130  1  0.00061735  0.70742618  -0.00827734  1
  Ta  Ta131  1  -0.02827087  0.64636053  0.51185085  1
  Ta  Ta132  1  0.38385894  0.00957836  -0.01373375  1
  Ta  Ta133  1  0.30021898  -0.00229642  0.49810368  1
  Ta  Ta134  1  0.29464286  0.33731020  -0.00633204  1
  Ta  Ta135  1  0.32316101  0.39755159  0.50587204  1
  Ta  Ta136  1  0.34224246  0.63660708  -0.00134398  1
  Ta  Ta137  1  0.33448770  0.62235088  0.50092539  1
  Ta  Ta138  1  0.64047722  0.00890437  -0.00455351  1
  Ta  Ta139  1  0.66779407  -0.05832376  0.48121929  1
  Ta  Ta140  1  0.69144136  0.32171838  -0.00315830  1
  Ta  Ta141  1  0.61389620  0.32542764  0.53051325  1
  Ta  Ta142  1  0.64649845  0.65086306  0.00466205  1
  Ta  Ta143  1  0.67127812  0.69322874  0.49986570  1
  N  N144  1  0.02410982  0.34302416  0.37066472  1
  N  N145  1  0.65846367  0.33279868  0.87214217  1
  N  N146  1  0.65537083  0.33982317  0.12862486  1
  N  N147  1  0.47743350  0.17733216  0.40551263  1
  N  N148  1  0.00904081  0.67004738  0.62665309  1
  N  N149  1  0.49790916  0.85197889  0.87205237  1
  N  N150  1  0.16748573  0.84743999  0.62228098  1
  N  N151  1  0.68359220  -0.00324870  0.86403054  1
  N  N152  1  0.84215101  0.47686301  0.63368479  1
  N  N153  1  0.16940649  0.52219334  0.37519604  1
  N  N154  1  0.00634809  -0.00344324  0.36523034  1
  N  N155  1  0.66464658  0.00429948  0.37702539  1
  N  N156  1  0.00095924  -0.00291209  0.11850647  1
  N  N157  1  0.00326000  0.66572764  0.87112324  1
  N  N158  1  0.32420185  0.33013857  0.11719113  1
  N  N159  1  0.19299134  0.16424711  0.12472088  1
  N  N160  1  0.51731376  0.15882398  0.83486494  1
  N  N161  1  0.83292069  0.16909023  0.13351201  1
  N  N162  1  0.50115721  0.83648541  0.61115307  1
  N  N163  1  0.49650756  0.50482612  0.38154587  1
  N  N164  1  0.66576334  0.64643083  0.37878993  1
  N  N165  1  0.85195129  0.14901221  0.60632375  1
  N  N166  1  0.00224624  0.32646746  0.61631846  1
  N  N167  1  0.14976567  0.15794311  0.87975976  1
  N  N168  1  0.66269938  0.66244766  0.63003315  1
  N  N169  1  0.17233240  0.83478704  0.87366111  1
  N  N170  1  0.82132655  0.49077628  0.38576596  1
  N  N171  1  -0.01691169  0.33144082  0.13971251  1
  N  N172  1  0.33420117  0.66827317  0.62335150  1
  N  N173  1  0.83763454  0.83107718  0.87427649  1
  N  N174  1  0.16386150  0.50345118  0.88253177  1
  N  N175  1  0.80670222  0.16233441  0.38046349  1
  N  N176  1  0.66483595  0.00009793  0.12335233  1
  O  O177  1  0.19386657  0.13140384  0.37570392  1
  O  O178  1  0.17065369  0.83720094  0.37369813  1
  O  O179  1  0.17521733  0.51360191  0.63786590  1
  O  O180  1  0.36074355  0.01504135  0.11494786  1
  O  O181  1  0.68774447  0.34381879  0.62761326  1
  O  O182  1  0.01385635  0.67930527  0.12343943  1
  O  O183  1  0.63331141  0.34622909  0.39757313  1
  O  O184  1  0.33450976  0.66420008  0.37579697  1
  O  O185  1  0.66819727  0.64564582  0.12906552  1
  O  O186  1  0.49704161  0.85979945  0.12245600  1
  O  O187  1  0.51348455  0.50229670  0.88367819  1
  O  O188  1  -0.01556728  0.00398817  0.87556244  1
  O  O189  1  0.49750096  0.50269842  0.63391236  1
  O  O190  1  0.68859610  -0.01467157  0.60801540  1
  O  O191  1  0.84988425  0.46383480  0.87056083  1
  O  O192  1  0.33304919  -0.00402033  0.37121769  1
  O  O193  1  0.65825490  0.66608917  0.88067534  1
  O  O194  1  0.00686772  0.66354909  0.38667923  1
  O  O195  1  -0.00896220  -0.00243615  0.62754081  1
  O  O196  1  0.17543600  0.51947931  0.12649980  1
  O  O197  1  0.51907431  0.18715767  0.20545966  1
  O  O198  1  0.33863659  0.33953933  0.86313337  1
  O  O199  1  -0.02124617  0.31421973  0.86538764  1
  O  O200  1  0.35018305  -0.00930455  0.61644835  1
  O  O201  1  0.83738786  0.16438469  0.87804260  1
  O  O202  1  0.49672256  0.52753028  0.13056550  1
  O  O203  1  0.48725714  0.84766544  0.37187137  1
  O  O204  1  0.82259696  0.83024576  0.61885073  1
  O  O205  1  0.82608989  0.47560119  0.12587719  1
  O  O206  1  0.83840230  0.84512759  0.11747320  1
  O  O207  1  0.29639536  0.35930813  0.63032597  1
  O  O208  1  0.34953870  -0.00212481  0.86182771  1
  O  O209  1  0.83059048  0.83009728  0.36938368  1
  O  O210  1  0.16334388  0.82037969  0.12688951  1
  O  O211  1  0.16234664  0.15303953  0.64442574  1
  O  O212  1  0.33202453  0.65589841  0.12500916  1
  O  O213  1  0.33997315  0.66392732  0.87379833  1
  O  O214  1  0.44544905  0.19418830  0.63751160  1
  O  O215  1  0.32341768  0.35054411  0.38160787  1
