# generated using pymatgen
data_Sr24Ta24N11O13
_symmetry_space_group_name_H-M   'P 1'
_cell_length_a   16.64253221
_cell_length_b   17.80033574
_cell_length_c   14.89682162
_cell_angle_alpha   91.71855830
_cell_angle_beta   89.84351200
_cell_angle_gamma   90.52076597
_symmetry_Int_Tables_number   1
_chemical_formula_structural   Sr24Ta24N11O13
_chemical_formula_sum   'Sr72 Ta72 N33 O39'
_cell_volume   4410.89352119
_cell_formula_units_Z   3
loop_
 _symmetry_equiv_pos_site_id
 _symmetry_equiv_pos_as_xyz
  1  'x, y, z'
loop_
 _atom_site_type_symbol
 _atom_site_label
 _atom_site_symmetry_multiplicity
 _atom_site_fract_x
 _atom_site_fract_y
 _atom_site_fract_z
 _atom_site_occupancy
  Sr  Sr0  1  -0.01406648  0.17244686  0.09678115  1
  Sr  Sr1  1  0.00605005  0.23019053  0.66242708  1
  Sr  Sr2  1  -0.01230330  0.49751710  0.13037725  1
  Sr  Sr3  1  -0.03421438  0.53544597  0.63284326  1
  Sr  Sr4  1  0.00065723  0.87935918  0.16260068  1
  Sr  Sr5  1  0.00856896  0.81782919  0.61606299  1
  Sr  Sr6  1  0.33136603  0.17060130  0.13711313  1
  Sr  Sr7  1  0.31588551  0.20931196  0.63137299  1
  Sr  Sr8  1  0.33302603  0.54115064  0.17278163  1
  Sr  Sr9  1  0.35314056  0.49462545  0.61760606  1
  Sr  Sr10  1  0.31918884  0.83541653  0.10330965  1
  Sr  Sr11  1  0.34140206  0.85089619  0.63608783  1
  Sr  Sr12  1  0.66970862  0.21200544  0.17497689  1
  Sr  Sr13  1  0.65537635  0.16000164  0.62613532  1
  Sr  Sr14  1  0.64634096  0.50257939  0.10451277  1
  Sr  Sr15  1  0.67380160  0.52728654  0.63517327  1
  Sr  Sr16  1  0.66275322  0.83597881  0.13354861  1
  Sr  Sr17  1  0.64388775  0.86260386  0.63041567  1
  Sr  Sr18  1  0.18107153  -0.01191829  0.15296101  1
  Sr  Sr19  1  0.17161837  -0.05064359  0.60549264  1
  Sr  Sr20  1  0.16799618  0.28251224  0.07229399  1
  Sr  Sr21  1  0.18140238  0.35321207  0.62842333  1
  Sr  Sr22  1  0.17294844  0.66513967  0.11686339  1
  Sr  Sr23  1  0.20081763  0.63025467  0.61212789  1
  Sr  Sr24  1  0.49941462  -0.04396214  0.08743293  1
  Sr  Sr25  1  0.49775624  -0.00732100  0.63070424  1
  Sr  Sr26  1  0.50195718  0.33189456  0.11646303  1
  Sr  Sr27  1  0.52610447  0.30750522  0.61374453  1
  Sr  Sr28  1  0.51722016  0.65819360  0.14539808  1
  Sr  Sr29  1  0.50154019  0.64631004  0.61238744  1
  Sr  Sr30  1  0.83718267  -0.00583054  0.11375453  1
  Sr  Sr31  1  0.86154749  -0.04878072  0.63603641  1
  Sr  Sr32  1  0.84799375  0.32377996  0.14456449  1
  Sr  Sr33  1  0.82132530  0.31470809  0.61243985  1
  Sr  Sr34  1  0.82738500  0.61935622  0.07104397  1
  Sr  Sr35  1  0.82434347  0.67603486  0.62789394  1
  Sr  Sr36  1  -0.00204618  0.19676295  0.41391734  1
  Sr  Sr37  1  -0.00169311  0.16948848  0.88199900  1
  Sr  Sr38  1  -0.01378569  0.50393166  0.34293535  1
  Sr  Sr39  1  0.00029537  0.55280889  0.92322373  1
  Sr  Sr40  1  -0.00659474  0.83422821  0.38922444  1
  Sr  Sr41  1  -0.01293744  0.84790381  0.84714613  1
  Sr  Sr42  1  0.31279339  0.17422846  0.35522717  1
  Sr  Sr43  1  0.32937316  0.21032053  0.91353151  1
  Sr  Sr44  1  0.31707723  0.49255050  0.39155423  1
  Sr  Sr45  1  0.31258635  0.50881549  0.85267749  1
  Sr  Sr46  1  0.33166603  0.88256522  0.40681566  1
  Sr  Sr47  1  0.33186023  0.84951274  0.88084565  1
  Sr  Sr48  1  0.66516887  0.16572848  0.39839515  1
  Sr  Sr49  1  0.65215112  0.17918229  0.85487867  1
  Sr  Sr50  1  0.66858491  0.54629832  0.39861162  1
  Sr  Sr51  1  0.66311861  0.50832702  0.88908368  1
  Sr  Sr52  1  0.65773135  0.84964271  0.34815709  1
  Sr  Sr53  1  0.66314870  0.88606326  0.91951864  1
  Sr  Sr54  1  0.16358801  0.00318000  0.37807573  1
  Sr  Sr55  1  0.17249868  -0.04046226  0.83655882  1
  Sr  Sr56  1  0.17872337  0.31586489  0.39885066  1
  Sr  Sr57  1  0.17088098  0.32484693  0.84933928  1
  Sr  Sr58  1  0.16947710  0.61397280  0.32882306  1
  Sr  Sr59  1  0.18506521  0.65913476  0.90500430  1
  Sr  Sr60  1  0.51985702  -0.01227483  0.40125470  1
  Sr  Sr61  1  0.50306962  0.00216939  0.86217531  1
  Sr  Sr62  1  0.50106242  0.28097799  0.32631680  1
  Sr  Sr63  1  0.51080143  0.32345343  0.90270365  1
  Sr  Sr64  1  0.50881872  0.65982507  0.36199331  1
  Sr  Sr65  1  0.50131132  0.62117983  0.85034718  1
  Sr  Sr66  1  0.84238008  -0.03617680  0.34806655  1
  Sr  Sr67  1  0.85226221  -0.00921597  0.89600791  1
  Sr  Sr68  1  0.83301868  0.30530427  0.36918570  1
  Sr  Sr69  1  0.83440148  0.28427772  0.84307571  1
  Sr  Sr70  1  0.85105806  0.65541702  0.39238392  1
  Sr  Sr71  1  0.84635683  0.66436033  0.85268045  1
  Ta  Ta72  1  0.17069222  0.10900301  -0.01657818  1
  Ta  Ta73  1  0.15801849  0.13903903  0.54183330  1
  Ta  Ta74  1  0.16668208  0.46676119  0.01726054  1
  Ta  Ta75  1  0.11844473  0.49073835  0.49266819  1
  Ta  Ta76  1  0.13176179  0.83792963  0.00550424  1
  Ta  Ta77  1  0.17827301  0.77430015  0.47199409  1
  Ta  Ta78  1  0.51190962  0.14230299  0.03248835  1
  Ta  Ta79  1  0.46434711  0.15574832  0.49176102  1
  Ta  Ta80  1  0.45830649  0.50087424  0.01422489  1
  Ta  Ta81  1  0.51026246  0.44664573  0.46984806  1
  Ta  Ta82  1  0.50296394  0.78032136  -0.01498167  1
  Ta  Ta83  1  0.49681289  0.80331540  0.49789670  1
  Ta  Ta84  1  0.79638682  0.16293855  0.00364884  1
  Ta  Ta85  1  0.83897200  0.11014727  0.52567042  1
  Ta  Ta86  1  0.83873577  0.44093429  -0.02605095  1
  Ta  Ta87  1  0.83256999  0.46640871  0.49522213  1
  Ta  Ta88  1  0.84238238  0.80287162  0.01844103  1
  Ta  Ta89  1  0.79766905  0.82372853  0.49434592  1
  Ta  Ta90  1  0.13154301  0.16661854  0.24625978  1
  Ta  Ta91  1  0.17036174  0.13442504  0.75652947  1
  Ta  Ta92  1  0.16407405  0.43539283  0.21891897  1
  Ta  Ta93  1  0.12340643  0.51001468  0.76766980  1
  Ta  Ta94  1  0.17476453  0.80301248  0.26721843  1
  Ta  Ta95  1  0.17464184  0.78077550  0.75081620  1
  Ta  Ta96  1  0.51110429  0.10459356  0.23396605  1
  Ta  Ta97  1  0.46479903  0.16701160  0.75974084  1
  Ta  Ta98  1  0.50433796  0.46796314  0.27125579  1
  Ta  Ta99  1  0.51009485  0.45305445  0.74812219  1
  Ta  Ta100  1  0.46463790  0.83396676  0.24947603  1
  Ta  Ta101  1  0.50276812  0.79686946  0.76614532  1
  Ta  Ta102  1  0.84322203  0.13564065  0.25839698  1
  Ta  Ta103  1  0.83843442  0.11383604  0.73996746  1
  Ta  Ta104  1  0.79903161  0.50009489  0.23578177  1
  Ta  Ta105  1  0.82825249  0.45986017  0.77504434  1
  Ta  Ta106  1  0.84192777  0.77697904  0.22426180  1
  Ta  Ta107  1  0.78374999  0.82903856  0.77288518  1
  Ta  Ta108  1  -0.00063244  0.05540351  0.25750666  1
  Ta  Ta109  1  0.01466587  0.03710321  0.73087561  1
  Ta  Ta110  1  0.03613614  0.32280409  0.23750434  1
  Ta  Ta111  1  -0.01441368  0.40046007  0.77990980  1
  Ta  Ta112  1  -0.01046962  0.69379137  0.21724350  1
  Ta  Ta113  1  0.04656058  0.67386511  0.75586459  1
  Ta  Ta114  1  0.36937556  0.00370950  0.25429771  1
  Ta  Ta115  1  0.32683859  0.05500595  0.73617090  1
  Ta  Ta116  1  0.31627532  0.35568484  0.22605807  1
  Ta  Ta117  1  0.37534987  0.34505738  0.75403955  1
  Ta  Ta118  1  0.33119384  0.72035886  0.27269535  1
  Ta  Ta119  1  0.33968877  0.69515995  0.74834706  1
  Ta  Ta120  1  0.66617342  0.02955849  0.23819909  1
  Ta  Ta121  1  0.69978722  0.01045539  0.75766685  1
  Ta  Ta122  1  0.66498320  0.38676732  0.26685349  1
  Ta  Ta123  1  0.66751853  0.36634644  0.75329134  1
  Ta  Ta124  1  0.70794237  0.66788834  0.23866924  1
  Ta  Ta125  1  0.65727992  0.71998939  0.77059546  1
  Ta  Ta126  1  0.04008313  -0.00112126  -0.01111140  1
  Ta  Ta127  1  0.00170267  0.04264236  0.53179297  1
  Ta  Ta128  1  -0.00321356  0.36038982  -0.02908895  1
  Ta  Ta129  1  -0.00608084  0.37901816  0.50187765  1
  Ta  Ta130  1  -0.00511048  0.72868026  0.02401007  1
  Ta  Ta131  1  0.04379619  0.66000256  0.48088490  1
  Ta  Ta132  1  0.32224634  0.02585120  -0.01254124  1
  Ta  Ta133  1  0.32711479  0.05337768  0.51481022  1
  Ta  Ta134  1  0.32545293  0.38847304  0.01554456  1
  Ta  Ta135  1  0.37414324  0.33128418  0.48480142  1
  Ta  Ta136  1  0.36816029  0.66223677  0.01102999  1
  Ta  Ta137  1  0.33643725  0.70623385  0.47099050  1
  Ta  Ta138  1  0.66179909  0.05949652  0.02185504  1
  Ta  Ta139  1  0.71098441  0.00011625  0.50001795  1
  Ta  Ta140  1  0.70026146  0.32957666  0.00513536  1
  Ta  Ta141  1  0.66505132  0.37055939  0.46907325  1
  Ta  Ta142  1  0.66164087  0.70424049  -0.02957753  1
  Ta  Ta143  1  0.66602911  0.71863462  0.49601786  1
  N  N144  1  0.66605686  0.02545157  0.88261654  1
  N  N145  1  0.34540987  0.34879479  0.61478981  1
  N  N146  1  0.49500530  0.82211324  0.63992648  1
  N  N147  1  0.33330801  0.35317384  0.87854590  1
  N  N148  1  0.01041438  -0.00036778  0.86105665  1
  N  N149  1  0.68157700  0.00440474  0.36695285  1
  N  N150  1  0.15811302  0.50940931  0.89969765  1
  N  N151  1  0.50312851  0.14319582  0.37023818  1
  N  N152  1  0.49039697  0.49754207  0.14724051  1
  N  N153  1  0.50177976  0.19200609  0.15188333  1
  N  N154  1  0.66442447  0.32794705  0.87373239  1
  N  N155  1  0.16008415  0.14596414  0.12140226  1
  N  N156  1  0.33526372  -0.00680237  0.62432318  1
  N  N157  1  0.16987313  0.81582727  0.88049198  1
  N  N158  1  0.33853166  0.68251929  0.13680463  1
  N  N159  1  0.82722214  0.85714400  0.13895840  1
  N  N160  1  0.83290135  0.14300349  0.87037532  1
  N  N161  1  0.16540320  0.17892585  0.88063051  1
  N  N162  1  0.50467205  0.84095377  0.37391215  1
  N  N163  1  0.83304112  0.16438934  0.13606384  1
  N  N164  1  0.00127752  0.30906107  0.85274679  1
  N  N165  1  0.33241717  0.33034238  0.35336806  1
  N  N166  1  0.82765350  0.47966862  0.10922702  1
  N  N167  1  0.67181065  0.30540177  0.35710021  1
  N  N168  1  0.83031757  0.84258631  0.89458160  1
  N  N169  1  0.32568821  0.02242625  0.37340490  1
  N  N170  1  0.49769771  0.81218065  0.11120588  1
  N  N171  1  0.16451462  0.82897634  0.14354181  1
  N  N172  1  0.01835046  -0.03449674  0.62518864  1
  N  N173  1  0.15863931  0.20578090  0.64665983  1
  N  N174  1  0.67132799  0.68703036  0.36060453  1
  N  N175  1  0.66729887  0.35167330  0.13502901  1
  N  N176  1  0.33258781  0.30632394  0.09832480  1
  O  O177  1  0.00711198  0.69035604  0.88376061  1
  O  O178  1  0.82486138  0.46656117  0.63162128  1
  O  O179  1  0.17336668  0.79759005  0.60587974  1
  O  O180  1  0.69011638  0.64005532  0.85722371  1
  O  O181  1  0.34144947  0.66018549  0.87266350  1
  O  O182  1  -0.00202553  0.63240188  0.09783128  1
  O  O183  1  0.49029878  0.86194266  0.88643861  1
  O  O184  1  0.80806687  0.82026286  0.63233101  1
  O  O185  1  0.14310049  0.52636713  0.14133281  1
  O  O186  1  0.46977084  0.52710448  0.38963808  1
  O  O187  1  0.34067364  -0.00384666  0.85945438  1
  O  O188  1  0.65372514  0.01078085  0.62194559  1
  O  O189  1  0.00883058  0.31856271  0.10450426  1
  O  O190  1  -0.01036347  0.37426745  0.63617388  1
  O  O191  1  0.14290931  0.86200411  0.38358928  1
  O  O192  1  0.00606078  0.04124237  0.39000624  1
  O  O193  1  0.01013043  0.66450866  0.35090849  1
  O  O194  1  0.83418994  0.50421488  0.37242237  1
  O  O195  1  0.80657677  0.18109741  0.63825215  1
  O  O196  1  0.00910596  0.34216647  0.36663651  1
  O  O197  1  0.49756028  0.16435756  0.63087817  1
  O  O198  1  0.15139620  0.16914002  0.40272163  1
  O  O199  1  0.34287282  0.69443092  0.61182460  1
  O  O200  1  0.82096893  0.53106689  0.89620065  1
  O  O201  1  0.84135078  0.15570293  0.40329250  1
  O  O202  1  0.67566743  -0.02600238  0.10812871  1
  O  O203  1  0.67163252  0.35763782  0.60763997  1
  O  O204  1  0.14686232  0.47487934  0.35877002  1
  O  O205  1  0.50504000  0.48062216  0.88715447  1
  O  O206  1  0.32980162  0.63319351  0.36036345  1
  O  O207  1  0.66329177  0.68553730  0.62803199  1
  O  O208  1  0.00088163  0.02330107  0.12264090  1
  O  O209  1  0.83437696  0.81761010  0.36369978  1
  O  O210  1  0.66927890  0.68435752  0.10551552  1
  O  O211  1  0.04135580  0.66610913  0.61369800  1
  O  O212  1  0.12953682  0.49940842  0.62607999  1
  O  O213  1  0.33152765  0.01518499  0.11997259  1
  O  O214  1  0.51079201  0.46628541  0.61358777  1
  O  O215  1  0.48724244  0.16465885  0.89285773  1
