# generated using pymatgen
data_Sr24Ta24N11O13
_symmetry_space_group_name_H-M   'P 1'
_cell_length_a   16.66080091
_cell_length_b   16.94250604
_cell_length_c   15.67454638
_cell_angle_alpha   90.15379012
_cell_angle_beta   90.13425060
_cell_angle_gamma   90.21107937
_symmetry_Int_Tables_number   1
_chemical_formula_structural   Sr24Ta24N11O13
_chemical_formula_sum   'Sr72 Ta72 N33 O39'
_cell_volume   4424.48565339
_cell_formula_units_Z   3
loop_
 _symmetry_equiv_pos_site_id
 _symmetry_equiv_pos_as_xyz
  1  'x, y, z'
loop_
 _atom_site_type_symbol
 _atom_site_label
 _atom_site_symmetry_multiplicity
 _atom_site_fract_x
 _atom_site_fract_y
 _atom_site_fract_z
 _atom_site_occupancy
  Sr  Sr0  1  0.00246776  0.17976130  0.10000439  1
  Sr  Sr1  1  -0.00206099  0.16324303  0.59878109  1
  Sr  Sr2  1  -0.00667376  0.49446489  0.17085613  1
  Sr  Sr3  1  0.01042646  0.51391424  0.61016606  1
  Sr  Sr4  1  -0.00687481  0.83079679  0.11136620  1
  Sr  Sr5  1  0.01064744  0.84998931  0.66697394  1
  Sr  Sr6  1  0.32598614  0.17475097  0.16405138  1
  Sr  Sr7  1  0.33804338  0.19682436  0.61602607  1
  Sr  Sr8  1  0.32328414  0.49448816  0.10446359  1
  Sr  Sr9  1  0.33564998  0.53673714  0.65638857  1
  Sr  Sr10  1  0.31680764  0.88294314  0.11387262  1
  Sr  Sr11  1  0.32029926  0.84415375  0.59700454  1
  Sr  Sr12  1  0.66842958  0.17676651  0.12131167  1
  Sr  Sr13  1  0.67941354  0.19573552  0.64949984  1
  Sr  Sr14  1  0.66860932  0.51881009  0.10261977  1
  Sr  Sr15  1  0.65729303  0.51395717  0.60822881  1
  Sr  Sr16  1  0.65248247  0.84614728  0.15428478  1
  Sr  Sr17  1  0.68272794  0.84676774  0.61451658  1
  Sr  Sr18  1  0.14225783  -0.00666598  0.10970452  1
  Sr  Sr19  1  0.17985845  -0.01154048  0.64622202  1
  Sr  Sr20  1  0.17302372  0.32163704  0.10669704  1
  Sr  Sr21  1  0.15870261  0.31406928  0.61066355  1
  Sr  Sr22  1  0.16150076  0.62628774  0.14707604  1
  Sr  Sr23  1  0.16699116  0.66710533  0.62098159  1
  Sr  Sr24  1  0.51828102  0.00206024  0.10322639  1
  Sr  Sr25  1  0.50680798  -0.03834003  0.60470047  1
  Sr  Sr26  1  0.50139879  0.30087121  0.15748557  1
  Sr  Sr27  1  0.51525939  0.32902040  0.60605004  1
  Sr  Sr28  1  0.49903545  0.63248476  0.12130160  1
  Sr  Sr29  1  0.50903485  0.65779961  0.66398768  1
  Sr  Sr30  1  0.81960556  -0.02180493  0.16989474  1
  Sr  Sr31  1  0.83183331  0.00335901  0.61505713  1
  Sr  Sr32  1  0.82634134  0.32783273  0.11399672  1
  Sr  Sr33  1  0.83889142  0.34153639  0.66460660  1
  Sr  Sr34  1  0.83808188  0.66316931  0.10694582  1
  Sr  Sr35  1  0.82587130  0.66241027  0.59153376  1
  Sr  Sr36  1  -0.00054688  0.16787970  0.39675496  1
  Sr  Sr37  1  0.00866882  0.17268375  0.90825421  1
  Sr  Sr38  1  0.00687157  0.50144378  0.38312961  1
  Sr  Sr39  1  -0.00446483  0.48823192  0.82976456  1
  Sr  Sr40  1  0.00416170  0.86280356  0.33269006  1
  Sr  Sr41  1  0.00657634  0.82165955  0.88695635  1
  Sr  Sr42  1  0.33545286  0.19047670  0.37907044  1
  Sr  Sr43  1  0.32410358  0.17169320  0.82950625  1
  Sr  Sr44  1  0.33400412  0.54110520  0.33673042  1
  Sr  Sr45  1  0.32326686  0.51740246  0.88970958  1
  Sr  Sr46  1  0.31767510  0.83946376  0.38698890  1
  Sr  Sr47  1  0.32469782  0.86410486  0.90417500  1
  Sr  Sr48  1  0.67679316  0.19926232  0.35078308  1
  Sr  Sr49  1  0.67307297  0.16817764  0.87975358  1
  Sr  Sr50  1  0.65676673  0.51460464  0.39343930  1
  Sr  Sr51  1  0.67200238  0.52210219  0.89159677  1
  Sr  Sr52  1  0.68535121  0.84434079  0.38448571  1
  Sr  Sr53  1  0.65171434  0.84199923  0.84990595  1
  Sr  Sr54  1  0.18476358  -0.01503144  0.34311010  1
  Sr  Sr55  1  0.16371157  -0.00672053  0.88080559  1
  Sr  Sr56  1  0.16035794  0.31443353  0.39962012  1
  Sr  Sr57  1  0.17327984  0.32161301  0.88728742  1
  Sr  Sr58  1  0.16646438  0.65786467  0.38243932  1
  Sr  Sr59  1  0.15574320  0.64354078  0.85311182  1
  Sr  Sr60  1  0.50826578  -0.04393982  0.39596401  1
  Sr  Sr61  1  0.51100301  -0.01281451  0.89916909  1
  Sr  Sr62  1  0.51322283  0.33286021  0.39338610  1
  Sr  Sr63  1  0.50152691  0.29624201  0.83987472  1
  Sr  Sr64  1  0.50675481  0.65772765  0.33474530  1
  Sr  Sr65  1  0.49484285  0.64473798  0.88185451  1
  Sr  Sr66  1  0.83367823  0.01084382  0.38967802  1
  Sr  Sr67  1  0.82426645  -0.01857008  0.82969904  1
  Sr  Sr68  1  0.84090086  0.33710714  0.33165372  1
  Sr  Sr69  1  0.82988828  0.32090165  0.88599235  1
  Sr  Sr70  1  0.83611196  0.65103240  0.39458106  1
  Sr  Sr71  1  0.83479394  0.67112697  0.90292281  1
  Ta  Ta72  1  0.20840473  0.15814183  -0.00169358  1
  Ta  Ta73  1  0.17666939  0.11975570  0.49787024  1
  Ta  Ta74  1  0.11122604  0.49193167  -0.00030998  1
  Ta  Ta75  1  0.20606721  0.49028381  0.49547672  1
  Ta  Ta76  1  0.17232360  0.77849480  0.01510142  1
  Ta  Ta77  1  0.12818197  0.83880512  0.49509118  1
  Ta  Ta78  1  0.46715633  0.17258923  -0.00214153  1
  Ta  Ta79  1  0.50614473  0.13313938  0.49757619  1
  Ta  Ta80  1  0.49176581  0.43591127  -0.00453923  1
  Ta  Ta81  1  0.47164707  0.52403214  0.49964613  1
  Ta  Ta82  1  0.48981063  0.80018303  0.01529477  1
  Ta  Ta83  1  0.49205471  0.78252777  0.49761165  1
  Ta  Ta84  1  0.82952404  0.11930590  -0.00116373  1
  Ta  Ta85  1  0.82101986  0.19935131  0.49579183  1
  Ta  Ta86  1  0.88623843  0.49581204  -0.00136434  1
  Ta  Ta87  1  0.83440181  0.46299071  0.49496120  1
  Ta  Ta88  1  0.80866978  0.85176955  -0.00069638  1
  Ta  Ta89  1  0.88976864  0.83706958  0.50396996  1
  Ta  Ta90  1  0.13686643  0.16296443  0.24377083  1
  Ta  Ta91  1  0.13107733  0.15947631  0.75393755  1
  Ta  Ta92  1  0.17631226  0.44679307  0.25851781  1
  Ta  Ta93  1  0.17582944  0.45874774  0.74636058  1
  Ta  Ta94  1  0.16924555  0.80069422  0.23998390  1
  Ta  Ta95  1  0.19121916  0.81915540  0.75269931  1
  Ta  Ta96  1  0.50432059  0.12368801  0.26725690  1
  Ta  Ta97  1  0.50188682  0.11605319  0.73875146  1
  Ta  Ta98  1  0.50080347  0.46958489  0.25198428  1
  Ta  Ta99  1  0.50229434  0.46949913  0.74808532  1
  Ta  Ta100  1  0.46510617  0.83071264  0.23589069  1
  Ta  Ta101  1  0.46193141  0.83386597  0.75593302  1
  Ta  Ta102  1  0.86549052  0.15955113  0.24774429  1
  Ta  Ta103  1  0.87443864  0.16009645  0.75709688  1
  Ta  Ta104  1  0.80568354  0.51455811  0.25100998  1
  Ta  Ta105  1  0.81768070  0.52972398  0.74795787  1
  Ta  Ta106  1  0.83656996  0.79230008  0.25503186  1
  Ta  Ta107  1  0.83335412  0.79432592  0.74257887  1
  Ta  Ta108  1  -0.00426487  0.04316590  0.24135600  1
  Ta  Ta109  1  0.00198632  0.04090727  0.75730605  1
  Ta  Ta110  1  0.02277052  0.30935461  0.25068182  1
  Ta  Ta111  1  0.01427532  0.29929118  0.75554106  1
  Ta  Ta112  1  -0.01480083  0.68353269  0.25019826  1
  Ta  Ta113  1  -0.03759521  0.66908040  0.74692197  1
  Ta  Ta114  1  0.38161583  0.00757739  0.25913228  1
  Ta  Ta115  1  0.36719390  -0.00875089  0.75182205  1
  Ta  Ta116  1  0.33011595  0.36023470  0.25540472  1
  Ta  Ta117  1  0.33032729  0.36502950  0.74620795  1
  Ta  Ta118  1  0.32918736  0.71619481  0.22401512  1
  Ta  Ta119  1  0.33249844  0.71629782  0.75672530  1
  Ta  Ta120  1  0.64174808  0.02589279  0.26880372  1
  Ta  Ta121  1  0.64039810  0.02013931  0.74149711  1
  Ta  Ta122  1  0.66395526  0.38180810  0.24814988  1
  Ta  Ta123  1  0.66284721  0.38099225  0.74924931  1
  Ta  Ta124  1  0.69779115  0.66888950  0.25262741  1
  Ta  Ta125  1  0.70123176  0.66995550  0.74537988  1
  Ta  Ta126  1  -0.05914940  -0.00539419  0.00248295  1
  Ta  Ta127  1  0.02433994  -0.01626323  0.49975637  1
  Ta  Ta128  1  -0.00295267  0.36978245  0.00167994  1
  Ta  Ta129  1  -0.04549491  0.33737885  0.49701053  1
  Ta  Ta130  1  0.01416620  0.63039639  -0.00177172  1
  Ta  Ta131  1  0.00446966  0.71135030  0.50353702  1
  Ta  Ta132  1  0.34020121  0.05347501  -0.00309357  1
  Ta  Ta133  1  0.33816608  0.03327141  0.49620963  1
  Ta  Ta134  1  0.35991436  0.30431767  -0.00184962  1
  Ta  Ta135  1  0.33893174  0.39876914  0.49554866  1
  Ta  Ta136  1  0.32797783  0.69825888  0.02089704  1
  Ta  Ta137  1  0.36390879  0.66950031  0.50413240  1
  Ta  Ta138  1  0.70758866  -0.00774407  -0.00691116  1
  Ta  Ta139  1  0.65913845  0.05646061  0.49985668  1
  Ta  Ta140  1  0.63174332  0.34416664  0.00216889  1
  Ta  Ta141  1  0.71205877  0.34154798  0.49710558  1
  Ta  Ta142  1  0.65596902  0.71388409  0.00676841  1
  Ta  Ta143  1  0.62773421  0.68410056  0.49830737  1
  N  N144  1  -0.01762662  -0.00057541  0.12169162  1
  N  N145  1  0.84402466  0.83443794  0.62084832  1
  N  N146  1  0.49624845  0.50082243  0.37119731  1
  N  N147  1  -0.00035494  0.33410598  0.13105435  1
  N  N148  1  0.66571623  0.68002235  0.12343434  1
  N  N149  1  0.49694110  0.49976500  0.62844571  1
  N  N150  1  0.66443769  0.34108323  0.12400313  1
  N  N151  1  0.67364223  0.35077799  0.37529009  1
  N  N152  1  -0.00294993  0.33038486  0.38163614  1
  N  N153  1  0.67696953  0.35388474  0.62993786  1
  N  N154  1  0.15017585  0.83685662  0.11800494  1
  N  N155  1  0.34112840  0.01337053  0.87153394  1
  N  N156  1  0.34259383  -0.00646826  0.37882099  1
  N  N157  1  0.17107381  0.16213352  0.87367687  1
  N  N158  1  0.66768698  0.67609554  0.62619498  1
  N  N159  1  0.33974571  0.68492176  0.62677842  1
  N  N160  1  0.67180333  0.00032533  0.87273806  1
  N  N161  1  0.66522510  0.67576469  0.37695306  1
  N  N162  1  0.15821630  0.82788589  0.37017993  1
  N  N163  1  0.00034081  0.32709268  0.87425229  1
  N  N164  1  -0.00431484  0.65875269  0.87403961  1
  N  N165  1  0.00119722  0.67218824  0.62473064  1
  N  N166  1  0.16702657  0.83031730  0.63082939  1
  N  N167  1  0.83579521  0.15756200  0.87791820  1
  N  N168  1  0.83662227  0.17322739  0.37211508  1
  N  N169  1  0.83259329  0.49904327  0.37071647  1
  N  N170  1  0.49504919  0.86072740  0.11778972  1
  N  N171  1  -0.00355633  0.66030937  0.13072619  1
  N  N172  1  0.67674559  0.00196530  0.38430726  1
  N  N173  1  0.67480973  0.01262046  0.61883997  1
  N  N174  1  0.16597246  0.16362485  0.12368292  1
  N  N175  1  0.16634692  0.49227363  0.37390260  1
  N  N176  1  0.33694011  0.63966451  0.13094987  1
  O  O177  1  -0.00764189  0.00087072  0.87851892  1
  O  O178  1  0.01429364  0.00373319  0.62683709  1
  O  O179  1  0.48913812  0.15092475  0.86988927  1
  O  O180  1  0.66886841  0.00140454  0.13819259  1
  O  O181  1  0.48493532  0.47359047  0.11592727  1
  O  O182  1  0.49144693  0.15642129  0.12676918  1
  O  O183  1  0.84134925  0.17697823  0.63193195  1
  O  O184  1  0.34026477  -0.00275837  0.62078190  1
  O  O185  1  0.33590649  0.68697307  0.35741885  1
  O  O186  1  0.48074011  0.83387524  0.88523313  1
  O  O187  1  0.82380299  0.82629211  0.12474211  1
  O  O188  1  0.83888087  0.51418099  0.87507305  1
  O  O189  1  0.15335344  0.47912781  0.87041641  1
  O  O190  1  -0.00340071  0.31767295  0.62096546  1
  O  O191  1  0.16737467  0.81365131  0.88723200  1
  O  O192  1  0.49333173  0.18158316  0.38195970  1
  O  O193  1  0.00855598  0.00762170  0.37389395  1
  O  O194  1  0.35815467  0.02396882  0.12829403  1
  O  O195  1  0.48129671  0.48781216  0.88124849  1
  O  O196  1  0.84471336  0.81883637  0.38111601  1
  O  O197  1  0.48464503  0.80893132  0.36402560  1
  O  O198  1  0.49342217  0.17251242  0.62563014  1
  O  O199  1  0.34012143  0.32999505  0.13094570  1
  O  O200  1  0.67371092  0.35875079  0.88112367  1
  O  O201  1  0.81940556  0.83128980  0.87183370  1
  O  O202  1  0.16950553  0.14245506  0.37359410  1
  O  O203  1  0.33903387  0.67055379  0.87754169  1
  O  O204  1  0.16560291  0.47197811  0.61973982  1
  O  O205  1  0.67314127  0.68157652  0.87893345  1
  O  O206  1  0.34640231  0.34766921  0.38348303  1
  O  O207  1  0.00264371  0.66093359  0.38335007  1
  O  O208  1  0.84282771  0.50526764  0.11984760  1
  O  O209  1  0.34125095  0.35702529  0.62045982  1
  O  O210  1  0.16275212  0.14372566  0.62291566  1
  O  O211  1  0.82800843  0.16846381  0.12413883  1
  O  O212  1  0.48412665  0.81410668  0.63119147  1
  O  O213  1  0.14864013  0.47721492  0.13307350  1
  O  O214  1  0.82657925  0.50620925  0.62341141  1
  O  O215  1  0.33989156  0.32894546  0.86703282  1
