# generated using pymatgen
data_Sr24Ta24N11O13
_symmetry_space_group_name_H-M   'P 1'
_cell_length_a   16.79202800
_cell_length_b   16.78983948
_cell_length_c   15.73276824
_cell_angle_alpha   89.75200810
_cell_angle_beta   90.03466688
_cell_angle_gamma   90.06381136
_symmetry_Int_Tables_number   1
_chemical_formula_structural   Sr24Ta24N11O13
_chemical_formula_sum   'Sr72 Ta72 N33 O39'
_cell_volume   4435.58006931
_cell_formula_units_Z   3
loop_
 _symmetry_equiv_pos_site_id
 _symmetry_equiv_pos_as_xyz
  1  'x, y, z'
loop_
 _atom_site_type_symbol
 _atom_site_label
 _atom_site_symmetry_multiplicity
 _atom_site_fract_x
 _atom_site_fract_y
 _atom_site_fract_z
 _atom_site_occupancy
  Sr  Sr0  1  0.01350787  0.17908491  0.07870394  1
  Sr  Sr1  1  -0.00805497  0.17109897  0.63411882  1
  Sr  Sr2  1  0.01255291  0.50194039  0.15987108  1
  Sr  Sr3  1  -0.00526527  0.51116587  0.60826314  1
  Sr  Sr4  1  -0.01773880  0.85011505  0.12826269  1
  Sr  Sr5  1  -0.00999775  0.84239532  0.63306264  1
  Sr  Sr6  1  0.32459975  0.17621173  0.16158919  1
  Sr  Sr7  1  0.33399133  0.16651281  0.64713454  1
  Sr  Sr8  1  0.34087356  0.48207156  0.08060987  1
  Sr  Sr9  1  0.33593903  0.50648974  0.61813018  1
  Sr  Sr10  1  0.33256735  0.83208873  0.12958198  1
  Sr  Sr11  1  0.30542713  0.84642870  0.60977588  1
  Sr  Sr12  1  0.66393119  0.16545311  0.13302019  1
  Sr  Sr13  1  0.64575685  0.18324180  0.57966832  1
  Sr  Sr14  1  0.67395709  0.50838818  0.12271282  1
  Sr  Sr15  1  0.66098335  0.48971353  0.66752157  1
  Sr  Sr16  1  0.65621478  0.84374157  0.11850128  1
  Sr  Sr17  1  0.65132397  0.83947020  0.63021982  1
  Sr  Sr18  1  0.17721147  -0.01027482  0.14009424  1
  Sr  Sr19  1  0.14863004  -0.00569864  0.58298244  1
  Sr  Sr20  1  0.16975931  0.33108374  0.12185051  1
  Sr  Sr21  1  0.18150189  0.29523046  0.67102055  1
  Sr  Sr22  1  0.20097183  0.65482664  0.11287785  1
  Sr  Sr23  1  0.17164857  0.65961600  0.63366396  1
  Sr  Sr24  1  0.50471737  -0.01448276  0.08252287  1
  Sr  Sr25  1  0.48970888  -0.00173379  0.63569775  1
  Sr  Sr26  1  0.51426729  0.33744391  0.12626731  1
  Sr  Sr27  1  0.49618451  0.33746757  0.61392334  1
  Sr  Sr28  1  0.51218054  0.67870125  0.16197539  1
  Sr  Sr29  1  0.52567667  0.66283531  0.62627221  1
  Sr  Sr30  1  0.80891106  0.00107612  0.15230634  1
  Sr  Sr31  1  0.83160045  -0.00356664  0.65343150  1
  Sr  Sr32  1  0.85116757  0.30515197  0.09158214  1
  Sr  Sr33  1  0.83653442  0.33722714  0.63312369  1
  Sr  Sr34  1  0.84970486  0.64589303  0.13247884  1
  Sr  Sr35  1  0.83924743  0.68921954  0.57535684  1
  Sr  Sr36  1  0.00153527  0.17010677  0.40755024  1
  Sr  Sr37  1  -0.01264786  0.17553415  0.86257723  1
  Sr  Sr38  1  0.00773061  0.49046204  0.38086794  1
  Sr  Sr39  1  -0.00199943  0.51893971  0.85386702  1
  Sr  Sr40  1  -0.01554759  0.85406397  0.36104191  1
  Sr  Sr41  1  -0.01352755  0.83409217  0.87568703  1
  Sr  Sr42  1  0.31747500  0.17498951  0.35763953  1
  Sr  Sr43  1  0.33489106  0.17076616  0.84366367  1
  Sr  Sr44  1  0.35512885  0.48966916  0.41435008  1
  Sr  Sr45  1  0.32158823  0.50976319  0.88120450  1
  Sr  Sr46  1  0.31913949  0.83913990  0.36447662  1
  Sr  Sr47  1  0.31481301  0.84270488  0.89806643  1
  Sr  Sr48  1  0.66775875  0.16934335  0.36748008  1
  Sr  Sr49  1  0.64224413  0.17670895  0.91329190  1
  Sr  Sr50  1  0.65953519  0.50308346  0.33206363  1
  Sr  Sr51  1  0.67420790  0.50372636  0.87707983  1
  Sr  Sr52  1  0.65278439  0.82439752  0.40147205  1
  Sr  Sr53  1  0.65213342  0.84968551  0.85786275  1
  Sr  Sr54  1  0.16250003  -0.00615868  0.36650905  1
  Sr  Sr55  1  0.14359470  -0.01038804  0.92202389  1
  Sr  Sr56  1  0.16986046  0.32655091  0.34167731  1
  Sr  Sr57  1  0.17550656  0.32419472  0.88875124  1
  Sr  Sr58  1  0.18549840  0.63890383  0.38875158  1
  Sr  Sr59  1  0.16613629  0.66953776  0.84910005  1
  Sr  Sr60  1  0.50627303  -0.01274374  0.42369310  1
  Sr  Sr61  1  0.49222855  -0.00657985  0.86632901  1
  Sr  Sr62  1  0.50818520  0.32735731  0.36855896  1
  Sr  Sr63  1  0.50984296  0.35283585  0.89230770  1
  Sr  Sr64  1  0.51527468  0.66421227  0.37149806  1
  Sr  Sr65  1  0.53227262  0.66858079  0.83831699  1
  Sr  Sr66  1  0.81464560  0.00305042  0.34711779  1
  Sr  Sr67  1  0.82840806  -0.00725629  0.84442520  1
  Sr  Sr68  1  0.85790687  0.31839864  0.41715263  1
  Sr  Sr69  1  0.83949433  0.33557436  0.85705132  1
  Sr  Sr70  1  0.85342590  0.64422237  0.36538812  1
  Sr  Sr71  1  0.83448057  0.67757709  0.92123544  1
  Ta  Ta72  1  0.20866595  0.15931944  0.00284665  1
  Ta  Ta73  1  0.17989978  0.18119612  0.50697289  1
  Ta  Ta74  1  0.13506343  0.50162153  -0.00516943  1
  Ta  Ta75  1  0.17710996  0.44573818  0.50844151  1
  Ta  Ta76  1  0.13986938  0.80378103  0.00420210  1
  Ta  Ta77  1  0.14106172  0.81034200  0.50021785  1
  Ta  Ta78  1  0.45736661  0.16332375  0.00187356  1
  Ta  Ta79  1  0.45689856  0.16629773  0.50077686  1
  Ta  Ta80  1  0.51183690  0.54496558  0.00064783  1
  Ta  Ta81  1  0.53974584  0.50014779  0.49885935  1
  Ta  Ta82  1  0.49695367  0.79565825  -0.00440554  1
  Ta  Ta83  1  0.46698063  0.80992852  0.50342665  1
  Ta  Ta84  1  0.82349511  0.12969012  -0.00603664  1
  Ta  Ta85  1  0.82594557  0.12779789  0.50202799  1
  Ta  Ta86  1  0.85262025  0.48031967  0.00506111  1
  Ta  Ta87  1  0.79456794  0.49636930  0.49947228  1
  Ta  Ta88  1  0.81853264  0.86930893  -0.00465207  1
  Ta  Ta89  1  0.82688493  0.87552471  0.50403718  1
  Ta  Ta90  1  0.12176471  0.16077717  0.24269606  1
  Ta  Ta91  1  0.15850697  0.10778183  0.75151363  1
  Ta  Ta92  1  0.21821474  0.49781660  0.24754925  1
  Ta  Ta93  1  0.16600808  0.47197960  0.74878253  1
  Ta  Ta94  1  0.14673449  0.80086856  0.24238267  1
  Ta  Ta95  1  0.15635038  0.86961700  0.75402266  1
  Ta  Ta96  1  0.49856880  0.12171019  0.25436541  1
  Ta  Ta97  1  0.52472900  0.17898475  0.74555482  1
  Ta  Ta98  1  0.46983864  0.49937109  0.24589722  1
  Ta  Ta99  1  0.47532204  0.49880921  0.75068829  1
  Ta  Ta100  1  0.50175754  0.86528544  0.25348272  1
  Ta  Ta101  1  0.45317992  0.82511193  0.74695357  1
  Ta  Ta102  1  0.85605161  0.18566365  0.25605219  1
  Ta  Ta103  1  0.77508603  0.16999406  0.74649065  1
  Ta  Ta104  1  0.84152378  0.44416624  0.25021679  1
  Ta  Ta105  1  0.83849902  0.54767401  0.74617147  1
  Ta  Ta106  1  0.80994191  0.81488431  0.25308371  1
  Ta  Ta107  1  0.82531802  0.80029741  0.74939544  1
  Ta  Ta108  1  -0.00896465  0.04965814  0.24941897  1
  Ta  Ta109  1  0.02940882  0.00043322  0.75118464  1
  Ta  Ta110  1  -0.01540964  0.30716120  0.24372751  1
  Ta  Ta111  1  0.02093511  0.35782718  0.75061108  1
  Ta  Ta112  1  0.03144964  0.68483616  0.24652626  1
  Ta  Ta113  1  -0.04780503  0.67455865  0.74998122  1
  Ta  Ta114  1  0.38048098  0.00158251  0.25800847  1
  Ta  Ta115  1  0.29402239  -0.01045405  0.74691528  1
  Ta  Ta116  1  0.34085639  0.37385396  0.24534194  1
  Ta  Ta117  1  0.34804010  0.36025580  0.75757337  1
  Ta  Ta118  1  0.34302860  0.61203347  0.25008846  1
  Ta  Ta119  1  0.35682410  0.67584915  0.74961326  1
  Ta  Ta120  1  0.61413536  -0.00198497  0.25530326  1
  Ta  Ta121  1  0.65550401  0.05113377  0.74610261  1
  Ta  Ta122  1  0.72302769  0.32863890  0.25242591  1
  Ta  Ta123  1  0.66104012  0.29870207  0.74835015  1
  Ta  Ta124  1  0.69340957  0.69261065  0.25691840  1
  Ta  Ta125  1  0.72186946  0.66920143  0.74205066  1
  Ta  Ta126  1  -0.05402178  0.00632856  0.00048078  1
  Ta  Ta127  1  -0.04438653  0.00155965  0.49487442  1
  Ta  Ta128  1  0.00750763  0.38212153  0.00190973  1
  Ta  Ta129  1  0.06368359  0.33114633  0.50709442  1
  Ta  Ta130  1  0.02647386  0.65947504  -0.00480305  1
  Ta  Ta131  1  0.02157132  0.69207151  0.49707219  1
  Ta  Ta132  1  0.33047105  0.03869532  0.00315180  1
  Ta  Ta133  1  0.32764187  0.03384963  0.49860602  1
  Ta  Ta134  1  0.34251541  0.29401232  0.00142091  1
  Ta  Ta135  1  0.30800756  0.31457467  0.50928742  1
  Ta  Ta136  1  0.38322249  0.67014487  -0.00029413  1
  Ta  Ta137  1  0.35551436  0.68271014  0.49963451  1
  Ta  Ta138  1  0.69548935  0.00418022  -0.01095569  1
  Ta  Ta139  1  0.69656657  0.00417693  0.50815551  1
  Ta  Ta140  1  0.69317300  0.34984677  -0.00333569  1
  Ta  Ta141  1  0.67523908  0.37534820  0.50126241  1
  Ta  Ta142  1  0.64438359  0.67643360  -0.00002950  1
  Ta  Ta143  1  0.67804966  0.61981553  0.50035365  1
  N  N144  1  0.82483448  0.84159691  0.62330545  1
  N  N145  1  0.67078028  0.33749986  0.62061156  1
  N  N146  1  0.33245454  0.33015948  0.62846690  1
  N  N147  1  0.82276471  0.83569322  0.87768829  1
  N  N148  1  0.16161095  0.14914375  0.62627680  1
  N  N149  1  0.16509193  0.49695590  0.87008095  1
  N  N150  1  0.17293766  0.83312438  0.12076941  1
  N  N151  1  0.16551155  0.16490448  0.12403555  1
  N  N152  1  0.50801653  0.50486785  0.12151097  1
  N  N153  1  0.33536520  0.33520366  0.88045664  1
  N  N154  1  0.84616483  0.48622317  0.12899867  1
  N  N155  1  0.49060558  0.83814653  0.62755856  1
  N  N156  1  0.68335597  0.66286126  0.62163396  1
  N  N157  1  0.50741399  0.49674521  0.37417750  1
  N  N158  1  0.49325573  0.83047187  0.37734115  1
  N  N159  1  0.15038480  0.83040864  0.62257970  1
  N  N160  1  0.65349141  0.00809727  0.62254837  1
  N  N161  1  0.50392247  0.50343535  0.62465841  1
  N  N162  1  0.31639644  0.00167165  0.62562152  1
  N  N163  1  0.67608512  0.33737300  0.87614740  1
  N  N164  1  0.65567786  0.01078123  0.87287720  1
  N  N165  1  0.50621978  0.51249427  0.87384035  1
  N  N166  1  0.33472461  0.00021963  0.37351514  1
  N  N167  1  0.00649228  0.33594123  0.12423709  1
  N  N168  1  -0.00649251  0.67328123  0.87459366  1
  N  N169  1  -0.01550609  0.01268410  0.37217460  1
  N  N170  1  0.15523852  0.83318859  0.87501942  1
  N  N171  1  0.34154708  0.33139603  0.12873621  1
  N  N172  1  0.49663492  0.83299385  0.12481170  1
  N  N173  1  0.48908566  0.83384265  0.87393782  1
  N  N174  1  0.67960036  0.66361807  0.37557249  1
  N  N175  1  0.83235152  0.16484237  0.37798082  1
  N  N176  1  0.49181025  0.17058653  0.62409235  1
  O  O177  1  -0.01589848  0.00483271  0.87868431  1
  O  O178  1  0.34648000  0.65413125  0.37395711  1
  O  O179  1  0.35723365  0.66018322  0.12743417  1
  O  O180  1  -0.00646910  0.00223858  0.62441776  1
  O  O181  1  0.01526328  0.33776682  0.62598768  1
  O  O182  1  0.18397164  0.50024575  0.11589248  1
  O  O183  1  -0.00667776  0.68240013  0.62153767  1
  O  O184  1  0.00517065  0.66408784  0.12586021  1
  O  O185  1  0.82263467  0.15327518  0.12223999  1
  O  O186  1  0.66482844  0.68020919  0.12476367  1
  O  O187  1  0.33937453  0.01346349  0.13004384  1
  O  O188  1  0.02386327  0.66501452  0.37091198  1
  O  O189  1  0.82271161  0.15584327  0.86740397  1
  O  O190  1  0.82254683  0.83400661  0.37717110  1
  O  O191  1  0.15989027  0.17068604  0.36765293  1
  O  O192  1  0.83430112  0.50093537  0.62443778  1
  O  O193  1  0.17776531  0.50349884  0.61899438  1
  O  O194  1  0.01823993  0.32950120  0.38377879  1
  O  O195  1  0.48669254  0.16719592  0.87591816  1
  O  O196  1  0.81886584  0.83876665  0.12777046  1
  O  O197  1  0.32670534  0.33290071  0.36929839  1
  O  O198  1  0.84033216  0.48464208  0.37668645  1
  O  O199  1  0.81992105  0.17057216  0.62429282  1
  O  O200  1  0.83868681  0.51101807  0.87109090  1
  O  O201  1  0.00407395  0.34617733  0.87445079  1
  O  O202  1  0.67904591  0.67046831  0.87662127  1
  O  O203  1  -0.03578196  0.01101542  0.12803838  1
  O  O204  1  0.65531265  0.00551371  0.37893431  1
  O  O205  1  0.15924902  0.83260767  0.36615285  1
  O  O206  1  0.69854007  0.32660980  0.37847490  1
  O  O207  1  0.33409639  0.66864252  0.62249260  1
  O  O208  1  0.65565058  0.00472617  0.11894135  1
  O  O209  1  0.19608273  0.48098882  0.38264995  1
  O  O210  1  0.48415547  0.14845979  0.12547310  1
  O  O211  1  0.17483222  0.14533245  0.87684174  1
  O  O212  1  0.49986086  0.15633078  0.38194137  1
  O  O213  1  0.32214370  0.01019781  0.87925563  1
  O  O214  1  0.69669327  0.32219309  0.12758547  1
  O  O215  1  0.35496228  0.66768115  0.87383080  1
