# generated using pymatgen
data_Sr24Ta24N11O13
_symmetry_space_group_name_H-M   'P 1'
_cell_length_a   16.84717579
_cell_length_b   16.77774307
_cell_length_c   15.63537504
_cell_angle_alpha   90.27528932
_cell_angle_beta   89.47660383
_cell_angle_gamma   89.69183805
_symmetry_Int_Tables_number   1
_chemical_formula_structural   Sr24Ta24N11O13
_chemical_formula_sum   'Sr72 Ta72 N33 O39'
_cell_volume   4419.15699925
_cell_formula_units_Z   3
loop_
 _symmetry_equiv_pos_site_id
 _symmetry_equiv_pos_as_xyz
  1  'x, y, z'
loop_
 _atom_site_type_symbol
 _atom_site_label
 _atom_site_symmetry_multiplicity
 _atom_site_fract_x
 _atom_site_fract_y
 _atom_site_fract_z
 _atom_site_occupancy
  Sr  Sr0  1  0.00709934  0.17624349  0.15773560  1
  Sr  Sr1  1  0.01865555  0.16872746  0.61426340  1
  Sr  Sr2  1  0.01172894  0.49746974  0.07915331  1
  Sr  Sr3  1  -0.00633835  0.50290330  0.63102669  1
  Sr  Sr4  1  0.00637278  0.82932118  0.13062601  1
  Sr  Sr5  1  0.04880240  0.84449871  0.60530493  1
  Sr  Sr6  1  0.34767932  0.17018621  0.12739427  1
  Sr  Sr7  1  0.34481278  0.16080228  0.58214927  1
  Sr  Sr8  1  0.31222504  0.50114933  0.17627065  1
  Sr  Sr9  1  0.34767479  0.50989275  0.60927463  1
  Sr  Sr10  1  0.35513229  0.82897451  0.09649240  1
  Sr  Sr11  1  0.34229825  0.84539419  0.67662950  1
  Sr  Sr12  1  0.68385568  0.16973783  0.10770840  1
  Sr  Sr13  1  0.66992642  0.18609287  0.64758915  1
  Sr  Sr14  1  0.66490315  0.51535988  0.11783974  1
  Sr  Sr15  1  0.67652836  0.52532524  0.65775047  1
  Sr  Sr16  1  0.67848740  0.85298189  0.13390933  1
  Sr  Sr17  1  0.66769013  0.83450873  0.60388000  1
  Sr  Sr18  1  0.12484819  -0.00582320  0.16780801  1
  Sr  Sr19  1  0.17331035  0.01872171  0.61337179  1
  Sr  Sr20  1  0.16427296  0.32428481  0.11633222  1
  Sr  Sr21  1  0.16555157  0.35977598  0.67113596  1
  Sr  Sr22  1  0.17211150  0.67152332  0.13412342  1
  Sr  Sr23  1  0.16312586  0.65650911  0.57981773  1
  Sr  Sr24  1  0.49150856  -0.00971916  0.14076661  1
  Sr  Sr25  1  0.48365494  -0.00675508  0.62749775  1
  Sr  Sr26  1  0.50427264  0.31511968  0.08643549  1
  Sr  Sr27  1  0.49388147  0.32346034  0.62904793  1
  Sr  Sr28  1  0.50151618  0.65532762  0.09856735  1
  Sr  Sr29  1  0.48879151  0.66531747  0.63135286  1
  Sr  Sr30  1  0.82262399  -0.01034301  0.09208981  1
  Sr  Sr31  1  0.78588665  -0.00743261  0.65477718  1
  Sr  Sr32  1  0.82499121  0.31726529  0.15596580  1
  Sr  Sr33  1  0.83811961  0.31953317  0.59651500  1
  Sr  Sr34  1  0.81554150  0.65608513  0.13387965  1
  Sr  Sr35  1  0.82364702  0.66444183  0.63613308  1
  Sr  Sr36  1  0.00428683  0.17475768  0.37763525  1
  Sr  Sr37  1  0.02443928  0.15944720  0.85650946  1
  Sr  Sr38  1  -0.01136996  0.50506232  0.41328830  1
  Sr  Sr39  1  -0.00003692  0.50238035  0.86621650  1
  Sr  Sr40  1  0.01975309  0.83167425  0.36512107  1
  Sr  Sr41  1  0.01132101  0.84562862  0.88602682  1
  Sr  Sr42  1  0.34852945  0.15945278  0.37262058  1
  Sr  Sr43  1  0.33190922  0.18272080  0.92274774  1
  Sr  Sr44  1  0.33804687  0.51324141  0.38656627  1
  Sr  Sr45  1  0.32798928  0.47104082  0.82655038  1
  Sr  Sr46  1  0.35733497  0.84611981  0.34440113  1
  Sr  Sr47  1  0.32726103  0.80408680  0.89034801  1
  Sr  Sr48  1  0.68013433  0.19530199  0.38372111  1
  Sr  Sr49  1  0.67432324  0.17009401  0.86995276  1
  Sr  Sr50  1  0.68315768  0.50900921  0.33390030  1
  Sr  Sr51  1  0.66668980  0.51900557  0.89163063  1
  Sr  Sr52  1  0.66167495  0.83183471  0.38605988  1
  Sr  Sr53  1  0.71374355  0.84934641  0.84099599  1
  Sr  Sr54  1  0.14514176  0.00948826  0.39778614  1
  Sr  Sr55  1  0.15386625  -0.01445911  0.83059079  1
  Sr  Sr56  1  0.18963237  0.33544015  0.32551738  1
  Sr  Sr57  1  0.15384871  0.32715513  0.89058500  1
  Sr  Sr58  1  0.17532664  0.66524965  0.36609868  1
  Sr  Sr59  1  0.14877624  0.67672299  0.92683417  1
  Sr  Sr60  1  0.50161109  -0.00383357  0.36402207  1
  Sr  Sr61  1  0.44066574  -0.01773876  0.89134988  1
  Sr  Sr62  1  0.49047123  0.32899249  0.41590105  1
  Sr  Sr63  1  0.49843877  0.32279953  0.87141880  1
  Sr  Sr64  1  0.49720127  0.65271989  0.38120865  1
  Sr  Sr65  1  0.48771179  0.65826889  0.87232186  1
  Sr  Sr66  1  0.80038832  -0.02362880  0.40078324  1
  Sr  Sr67  1  0.83997245  -0.00266054  0.88099337  1
  Sr  Sr68  1  0.83521808  0.33117427  0.37529167  1
  Sr  Sr69  1  0.82110999  0.30630782  0.87016813  1
  Sr  Sr70  1  0.82010898  0.67541858  0.36585663  1
  Sr  Sr71  1  0.83263165  0.64579120  0.84978294  1
  Ta  Ta72  1  0.15330008  0.12607216  0.01221831  1
  Ta  Ta73  1  0.17452138  0.21971208  0.49682848  1
  Ta  Ta74  1  0.20310239  0.49635898  0.00318932  1
  Ta  Ta75  1  0.16824547  0.46305975  0.49173947  1
  Ta  Ta76  1  0.16924679  0.87694114  0.00422033  1
  Ta  Ta77  1  0.22347038  0.83622817  0.50038818  1
  Ta  Ta78  1  0.52227727  0.12884397  -0.00546875  1
  Ta  Ta79  1  0.52935645  0.14662002  0.50656516  1
  Ta  Ta80  1  0.45600669  0.48862741  0.00202128  1
  Ta  Ta81  1  0.54532414  0.50095581  0.50046945  1
  Ta  Ta82  1  0.54788786  0.83744380  -0.02417096  1
  Ta  Ta83  1  0.46964501  0.83222357  0.50452979  1
  Ta  Ta84  1  0.87571413  0.16650073  0.00728703  1
  Ta  Ta85  1  0.83491024  0.12951499  0.50667215  1
  Ta  Ta86  1  0.83320584  0.45864005  -0.00026738  1
  Ta  Ta87  1  0.80196093  0.50620360  0.50440583  1
  Ta  Ta88  1  0.84270233  0.80291408  -0.01144992  1
  Ta  Ta89  1  0.86803719  0.82734048  0.51361681  1
  Ta  Ta90  1  0.19343685  0.14764867  0.25278650  1
  Ta  Ta91  1  0.20164239  0.17612419  0.74444643  1
  Ta  Ta92  1  0.11780671  0.50450178  0.25011643  1
  Ta  Ta93  1  0.16120141  0.56123394  0.75302399  1
  Ta  Ta94  1  0.20804941  0.84235602  0.24070205  1
  Ta  Ta95  1  0.16783724  0.77876304  0.75838139  1
  Ta  Ta96  1  0.52035569  0.18640015  0.24557484  1
  Ta  Ta97  1  0.47380005  0.14965608  0.75767159  1
  Ta  Ta98  1  0.49945061  0.46625732  0.25489558  1
  Ta  Ta99  1  0.51985610  0.48628679  0.74609624  1
  Ta  Ta100  1  0.51115488  0.80080434  0.23920033  1
  Ta  Ta101  1  0.53175121  0.83713788  0.76990072  1
  Ta  Ta102  1  0.82891983  0.12274269  0.25358601  1
  Ta  Ta103  1  0.86733030  0.15774456  0.74127952  1
  Ta  Ta104  1  0.87929644  0.49629552  0.24071103  1
  Ta  Ta105  1  0.83181705  0.45484955  0.75210121  1
  Ta  Ta106  1  0.84136556  0.85141415  0.25708755  1
  Ta  Ta107  1  0.88784831  0.83170021  0.73231742  1
  Ta  Ta108  1  -0.05569878  -0.00174814  0.25731270  1
  Ta  Ta109  1  -0.03023734  -0.00121251  0.72520713  1
  Ta  Ta110  1  0.00213827  0.37343013  0.24750437  1
  Ta  Ta111  1  -0.02597370  0.32577407  0.74711600  1
  Ta  Ta112  1  -0.00921272  0.63248696  0.24569708  1
  Ta  Ta113  1  0.02414305  0.68419797  0.75243857  1
  Ta  Ta114  1  0.30181851  0.00107035  0.24441570  1
  Ta  Ta115  1  0.32462886  0.06714232  0.75404539  1
  Ta  Ta116  1  0.38348198  0.32968364  0.24824287  1
  Ta  Ta117  1  0.33343997  0.27423027  0.74877172  1
  Ta  Ta118  1  0.35239283  0.68942528  0.23948509  1
  Ta  Ta119  1  0.29336793  0.65848671  0.74683063  1
  Ta  Ta120  1  0.67896706  0.02654446  0.24859297  1
  Ta  Ta121  1  0.60957561  0.00196405  0.77857898  1
  Ta  Ta122  1  0.61799858  0.33808804  0.25516489  1
  Ta  Ta123  1  0.66592963  0.36476056  0.74885190  1
  Ta  Ta124  1  0.63877374  0.69012222  0.23829408  1
  Ta  Ta125  1  0.64216665  0.69541326  0.75345595  1
  Ta  Ta126  1  0.01071853  0.01717070  0.00803135  1
  Ta  Ta127  1  -0.04485465  -0.00227392  0.51430651  1
  Ta  Ta128  1  -0.03251431  0.31585396  0.00542258  1
  Ta  Ta129  1  0.05416295  0.33881258  0.49584334  1
  Ta  Ta130  1  -0.03877739  0.67798894  -0.00472902  1
  Ta  Ta131  1  -0.02516391  0.68157422  0.50145508  1
  Ta  Ta132  1  0.27162054  0.00433907  0.00916319  1
  Ta  Ta133  1  0.33531832  -0.04019250  0.49966638  1
  Ta  Ta134  1  0.33003943  0.37782811  0.01012746  1
  Ta  Ta135  1  0.29143167  0.34034094  0.50115601  1
  Ta  Ta136  1  0.33101915  0.60775127  -0.00092229  1
  Ta  Ta137  1  0.34057380  0.71502918  0.50378146  1
  Ta  Ta138  1  0.63229119  -0.00534265  -0.02389780  1
  Ta  Ta139  1  0.64623215  0.03586367  0.51075098  1
  Ta  Ta140  1  0.68427051  0.34844509  0.00424823  1
  Ta  Ta141  1  0.66767531  0.38444597  0.49718494  1
  Ta  Ta142  1  0.67569498  0.71081112  -0.01391990  1
  Ta  Ta143  1  0.66410664  0.64036033  0.50200381  1
  N  N144  1  0.33550394  0.65821258  0.12205156  1
  N  N145  1  0.66227153  0.67764828  0.11434704  1
  N  N146  1  -0.00363463  0.66537678  0.87523441  1
  N  N147  1  0.84171572  0.15512630  0.12773664  1
  N  N148  1  -0.00192216  0.33383721  0.12370822  1
  N  N149  1  0.69073598  0.01076060  0.86329834  1
  N  N150  1  0.32857546  0.67383905  0.62393091  1
  N  N151  1  0.66048705  0.67727235  0.62108516  1
  N  N152  1  0.85826126  0.82466812  0.86395383  1
  N  N153  1  -0.02063664  -0.00094731  0.12728357  1
  N  N154  1  0.84096751  0.82817459  0.38084642  1
  N  N155  1  0.16338494  0.50005455  0.12441171  1
  N  N156  1  0.50293144  0.49594326  0.37687762  1
  N  N157  1  0.81936366  0.82860545  0.63384889  1
  N  N158  1  0.16356470  0.16954254  0.12760533  1
  N  N159  1  0.67878844  0.66536659  0.86736616  1
  N  N160  1  0.02499646  0.00544675  0.61240845  1
  N  N161  1  0.83269865  0.49361424  0.62365070  1
  N  N162  1  0.17405304  0.17258873  0.37522218  1
  N  N163  1  0.50160020  0.49895602  0.62536420  1
  N  N164  1  0.47554798  0.82026533  0.88091186  1
  N  N165  1  0.17497032  0.17746215  0.62111107  1
  N  N166  1  0.49722315  0.17340326  0.88390985  1
  N  N167  1  0.51081997  0.15838493  0.12538612  1
  N  N168  1  0.16348042  0.50105661  0.37136568  1
  N  N169  1  0.17364417  0.82854939  0.11948183  1
  N  N170  1  0.66351519  0.34944512  0.37119640  1
  N  N171  1  0.82235977  0.16659384  0.62584032  1
  N  N172  1  0.83257767  0.49556404  0.12596817  1
  N  N173  1  0.17073983  0.82735860  0.87539813  1
  N  N174  1  0.33826730  0.33734997  0.13365864  1
  N  N175  1  0.50254544  0.16459476  0.62782794  1
  N  N176  1  0.83327333  0.48995836  0.87344423  1
  O  O177  1  0.66748455  0.34422068  0.13079862  1
  O  O178  1  0.51705918  0.82967307  0.10899206  1
  O  O179  1  0.17158015  0.17464145  0.89142238  1
  O  O180  1  0.33025203  0.01165243  0.62126863  1
  O  O181  1  0.66465492  0.00767295  0.12156056  1
  O  O182  1  0.50187613  0.82393749  0.37763444  1
  O  O183  1  0.33611889  0.32509725  0.87134786  1
  O  O184  1  0.16084896  0.52172484  0.87604948  1
  O  O185  1  0.49249420  0.83617749  0.63231971  1
  O  O186  1  0.65689998  0.67303391  0.37206529  1
  O  O187  1  0.34170479  0.67434438  0.37378381  1
  O  O188  1  -0.00483447  0.31983883  0.87211394  1
  O  O189  1  0.63650028  0.01379673  0.64540446  1
  O  O190  1  0.19417497  0.82385845  0.63591038  1
  O  O191  1  0.01147695  0.33678702  0.37388073  1
  O  O192  1  0.32210147  -0.00141715  0.37461439  1
  O  O193  1  0.29987980  0.03142953  0.87781136  1
  O  O194  1  0.85139779  0.15395031  0.87424773  1
  O  O195  1  0.47986959  0.48488033  0.87115670  1
  O  O196  1  0.33145992  0.31744858  0.62594686  1
  O  O197  1  0.48563554  0.49570195  0.12432306  1
  O  O198  1  0.33753311  0.33597673  0.37740399  1
  O  O199  1  -0.01189851  0.65414618  0.12023008  1
  O  O200  1  0.50752943  0.15875841  0.37661994  1
  O  O201  1  0.67014812  0.34462168  0.62394436  1
  O  O202  1  0.66364288  0.34489072  0.87982282  1
  O  O203  1  0.65725553  0.02621833  0.37447955  1
  O  O204  1  0.00096244  0.00485275  0.85733550  1
  O  O205  1  0.00800713  0.33642861  0.62360578  1
  O  O206  1  -0.01929995  0.66312671  0.37506073  1
  O  O207  1  0.33398528  0.00392629  0.11993352  1
  O  O208  1  -0.01307339  -0.00481677  0.38091221  1
  O  O209  1  0.83657425  0.82922490  0.12783030  1
  O  O210  1  0.33292204  0.64695856  0.87482738  1
  O  O211  1  0.83734192  0.49283110  0.37114248  1
  O  O212  1  0.83420016  0.17042090  0.38185407  1
  O  O213  1  0.19881037  0.83164974  0.37039973  1
  O  O214  1  -0.00288675  0.66180724  0.62238116  1
  O  O215  1  0.15706045  0.51139626  0.63006250  1
