# generated using pymatgen
data_Sr24Ta24N11O13
_symmetry_space_group_name_H-M   'P 1'
_cell_length_a   16.61829576
_cell_length_b   17.01802531
_cell_length_c   15.61244932
_cell_angle_alpha   89.83398128
_cell_angle_beta   89.69312420
_cell_angle_gamma   90.37600007
_symmetry_Int_Tables_number   1
_chemical_formula_structural   Sr24Ta24N11O13
_chemical_formula_sum   'Sr72 Ta72 N33 O39'
_cell_volume   4415.18842175
_cell_formula_units_Z   3
loop_
 _symmetry_equiv_pos_site_id
 _symmetry_equiv_pos_as_xyz
  1  'x, y, z'
loop_
 _atom_site_type_symbol
 _atom_site_label
 _atom_site_symmetry_multiplicity
 _atom_site_fract_x
 _atom_site_fract_y
 _atom_site_fract_z
 _atom_site_occupancy
  Sr  Sr0  1  -0.00858510  0.13370034  0.15720034  1
  Sr  Sr1  1  0.01292905  0.15454457  0.61648721  1
  Sr  Sr2  1  -0.00878514  0.49480286  0.11255612  1
  Sr  Sr3  1  0.00680177  0.49513630  0.66735403  1
  Sr  Sr4  1  0.00004657  0.82315842  0.11686127  1
  Sr  Sr5  1  -0.00933205  0.82078942  0.58254009  1
  Sr  Sr6  1  0.33463672  0.13817351  0.12195653  1
  Sr  Sr7  1  0.33997708  0.15870994  0.65014479  1
  Sr  Sr8  1  0.34130795  0.49591105  0.09092807  1
  Sr  Sr9  1  0.34206395  0.47991591  0.61160825  1
  Sr  Sr10  1  0.31397964  0.79341767  0.15486752  1
  Sr  Sr11  1  0.33036269  0.83738217  0.61991611  1
  Sr  Sr12  1  0.68147801  0.17291010  0.09245834  1
  Sr  Sr13  1  0.68217039  0.13338984  0.62858062  1
  Sr  Sr14  1  0.65494166  0.48075124  0.16710642  1
  Sr  Sr15  1  0.67509191  0.50507671  0.60720485  1
  Sr  Sr16  1  0.65091353  0.81692414  0.10661975  1
  Sr  Sr17  1  0.67269564  0.82881052  0.66953640  1
  Sr  Sr18  1  0.14596844  -0.00087171  0.09630976  1
  Sr  Sr19  1  0.18369364  0.01373946  0.66869392  1
  Sr  Sr20  1  0.16789292  0.37307442  0.09803337  1
  Sr  Sr21  1  0.16131845  0.33750453  0.60674109  1
  Sr  Sr22  1  0.15015147  0.67307331  0.16812405  1
  Sr  Sr23  1  0.17798806  0.67329569  0.61140259  1
  Sr  Sr24  1  0.51765906  0.02123670  0.12519566  1
  Sr  Sr25  1  0.48295452  0.00684237  0.58111811  1
  Sr  Sr26  1  0.49879956  0.34108877  0.15438290  1
  Sr  Sr27  1  0.50658372  0.35185323  0.62926846  1
  Sr  Sr28  1  0.49574402  0.65863618  0.11309174  1
  Sr  Sr29  1  0.50569170  0.69884981  0.65744899  1
  Sr  Sr30  1  0.82860055  -0.01109766  0.17021095  1
  Sr  Sr31  1  0.85474054  0.00478827  0.60751221  1
  Sr  Sr32  1  0.83198283  0.33830943  0.12276111  1
  Sr  Sr33  1  0.83457946  0.36588031  0.65076515  1
  Sr  Sr34  1  0.83890555  0.67744272  0.08118929  1
  Sr  Sr35  1  0.81998828  0.67775923  0.61856734  1
  Sr  Sr36  1  0.00014700  0.17241487  0.38465432  1
  Sr  Sr37  1  0.00914837  0.13286635  0.86152699  1
  Sr  Sr38  1  0.00823821  0.49002224  0.33076662  1
  Sr  Sr39  1  -0.01600622  0.50103931  0.88478259  1
  Sr  Sr40  1  -0.00143559  0.80608728  0.37844673  1
  Sr  Sr41  1  -0.00198115  0.82705170  0.90388503  1
  Sr  Sr42  1  0.34746580  0.16774150  0.34424237  1
  Sr  Sr43  1  0.32267900  0.14591671  0.88442804  1
  Sr  Sr44  1  0.31968351  0.49343690  0.41157296  1
  Sr  Sr45  1  0.34558243  0.48872651  0.88735602  1
  Sr  Sr46  1  0.33601780  0.82217699  0.38529692  1
  Sr  Sr47  1  0.31608513  0.81433244  0.83889799  1
  Sr  Sr48  1  0.67198507  0.14086764  0.42355849  1
  Sr  Sr49  1  0.67609898  0.15441129  0.88477738  1
  Sr  Sr50  1  0.67549044  0.50942535  0.38521509  1
  Sr  Sr51  1  0.66382541  0.46110879  0.83650412  1
  Sr  Sr52  1  0.65532435  0.84752046  0.32731986  1
  Sr  Sr53  1  0.65575379  0.83132341  0.88401125  1
  Sr  Sr54  1  0.16978348  0.05045261  0.31947141  1
  Sr  Sr55  1  0.16607883  -0.01490129  0.88241425  1
  Sr  Sr56  1  0.16480392  0.33556550  0.39232468  1
  Sr  Sr57  1  0.15149648  0.35895093  0.89046216  1
  Sr  Sr58  1  0.17862376  0.67028686  0.38487697  1
  Sr  Sr59  1  0.16498342  0.66838575  0.83724606  1
  Sr  Sr60  1  0.48849180  0.00577355  0.37194597  1
  Sr  Sr61  1  0.50367869  0.01656935  0.92377242  1
  Sr  Sr62  1  0.51056343  0.36045925  0.38560558  1
  Sr  Sr63  1  0.49468327  0.33954052  0.84795837  1
  Sr  Sr64  1  0.51321708  0.69041738  0.32878277  1
  Sr  Sr65  1  0.49022270  0.67635217  0.88968553  1
  Sr  Sr66  1  0.85313013  0.01233884  0.39051024  1
  Sr  Sr67  1  0.81389857  0.00844814  0.82405164  1
  Sr  Sr68  1  0.84040625  0.35452342  0.35024539  1
  Sr  Sr69  1  0.83520606  0.33170806  0.89279445  1
  Sr  Sr70  1  0.82551100  0.66712997  0.40950068  1
  Sr  Sr71  1  0.83018620  0.68845520  0.88159735  1
  Ta  Ta72  1  0.15836142  0.19456910  0.01971029  1
  Ta  Ta73  1  0.19558478  0.15273878  0.50461884  1
  Ta  Ta74  1  0.16475039  0.55205119  0.00283920  1
  Ta  Ta75  1  0.12321702  0.50315858  0.49784844  1
  Ta  Ta76  1  0.17997853  0.80715949  -0.00282125  1
  Ta  Ta77  1  0.17031787  0.87775888  0.49694340  1
  Ta  Ta78  1  0.49502603  0.21668266  0.00514552  1
  Ta  Ta79  1  0.49194133  0.19733040  0.50303547  1
  Ta  Ta80  1  0.53573312  0.48870505  -0.00107361  1
  Ta  Ta81  1  0.50713171  0.56331675  0.49616215  1
  Ta  Ta82  1  0.45186384  0.83710653  0.00805809  1
  Ta  Ta83  1  0.52492970  0.82409052  0.50010059  1
  Ta  Ta84  1  0.85474475  0.13482175  -0.00408984  1
  Ta  Ta85  1  0.83856532  0.21766051  0.51050375  1
  Ta  Ta86  1  0.78043907  0.50080208  -0.00525125  1
  Ta  Ta87  1  0.87527764  0.49800796  0.50003571  1
  Ta  Ta88  1  0.82416706  0.87595351  -0.00891454  1
  Ta  Ta89  1  0.78334852  0.84155643  0.50033128  1
  Ta  Ta90  1  0.17215238  0.22336931  0.22454518  1
  Ta  Ta91  1  0.16683921  0.20746652  0.75438148  1
  Ta  Ta92  1  0.19942888  0.49502093  0.25020896  1
  Ta  Ta93  1  0.19733123  0.49495602  0.74396726  1
  Ta  Ta94  1  0.15896890  0.86459298  0.25133075  1
  Ta  Ta95  1  0.11977467  0.83536996  0.74202068  1
  Ta  Ta96  1  0.55325221  0.17294724  0.25606907  1
  Ta  Ta97  1  0.51416933  0.14601499  0.75542382  1
  Ta  Ta98  1  0.46038089  0.50748279  0.25183904  1
  Ta  Ta99  1  0.49929884  0.53068129  0.75294112  1
  Ta  Ta100  1  0.47008324  0.86657845  0.22860424  1
  Ta  Ta101  1  0.49344268  0.87458760  0.75233645  1
  Ta  Ta102  1  0.79995138  0.17096030  0.26579249  1
  Ta  Ta103  1  0.84462358  0.19439384  0.74419099  1
  Ta  Ta104  1  0.82988891  0.54105216  0.24840464  1
  Ta  Ta105  1  0.82507098  0.54001322  0.75466999  1
  Ta  Ta106  1  0.83689203  0.80143523  0.24802438  1
  Ta  Ta107  1  0.86960447  0.83531570  0.74535171  1
  Ta  Ta108  1  0.00945920  -0.04048392  0.25438657  1
  Ta  Ta109  1  0.00206751  -0.04235340  0.74439432  1
  Ta  Ta110  1  0.02425704  0.31418839  0.23832914  1
  Ta  Ta111  1  0.00513905  0.30240894  0.75438744  1
  Ta  Ta112  1  -0.04870671  0.66319729  0.24240148  1
  Ta  Ta113  1  -0.01440227  0.68845781  0.74957681  1
  Ta  Ta114  1  0.32491173  -0.03402925  0.24215004  1
  Ta  Ta115  1  0.38996550  -0.00223412  0.75636528  1
  Ta  Ta116  1  0.31831073  0.35747440  0.25214516  1
  Ta  Ta117  1  0.30108148  0.33187174  0.75005030  1
  Ta  Ta118  1  0.33608863  0.62068749  0.25061490  1
  Ta  Ta119  1  0.34096774  0.62704789  0.74770805  1
  Ta  Ta120  1  0.66349152  0.04806360  0.25696859  1
  Ta  Ta121  1  0.60052290  0.00202097  0.75363540  1
  Ta  Ta122  1  0.67266640  0.28881806  0.25557313  1
  Ta  Ta123  1  0.67587520  0.28690175  0.75533369  1
  Ta  Ta124  1  0.71157488  0.66767847  0.24497842  1
  Ta  Ta125  1  0.66610248  0.63873213  0.76742687  1
  Ta  Ta126  1  -0.05344847  -0.00581767  0.00223995  1
  Ta  Ta127  1  0.06799989  0.00139256  0.49349313  1
  Ta  Ta128  1  0.00318759  0.27565732  0.01765300  1
  Ta  Ta129  1  -0.01545408  0.35436123  0.49419420  1
  Ta  Ta130  1  0.03681956  0.66130391  -0.00213806  1
  Ta  Ta131  1  0.00089891  0.61852400  0.49785077  1
  Ta  Ta132  1  0.32875901  -0.06090036  0.00421801  1
  Ta  Ta133  1  0.28276027  0.00924599  0.49408906  1
  Ta  Ta134  1  0.35155357  0.30678935  0.00233857  1
  Ta  Ta135  1  0.34331806  0.29299995  0.50561174  1
  Ta  Ta136  1  0.30236995  0.67305086  -0.00036475  1
  Ta  Ta137  1  0.38155351  0.66600527  0.49402616  1
  Ta  Ta138  1  0.71458840  -0.00350202  0.00194232  1
  Ta  Ta139  1  0.66022079  -0.05136835  0.50237190  1
  Ta  Ta140  1  0.64484547  0.34609234  0.00347308  1
  Ta  Ta141  1  0.68401798  0.31482964  0.50333983  1
  Ta  Ta142  1  0.66264723  0.61821172  -0.00945517  1
  Ta  Ta143  1  0.64151592  0.70232294  0.49156211  1
  N  N144  1  0.50120718  0.50062310  0.87680667  1
  N  N145  1  0.83758382  0.17209988  0.38637808  1
  N  N146  1  0.84730104  0.15899654  0.61760362  1
  N  N147  1  0.83862884  0.51550507  0.62690745  1
  N  N148  1  0.15738864  0.82960800  0.87281605  1
  N  N149  1  0.33213746  0.64955707  0.11988432  1
  N  N150  1  0.16453429  0.50128704  0.37832261  1
  N  N151  1  0.33365843  0.32340936  0.62823465  1
  N  N152  1  0.82571884  0.84413315  0.86365310  1
  N  N153  1  0.00101607  0.33432300  0.36960061  1
  N  N154  1  0.17010153  0.50041459  0.62403119  1
  N  N155  1  0.33244911  0.65523402  0.86767620  1
  N  N156  1  0.82917367  0.83626303  0.61567531  1
  N  N157  1  0.00049968  0.66647957  0.87065460  1
  N  N158  1  0.17318352  0.14410216  0.13604865  1
  N  N159  1  0.83803426  0.51011789  0.37478262  1
  N  N160  1  0.66709987  0.32558496  0.13333119  1
  N  N161  1  0.84454206  0.15730590  0.87183057  1
  N  N162  1  0.49298794  0.80976494  0.12502180  1
  N  N163  1  -0.00784018  0.34196021  0.11746643  1
  N  N164  1  0.50014827  0.84583860  0.62169071  1
  N  N165  1  -0.01539555  -0.01797630  0.13200261  1
  N  N166  1  0.15942599  0.83347076  0.13124586  1
  N  N167  1  0.66745994  0.31036727  0.87704567  1
  N  N168  1  0.49683826  0.49635732  0.13176095  1
  N  N169  1  0.16536324  0.51888361  0.12817303  1
  N  N170  1  0.66026004  0.67900793  0.88417975  1
  N  N171  1  0.16406207  0.84198836  0.62262274  1
  N  N172  1  0.82651371  0.49716649  0.87695182  1
  N  N173  1  0.34032409  0.66489443  0.37533894  1
  N  N174  1  0.17540770  0.17105436  0.62670676  1
  N  N175  1  -0.00563736  0.66476321  0.12311729  1
  N  N176  1  0.66797243  0.68117474  0.36927956  1
  O  O177  1  0.50272889  0.18804094  0.37485424  1
  O  O178  1  0.33759356  0.34092143  0.12852791  1
  O  O179  1  0.30433947  -0.01342425  0.11620467  1
  O  O180  1  0.17537596  0.82374143  0.37905397  1
  O  O181  1  -0.00344510  0.65947528  0.61796289  1
  O  O182  1  0.67404310  0.66344855  0.11939322  1
  O  O183  1  0.49657034  0.84668621  0.35657469  1
  O  O184  1  0.68008585  0.01899952  0.12636848  1
  O  O185  1  0.00116890  0.29816131  0.88381036  1
  O  O186  1  0.51465679  0.17792051  0.12686046  1
  O  O187  1  0.34725613  -0.01161517  0.87939411  1
  O  O188  1  0.50571128  0.17046452  0.88237548  1
  O  O189  1  0.32538697  -0.00691868  0.37161026  1
  O  O190  1  -0.00902838  0.65581364  0.37000082  1
  O  O191  1  0.33734204  0.00306404  0.63222371  1
  O  O192  1  0.01686046  -0.01301833  0.61325084  1
  O  O193  1  0.83418101  0.15117119  0.13947948  1
  O  O194  1  0.65706919  0.00078358  0.88396893  1
  O  O195  1  0.34262586  0.66718856  0.61980066  1
  O  O196  1  0.66045326  0.67840038  0.64074152  1
  O  O197  1  0.63634918  -0.01317028  0.62477363  1
  O  O198  1  0.50459994  0.17108415  0.62447546  1
  O  O199  1  0.17118351  0.50848456  0.87531491  1
  O  O200  1  0.66512717  0.31694547  0.62708395  1
  O  O201  1  0.32889239  0.33255799  0.37786289  1
  O  O202  1  0.82869117  0.81995300  0.37524472  1
  O  O203  1  0.51482678  0.52974919  0.61764369  1
  O  O204  1  -0.00875901  -0.01868940  0.87373830  1
  O  O205  1  0.83038400  0.82976003  0.12244222  1
  O  O206  1  0.33550204  0.31305627  0.87715947  1
  O  O207  1  0.01855411  0.01678801  0.37026137  1
  O  O208  1  0.51531137  0.52758942  0.37310461  1
  O  O209  1  0.19095409  0.18982197  0.35445102  1
  O  O210  1  0.49261450  0.83486122  0.88471408  1
  O  O211  1  0.67456980  0.34112695  0.37987349  1
  O  O212  1  0.00064617  0.33200083  0.63111780  1
  O  O213  1  0.17052351  0.19708231  0.88974422  1
  O  O214  1  0.81620868  0.49685972  0.12258036  1
  O  O215  1  0.65163314  -0.00411767  0.37772748  1
