# generated using pymatgen
data_Sr24Ta24N11O13
_symmetry_space_group_name_H-M   'P 1'
_cell_length_a   16.74569933
_cell_length_b   16.88687756
_cell_length_c   15.65549880
_cell_angle_alpha   90.40572807
_cell_angle_beta   89.88944546
_cell_angle_gamma   90.01605126
_symmetry_Int_Tables_number   1
_chemical_formula_structural   Sr24Ta24N11O13
_chemical_formula_sum   'Sr72 Ta72 N33 O39'
_cell_volume   4426.98285538
_cell_formula_units_Z   3
loop_
 _symmetry_equiv_pos_site_id
 _symmetry_equiv_pos_as_xyz
  1  'x, y, z'
loop_
 _atom_site_type_symbol
 _atom_site_label
 _atom_site_symmetry_multiplicity
 _atom_site_fract_x
 _atom_site_fract_y
 _atom_site_fract_z
 _atom_site_occupancy
  Sr  Sr0  1  -0.01310984  0.17981837  0.16486913  1
  Sr  Sr1  1  0.01153628  0.16690155  0.61490770  1
  Sr  Sr2  1  -0.00722732  0.49715008  0.11723700  1
  Sr  Sr3  1  0.00134239  0.51964553  0.65647527  1
  Sr  Sr4  1  -0.00268440  0.84567742  0.12568537  1
  Sr  Sr5  1  -0.01879063  0.84000299  0.64052564  1
  Sr  Sr6  1  0.32516543  0.17372307  0.11383020  1
  Sr  Sr7  1  0.33041525  0.19018861  0.66325428  1
  Sr  Sr8  1  0.32758886  0.52274125  0.13494234  1
  Sr  Sr9  1  0.32569404  0.48497246  0.57667312  1
  Sr  Sr10  1  0.32601632  0.83846645  0.08810098  1
  Sr  Sr11  1  0.34318774  0.83511101  0.63934380  1
  Sr  Sr12  1  0.68430514  0.17819884  0.08201528  1
  Sr  Sr13  1  0.66684737  0.14838081  0.63815992  1
  Sr  Sr14  1  0.65930457  0.48442585  0.15659847  1
  Sr  Sr15  1  0.66176214  0.51374932  0.63241409  1
  Sr  Sr16  1  0.65385977  0.83778876  0.13838938  1
  Sr  Sr17  1  0.67030363  0.82739565  0.58727274  1
  Sr  Sr18  1  0.16896575  0.00815613  0.13275497  1
  Sr  Sr19  1  0.16326313  -0.00252655  0.58652444  1
  Sr  Sr20  1  0.18016340  0.34453678  0.08482719  1
  Sr  Sr21  1  0.15348752  0.32858542  0.63702462  1
  Sr  Sr22  1  0.14909126  0.65420181  0.17864884  1
  Sr  Sr23  1  0.18275123  0.66864630  0.62057164  1
  Sr  Sr24  1  0.50436090  0.00201602  0.16573009  1
  Sr  Sr25  1  0.51360398  -0.01241477  0.60843344  1
  Sr  Sr26  1  0.50463718  0.30661295  0.12572969  1
  Sr  Sr27  1  0.51284358  0.33435934  0.62290147  1
  Sr  Sr28  1  0.49437779  0.67810994  0.10978094  1
  Sr  Sr29  1  0.50120115  0.65782486  0.65777156  1
  Sr  Sr30  1  0.82588405  -0.00622667  0.11611038  1
  Sr  Sr31  1  0.84938940  0.00218056  0.67151437  1
  Sr  Sr32  1  0.84305152  0.34632980  0.13431959  1
  Sr  Sr33  1  0.84111058  0.29704497  0.57458585  1
  Sr  Sr34  1  0.85573618  0.65994644  0.07680370  1
  Sr  Sr35  1  0.83036719  0.66385717  0.62422414  1
  Sr  Sr36  1  0.01090835  0.17814617  0.39270306  1
  Sr  Sr37  1  0.00344333  0.16911604  0.83672654  1
  Sr  Sr38  1  -0.00967141  0.51682620  0.35862175  1
  Sr  Sr39  1  -0.01112483  0.49084919  0.88694186  1
  Sr  Sr40  1  0.00348079  0.84032045  0.35367974  1
  Sr  Sr41  1  -0.01095261  0.85370510  0.88901190  1
  Sr  Sr42  1  0.35033857  0.15848982  0.32497622  1
  Sr  Sr43  1  0.32275788  0.18282442  0.88798043  1
  Sr  Sr44  1  0.32845858  0.50814784  0.37022975  1
  Sr  Sr45  1  0.34109935  0.51500808  0.91537673  1
  Sr  Sr46  1  0.31971507  0.85128163  0.42762282  1
  Sr  Sr47  1  0.33960921  0.81808003  0.86321807  1
  Sr  Sr48  1  0.66135530  0.17791941  0.42813415  1
  Sr  Sr49  1  0.66800363  0.15780089  0.86586483  1
  Sr  Sr50  1  0.66439684  0.50093591  0.36446073  1
  Sr  Sr51  1  0.64651056  0.50306247  0.83645061  1
  Sr  Sr52  1  0.66058982  0.84235029  0.36338920  1
  Sr  Sr53  1  0.66027276  0.81839260  0.91288799  1
  Sr  Sr54  1  0.16416225  0.01187237  0.36925367  1
  Sr  Sr55  1  0.17939154  -0.01172191  0.91460212  1
  Sr  Sr56  1  0.17301533  0.33702501  0.40925882  1
  Sr  Sr57  1  0.15427258  0.34071881  0.86341607  1
  Sr  Sr58  1  0.17596512  0.66626595  0.38291933  1
  Sr  Sr59  1  0.15989207  0.67211900  0.83441268  1
  Sr  Sr60  1  0.51255220  -0.00367362  0.38684107  1
  Sr  Sr61  1  0.49132001  -0.01004965  0.83533087  1
  Sr  Sr62  1  0.50511366  0.33191463  0.38664283  1
  Sr  Sr63  1  0.51323919  0.31626536  0.85671671  1
  Sr  Sr64  1  0.51052309  0.65357204  0.32737771  1
  Sr  Sr65  1  0.49656574  0.67008547  0.88520679  1
  Sr  Sr66  1  0.83678419  -0.02318500  0.33579417  1
  Sr  Sr67  1  0.82689560  0.00372877  0.88376889  1
  Sr  Sr68  1  0.84576792  0.34388510  0.35300770  1
  Sr  Sr69  1  0.82995760  0.32695287  0.90988200  1
  Sr  Sr70  1  0.82603559  0.67041926  0.41573556  1
  Sr  Sr71  1  0.82968889  0.64353926  0.85913012  1
  Ta  Ta72  1  0.11855156  0.16716488  0.00246890  1
  Ta  Ta73  1  0.21958149  0.16732913  0.49440923  1
  Ta  Ta74  1  0.16236640  0.53450071  0.00254077  1
  Ta  Ta75  1  0.13161045  0.50651706  0.50345759  1
  Ta  Ta76  1  0.15641770  0.80273669  0.00474647  1
  Ta  Ta77  1  0.12918761  0.82507371  0.50248505  1
  Ta  Ta78  1  0.49926551  0.12413050  -0.00006337  1
  Ta  Ta79  1  0.45981570  0.16442693  0.50100738  1
  Ta  Ta80  1  0.52096428  0.47721657  -0.00129232  1
  Ta  Ta81  1  0.50555557  0.52637935  0.49776453  1
  Ta  Ta82  1  0.49605778  0.88020448  0.00399794  1
  Ta  Ta83  1  0.49898833  0.78504907  0.49567412  1
  Ta  Ta84  1  0.88065111  0.16381570  0.00135159  1
  Ta  Ta85  1  0.83891685  0.11097986  0.50237066  1
  Ta  Ta86  1  0.78232616  0.49578071  0.00139007  1
  Ta  Ta87  1  0.83232152  0.48338785  0.49786767  1
  Ta  Ta88  1  0.82147420  0.82478876  0.00478400  1
  Ta  Ta89  1  0.84101213  0.86565030  0.50236799  1
  Ta  Ta90  1  0.16703932  0.21138784  0.25213519  1
  Ta  Ta91  1  0.17431357  0.12201911  0.75081891  1
  Ta  Ta92  1  0.16333354  0.46222684  0.24797103  1
  Ta  Ta93  1  0.22100787  0.49851231  0.75032657  1
  Ta  Ta94  1  0.19942546  0.83784466  0.25795434  1
  Ta  Ta95  1  0.16005595  0.86035851  0.74749609  1
  Ta  Ta96  1  0.55036116  0.16833281  0.26074013  1
  Ta  Ta97  1  0.49020498  0.15048304  0.73927842  1
  Ta  Ta98  1  0.48111886  0.46808816  0.24983259  1
  Ta  Ta99  1  0.44869348  0.49403579  0.74325217  1
  Ta  Ta100  1  0.45471665  0.83297890  0.24918256  1
  Ta  Ta101  1  0.54589647  0.82547747  0.74914758  1
  Ta  Ta102  1  0.80135216  0.16389044  0.25774948  1
  Ta  Ta103  1  0.83417008  0.19893555  0.74506424  1
  Ta  Ta104  1  0.82729474  0.54607377  0.24570333  1
  Ta  Ta105  1  0.82892087  0.45080689  0.74310294  1
  Ta  Ta106  1  0.82727935  0.78491488  0.24530546  1
  Ta  Ta107  1  0.79732970  0.82315098  0.74968545  1
  Ta  Ta108  1  -0.00000309  0.02104889  0.24940672  1
  Ta  Ta109  1  0.04527372  -0.00191088  0.75152492  1
  Ta  Ta110  1  0.04397191  0.34272300  0.24634658  1
  Ta  Ta111  1  -0.04503495  0.33807555  0.74604444  1
  Ta  Ta112  1  -0.04148422  0.67455377  0.25025742  1
  Ta  Ta113  1  -0.00770107  0.69478133  0.75297007  1
  Ta  Ta114  1  0.33307640  -0.04386419  0.25788466  1
  Ta  Ta115  1  0.30515108  0.01076343  0.74830129  1
  Ta  Ta116  1  0.31297714  0.34711828  0.25094860  1
  Ta  Ta117  1  0.33350613  0.37144908  0.74994867  1
  Ta  Ta118  1  0.32817609  0.72335038  0.25251155  1
  Ta  Ta119  1  0.33328395  0.62425683  0.74965517  1
  Ta  Ta120  1  0.67466117  0.05011782  0.25801989  1
  Ta  Ta121  1  0.66745384  -0.04534229  0.74902823  1
  Ta  Ta122  1  0.66942735  0.29390314  0.25500529  1
  Ta  Ta123  1  0.71193374  0.32854016  0.74556528  1
  Ta  Ta124  1  0.70759794  0.66563825  0.23993155  1
  Ta  Ta125  1  0.66733398  0.70182795  0.74982172  1
  Ta  Ta126  1  -0.00105662  0.04273786  0.00105430  1
  Ta  Ta127  1  -0.02608858  -0.01065991  0.50157051  1
  Ta  Ta128  1  0.00297302  0.29739383  -0.00130349  1
  Ta  Ta129  1  -0.00125912  0.38350961  0.50566795  1
  Ta  Ta130  1  0.04874884  0.67337687  0.00660757  1
  Ta  Ta131  1  0.01666716  0.67790415  0.50026168  1
  Ta  Ta132  1  0.37774287  0.00672148  0.00268988  1
  Ta  Ta133  1  0.33771245  0.04533587  0.49814323  1
  Ta  Ta134  1  0.36645272  0.35339821  0.00548344  1
  Ta  Ta135  1  0.34017590  0.29177187  0.49389227  1
  Ta  Ta136  1  0.25973437  0.67344938  0.00498091  1
  Ta  Ta137  1  0.37903900  0.66614988  0.49497177  1
  Ta  Ta138  1  0.62980158  -0.00211782  -0.00396878  1
  Ta  Ta139  1  0.71368912  -0.00245806  0.50269289  1
  Ta  Ta140  1  0.65635072  0.36766737  -0.00842109  1
  Ta  Ta141  1  0.68337720  0.36829542  0.49714534  1
  Ta  Ta142  1  0.66763087  0.62658416  -0.00282569  1
  Ta  Ta143  1  0.62841740  0.66026216  0.49822600  1
  N  N144  1  0.82334383  0.50157790  0.11954562  1
  N  N145  1  0.17994672  0.17884419  0.36982948  1
  N  N146  1  0.67490405  -0.00835663  0.62901467  1
  N  N147  1  0.49216596  0.83892442  0.12278860  1
  N  N148  1  -0.00742243  0.33339471  0.87372120  1
  N  N149  1  0.00543400  0.00658384  0.87318535  1
  N  N150  1  0.16671347  0.50100096  0.12701712  1
  N  N151  1  0.49063606  0.49137755  0.36981460  1
  N  N152  1  -0.00257520  0.33880461  0.62005177  1
  N  N153  1  0.48735235  0.49623398  0.62179176  1
  N  N154  1  0.00494580  0.66937822  0.12403666  1
  N  N155  1  0.66036516  0.65734109  0.87733913  1
  N  N156  1  0.33900349  0.00238032  0.37535558  1
  N  N157  1  -0.00619685  0.67238238  0.37234299  1
  N  N158  1  -0.00841629  0.67401090  0.63159505  1
  N  N159  1  0.50894191  0.16016377  0.37957928  1
  N  N160  1  0.00723104  0.33747069  0.12606735  1
  N  N161  1  0.82934865  0.50905174  0.37743396  1
  N  N162  1  0.16292928  0.83938869  0.38613593  1
  N  N163  1  0.51183953  0.15847796  0.61967990  1
  N  N164  1  0.67452698  0.00496736  0.37577160  1
  N  N165  1  0.67853433  0.33711978  0.37527523  1
  N  N166  1  0.84155767  0.15228459  0.62860323  1
  N  N167  1  0.82811530  0.83582751  0.12623099  1
  N  N168  1  0.33691612  0.32976872  0.37496119  1
  N  N169  1  0.00464443  0.00322542  0.37637734  1
  N  N170  1  0.00633933  0.00432264  0.62792611  1
  N  N171  1  0.66311970  -0.00427749  0.87686630  1
  N  N172  1  0.82658332  0.83341382  0.62277287  1
  N  N173  1  0.34026283  0.32913637  0.12116639  1
  N  N174  1  0.66122213  0.66756049  0.61854475  1
  N  N175  1  0.67036570  0.33472268  0.87029413  1
  N  N176  1  0.00325019  0.00011516  0.12497206  1
  O  O177  1  0.35314617  0.67110774  0.36867290  1
  O  O178  1  0.66519161  0.01085207  0.12965402  1
  O  O179  1  0.34806092  0.65051896  0.61795245  1
  O  O180  1  0.34068482  0.35061287  0.87815285  1
  O  O181  1  0.49788507  0.14449388  0.87313862  1
  O  O182  1  0.16510658  0.17378494  0.12182699  1
  O  O183  1  0.82391997  0.15972643  0.38178689  1
  O  O184  1  0.00258754  0.34106260  0.38103341  1
  O  O185  1  0.18352243  0.50011062  0.87498913  1
  O  O186  1  0.18469837  0.84483525  0.62184538  1
  O  O187  1  0.30532675  0.68256042  0.12869709  1
  O  O188  1  0.82901705  0.50874132  0.63266696  1
  O  O189  1  0.00625111  0.67648176  0.87990730  1
  O  O190  1  0.65173726  0.66292275  0.12558747  1
  O  O191  1  0.83253016  0.16751275  0.13080838  1
  O  O192  1  0.15775455  0.83431151  0.87128870  1
  O  O193  1  0.67245794  0.33439949  0.62002426  1
  O  O194  1  0.82499484  0.48625077  0.87347707  1
  O  O195  1  0.34496496  -0.00524250  0.12938021  1
  O  O196  1  0.50190612  0.81064704  0.36991686  1
  O  O197  1  0.17927162  0.15006603  0.62338876  1
  O  O198  1  0.33328954  0.00884102  0.87422739  1
  O  O199  1  0.51391006  0.15166725  0.12726611  1
  O  O200  1  0.82885857  0.83870240  0.87475152  1
  O  O201  1  0.66654537  0.66302740  0.36831006  1
  O  O202  1  0.82328904  0.82629114  0.37549900  1
  O  O203  1  0.30813808  0.66153956  0.88200211  1
  O  O204  1  0.16809360  0.50426000  0.62659431  1
  O  O205  1  0.16519486  0.14393393  0.88076479  1
  O  O206  1  0.49527328  0.49062840  0.87182051  1
  O  O207  1  0.50041827  0.83486539  0.87247637  1
  O  O208  1  0.50768555  0.49234283  0.12429539  1
  O  O209  1  0.66322793  0.32667727  0.12611425  1
  O  O210  1  0.15023082  0.50750671  0.37569253  1
  O  O211  1  0.84442674  0.16575693  0.87453903  1
  O  O212  1  0.33308305  0.33950494  0.62181538  1
  O  O213  1  0.50095672  0.81231874  0.62597462  1
  O  O214  1  0.16069594  0.82979834  0.13486096  1
  O  O215  1  0.32231347  0.00039081  0.62407120  1
