# generated using pymatgen
data_Sr24Ta24N11O13
_symmetry_space_group_name_H-M   'P 1'
_cell_length_a   16.75788147
_cell_length_b   16.84467811
_cell_length_c   15.67363970
_cell_angle_alpha   89.88367228
_cell_angle_beta   90.75702630
_cell_angle_gamma   89.95525303
_symmetry_Int_Tables_number   1
_chemical_formula_structural   Sr24Ta24N11O13
_chemical_formula_sum   'Sr72 Ta72 N33 O39'
_cell_volume   4423.97581387
_cell_formula_units_Z   3
loop_
 _symmetry_equiv_pos_site_id
 _symmetry_equiv_pos_as_xyz
  1  'x, y, z'
loop_
 _atom_site_type_symbol
 _atom_site_label
 _atom_site_symmetry_multiplicity
 _atom_site_fract_x
 _atom_site_fract_y
 _atom_site_fract_z
 _atom_site_occupancy
  Sr  Sr0  1  -0.01315512  0.17739504  0.13092514  1
  Sr  Sr1  1  0.01458470  0.16057033  0.63915361  1
  Sr  Sr2  1  0.02188049  0.50706887  0.13855103  1
  Sr  Sr3  1  -0.01013146  0.51783177  0.57587559  1
  Sr  Sr4  1  0.00709404  0.85112361  0.10726929  1
  Sr  Sr5  1  0.00818303  0.83648171  0.65763598  1
  Sr  Sr6  1  0.33446234  0.16823845  0.12636653  1
  Sr  Sr7  1  0.33533034  0.16703798  0.58819529  1
  Sr  Sr8  1  0.32739422  0.54105954  0.08315587  1
  Sr  Sr9  1  0.32120619  0.49224706  0.64312069  1
  Sr  Sr10  1  0.34860953  0.83133984  0.16522802  1
  Sr  Sr11  1  0.32098862  0.85869256  0.62539690  1
  Sr  Sr12  1  0.67134821  0.15279642  0.16962501  1
  Sr  Sr13  1  0.67022777  0.17275485  0.61572482  1
  Sr  Sr14  1  0.66067104  0.49247990  0.11406837  1
  Sr  Sr15  1  0.70317235  0.50378370  0.66703407  1
  Sr  Sr16  1  0.65701448  0.84382736  0.08285733  1
  Sr  Sr17  1  0.66520008  0.82267716  0.63323319  1
  Sr  Sr18  1  0.17831364  -0.00040408  0.09082670  1
  Sr  Sr19  1  0.16040322  -0.00369194  0.63345503  1
  Sr  Sr20  1  0.17576860  0.31456415  0.13813029  1
  Sr  Sr21  1  0.16232418  0.33199865  0.65929324  1
  Sr  Sr22  1  0.16325911  0.67948553  0.13168776  1
  Sr  Sr23  1  0.16108937  0.63901305  0.60296992  1
  Sr  Sr24  1  0.49673751  -0.00444109  0.12269219  1
  Sr  Sr25  1  0.51140638  -0.01802929  0.67098551  1
  Sr  Sr26  1  0.51306119  0.32924013  0.14297242  1
  Sr  Sr27  1  0.48177366  0.32848258  0.60060078  1
  Sr  Sr28  1  0.51085394  0.66028015  0.12217382  1
  Sr  Sr29  1  0.48441694  0.64969762  0.60508932  1
  Sr  Sr30  1  0.84895840  0.01267836  0.14070829  1
  Sr  Sr31  1  0.81248983  0.00002622  0.57796325  1
  Sr  Sr32  1  0.84061918  0.34814069  0.07824022  1
  Sr  Sr33  1  0.83420687  0.32304462  0.63647522  1
  Sr  Sr34  1  0.82874315  0.64833014  0.16747369  1
  Sr  Sr35  1  0.83555976  0.67571333  0.61733032  1
  Sr  Sr36  1  0.00582665  0.16178125  0.37183232  1
  Sr  Sr37  1  -0.01544429  0.18714065  0.85945624  1
  Sr  Sr38  1  0.00375139  0.51509685  0.36365174  1
  Sr  Sr39  1  -0.00092254  0.50502579  0.91691038  1
  Sr  Sr40  1  -0.00760294  0.85377644  0.34107765  1
  Sr  Sr41  1  0.00995345  0.82982453  0.87985029  1
  Sr  Sr42  1  0.33213017  0.17525463  0.37063657  1
  Sr  Sr43  1  0.34343687  0.16139614  0.91920299  1
  Sr  Sr44  1  0.34536121  0.51798560  0.43084195  1
  Sr  Sr45  1  0.32149638  0.50354987  0.85577599  1
  Sr  Sr46  1  0.32737126  0.84251640  0.37500490  1
  Sr  Sr47  1  0.33199122  0.86094278  0.83297671  1
  Sr  Sr48  1  0.67481340  0.16952473  0.38810934  1
  Sr  Sr49  1  0.65837070  0.16785756  0.83623469  1
  Sr  Sr50  1  0.65174988  0.51470984  0.32200550  1
  Sr  Sr51  1  0.66942673  0.48852578  0.89023839  1
  Sr  Sr52  1  0.68172841  0.82086468  0.42120816  1
  Sr  Sr53  1  0.65456787  0.83291002  0.86881840  1
  Sr  Sr54  1  0.18196159  0.00920281  0.41981003  1
  Sr  Sr55  1  0.16386919  -0.00618992  0.86129122  1
  Sr  Sr56  1  0.14892716  0.33071107  0.33795117  1
  Sr  Sr57  1  0.17480877  0.32402250  0.86530895  1
  Sr  Sr58  1  0.16343341  0.65703876  0.37026597  1
  Sr  Sr59  1  0.15564699  0.64781682  0.90656947  1
  Sr  Sr60  1  0.49102868  -0.01078473  0.33835589  1
  Sr  Sr61  1  0.50617977  -0.00429521  0.87948963  1
  Sr  Sr62  1  0.51074225  0.33026415  0.37311546  1
  Sr  Sr63  1  0.49196263  0.32034387  0.88054239  1
  Sr  Sr64  1  0.49786774  0.67150771  0.37774229  1
  Sr  Sr65  1  0.49196224  0.64505212  0.89935160  1
  Sr  Sr66  1  0.83587208  0.01277320  0.36142240  1
  Sr  Sr67  1  0.83629492  -0.02347899  0.92205575  1
  Sr  Sr68  1  0.84228605  0.33971637  0.41414277  1
  Sr  Sr69  1  0.82786945  0.33091113  0.86412092  1
  Sr  Sr70  1  0.83265991  0.66479760  0.37910147  1
  Sr  Sr71  1  0.82473512  0.68193536  0.83136584  1
  Ta  Ta72  1  0.13953662  0.16674292  -0.00794222  1
  Ta  Ta73  1  0.16105012  0.20837973  0.50371952  1
  Ta  Ta74  1  0.17418067  0.46086665  0.00370121  1
  Ta  Ta75  1  0.16444548  0.45367585  0.49660859  1
  Ta  Ta76  1  0.20811220  0.83031075  -0.00075641  1
  Ta  Ta77  1  0.14724785  0.82065414  0.50326645  1
  Ta  Ta78  1  0.54518844  0.16192119  0.00042843  1
  Ta  Ta79  1  0.50730482  0.11775691  0.50483737  1
  Ta  Ta80  1  0.48229950  0.46843539  0.00253153  1
  Ta  Ta81  1  0.54318725  0.49720319  0.49298978  1
  Ta  Ta82  1  0.46247492  0.82836629  -0.00774064  1
  Ta  Ta83  1  0.49436006  0.85405729  0.50275710  1
  Ta  Ta84  1  0.79238700  0.16564460  0.00281016  1
  Ta  Ta85  1  0.86161555  0.16806823  0.50446885  1
  Ta  Ta86  1  0.83042759  0.54575014  -0.00267393  1
  Ta  Ta87  1  0.79262142  0.50695890  0.48834575  1
  Ta  Ta88  1  0.83017661  0.78316564  0.00260229  1
  Ta  Ta89  1  0.87896657  0.83638761  0.49786308  1
  Ta  Ta90  1  0.16827360  0.13019103  0.24895161  1
  Ta  Ta91  1  0.21060352  0.16053297  0.74579479  1
  Ta  Ta92  1  0.22938160  0.49722676  0.25903491  1
  Ta  Ta93  1  0.11653580  0.50426430  0.74675688  1
  Ta  Ta94  1  0.16593952  0.87001485  0.24619985  1
  Ta  Ta95  1  0.17379024  0.77646644  0.74681349  1
  Ta  Ta96  1  0.49442294  0.16195515  0.25064369  1
  Ta  Ta97  1  0.47064632  0.16842555  0.75293039  1
  Ta  Ta98  1  0.44194241  0.49980832  0.25569948  1
  Ta  Ta99  1  0.51827568  0.48785201  0.74633521  1
  Ta  Ta100  1  0.54629411  0.82701347  0.24845937  1
  Ta  Ta101  1  0.49035619  0.78286640  0.75268886  1
  Ta  Ta102  1  0.83694972  0.21875653  0.24801400  1
  Ta  Ta103  1  0.82995516  0.12209160  0.74824487  1
  Ta  Ta104  1  0.83502349  0.46127815  0.25018067  1
  Ta  Ta105  1  0.89118323  0.51147179  0.74763216  1
  Ta  Ta106  1  0.79977998  0.83225964  0.24686350  1
  Ta  Ta107  1  0.83203671  0.87620449  0.74715630  1
  Ta  Ta108  1  0.04955963  0.01178776  0.24879399  1
  Ta  Ta109  1  -0.05157978  0.00129783  0.74505602  1
  Ta  Ta110  1  -0.03992161  0.34050918  0.24568708  1
  Ta  Ta111  1  -0.00429152  0.38018588  0.75628819  1
  Ta  Ta112  1  -0.00409402  0.69590986  0.24494995  1
  Ta  Ta113  1  0.01224015  0.64788254  0.75526776  1
  Ta  Ta114  1  0.30207664  0.00990340  0.25056539  1
  Ta  Ta115  1  0.33571980  0.04661007  0.74994320  1
  Ta  Ta116  1  0.33977082  0.36461619  0.25561253  1
  Ta  Ta117  1  0.34007634  0.29158459  0.74988010  1
  Ta  Ta118  1  0.33407936  0.64406404  0.26040171  1
  Ta  Ta119  1  0.32684982  0.68405223  0.74258834  1
  Ta  Ta120  1  0.66727071  -0.04724201  0.25841318  1
  Ta  Ta121  1  0.71103877  -0.00364013  0.74630778  1
  Ta  Ta122  1  0.71113779  0.33333389  0.25132393  1
  Ta  Ta123  1  0.63280051  0.34317579  0.74290039  1
  Ta  Ta124  1  0.66445436  0.71117803  0.25031732  1
  Ta  Ta125  1  0.62345115  0.65664412  0.75418268  1
  Ta  Ta126  1  0.01355829  0.03503863  -0.00095302  1
  Ta  Ta127  1  -0.00563681  -0.02303891  0.49975711  1
  Ta  Ta128  1  0.03343329  0.32955749  0.00212217  1
  Ta  Ta129  1  0.02424290  0.32553028  0.50460741  1
  Ta  Ta130  1  -0.04420159  0.67495339  0.00592940  1
  Ta  Ta131  1  0.00028192  0.71677983  0.49114327  1
  Ta  Ta132  1  0.33936941  -0.03764463  -0.00052285  1
  Ta  Ta133  1  0.38112120  -0.00023254  0.50210951  1
  Ta  Ta134  1  0.33329628  0.35765732  -0.00084917  1
  Ta  Ta135  1  0.28787552  0.33764892  0.50307550  1
  Ta  Ta136  1  0.33212341  0.72094377  -0.00678938  1
  Ta  Ta137  1  0.31804471  0.70291169  0.50943880  1
  Ta  Ta138  1  0.66830283  0.03717791  0.00389243  1
  Ta  Ta139  1  0.62256009  -0.00478379  0.50086128  1
  Ta  Ta140  1  0.65926042  0.29443993  0.00594060  1
  Ta  Ta141  1  0.66983338  0.38525235  0.49171795  1
  Ta  Ta142  1  0.70319919  0.66475568  0.00463791  1
  Ta  Ta143  1  0.66337473  0.62170594  0.49533756  1
  N  N144  1  0.67123178  0.32700493  0.12447660  1
  N  N145  1  0.34214730  0.00979738  0.62582907  1
  N  N146  1  0.66883056  0.66931807  0.12496810  1
  N  N147  1  0.01275800  0.00606368  0.37450704  1
  N  N148  1  0.49437329  0.83084483  0.86508854  1
  N  N149  1  0.66491190  -0.01182398  0.37750769  1
  N  N150  1  0.32518274  0.33032721  0.62914025  1
  N  N151  1  0.32785249  0.64796220  0.61908562  1
  N  N152  1  0.17298534  0.16401335  0.61895480  1
  N  N153  1  0.33769398  -0.00379514  0.12999320  1
  N  N154  1  0.66610756  0.66759932  0.37843092  1
  N  N155  1  0.17883773  0.49369593  0.37239053  1
  N  N156  1  0.00671711  0.66625541  0.12019300  1
  N  N157  1  0.83068055  0.50642930  0.36649801  1
  N  N158  1  0.67035340  0.34129109  0.37488485  1
  N  N159  1  0.17772110  0.83884585  0.12296460  1
  N  N160  1  -0.00423819  0.34379463  0.87825281  1
  N  N161  1  0.00230748  0.34030425  0.12684298  1
  N  N162  1  0.66315327  -0.00603264  0.62892292  1
  N  N163  1  0.33660262  0.00403519  0.37980636  1
  N  N164  1  0.15088745  0.48880216  0.62866493  1
  N  N165  1  0.83530277  0.16486892  0.62336575  1
  N  N166  1  0.33168897  0.32958390  0.87940983  1
  N  N167  1  0.49649596  0.49991332  0.36910336  1
  N  N168  1  0.33548257  0.00763231  0.88295510  1
  N  N169  1  0.00716667  0.01072152  0.12086130  1
  N  N170  1  0.16102388  0.82315631  0.63101348  1
  N  N171  1  -0.00502418  0.00107975  0.62848280  1
  N  N172  1  0.33381597  0.67261354  0.38170706  1
  N  N173  1  0.50351987  0.15997858  0.87985885  1
  N  N174  1  -0.00068712  0.67315398  0.37168422  1
  N  N175  1  -0.00537943  0.66922606  0.87607672  1
  N  N176  1  0.82700853  0.17935729  0.12158318  1
  O  O177  1  0.67671655  0.01384273  0.87730667  1
  O  O178  1  0.33400508  0.32908947  0.13335244  1
  O  O179  1  0.83210727  0.83728259  0.37172410  1
  O  O180  1  0.82093417  0.16776836  0.86933781  1
  O  O181  1  0.48334853  0.48906679  0.12736046  1
  O  O182  1  -0.00465478  0.67195000  0.61380400  1
  O  O183  1  0.51263706  0.83508746  0.37933365  1
  O  O184  1  0.50212792  0.14510425  0.37410376  1
  O  O185  1  0.16856402  0.15984505  0.11708806  1
  O  O186  1  0.84544300  0.51769899  0.62151172  1
  O  O187  1  0.16357844  0.48849971  0.87630187  1
  O  O188  1  0.65127278  0.32608176  0.86941768  1
  O  O189  1  0.00253805  0.33378139  0.62943420  1
  O  O190  1  0.49773273  0.16180120  0.12379317  1
  O  O191  1  0.00051026  0.33330947  0.37725878  1
  O  O192  1  0.50611618  0.82921415  0.11804903  1
  O  O193  1  0.83075338  0.83091412  0.87162045  1
  O  O194  1  0.84520499  0.53083562  0.86640801  1
  O  O195  1  0.16666159  0.16446666  0.37987511  1
  O  O196  1  0.66804268  0.00131617  0.12857627  1
  O  O197  1  0.49630999  0.82982181  0.62895721  1
  O  O198  1  0.49899183  0.48426647  0.87276788  1
  O  O199  1  0.84574505  0.17315381  0.37197098  1
  O  O200  1  0.81300513  0.83005325  0.12024823  1
  O  O201  1  0.18647127  0.47951875  0.13076638  1
  O  O202  1  -0.01357442  0.00781016  0.87557941  1
  O  O203  1  0.16580095  0.84573670  0.37276992  1
  O  O204  1  0.64512283  0.64950591  0.62887562  1
  O  O205  1  0.16164846  0.16266724  0.86723573  1
  O  O206  1  0.33395727  0.68419983  0.12384572  1
  O  O207  1  0.64957656  0.65847041  0.88013837  1
  O  O208  1  0.33255467  0.66578657  0.87600131  1
  O  O209  1  0.33242787  0.33378653  0.37856163  1
  O  O210  1  0.50482417  0.49203740  0.62104354  1
  O  O211  1  0.16616355  0.81358990  0.87024837  1
  O  O212  1  0.65635713  0.34086507  0.61970352  1
  O  O213  1  0.84084155  0.83433540  0.62418282  1
  O  O214  1  0.51023517  0.14113214  0.63381897  1
  O  O215  1  0.82455842  0.50519351  0.11964965  1
