# generated using pymatgen
data_Sr24Ta24N11O13
_symmetry_space_group_name_H-M   'P 1'
_cell_length_a   16.81479278
_cell_length_b   16.82169175
_cell_length_c   15.83166877
_cell_angle_alpha   90.16939008
_cell_angle_beta   90.14452643
_cell_angle_gamma   89.99315165
_symmetry_Int_Tables_number   1
_chemical_formula_structural   Sr24Ta24N11O13
_chemical_formula_sum   'Sr72 Ta72 N33 O39'
_cell_volume   4478.00529529
_cell_formula_units_Z   3
loop_
 _symmetry_equiv_pos_site_id
 _symmetry_equiv_pos_as_xyz
  1  'x, y, z'
loop_
 _atom_site_type_symbol
 _atom_site_label
 _atom_site_symmetry_multiplicity
 _atom_site_fract_x
 _atom_site_fract_y
 _atom_site_fract_z
 _atom_site_occupancy
  Sr  Sr0  1  0.03487108  0.16004962  0.14206904  1
  Sr  Sr1  1  0.01735240  0.16241073  0.64500928  1
  Sr  Sr2  1  -0.00952095  0.49130280  0.12918807  1
  Sr  Sr3  1  0.00155417  0.47818625  0.61519440  1
  Sr  Sr4  1  0.00633379  0.84152043  0.11882185  1
  Sr  Sr5  1  -0.00659760  0.81704457  0.60532464  1
  Sr  Sr6  1  0.33748566  0.15954646  0.09929761  1
  Sr  Sr7  1  0.33579238  0.16820018  0.59980664  1
  Sr  Sr8  1  0.33014897  0.49738831  0.14975818  1
  Sr  Sr9  1  0.32748589  0.48495366  0.63960669  1
  Sr  Sr10  1  0.34489395  0.83305695  0.15281750  1
  Sr  Sr11  1  0.33420227  0.83653938  0.61946323  1
  Sr  Sr12  1  0.66673198  0.16486717  0.15238830  1
  Sr  Sr13  1  0.66898459  0.16330307  0.61970954  1
  Sr  Sr14  1  0.65319359  0.48872885  0.07618926  1
  Sr  Sr15  1  0.67025106  0.50228347  0.63031573  1
  Sr  Sr16  1  0.66641835  0.82133495  0.11207844  1
  Sr  Sr17  1  0.67634211  0.81591853  0.65658699  1
  Sr  Sr18  1  0.16391431  -0.00567877  0.11923965  1
  Sr  Sr19  1  0.15995569  0.01248458  0.65794719  1
  Sr  Sr20  1  0.15284737  0.35185389  0.16331550  1
  Sr  Sr21  1  0.16232303  0.32833883  0.61628132  1
  Sr  Sr22  1  0.14385565  0.66678718  0.08016991  1
  Sr  Sr23  1  0.17388854  0.68954154  0.63385250  1
  Sr  Sr24  1  0.49467339  0.00948834  0.13819570  1
  Sr  Sr25  1  0.49120194  -0.00241617  0.61739737  1
  Sr  Sr26  1  0.49100287  0.32855425  0.11568566  1
  Sr  Sr27  1  0.51149516  0.35230672  0.67348459  1
  Sr  Sr28  1  0.50151124  0.67799356  0.13612675  1
  Sr  Sr29  1  0.50323179  0.65541903  0.58610228  1
  Sr  Sr30  1  0.81195336  -0.00045698  0.09688605  1
  Sr  Sr31  1  0.83892310  0.01321650  0.61707369  1
  Sr  Sr32  1  0.82241751  0.33938925  0.12022268  1
  Sr  Sr33  1  0.81534073  0.34754797  0.58741899  1
  Sr  Sr34  1  0.84294744  0.67745039  0.16410075  1
  Sr  Sr35  1  0.84072204  0.67417382  0.63139542  1
  Sr  Sr36  1  0.02762583  0.15920324  0.36102294  1
  Sr  Sr37  1  0.02012485  0.16419015  0.85345443  1
  Sr  Sr38  1  -0.00459915  0.48648480  0.36155105  1
  Sr  Sr39  1  -0.00180834  0.49100551  0.89326661  1
  Sr  Sr40  1  -0.00896418  0.83609171  0.37896897  1
  Sr  Sr41  1  0.00522750  0.82016184  0.88992328  1
  Sr  Sr42  1  0.33880380  0.16525791  0.40272152  1
  Sr  Sr43  1  0.34076762  0.16318320  0.90501962  1
  Sr  Sr44  1  0.33200803  0.48553401  0.35999991  1
  Sr  Sr45  1  0.32267584  0.49360903  0.85556806  1
  Sr  Sr46  1  0.34264220  0.83287738  0.38226721  1
  Sr  Sr47  1  0.33734218  0.83853846  0.84354400  1
  Sr  Sr48  1  0.66195159  0.15809441  0.37756898  1
  Sr  Sr49  1  0.66014824  0.15922149  0.84807091  1
  Sr  Sr50  1  0.66503500  0.50175073  0.41047121  1
  Sr  Sr51  1  0.65767871  0.48969643  0.87066421  1
  Sr  Sr52  1  0.67622908  0.79666361  0.33603626  1
  Sr  Sr53  1  0.66484379  0.82634735  0.88316255  1
  Sr  Sr54  1  0.15305351  -0.00725134  0.33332712  1
  Sr  Sr55  1  0.16885761  0.01683471  0.88913113  1
  Sr  Sr56  1  0.17495398  0.32945066  0.39093187  1
  Sr  Sr57  1  0.14768675  0.34309259  0.84480529  1
  Sr  Sr58  1  0.16321329  0.70446657  0.41714409  1
  Sr  Sr59  1  0.17325772  0.67774126  0.86908797  1
  Sr  Sr60  1  0.49028438  0.00748696  0.39086457  1
  Sr  Sr61  1  0.49888411  -0.00709031  0.84525705  1
  Sr  Sr62  1  0.50210060  0.33643066  0.34127437  1
  Sr  Sr63  1  0.49530417  0.33726018  0.88301337  1
  Sr  Sr64  1  0.48490059  0.66347600  0.36334020  1
  Sr  Sr65  1  0.51877795  0.67383574  0.92558384  1
  Sr  Sr66  1  0.82665431  0.00840411  0.39571036  1
  Sr  Sr67  1  0.82890075  0.01892843  0.87431322  1
  Sr  Sr68  1  0.80630860  0.33266606  0.37490252  1
  Sr  Sr69  1  0.83117715  0.35139130  0.91099063  1
  Sr  Sr70  1  0.84989503  0.67827031  0.36846693  1
  Sr  Sr71  1  0.82652122  0.66751581  0.83467763  1
  Ta  Ta72  1  0.16460299  0.21370194  -0.00295990  1
  Ta  Ta73  1  0.16127107  0.13232078  0.50194840  1
  Ta  Ta74  1  0.18156945  0.48160200  0.00682248  1
  Ta  Ta75  1  0.17008311  0.52779478  0.49711834  1
  Ta  Ta76  1  0.21525984  0.83810962  0.00148835  1
  Ta  Ta77  1  0.16120314  0.88761864  0.50396299  1
  Ta  Ta78  1  0.52782675  0.15448523  -0.00132269  1
  Ta  Ta79  1  0.50604983  0.21161584  0.50468637  1
  Ta  Ta80  1  0.45518807  0.50568774  -0.00038636  1
  Ta  Ta81  1  0.48713700  0.47198753  0.50106734  1
  Ta  Ta82  1  0.48534948  0.86212994  -0.00277077  1
  Ta  Ta83  1  0.54805203  0.82526974  0.49875423  1
  Ta  Ta84  1  0.87633281  0.17341685  0.00136486  1
  Ta  Ta85  1  0.87390668  0.17829145  0.50012038  1
  Ta  Ta86  1  0.83134020  0.54126198  0.00297063  1
  Ta  Ta87  1  0.84394294  0.52822456  0.50046321  1
  Ta  Ta88  1  0.83618073  0.80190052  0.00224883  1
  Ta  Ta89  1  0.79827119  0.83185082  0.49741751  1
  Ta  Ta90  1  0.21219063  0.16866019  0.25627998  1
  Ta  Ta91  1  0.21343073  0.17680583  0.75068804  1
  Ta  Ta92  1  0.15950572  0.55103396  0.25026344  1
  Ta  Ta93  1  0.14526818  0.51982094  0.74925844  1
  Ta  Ta94  1  0.16699752  0.79768141  0.24310158  1
  Ta  Ta95  1  0.14295979  0.85284872  0.74875343  1
  Ta  Ta96  1  0.46527009  0.16776250  0.24765846  1
  Ta  Ta97  1  0.46245516  0.17185956  0.75448376  1
  Ta  Ta98  1  0.54001244  0.50075016  0.24462209  1
  Ta  Ta99  1  0.49605492  0.54801450  0.75995638  1
  Ta  Ta100  1  0.51941517  0.85555373  0.24635133  1
  Ta  Ta101  1  0.50281609  0.78263881  0.75429134  1
  Ta  Ta102  1  0.86126857  0.16320361  0.24879473  1
  Ta  Ta103  1  0.84026301  0.21262857  0.74953064  1
  Ta  Ta104  1  0.79405121  0.49768405  0.24335715  1
  Ta  Ta105  1  0.84217115  0.47479235  0.74604604  1
  Ta  Ta106  1  0.83272511  0.87071245  0.24750473  1
  Ta  Ta107  1  0.84667984  0.86075775  0.74713512  1
  Ta  Ta108  1  -0.04157950  0.00224590  0.24762702  1
  Ta  Ta109  1  -0.00712713  -0.03352041  0.75121190  1
  Ta  Ta110  1  -0.03248089  0.31169291  0.24964209  1
  Ta  Ta111  1  -0.04544771  0.33531888  0.74478820  1
  Ta  Ta112  1  0.03878021  0.66958219  0.25558471  1
  Ta  Ta113  1  0.01280648  0.63857325  0.75067109  1
  Ta  Ta114  1  0.33360143  0.02769360  0.25672184  1
  Ta  Ta115  1  0.33007311  0.03417867  0.74401578  1
  Ta  Ta116  1  0.33137403  0.29552663  0.25441670  1
  Ta  Ta117  1  0.33005419  0.29862618  0.75254740  1
  Ta  Ta118  1  0.28123785  0.66809280  0.25434216  1
  Ta  Ta119  1  0.37681028  0.66280630  0.75022849  1
  Ta  Ta120  1  0.66565687  -0.02709333  0.24729983  1
  Ta  Ta121  1  0.68180302  -0.01866019  0.74807560  1
  Ta  Ta122  1  0.66016887  0.37786905  0.23890745  1
  Ta  Ta123  1  0.70629263  0.33041665  0.75144947  1
  Ta  Ta124  1  0.66561813  0.61311204  0.23938612  1
  Ta  Ta125  1  0.62963396  0.65584868  0.75964539  1
  Ta  Ta126  1  -0.01313177  0.02428995  0.00433857  1
  Ta  Ta127  1  0.02138738  0.00841869  0.49464106  1
  Ta  Ta128  1  0.01082585  0.30711395  0.00623418  1
  Ta  Ta129  1  -0.01362479  0.30281535  0.50064031  1
  Ta  Ta130  1  -0.04676135  0.66167521  -0.00323627  1
  Ta  Ta131  1  0.00168261  0.63365608  0.50234129  1
  Ta  Ta132  1  0.34195733  -0.02873675  -0.00087807  1
  Ta  Ta133  1  0.28862487  -0.00305478  0.49966616  1
  Ta  Ta134  1  0.29920801  0.34847545  0.00459122  1
  Ta  Ta135  1  0.38044860  0.34041223  0.49973993  1
  Ta  Ta136  1  0.33288458  0.66148075  0.00355066  1
  Ta  Ta137  1  0.32296638  0.62948244  0.49543117  1
  Ta  Ta138  1  0.63018207  0.00398329  0.00177633  1
  Ta  Ta139  1  0.66247581  -0.05051652  0.49713343  1
  Ta  Ta140  1  0.65650426  0.29593549  -0.00375097  1
  Ta  Ta141  1  0.61998768  0.33486561  0.50869345  1
  Ta  Ta142  1  0.71371885  0.66165861  0.00239778  1
  Ta  Ta143  1  0.68228305  0.68329180  0.49905971  1
  N  N144  1  0.32793122  -0.00036145  0.37454886  1
  N  N145  1  0.83153875  0.50610914  0.62277072  1
  N  N146  1  0.34176844  0.32753260  0.37906222  1
  N  N147  1  0.16182212  0.84805095  0.62864367  1
  N  N148  1  -0.00497619  0.00108404  0.37440754  1
  N  N149  1  -0.00310203  0.00282615  0.12335257  1
  N  N150  1  0.32912388  0.00498304  0.62510936  1
  N  N151  1  0.67026307  0.65754631  0.12348348  1
  N  N152  1  0.66000900  0.33421034  0.12255783  1
  N  N153  1  -0.00306574  0.33009575  0.13075929  1
  N  N154  1  0.49515903  0.16814633  0.12892626  1
  N  N155  1  0.00226051  0.66225187  0.62556294  1
  N  N156  1  0.66929536  0.32617546  0.87555665  1
  N  N157  1  0.32584489  0.65987092  0.37597378  1
  N  N158  1  0.48929580  0.50793031  0.88295100  1
  N  N159  1  0.83475042  0.83193656  0.12178662  1
  N  N160  1  0.50092592  0.82571285  0.87356165  1
  N  N161  1  0.18102747  0.16457644  0.37523293  1
  N  N162  1  0.50337160  0.83766287  0.12477071  1
  N  N163  1  0.17445015  0.17063322  0.62040851  1
  N  N164  1  0.17999927  0.83085114  0.11997484  1
  N  N165  1  0.17561071  0.18079470  0.87933119  1
  N  N166  1  0.82708152  0.50133627  0.12431451  1
  N  N167  1  0.66213806  0.33568735  0.62770805  1
  N  N168  1  0.00836591  0.66571209  0.37512956  1
  N  N169  1  0.49560758  0.16528673  0.87495822  1
  N  N170  1  0.65829447  -0.00305485  0.12150589  1
  N  N171  1  0.83404545  0.84041437  0.62290214  1
  N  N172  1  -0.00565524  0.32280279  0.62525246  1
  N  N173  1  0.66993961  0.66236037  0.87591493  1
  N  N174  1  0.16338616  0.50828390  0.12471495  1
  N  N175  1  0.82980418  0.83875123  0.37295940  1
  N  N176  1  -0.00919478  0.66098833  0.87693368  1
  O  O177  1  -0.00103148  0.32573211  0.37114005  1
  O  O178  1  0.18435707  0.17702800  0.12021840  1
  O  O179  1  0.84929811  0.16664887  0.12009738  1
  O  O180  1  0.34485857  0.66810200  0.87900614  1
  O  O181  1  0.84700749  0.17795469  0.62355665  1
  O  O182  1  0.17897080  0.83861800  0.87717638  1
  O  O183  1  0.33622125  -0.00217122  0.87431146  1
  O  O184  1  0.16356739  0.50963797  0.37487716  1
  O  O185  1  0.50138457  0.19179444  0.63271453  1
  O  O186  1  0.66335156  -0.00871977  0.87158143  1
  O  O187  1  -0.00796094  0.33296127  0.87968320  1
  O  O188  1  0.32156877  0.66099460  0.12735604  1
  O  O189  1  0.85261933  0.16511999  0.37289783  1
  O  O190  1  0.34380285  0.32631082  0.62452862  1
  O  O191  1  0.50351593  0.18351003  0.37713340  1
  O  O192  1  0.16299492  0.84449680  0.36491257  1
  O  O193  1  0.66920503  -0.02470368  0.62549005  1
  O  O194  1  0.52256551  0.82706301  0.37584719  1
  O  O195  1  -0.00485279  -0.01015549  0.62677524  1
  O  O196  1  0.50618112  0.49130386  0.37598338  1
  O  O197  1  -0.00430194  0.66631782  0.12156652  1
  O  O198  1  0.85781253  0.18388116  0.87663037  1
  O  O199  1  0.67457637  0.65283028  0.37444241  1
  O  O200  1  0.48896517  0.50144937  0.62690643  1
  O  O201  1  0.33370496  -0.00553313  0.12474884  1
  O  O202  1  0.35029140  0.64787611  0.62066961  1
  O  O203  1  0.15970804  0.50256350  0.87530009  1
  O  O204  1  0.84058992  0.82831887  0.87095736  1
  O  O205  1  0.49466911  0.50229801  0.12009410  1
  O  O206  1  0.31703034  0.33825217  0.13123298  1
  O  O207  1  0.31915665  0.33139827  0.88181105  1
  O  O208  1  0.66496876  0.66442633  0.62476214  1
  O  O209  1  0.66312996  -0.01447361  0.37836377  1
  O  O210  1  -0.00993737  -0.00677822  0.87521287  1
  O  O211  1  0.65348081  0.35009289  0.38023834  1
  O  O212  1  0.83650444  0.50524950  0.87052612  1
  O  O213  1  0.82182378  0.50711124  0.37611349  1
  O  O214  1  0.16751821  0.51383573  0.62653302  1
  O  O215  1  0.52297612  0.81068338  0.62294943  1
