# generated using pymatgen
data_Sr24Ta24N11O13
_symmetry_space_group_name_H-M   'P 1'
_cell_length_a   16.59927877
_cell_length_b   17.18217884
_cell_length_c   15.36258139
_cell_angle_alpha   89.96938021
_cell_angle_beta   89.77826119
_cell_angle_gamma   88.75801169
_symmetry_Int_Tables_number   1
_chemical_formula_structural   Sr24Ta24N11O13
_chemical_formula_sum   'Sr72 Ta72 N33 O39'
_cell_volume   4380.52650172
_cell_formula_units_Z   3
loop_
 _symmetry_equiv_pos_site_id
 _symmetry_equiv_pos_as_xyz
  1  'x, y, z'
loop_
 _atom_site_type_symbol
 _atom_site_label
 _atom_site_symmetry_multiplicity
 _atom_site_fract_x
 _atom_site_fract_y
 _atom_site_fract_z
 _atom_site_occupancy
  Sr  Sr0  1  0.00500071  0.16697204  0.12449097  1
  Sr  Sr1  1  -0.02421579  0.21741292  0.70677069  1
  Sr  Sr2  1  -0.02226392  0.51437058  0.14195587  1
  Sr  Sr3  1  -0.01188788  0.49667165  0.57215575  1
  Sr  Sr4  1  0.01942975  0.83339157  0.16407129  1
  Sr  Sr5  1  -0.01922896  0.81209762  0.59483237  1
  Sr  Sr6  1  0.32675927  0.25345161  0.05253691  1
  Sr  Sr7  1  0.32682658  0.16007789  0.63248252  1
  Sr  Sr8  1  0.35759595  0.47858427  0.12772668  1
  Sr  Sr9  1  0.35696267  0.55912146  0.53333652  1
  Sr  Sr10  1  0.33550232  0.84308338  0.13218904  1
  Sr  Sr11  1  0.34475449  0.78426798  0.54890092  1
  Sr  Sr12  1  0.65857902  0.17761316  0.15200578  1
  Sr  Sr13  1  0.67637328  0.17108090  0.59153795  1
  Sr  Sr14  1  0.64675710  0.51550979  0.10872643  1
  Sr  Sr15  1  0.67624293  0.48643310  0.65771106  1
  Sr  Sr16  1  0.67753099  0.83548705  0.13293727  1
  Sr  Sr17  1  0.62605848  0.87093658  0.71164032  1
  Sr  Sr18  1  0.16380041  -0.02881790  0.14352155  1
  Sr  Sr19  1  0.19193666  -0.02940919  0.58243357  1
  Sr  Sr20  1  0.11786839  0.33477901  0.04120389  1
  Sr  Sr21  1  0.17749081  0.34423138  0.62927261  1
  Sr  Sr22  1  0.20733072  0.68709948  0.09460609  1
  Sr  Sr23  1  0.17025579  0.65982333  0.63524298  1
  Sr  Sr24  1  0.49577061  -0.03221515  0.14161310  1
  Sr  Sr25  1  0.49155771  0.01333046  0.65864722  1
  Sr  Sr26  1  0.51952047  0.35507960  0.14190504  1
  Sr  Sr27  1  0.50879165  0.29349478  0.59872026  1
  Sr  Sr28  1  0.47396000  0.64761326  0.11196231  1
  Sr  Sr29  1  0.51460967  0.62503589  0.65967847  1
  Sr  Sr30  1  0.82276532  0.02407847  0.06373001  1
  Sr  Sr31  1  0.82143261  0.01325902  0.63820920  1
  Sr  Sr32  1  0.83658687  0.35686092  0.19090937  1
  Sr  Sr33  1  0.81835863  0.33143528  0.62777200  1
  Sr  Sr34  1  0.83199187  0.68278990  0.13671619  1
  Sr  Sr35  1  0.84517998  0.64110029  0.56803074  1
  Sr  Sr36  1  0.02539658  0.16107097  0.35736629  1
  Sr  Sr37  1  -0.00044299  0.14985028  0.89987259  1
  Sr  Sr38  1  -0.02464420  0.48999900  0.35945522  1
  Sr  Sr39  1  0.00042702  0.51750522  0.91829038  1
  Sr  Sr40  1  -0.01391712  0.85223705  0.38505997  1
  Sr  Sr41  1  0.01485846  0.84143306  0.80209066  1
  Sr  Sr42  1  0.30587867  0.17005103  0.41844973  1
  Sr  Sr43  1  0.33879897  0.15040247  0.85585877  1
  Sr  Sr44  1  0.35964993  0.48465488  0.33984166  1
  Sr  Sr45  1  0.31069233  0.51961607  0.74765481  1
  Sr  Sr46  1  0.32139313  0.87985498  0.34806230  1
  Sr  Sr47  1  0.31527596  0.81250599  0.92964461  1
  Sr  Sr48  1  0.67049854  0.15433580  0.37783654  1
  Sr  Sr49  1  0.66298087  0.17270391  0.93308010  1
  Sr  Sr50  1  0.66631036  0.57509201  0.46600649  1
  Sr  Sr51  1  0.67141000  0.51732731  0.87282414  1
  Sr  Sr52  1  0.67780238  0.84276173  0.36282113  1
  Sr  Sr53  1  0.71218737  0.84296170  0.90352946  1
  Sr  Sr54  1  0.16233598  0.01352753  0.36980029  1
  Sr  Sr55  1  0.17705473  -0.02386861  0.88791794  1
  Sr  Sr56  1  0.16608175  0.30542477  0.41339078  1
  Sr  Sr57  1  0.17258212  0.29178653  0.83677598  1
  Sr  Sr58  1  0.17486916  0.55542635  0.24182065  1
  Sr  Sr59  1  0.15894322  0.66630047  0.86155965  1
  Sr  Sr60  1  0.52181137  -0.00217417  0.33656059  1
  Sr  Sr61  1  0.48464937  -0.00898377  0.87494619  1
  Sr  Sr62  1  0.50071636  0.29771623  0.36825465  1
  Sr  Sr63  1  0.51418738  0.30673173  0.93385783  1
  Sr  Sr64  1  0.49213705  0.68206747  0.42418900  1
  Sr  Sr65  1  0.49645845  0.68101937  0.86196674  1
  Sr  Sr66  1  0.82983234  -0.01515022  0.42345629  1
  Sr  Sr67  1  0.84732663  -0.02175231  0.84450589  1
  Sr  Sr68  1  0.83324391  0.28786205  0.37942656  1
  Sr  Sr69  1  0.81679638  0.35474743  0.84286725  1
  Sr  Sr70  1  0.82997111  0.70180731  0.36770566  1
  Sr  Sr71  1  0.83823795  0.65871695  0.90584803  1
  Ta  Ta72  1  0.18470904  0.12533196  0.00461097  1
  Ta  Ta73  1  0.09757170  0.15524944  0.56700015  1
  Ta  Ta74  1  0.20355498  0.49059651  -0.01949842  1
  Ta  Ta75  1  0.17356669  0.49489871  0.47275110  1
  Ta  Ta76  1  0.10553662  0.82944372  -0.02135471  1
  Ta  Ta77  1  0.15767656  0.79897966  0.48104881  1
  Ta  Ta78  1  0.48190055  0.12600974  0.02407745  1
  Ta  Ta79  1  0.49780943  0.12088682  0.48914002  1
  Ta  Ta80  1  0.47740747  0.50257535  -0.06323224  1
  Ta  Ta81  1  0.51860313  0.45343650  0.49787306  1
  Ta  Ta82  1  0.52332851  0.82768676  -0.00655162  1
  Ta  Ta83  1  0.51665316  0.87146982  0.50533808  1
  Ta  Ta84  1  0.83209106  0.22155137  0.02089896  1
  Ta  Ta85  1  0.89514033  0.15703876  0.51807969  1
  Ta  Ta86  1  0.82025471  0.48463423  0.01530006  1
  Ta  Ta87  1  0.80899835  0.46210048  0.47764743  1
  Ta  Ta88  1  0.90364377  0.83774588  -0.00717963  1
  Ta  Ta89  1  0.78019614  0.83357948  0.56692093  1
  Ta  Ta90  1  0.19118229  0.20623770  0.21148040  1
  Ta  Ta91  1  0.16021281  0.11158357  0.74577713  1
  Ta  Ta92  1  0.19644179  0.38199649  0.22668923  1
  Ta  Ta93  1  0.10815111  0.50287215  0.73707060  1
  Ta  Ta94  1  0.16614993  0.76624397  0.30310552  1
  Ta  Ta95  1  0.21911260  0.84014269  0.74032220  1
  Ta  Ta96  1  0.46101282  0.16442944  0.22126424  1
  Ta  Ta97  1  0.52680250  0.18040329  0.77059685  1
  Ta  Ta98  1  0.56764391  0.51868672  0.30857391  1
  Ta  Ta99  1  0.50172559  0.43806058  0.75944234  1
  Ta  Ta100  1  0.50171951  0.79043854  0.25138770  1
  Ta  Ta101  1  0.42533212  0.84496827  0.75194124  1
  Ta  Ta102  1  0.84477005  0.11754598  0.26338953  1
  Ta  Ta103  1  0.78299890  0.17465659  0.76841432  1
  Ta  Ta104  1  0.77072779  0.52762063  0.27488607  1
  Ta  Ta105  1  0.85828532  0.52448441  0.74600089  1
  Ta  Ta106  1  0.84265806  0.90046436  0.21888857  1
  Ta  Ta107  1  0.83793630  0.78036107  0.74461630  1
  Ta  Ta108  1  -0.03856778  0.00342370  0.24627398  1
  Ta  Ta109  1  0.02576501  0.02523028  0.71789082  1
  Ta  Ta110  1  0.03514083  0.32817747  0.24633944  1
  Ta  Ta111  1  -0.00835539  0.40016891  0.75595524  1
  Ta  Ta112  1  0.03005359  0.67578647  0.27812441  1
  Ta  Ta113  1  -0.01642579  0.63922171  0.72944469  1
  Ta  Ta114  1  0.32564386  0.07868072  0.23115775  1
  Ta  Ta115  1  0.31622519  -0.02565258  0.75111069  1
  Ta  Ta116  1  0.32684847  0.28518623  0.26151962  1
  Ta  Ta117  1  0.37915593  0.32082889  0.75641680  1
  Ta  Ta118  1  0.33525205  0.68694819  0.28602821  1
  Ta  Ta119  1  0.33322484  0.71778684  0.74676016  1
  Ta  Ta120  1  0.71201303  0.00321110  0.24925802  1
  Ta  Ta121  1  0.66304191  0.05496981  0.76926007  1
  Ta  Ta122  1  0.66916823  0.39613838  0.29621184  1
  Ta  Ta123  1  0.64148135  0.29930695  0.76103898  1
  Ta  Ta124  1  0.63619178  0.66411274  0.26429270  1
  Ta  Ta125  1  0.70619933  0.68472503  0.73123182  1
  Ta  Ta126  1  0.01021129  -0.02642600  -0.00961984  1
  Ta  Ta127  1  0.00232986  0.02187050  0.52440604  1
  Ta  Ta128  1  -0.07264702  0.35064374  0.01139713  1
  Ta  Ta129  1  -0.01174933  0.30639645  0.50273622  1
  Ta  Ta130  1  0.00979426  0.69667554  0.00959286  1
  Ta  Ta131  1  0.04944001  0.65926191  0.47146456  1
  Ta  Ta132  1  0.33367621  0.03581655  0.02756320  1
  Ta  Ta133  1  0.37987290  0.00780843  0.48247412  1
  Ta  Ta134  1  0.34268923  0.40725465  -0.08226415  1
  Ta  Ta135  1  0.34592982  0.36343606  0.50695263  1
  Ta  Ta136  1  0.33164996  0.58190399  -0.05011688  1
  Ta  Ta137  1  0.21653340  0.65336563  0.41825463  1
  Ta  Ta138  1  0.63346185  -0.00177564  0.00416998  1
  Ta  Ta139  1  0.64141063  -0.01678635  0.51393187  1
  Ta  Ta140  1  0.71953753  0.34887982  0.02256046  1
  Ta  Ta141  1  0.66427701  0.36623595  0.48361327  1
  Ta  Ta142  1  0.64797647  0.68586423  -0.00265177  1
  Ta  Ta143  1  0.65159101  0.74292670  0.54768673  1
  N  N144  1  0.16311939  0.82551922  0.85700664  1
  N  N145  1  0.34223971  0.64971051  0.40338150  1
  N  N146  1  0.83192818  0.51000031  0.87134187  1
  N  N147  1  0.49690328  0.15966972  0.89315597  1
  N  N148  1  0.66832613  0.64311513  0.61914285  1
  N  N149  1  0.85557526  0.14167724  0.39674904  1
  N  N150  1  0.67584806  -0.00596564  0.87942364  1
  N  N151  1  0.33566171  0.02990408  0.35828938  1
  N  N152  1  0.14742248  0.20710100  0.67459845  1
  N  N153  1  0.67639589  -0.00169972  0.38721323  1
  N  N154  1  -0.03094180  0.64464509  0.38247223  1
  N  N155  1  0.16118320  0.20636978  0.08563866  1
  N  N156  1  0.34159458  0.31899490  0.39356554  1
  N  N157  1  0.82585440  0.49074279  0.60322307  1
  N  N158  1  0.49748697  0.21192293  0.10501178  1
  N  N159  1  0.66389918  0.00740692  0.13111244  1
  N  N160  1  0.52340925  0.53591723  0.81824238  1
  N  N161  1  -0.01705605  0.34612209  0.12809969  1
  N  N162  1  0.81182543  0.51609521  0.15236416  1
  N  N163  1  0.32723940  0.29845546  0.86638197  1
  N  N164  1  0.46801670  0.83814762  0.88141775  1
  N  N165  1  0.31824518  0.65838957  0.85316352  1
  N  N166  1  0.83921854  0.85221575  0.09722568  1
  N  N167  1  0.49784835  0.81661118  0.12954537  1
  N  N168  1  0.15195049  0.86557974  0.37820409  1
  N  N169  1  0.00332351  0.31978545  0.37800699  1
  N  N170  1  0.84270693  0.87248281  0.66809498  1
  N  N171  1  0.00659789  0.65442079  0.60423219  1
  N  N172  1  0.86200117  0.82039032  0.86553979  1
  N  N173  1  0.49595217  0.53511274  0.41683783  1
  N  N174  1  0.81523764  0.55085332  0.40000070  1
  N  N175  1  0.16687492  0.14105959  0.87312137  1
  N  N176  1  0.65926718  0.01604198  0.64397985  1
  O  O177  1  0.32233863  -0.01572948  0.15237548  1
  O  O178  1  0.51824969  0.47323008  0.63500530  1
  O  O179  1  0.64572776  0.66909228  0.12606941  1
  O  O180  1  -0.01726831  0.35062199  0.63324549  1
  O  O181  1  0.31401212  0.60690023  0.19798787  1
  O  O182  1  0.83878548  0.17518590  0.14078861  1
  O  O183  1  0.34763181  0.64948552  0.64580918  1
  O  O184  1  0.40510471  0.37329828  0.02476375  1
  O  O185  1  0.65004436  0.70670076  0.40884480  1
  O  O186  1  0.85311067  0.83215254  0.46581034  1
  O  O187  1  0.00920189  -0.00307715  0.11951640  1
  O  O188  1  0.19912948  0.83596846  0.05795049  1
  O  O189  1  0.32956449  -0.00069386  0.88448896  1
  O  O190  1  0.83416444  0.17178812  0.64351334  1
  O  O191  1  0.15831111  0.15321390  0.45793203  1
  O  O192  1  0.81850606  0.19609196  0.88894673  1
  O  O193  1  0.50809246  0.14955195  0.34694585  1
  O  O194  1  0.65698090  0.29852452  0.37234884  1
  O  O195  1  0.00528123  -0.00019512  0.85629218  1
  O  O196  1  0.47915480  0.86131303  0.62817817  1
  O  O197  1  -0.02917493  0.36956917  0.88137992  1
  O  O198  1  0.33901367  0.00602973  0.60929851  1
  O  O199  1  0.00982950  0.68224052  0.14092954  1
  O  O200  1  0.03285696  -0.05418938  0.62349011  1
  O  O201  1  0.20669942  0.44317462  0.11231132  1
  O  O202  1  -0.00014575  0.66354153  0.88132936  1
  O  O203  1  0.00081283  0.00354420  0.38943302  1
  O  O204  1  0.51825530  0.84559282  0.37276452  1
  O  O205  1  0.66136427  0.32594644  0.62844553  1
  O  O206  1  0.34307853  0.30665690  0.62555463  1
  O  O207  1  0.15154273  0.51066261  0.86173210  1
  O  O208  1  0.18712215  0.82318784  0.60872151  1
  O  O209  1  0.50851811  0.50052626  0.06040795  1
  O  O210  1  0.67855484  0.36288176  0.14947141  1
  O  O211  1  0.67174675  0.67621878  0.86877488  1
  O  O212  1  0.50283855  0.15269447  0.62048364  1
  O  O213  1  0.14781647  0.49835952  0.60033063  1
  O  O214  1  0.18811057  0.44607656  0.35163365  1
  O  O215  1  0.67255748  0.32935088  0.90094864  1
