# generated using pymatgen
data_Sr24Ta24N11O13
_symmetry_space_group_name_H-M   'P 1'
_cell_length_a   16.79440511
_cell_length_b   16.78245613
_cell_length_c   15.68630661
_cell_angle_alpha   89.93492683
_cell_angle_beta   89.68304306
_cell_angle_gamma   89.86727741
_symmetry_Int_Tables_number   1
_chemical_formula_structural   Sr24Ta24N11O13
_chemical_formula_sum   'Sr72 Ta72 N33 O39'
_cell_volume   4421.12465927
_cell_formula_units_Z   3
loop_
 _symmetry_equiv_pos_site_id
 _symmetry_equiv_pos_as_xyz
  1  'x, y, z'
loop_
 _atom_site_type_symbol
 _atom_site_label
 _atom_site_symmetry_multiplicity
 _atom_site_fract_x
 _atom_site_fract_y
 _atom_site_fract_z
 _atom_site_occupancy
  Sr  Sr0  1  0.00672502  0.17313892  0.13930561  1
  Sr  Sr1  1  0.01333103  0.15971067  0.66410979  1
  Sr  Sr2  1  0.01609582  0.48920804  0.07939486  1
  Sr  Sr3  1  -0.00396943  0.49964920  0.63527508  1
  Sr  Sr4  1  0.00356691  0.82189254  0.13940875  1
  Sr  Sr5  1  0.00454719  0.84675651  0.58155246  1
  Sr  Sr6  1  0.35865526  0.15758891  0.12957902  1
  Sr  Sr7  1  0.32527547  0.15473216  0.58055127  1
  Sr  Sr8  1  0.31705243  0.49175663  0.16328335  1
  Sr  Sr9  1  0.33760485  0.50568572  0.61942484  1
  Sr  Sr10  1  0.35088599  0.81904737  0.10556405  1
  Sr  Sr11  1  0.33131241  0.83494119  0.65678715  1
  Sr  Sr12  1  0.69368657  0.13653371  0.08403697  1
  Sr  Sr13  1  0.66517023  0.17075059  0.63311600  1
  Sr  Sr14  1  0.67424377  0.48773996  0.13273500  1
  Sr  Sr15  1  0.66201317  0.49611167  0.59244423  1
  Sr  Sr16  1  0.67095719  0.82620661  0.14874657  1
  Sr  Sr17  1  0.65326297  0.81016065  0.63821416  1
  Sr  Sr18  1  0.13862499  0.01323300  0.16810041  1
  Sr  Sr19  1  0.16738713  -0.00081727  0.62134464  1
  Sr  Sr20  1  0.16202091  0.33039020  0.10914901  1
  Sr  Sr21  1  0.15864320  0.34950518  0.63518196  1
  Sr  Sr22  1  0.17961264  0.66955467  0.13539648  1
  Sr  Sr23  1  0.14280705  0.68566118  0.60072630  1
  Sr  Sr24  1  0.50515603  -0.01454482  0.13648322  1
  Sr  Sr25  1  0.49766421  0.02495228  0.59307954  1
  Sr  Sr26  1  0.48679176  0.34144943  0.12634863  1
  Sr  Sr27  1  0.50847583  0.32850805  0.66317637  1
  Sr  Sr28  1  0.50891568  0.65704557  0.07420671  1
  Sr  Sr29  1  0.48506044  0.67782395  0.63744474  1
  Sr  Sr30  1  0.84308627  -0.00375014  0.08567316  1
  Sr  Sr31  1  0.82726380  0.00891153  0.63688971  1
  Sr  Sr32  1  0.83915195  0.33128246  0.13268359  1
  Sr  Sr33  1  0.82040746  0.35220246  0.58622958  1
  Sr  Sr34  1  0.81457696  0.67567245  0.15577979  1
  Sr  Sr35  1  0.83264898  0.67506431  0.64426530  1
  Sr  Sr36  1  0.00679491  0.17793563  0.34295761  1
  Sr  Sr37  1  0.02229212  0.16245331  0.85777735  1
  Sr  Sr38  1  0.00507087  0.48060061  0.41775939  1
  Sr  Sr39  1  -0.00451232  0.50305638  0.86557159  1
  Sr  Sr40  1  0.00196632  0.84230174  0.37115423  1
  Sr  Sr41  1  -0.00349056  0.83950525  0.91574509  1
  Sr  Sr42  1  0.36235577  0.15265969  0.36687902  1
  Sr  Sr43  1  0.34002131  0.17739363  0.91621346  1
  Sr  Sr44  1  0.33095627  0.50422021  0.37750140  1
  Sr  Sr45  1  0.33469044  0.48414705  0.82695542  1
  Sr  Sr46  1  0.35647859  0.81847888  0.35875945  1
  Sr  Sr47  1  0.33651563  0.83021695  0.88319333  1
  Sr  Sr48  1  0.68517514  0.14706290  0.41156389  1
  Sr  Sr49  1  0.66928249  0.16608237  0.85831596  1
  Sr  Sr50  1  0.68026856  0.49066792  0.36125229  1
  Sr  Sr51  1  0.64669458  0.49479902  0.91423587  1
  Sr  Sr52  1  0.65841900  0.82082275  0.36384507  1
  Sr  Sr53  1  0.67997348  0.81355883  0.84069967  1
  Sr  Sr54  1  0.15726518  0.01057863  0.38634870  1
  Sr  Sr55  1  0.17050958  -0.00247490  0.83961035  1
  Sr  Sr56  1  0.17206542  0.34649279  0.39634210  1
  Sr  Sr57  1  0.15862185  0.33589566  0.86604998  1
  Sr  Sr58  1  0.16125772  0.67546254  0.36001043  1
  Sr  Sr59  1  0.14491198  0.68541522  0.91879517  1
  Sr  Sr60  1  0.50575116  -0.00713105  0.36056381  1
  Sr  Sr61  1  0.48005065  0.01161948  0.91498590  1
  Sr  Sr62  1  0.49983456  0.34066914  0.33034638  1
  Sr  Sr63  1  0.49718099  0.33444907  0.87144949  1
  Sr  Sr64  1  0.50466400  0.65146196  0.42082473  1
  Sr  Sr65  1  0.49306712  0.67549617  0.86073880  1
  Sr  Sr66  1  0.82911430  0.00312963  0.41134276  1
  Sr  Sr67  1  0.83547355  0.00531981  0.86796507  1
  Sr  Sr68  1  0.83555722  0.32882340  0.36796961  1
  Sr  Sr69  1  0.82073094  0.35460896  0.90927354  1
  Sr  Sr70  1  0.83695232  0.69081388  0.35366542  1
  Sr  Sr71  1  0.83107693  0.66738214  0.84625633  1
  Ta  Ta72  1  0.16372937  0.13802299  -0.00143950  1
  Ta  Ta73  1  0.13180918  0.17511523  0.50930210  1
  Ta  Ta74  1  0.20420450  0.50093887  -0.00234331  1
  Ta  Ta75  1  0.17533305  0.53017863  0.50287793  1
  Ta  Ta76  1  0.16676810  0.88739903  0.00959226  1
  Ta  Ta77  1  0.20780704  0.83800407  0.48909781  1
  Ta  Ta78  1  0.52660077  0.18473795  0.00951531  1
  Ta  Ta79  1  0.50509701  0.21386968  0.49858976  1
  Ta  Ta80  1  0.44701352  0.49406494  -0.00717838  1
  Ta  Ta81  1  0.49788855  0.44674959  0.49579914  1
  Ta  Ta82  1  0.54289090  0.83397579  -0.00863400  1
  Ta  Ta83  1  0.49428248  0.84594395  0.50972093  1
  Ta  Ta84  1  0.87309854  0.17737353  -0.00509182  1
  Ta  Ta85  1  0.88090900  0.17469100  0.50569189  1
  Ta  Ta86  1  0.83145995  0.54104829  0.00281963  1
  Ta  Ta87  1  0.83430419  0.54400990  0.49546221  1
  Ta  Ta88  1  0.81394722  0.81334598  -0.00454469  1
  Ta  Ta89  1  0.80722687  0.82583618  0.50154628  1
  Ta  Ta90  1  0.19583185  0.18511461  0.25695520  1
  Ta  Ta91  1  0.21468178  0.16824892  0.75008602  1
  Ta  Ta92  1  0.13128680  0.49599301  0.25091231  1
  Ta  Ta93  1  0.15868378  0.55080117  0.75043096  1
  Ta  Ta94  1  0.19813729  0.85257130  0.25956569  1
  Ta  Ta95  1  0.13606048  0.81853395  0.75291187  1
  Ta  Ta96  1  0.55872017  0.16107122  0.24323325  1
  Ta  Ta97  1  0.46822208  0.14962225  0.74674977  1
  Ta  Ta98  1  0.49724777  0.53830636  0.24403352  1
  Ta  Ta99  1  0.52889800  0.50342985  0.75039049  1
  Ta  Ta100  1  0.50308780  0.77741622  0.23895303  1
  Ta  Ta101  1  0.49819457  0.88642565  0.75625115  1
  Ta  Ta102  1  0.81957265  0.14174387  0.24357339  1
  Ta  Ta103  1  0.83393582  0.21743210  0.74951967  1
  Ta  Ta104  1  0.88529964  0.50283759  0.24828037  1
  Ta  Ta105  1  0.80259018  0.48421891  0.74942683  1
  Ta  Ta106  1  0.83312120  0.88135972  0.25420846  1
  Ta  Ta107  1  0.88168053  0.84039079  0.75183350  1
  Ta  Ta108  1  -0.04714620  0.00452725  0.25762132  1
  Ta  Ta109  1  0.00102519  -0.03880714  0.74788911  1
  Ta  Ta110  1  0.00763036  0.36766061  0.25418787  1
  Ta  Ta111  1  -0.04830730  0.33728187  0.74794957  1
  Ta  Ta112  1  0.00071902  0.61969911  0.24475532  1
  Ta  Ta113  1  0.01502194  0.70145501  0.75826975  1
  Ta  Ta114  1  0.31322336  -0.01626323  0.25632149  1
  Ta  Ta115  1  0.35165316  0.02745154  0.75026386  1
  Ta  Ta116  1  0.30890514  0.31125394  0.24507474  1
  Ta  Ta117  1  0.33274849  0.28841265  0.74949867  1
  Ta  Ta118  1  0.38076272  0.66078548  0.24138354  1
  Ta  Ta119  1  0.27700537  0.67123677  0.75288698  1
  Ta  Ta120  1  0.69569537  0.00988871  0.24360507  1
  Ta  Ta121  1  0.62835219  -0.00637627  0.75564247  1
  Ta  Ta122  1  0.67602974  0.27542894  0.24653770  1
  Ta  Ta123  1  0.69001778  0.35793355  0.74931054  1
  Ta  Ta124  1  0.62147553  0.65270808  0.24316420  1
  Ta  Ta125  1  0.66020456  0.61760625  0.74998697  1
  Ta  Ta126  1  0.02856947  0.01816198  -0.00539868  1
  Ta  Ta127  1  -0.00331746  0.04402638  0.50365443  1
  Ta  Ta128  1  -0.00647064  0.30463779  -0.01119373  1
  Ta  Ta129  1  -0.00011637  0.29573788  0.50789685  1
  Ta  Ta130  1  -0.05125243  0.66374177  0.00084046  1
  Ta  Ta131  1  -0.02829112  0.65652007  0.49851216  1
  Ta  Ta132  1  0.28287924  0.00067887  0.00741807  1
  Ta  Ta133  1  0.33472890  -0.04182646  0.49330156  1
  Ta  Ta134  1  0.32903478  0.36608066  -0.00435309  1
  Ta  Ta135  1  0.37131675  0.33375743  0.49830065  1
  Ta  Ta136  1  0.32932636  0.62152304  -0.00361229  1
  Ta  Ta137  1  0.31294231  0.68214135  0.50619772  1
  Ta  Ta138  1  0.66382232  -0.04669058  -0.00378988  1
  Ta  Ta139  1  0.65883516  -0.04251246  0.50386937  1
  Ta  Ta140  1  0.64774536  0.30971270  -0.00097163  1
  Ta  Ta141  1  0.63079386  0.32685393  0.49797108  1
  Ta  Ta142  1  0.69091853  0.67824518  -0.00383185  1
  Ta  Ta143  1  0.69707125  0.66742425  0.50101488  1
  N  N144  1  0.16181959  0.50549686  0.37471120  1
  N  N145  1  0.49458360  0.17518216  0.62602232  1
  N  N146  1  0.34023093  0.65766562  0.11977619  1
  N  N147  1  0.66277510  0.33105446  0.87648427  1
  N  N148  1  0.15586457  0.83680923  0.37899136  1
  N  N149  1  0.00791398  0.00013971  0.87399084  1
  N  N150  1  0.00279301  -0.00032730  0.62151363  1
  N  N151  1  0.51010792  0.81503143  0.11740405  1
  N  N152  1  -0.00392602  0.34280757  0.87175310  1
  N  N153  1  0.00229399  0.33177422  0.37275827  1
  N  N154  1  0.15584113  0.51213517  0.62852859  1
  N  N155  1  -0.00958582  0.67418774  0.87975895  1
  N  N156  1  0.49215991  0.83709815  0.63340341  1
  N  N157  1  0.33275300  0.32916001  0.86859527  1
  N  N158  1  0.32770436  0.32917588  0.12298764  1
  N  N159  1  0.32150756  0.67589855  0.63220178  1
  N  N160  1  0.82860570  0.84452897  0.38021293  1
  N  N161  1  0.34687132  0.00051532  0.37756142  1
  N  N162  1  0.17096721  0.16389410  0.62563843  1
  N  N163  1  0.66723515  0.65609514  0.62238728  1
  N  N164  1  0.51504210  0.14398290  0.12721478  1
  N  N165  1  -0.00739694  0.34129078  0.62474666  1
  N  N166  1  -0.00437516  0.00867344  0.37270714  1
  N  N167  1  0.67379196  -0.01533029  0.12213709  1
  N  N168  1  0.66437234  0.33285265  0.62154354  1
  N  N169  1  0.49625836  0.83535527  0.86988072  1
  N  N170  1  0.66216102  0.65539580  0.12285692  1
  N  N171  1  0.49094025  0.49743872  0.86845462  1
  N  N172  1  0.66453741  0.65590992  0.87117455  1
  N  N173  1  0.84698090  0.16472213  0.12258058  1
  N  N174  1  0.16695558  0.50174860  0.11767022  1
  N  N175  1  0.83864875  0.83391753  0.87505184  1
  N  N176  1  0.18020896  0.16215768  0.87744376  1
  O  O177  1  0.65228970  0.00902282  0.87761025  1
  O  O178  1  0.83414967  0.51713071  0.12945815  1
  O  O179  1  0.82226165  0.50944532  0.88003225  1
  O  O180  1  0.32780453  0.01317241  0.88022980  1
  O  O181  1  0.82740976  0.19377972  0.87524515  1
  O  O182  1  0.84178441  0.51842410  0.36972968  1
  O  O183  1  0.17844953  0.16533084  0.13227431  1
  O  O184  1  -0.00574081  0.64723048  0.37518017  1
  O  O185  1  0.35141948  0.66229808  0.38305308  1
  O  O186  1  0.68565094  0.30648356  0.12483701  1
  O  O187  1  0.32064724  0.00437575  0.12694426  1
  O  O188  1  0.67683798  0.30094024  0.37387114  1
  O  O189  1  0.65721239  0.65917939  0.37717282  1
  O  O190  1  0.16008288  0.83617103  0.61455311  1
  O  O191  1  0.15872267  0.85351141  0.13643839  1
  O  O192  1  0.48474887  0.49920066  0.11981539  1
  O  O193  1  0.65245566  -0.01822773  0.62694916  1
  O  O194  1  0.00077549  0.33502489  0.11997047  1
  O  O195  1  0.17391616  0.17634485  0.38244930  1
  O  O196  1  0.15436937  0.84156468  0.88800937  1
  O  O197  1  0.82712241  0.19349493  0.62417843  1
  O  O198  1  -0.01188339  0.67461115  0.62439865  1
  O  O199  1  0.84627059  0.83388555  0.62742697  1
  O  O200  1  0.49620338  0.49287746  0.37455115  1
  O  O201  1  0.31711505  0.67171009  0.87567213  1
  O  O202  1  0.82364842  0.51235640  0.61945557  1
  O  O203  1  -0.00675003  0.01432092  0.12956254  1
  O  O204  1  0.82995056  0.83798814  0.13132282  1
  O  O205  1  0.49764170  0.16409545  0.88334303  1
  O  O206  1  0.34639424  0.33128983  0.37148708  1
  O  O207  1  0.51724602  0.17125441  0.37446162  1
  O  O208  1  0.34928095  0.32742168  0.62275038  1
  O  O209  1  0.34178286  0.00315879  0.62133890  1
  O  O210  1  0.00016151  0.64618104  0.11918483  1
  O  O211  1  0.50571500  0.81067548  0.37844310  1
  O  O212  1  0.66603608  -0.01761301  0.37727064  1
  O  O213  1  0.15376037  0.51043402  0.87454245  1
  O  O214  1  0.50270233  0.48476962  0.62006053  1
  O  O215  1  0.84078705  0.17159549  0.38170132  1
