# generated using pymatgen
data_Sr24Ta24N11O13
_symmetry_space_group_name_H-M   'P 1'
_cell_length_a   16.73928682
_cell_length_b   16.95865101
_cell_length_c   15.71164413
_cell_angle_alpha   90.35906774
_cell_angle_beta   89.99007580
_cell_angle_gamma   89.83103941
_symmetry_Int_Tables_number   1
_chemical_formula_structural   Sr24Ta24N11O13
_chemical_formula_sum   'Sr72 Ta72 N33 O39'
_cell_volume   4460.04728173
_cell_formula_units_Z   3
loop_
 _symmetry_equiv_pos_site_id
 _symmetry_equiv_pos_as_xyz
  1  'x, y, z'
loop_
 _atom_site_type_symbol
 _atom_site_label
 _atom_site_symmetry_multiplicity
 _atom_site_fract_x
 _atom_site_fract_y
 _atom_site_fract_z
 _atom_site_occupancy
  Sr  Sr0  1  0.01566856  0.17283704  0.15597791  1
  Sr  Sr1  1  0.00271139  0.17413680  0.61658774  1
  Sr  Sr2  1  0.00967157  0.49119752  0.11465094  1
  Sr  Sr3  1  -0.01150166  0.51115419  0.67030409  1
  Sr  Sr4  1  -0.01576359  0.83938402  0.13717917  1
  Sr  Sr5  1  0.00085820  0.82089430  0.58900083  1
  Sr  Sr6  1  0.32639626  0.18466137  0.11168880  1
  Sr  Sr7  1  0.34353646  0.17711880  0.60552800  1
  Sr  Sr8  1  0.34293630  0.53481258  0.12451734  1
  Sr  Sr9  1  0.33361175  0.50169553  0.62476069  1
  Sr  Sr10  1  0.34115309  0.84302144  0.16304408  1
  Sr  Sr11  1  0.33254336  0.86021497  0.62852404  1
  Sr  Sr12  1  0.68208462  0.17949614  0.12263679  1
  Sr  Sr13  1  0.67538217  0.19794451  0.65760963  1
  Sr  Sr14  1  0.66150803  0.52354027  0.13939766  1
  Sr  Sr15  1  0.67447363  0.50945095  0.58325069  1
  Sr  Sr16  1  0.65258346  0.84440345  0.08711252  1
  Sr  Sr17  1  0.67554573  0.83413896  0.64960763  1
  Sr  Sr18  1  0.15847684  -0.01042283  0.11946944  1
  Sr  Sr19  1  0.16139604  0.00873390  0.65765145  1
  Sr  Sr20  1  0.15935244  0.33673671  0.13860325  1
  Sr  Sr21  1  0.17963691  0.31288500  0.57858223  1
  Sr  Sr22  1  0.14673454  0.66498761  0.08027744  1
  Sr  Sr23  1  0.16912267  0.65766450  0.63446437  1
  Sr  Sr24  1  0.49010366  -0.01829939  0.11805196  1
  Sr  Sr25  1  0.50884476  -0.02403061  0.62253430  1
  Sr  Sr26  1  0.49964751  0.30212689  0.12719522  1
  Sr  Sr27  1  0.49059364  0.32359466  0.65563815  1
  Sr  Sr28  1  0.50786656  0.66650255  0.12771933  1
  Sr  Sr29  1  0.50054431  0.63182321  0.59639050  1
  Sr  Sr30  1  0.82072065  0.00170678  0.12696825  1
  Sr  Sr31  1  0.83943883  -0.02650999  0.59994445  1
  Sr  Sr32  1  0.82833198  0.33525027  0.08365651  1
  Sr  Sr33  1  0.85047318  0.32791864  0.63484132  1
  Sr  Sr34  1  0.84359646  0.65436314  0.16506585  1
  Sr  Sr35  1  0.82813664  0.65482721  0.63288751  1
  Sr  Sr36  1  0.00259025  0.18543494  0.38813630  1
  Sr  Sr37  1  0.00858137  0.15674326  0.83550177  1
  Sr  Sr38  1  0.00075683  0.50079734  0.33977369  1
  Sr  Sr39  1  0.00897251  0.49841491  0.88554928  1
  Sr  Sr40  1  -0.01032517  0.82539844  0.37123736  1
  Sr  Sr41  1  0.01595714  0.84066069  0.92086585  1
  Sr  Sr42  1  0.34073940  0.18257414  0.38536869  1
  Sr  Sr43  1  0.33160558  0.17748150  0.89738191  1
  Sr  Sr44  1  0.32373074  0.52010939  0.39417935  1
  Sr  Sr45  1  0.34818992  0.51122690  0.85416631  1
  Sr  Sr46  1  0.33895343  0.85314203  0.36729787  1
  Sr  Sr47  1  0.32701947  0.85285140  0.83620760  1
  Sr  Sr48  1  0.67171148  0.17208289  0.34245160  1
  Sr  Sr49  1  0.68810798  0.18918439  0.88339533  1
  Sr  Sr50  1  0.66461211  0.51446519  0.37033259  1
  Sr  Sr51  1  0.66176386  0.51423504  0.90463508  1
  Sr  Sr52  1  0.65738317  0.87061874  0.41645497  1
  Sr  Sr53  1  0.66157197  0.82479620  0.87009080  1
  Sr  Sr54  1  0.15949573  -0.02319978  0.33339820  1
  Sr  Sr55  1  0.16322640  0.00520374  0.87491001  1
  Sr  Sr56  1  0.16256345  0.33870779  0.36178077  1
  Sr  Sr57  1  0.17295767  0.32453908  0.90693699  1
  Sr  Sr58  1  0.15971363  0.67379657  0.41670477  1
  Sr  Sr59  1  0.16631633  0.65135561  0.86510538  1
  Sr  Sr60  1  0.48658242  -0.00259693  0.40581806  1
  Sr  Sr61  1  0.50294626  -0.03091815  0.86189858  1
  Sr  Sr62  1  0.50765479  0.30615846  0.34439252  1
  Sr  Sr63  1  0.49053426  0.31144957  0.86701004  1
  Sr  Sr64  1  0.49381141  0.64924295  0.35786386  1
  Sr  Sr65  1  0.50844497  0.64993211  0.90815391  1
  Sr  Sr66  1  0.82772209  -0.00285537  0.37244861  1
  Sr  Sr67  1  0.82796830  -0.02542269  0.90128686  1
  Sr  Sr68  1  0.82501329  0.32483071  0.40994699  1
  Sr  Sr69  1  0.85379483  0.32186622  0.85879117  1
  Sr  Sr70  1  0.83710307  0.64530249  0.36892560  1
  Sr  Sr71  1  0.83082526  0.66063918  0.84143830  1
  Ta  Ta72  1  0.13704155  0.16040782  0.00426447  1
  Ta  Ta73  1  0.16576453  0.12473537  0.48415015  1
  Ta  Ta74  1  0.19901654  0.48795441  -0.00081265  1
  Ta  Ta75  1  0.12574073  0.49588035  0.49978066  1
  Ta  Ta76  1  0.22219929  0.83650885  -0.00058661  1
  Ta  Ta77  1  0.17455396  0.86370670  0.49485522  1
  Ta  Ta78  1  0.51887262  0.13429740  -0.00048540  1
  Ta  Ta79  1  0.53449384  0.18011369  0.49778090  1
  Ta  Ta80  1  0.49688136  0.46333807  0.01180167  1
  Ta  Ta81  1  0.50092928  0.45002657  0.49087959  1
  Ta  Ta82  1  0.45332974  0.82497717  -0.00311609  1
  Ta  Ta83  1  0.49568921  0.79933445  0.50194328  1
  Ta  Ta84  1  0.87738014  0.15713471  -0.00270809  1
  Ta  Ta85  1  0.81241100  0.15222314  0.50478049  1
  Ta  Ta86  1  0.83159563  0.52827714  0.00191771  1
  Ta  Ta87  1  0.86971297  0.49583804  0.50188480  1
  Ta  Ta88  1  0.83078237  0.79007472  0.00208786  1
  Ta  Ta89  1  0.81927586  0.79499480  0.50261222  1
  Ta  Ta90  1  0.18645625  0.14918714  0.25539461  1
  Ta  Ta91  1  0.18852244  0.18834879  0.75229311  1
  Ta  Ta92  1  0.17800408  0.53449359  0.24933273  1
  Ta  Ta93  1  0.17037970  0.45763516  0.75000020  1
  Ta  Ta94  1  0.16207719  0.79326814  0.24943113  1
  Ta  Ta95  1  0.13314047  0.83117167  0.75185895  1
  Ta  Ta96  1  0.49261150  0.12084501  0.25414089  1
  Ta  Ta97  1  0.49445077  0.13247189  0.74793175  1
  Ta  Ta98  1  0.48860681  0.46893850  0.25004513  1
  Ta  Ta99  1  0.53208840  0.50035986  0.74370357  1
  Ta  Ta100  1  0.53539398  0.83807278  0.24735326  1
  Ta  Ta101  1  0.49660682  0.77527194  0.75302127  1
  Ta  Ta102  1  0.84856422  0.18486779  0.24347021  1
  Ta  Ta103  1  0.83421408  0.10843257  0.75504350  1
  Ta  Ta104  1  0.82538827  0.45503161  0.25427431  1
  Ta  Ta105  1  0.78855586  0.48912955  0.74622289  1
  Ta  Ta106  1  0.78674259  0.83413707  0.25286193  1
  Ta  Ta107  1  0.87439444  0.83323204  0.74936906  1
  Ta  Ta108  1  -0.01631369  0.01956833  0.24609397  1
  Ta  Ta109  1  -0.01573131  -0.03474600  0.75649110  1
  Ta  Ta110  1  -0.04629491  0.33117322  0.24453837  1
  Ta  Ta111  1  0.05640508  0.33340965  0.74331148  1
  Ta  Ta112  1  0.03849829  0.66800418  0.24942906  1
  Ta  Ta113  1  0.00434157  0.70600215  0.75401307  1
  Ta  Ta114  1  0.33632066  0.03625974  0.25257836  1
  Ta  Ta115  1  0.34097127  0.04246637  0.74789744  1
  Ta  Ta116  1  0.33876216  0.36858940  0.24870829  1
  Ta  Ta117  1  0.29880697  0.33160822  0.74917592  1
  Ta  Ta118  1  0.27744788  0.67511472  0.25143132  1
  Ta  Ta119  1  0.35884291  0.68427352  0.74711415  1
  Ta  Ta120  1  0.64231397  -0.01259168  0.25643407  1
  Ta  Ta121  1  0.67591224  0.02578325  0.74841850  1
  Ta  Ta122  1  0.69270956  0.35074010  0.24902006  1
  Ta  Ta123  1  0.66283868  0.38577857  0.75016782  1
  Ta  Ta124  1  0.66716191  0.71726323  0.25109605  1
  Ta  Ta125  1  0.64452564  0.64540159  0.75093363  1
  Ta  Ta126  1  -0.00321599  0.03709236  0.00129037  1
  Ta  Ta127  1  0.03367150  0.00159382  0.49755098  1
  Ta  Ta128  1  0.00409954  0.28976160  -0.00017546  1
  Ta  Ta129  1  0.00419476  0.37816761  0.50485398  1
  Ta  Ta130  1  -0.04191621  0.66395611  -0.00008216  1
  Ta  Ta131  1  -0.01102267  0.63443822  0.50330390  1
  Ta  Ta132  1  0.33185186  -0.02213584  -0.00155417  1
  Ta  Ta133  1  0.28559714  0.00710817  0.49241205  1
  Ta  Ta134  1  0.34170104  0.37126839  -0.00392110  1
  Ta  Ta135  1  0.36775259  0.34750086  0.49910216  1
  Ta  Ta136  1  0.32861882  0.70637669  -0.00090861  1
  Ta  Ta137  1  0.34151061  0.70943853  0.49828215  1
  Ta  Ta138  1  0.64758000  0.02661331  0.00009829  1
  Ta  Ta139  1  0.67050580  0.05771660  0.50101406  1
  Ta  Ta140  1  0.64293587  0.35475677  -0.00101054  1
  Ta  Ta141  1  0.63739121  0.32297734  0.50039635  1
  Ta  Ta142  1  0.71086325  0.67295828  0.00390413  1
  Ta  Ta143  1  0.66683465  0.69603558  0.50087841  1
  N  N144  1  0.16294584  0.83030744  0.37644358  1
  N  N145  1  0.17121277  0.16722961  0.87266193  1
  N  N146  1  0.49700682  0.82750499  0.12850516  1
  N  N147  1  0.50454216  0.15571246  0.37727524  1
  N  N148  1  -0.00285677  0.66388478  0.12965020  1
  N  N149  1  0.49468794  0.81349892  0.87756379  1
  N  N150  1  0.83798038  0.81885825  0.62351545  1
  N  N151  1  0.83417657  0.48638541  0.37754077  1
  N  N152  1  0.33654440  0.34195101  0.87118232  1
  N  N153  1  0.33764851  0.33694187  0.61953666  1
  N  N154  1  0.67200338  0.66732564  0.87481669  1
  N  N155  1  -0.00789180  0.32920329  0.12257992  1
  N  N156  1  0.16507789  0.18396886  0.37803863  1
  N  N157  1  0.67149029  0.68064043  0.12728916  1
  N  N158  1  0.50811463  0.48337118  0.62360150  1
  N  N159  1  0.00157736  0.66896472  0.88249743  1
  N  N160  1  0.17046255  0.49478659  0.87314748  1
  N  N161  1  0.00185870  0.66218670  0.37828145  1
  N  N162  1  0.66413884  0.66825725  0.62018535  1
  N  N163  1  0.50509375  0.49701257  0.37568991  1
  N  N164  1  0.83627115  0.16839080  0.12249015  1
  N  N165  1  0.50436557  0.50837895  0.12731424  1
  N  N166  1  0.32913005  0.00720736  0.37492384  1
  N  N167  1  0.82923945  0.48955880  0.62813382  1
  N  N168  1  0.00009400  -0.00579902  0.87645847  1
  N  N169  1  0.17130287  0.50658294  0.12278474  1
  N  N170  1  -0.00637729  -0.00207039  0.12690250  1
  N  N171  1  0.16034895  0.50677654  0.37898974  1
  N  N172  1  0.01238760  0.33688635  0.62536230  1
  N  N173  1  0.84186614  0.15242701  0.86905483  1
  N  N174  1  0.66182878  0.01685204  0.37592134  1
  N  N175  1  0.17141110  0.16507448  0.12749286  1
  N  N176  1  0.00113483  0.66564408  0.63280273  1
  O  O177  1  0.81981449  0.50955275  0.87670208  1
  O  O178  1  0.33009753  0.69751585  0.62124456  1
  O  O179  1  0.33671297  0.67788238  0.87083910  1
  O  O180  1  0.50449445  0.81781587  0.62915917  1
  O  O181  1  0.50455933  0.49768452  0.88385973  1
  O  O182  1  0.33010011  -0.00338708  0.12350175  1
  O  O183  1  0.31954821  0.02157921  0.62435609  1
  O  O184  1  0.16724174  0.16249659  0.61298153  1
  O  O185  1  0.18203751  0.83175633  0.12155497  1
  O  O186  1  0.82962405  0.16691526  0.37994290  1
  O  O187  1  0.84114137  0.14800917  0.62900260  1
  O  O188  1  0.32400725  0.35380606  0.37286653  1
  O  O189  1  0.01286610  0.31797687  0.87035228  1
  O  O190  1  0.01162486  -0.01027526  0.62240345  1
  O  O191  1  0.80763400  0.84003523  0.37873263  1
  O  O192  1  0.50896999  0.14942858  0.12912426  1
  O  O193  1  0.64725974  0.34503465  0.87306390  1
  O  O194  1  0.65513464  0.66761127  0.36875802  1
  O  O195  1  0.15479859  0.84434331  0.62901128  1
  O  O196  1  0.50640859  0.15634787  0.62605375  1
  O  O197  1  0.00344205  0.00654301  0.37729306  1
  O  O198  1  0.17118580  0.50043035  0.62289503  1
  O  O199  1  -0.00842174  0.33853720  0.37014670  1
  O  O200  1  0.33622623  0.00971509  0.87580296  1
  O  O201  1  0.31998880  0.68772034  0.12727027  1
  O  O202  1  0.32530402  0.69150518  0.37248988  1
  O  O203  1  0.33514175  0.34348748  0.12626329  1
  O  O204  1  0.83775215  0.81603347  0.87139660  1
  O  O205  1  0.83092296  0.49970215  0.12534555  1
  O  O206  1  0.66026684  0.01056062  0.12504308  1
  O  O207  1  0.66899958  0.33272905  0.37201231  1
  O  O208  1  0.81848616  0.82326848  0.13123833  1
  O  O209  1  0.16917633  0.83441403  0.87563055  1
  O  O210  1  0.50087046  0.14374335  0.87726192  1
  O  O211  1  0.67062432  0.34832620  0.12002460  1
  O  O212  1  0.65001237  0.34232792  0.62469310  1
  O  O213  1  0.66380595  0.01200302  0.87216702  1
  O  O214  1  0.66476877  0.01803895  0.62296295  1
  O  O215  1  0.50520008  0.82223119  0.37769491  1
