# generated using pymatgen
data_Sr24Ta24N11O13
_symmetry_space_group_name_H-M   'P 1'
_cell_length_a   16.94185060
_cell_length_b   16.68465533
_cell_length_c   15.70997053
_cell_angle_alpha   90.08565782
_cell_angle_beta   89.98625035
_cell_angle_gamma   90.52690272
_symmetry_Int_Tables_number   1
_chemical_formula_structural   Sr24Ta24N11O13
_chemical_formula_sum   'Sr72 Ta72 N33 O39'
_cell_volume   4440.52783329
_cell_formula_units_Z   3
loop_
 _symmetry_equiv_pos_site_id
 _symmetry_equiv_pos_as_xyz
  1  'x, y, z'
loop_
 _atom_site_type_symbol
 _atom_site_label
 _atom_site_symmetry_multiplicity
 _atom_site_fract_x
 _atom_site_fract_y
 _atom_site_fract_z
 _atom_site_occupancy
  Sr  Sr0  1  0.00219980  0.16545651  0.16397245  1
  Sr  Sr1  1  0.00381641  0.18033822  0.61337825  1
  Sr  Sr2  1  0.00809927  0.49150994  0.11201546  1
  Sr  Sr3  1  0.02243638  0.51105899  0.66096065  1
  Sr  Sr4  1  0.02426386  0.82389811  0.11742555  1
  Sr  Sr5  1  0.00356571  0.82634677  0.59418161  1
  Sr  Sr6  1  0.32015676  0.16458496  0.11736352  1
  Sr  Sr7  1  0.37446821  0.17360230  0.66886167  1
  Sr  Sr8  1  0.34772124  0.50544560  0.09564128  1
  Sr  Sr9  1  0.34060178  0.48217922  0.60967036  1
  Sr  Sr10  1  0.33933490  0.82146461  0.17193386  1
  Sr  Sr11  1  0.32093276  0.85611199  0.61456475  1
  Sr  Sr12  1  0.70081013  0.15793135  0.10901474  1
  Sr  Sr13  1  0.67811621  0.15820622  0.60197432  1
  Sr  Sr14  1  0.67375161  0.48867967  0.15124342  1
  Sr  Sr15  1  0.68774730  0.50071159  0.62016924  1
  Sr  Sr16  1  0.67074241  0.83219990  0.11022406  1
  Sr  Sr17  1  0.70617764  0.83265591  0.64850106  1
  Sr  Sr18  1  0.16436351  0.00178325  0.09212703  1
  Sr  Sr19  1  0.14407443  0.00685114  0.62213195  1
  Sr  Sr20  1  0.14169907  0.32103536  0.16243325  1
  Sr  Sr21  1  0.15541706  0.34041594  0.61371105  1
  Sr  Sr22  1  0.16110370  0.65017655  0.11274593  1
  Sr  Sr23  1  0.16247212  0.66342304  0.66179415  1
  Sr  Sr24  1  0.45865949  0.00460272  0.14829269  1
  Sr  Sr25  1  0.49071729  -0.00266033  0.61585629  1
  Sr  Sr26  1  0.47881525  0.33278567  0.12095462  1
  Sr  Sr27  1  0.49513463  0.34848805  0.65156667  1
  Sr  Sr28  1  0.49024134  0.67823545  0.10441681  1
  Sr  Sr29  1  0.46717139  0.69203588  0.60891900  1
  Sr  Sr30  1  0.82573958  -0.01735228  0.11053098  1
  Sr  Sr31  1  0.82574260  0.00964842  0.66484874  1
  Sr  Sr32  1  0.82337728  0.34804290  0.10910237  1
  Sr  Sr33  1  0.81898423  0.32416120  0.58905899  1
  Sr  Sr34  1  0.79607404  0.66271141  0.16048919  1
  Sr  Sr35  1  0.84248883  0.67205018  0.61525976  1
  Sr  Sr36  1  0.00933424  0.18048860  0.38781640  1
  Sr  Sr37  1  0.00851521  0.15603780  0.83294529  1
  Sr  Sr38  1  0.03514306  0.50399492  0.34259777  1
  Sr  Sr39  1  0.00250209  0.50147538  0.88064600  1
  Sr  Sr40  1  0.01088768  0.82350627  0.38434598  1
  Sr  Sr41  1  0.01307308  0.84033984  0.91690151  1
  Sr  Sr42  1  0.34891130  0.17602589  0.33422180  1
  Sr  Sr43  1  0.33021333  0.16027525  0.89847099  1
  Sr  Sr44  1  0.34192248  0.48712918  0.40450879  1
  Sr  Sr45  1  0.35048384  0.49419866  0.89189276  1
  Sr  Sr46  1  0.33700332  0.85318932  0.39190556  1
  Sr  Sr47  1  0.32908057  0.82590828  0.82489336  1
  Sr  Sr48  1  0.67527146  0.15662382  0.39080342  1
  Sr  Sr49  1  0.70138326  0.15590758  0.89180838  1
  Sr  Sr50  1  0.68249795  0.50208419  0.37341462  1
  Sr  Sr51  1  0.67181048  0.49245359  0.84542053  1
  Sr  Sr52  1  0.70122194  0.83436304  0.34078216  1
  Sr  Sr53  1  0.67918798  0.83059235  0.88426350  1
  Sr  Sr54  1  0.15341307  -0.00879642  0.41805161  1
  Sr  Sr55  1  0.15798063  0.00329218  0.88284818  1
  Sr  Sr56  1  0.16351776  0.33228145  0.38205915  1
  Sr  Sr57  1  0.12846258  0.32883838  0.84720050  1
  Sr  Sr58  1  0.15884311  0.67233518  0.33287887  1
  Sr  Sr59  1  0.15469334  0.65557603  0.88717133  1
  Sr  Sr60  1  0.49944097  0.00451864  0.38718228  1
  Sr  Sr61  1  0.46940103  0.00557989  0.85714130  1
  Sr  Sr62  1  0.49183861  0.34642056  0.35273435  1
  Sr  Sr63  1  0.48263501  0.33272141  0.87264667  1
  Sr  Sr64  1  0.46945687  0.68451607  0.39179731  1
  Sr  Sr65  1  0.49447410  0.67905122  0.89534164  1
  Sr  Sr66  1  0.82972516  0.01014433  0.32508408  1
  Sr  Sr67  1  0.83020693  -0.01433229  0.88765762  1
  Sr  Sr68  1  0.81348133  0.34097776  0.39115150  1
  Sr  Sr69  1  0.82417616  0.34084057  0.90163387  1
  Sr  Sr70  1  0.83461219  0.67831651  0.39378505  1
  Sr  Sr71  1  0.81443250  0.65490183  0.83490661  1
  Ta  Ta72  1  0.14056558  0.18661196  0.00363133  1
  Ta  Ta73  1  0.20711165  0.17144696  0.50027869  1
  Ta  Ta74  1  0.17381664  0.45829704  0.00156288  1
  Ta  Ta75  1  0.16114047  0.52560584  0.50099758  1
  Ta  Ta76  1  0.20577386  0.82432749  -0.00201542  1
  Ta  Ta77  1  0.17407397  0.78272004  0.49731419  1
  Ta  Ta78  1  0.53216001  0.16273103  0.00162985  1
  Ta  Ta79  1  0.49176589  0.18921072  0.49895774  1
  Ta  Ta80  1  0.54440525  0.49707135  -0.00572306  1
  Ta  Ta81  1  0.52607548  0.50707632  0.50229913  1
  Ta  Ta82  1  0.47443204  0.85636660  0.00344730  1
  Ta  Ta83  1  0.57100221  0.83690942  0.49799771  1
  Ta  Ta84  1  0.88077232  0.16613443  0.00013914  1
  Ta  Ta85  1  0.84327317  0.12131931  0.49616219  1
  Ta  Ta86  1  0.82256899  0.53341843  -0.00153253  1
  Ta  Ta87  1  0.88904961  0.50623325  0.49889159  1
  Ta  Ta88  1  0.83876661  0.78211995  0.00171294  1
  Ta  Ta89  1  0.83872849  0.88232115  0.48987681  1
  Ta  Ta90  1  0.16936967  0.12188302  0.25695957  1
  Ta  Ta91  1  0.19535272  0.16522027  0.74977633  1
  Ta  Ta92  1  0.21352992  0.49522229  0.24777443  1
  Ta  Ta93  1  0.20743101  0.49131919  0.75587280  1
  Ta  Ta94  1  0.16563522  0.87315409  0.25787444  1
  Ta  Ta95  1  0.13492736  0.84258065  0.75399215  1
  Ta  Ta96  1  0.54227691  0.16717506  0.24657905  1
  Ta  Ta97  1  0.55709137  0.16480762  0.75046108  1
  Ta  Ta98  1  0.48807209  0.53077050  0.24740651  1
  Ta  Ta99  1  0.49392088  0.54103283  0.75250819  1
  Ta  Ta100  1  0.52802394  0.83366317  0.24790325  1
  Ta  Ta101  1  0.53026723  0.83358915  0.74900413  1
  Ta  Ta102  1  0.82909674  0.20299711  0.25801492  1
  Ta  Ta103  1  0.83089173  0.20130519  0.74187211  1
  Ta  Ta104  1  0.86128603  0.49989961  0.24926007  1
  Ta  Ta105  1  0.84461655  0.46611179  0.74787958  1
  Ta  Ta106  1  0.87756002  0.82742414  0.24061235  1
  Ta  Ta107  1  0.88197937  0.82948115  0.76175683  1
  Ta  Ta108  1  0.02435834  -0.01507923  0.24985591  1
  Ta  Ta109  1  -0.00224262  -0.04065757  0.75660534  1
  Ta  Ta110  1  -0.04324595  0.34202612  0.25679882  1
  Ta  Ta111  1  -0.04771086  0.33714074  0.74033981  1
  Ta  Ta112  1  -0.02723710  0.66644311  0.24695056  1
  Ta  Ta113  1  -0.00525354  0.70473759  0.75775783  1
  Ta  Ta114  1  0.28387491  -0.00100459  0.25739275  1
  Ta  Ta115  1  0.29562334  0.01397071  0.74362465  1
  Ta  Ta116  1  0.32039400  0.36075692  0.25157134  1
  Ta  Ta117  1  0.30211217  0.33280424  0.75048610  1
  Ta  Ta118  1  0.34023951  0.62887376  0.24777223  1
  Ta  Ta119  1  0.33909129  0.63408654  0.75264796  1
  Ta  Ta120  1  0.63662781  0.00734882  0.23910747  1
  Ta  Ta121  1  0.64070071  0.00565665  0.75391587  1
  Ta  Ta122  1  0.66594130  0.30026377  0.25422552  1
  Ta  Ta123  1  0.68225102  0.30843209  0.74211857  1
  Ta  Ta124  1  0.61414049  0.66813163  0.24979345  1
  Ta  Ta125  1  0.62096603  0.67332556  0.75023448  1
  Ta  Ta126  1  -0.00742460  0.04354172  -0.00161137  1
  Ta  Ta127  1  -0.04028417  0.00154276  0.50082982  1
  Ta  Ta128  1  0.00055053  0.30043465  0.00634320  1
  Ta  Ta129  1  -0.00729545  0.37764990  0.49760798  1
  Ta  Ta130  1  -0.04716257  0.66136484  -0.00114766  1
  Ta  Ta131  1  0.02203065  0.64310897  0.50191301  1
  Ta  Ta132  1  0.33031114  -0.06171249  -0.00149854  1
  Ta  Ta133  1  0.32904151  0.06336493  0.50472176  1
  Ta  Ta134  1  0.27489100  0.32880436  -0.00015865  1
  Ta  Ta135  1  0.34166763  0.28979579  0.50227756  1
  Ta  Ta136  1  0.32757964  0.72003229  -0.00214451  1
  Ta  Ta137  1  0.28301183  0.66087438  0.49944403  1
  Ta  Ta138  1  0.60956976  0.00195785  0.01202619  1
  Ta  Ta139  1  0.69038989  -0.02114816  0.48925441  1
  Ta  Ta140  1  0.64051086  0.34222892  -0.00159090  1
  Ta  Ta141  1  0.62202931  0.33749335  0.49912385  1
  Ta  Ta142  1  0.67614563  0.64034046  -0.00734321  1
  Ta  Ta143  1  0.63942652  0.67433871  0.50251943  1
  N  N144  1  -0.00241913  0.66543787  0.36740522  1
  N  N145  1  0.66284761  0.33056557  0.62112926  1
  N  N146  1  0.83919362  0.82531310  0.88019124  1
  N  N147  1  0.00225306  0.67045549  0.62430514  1
  N  N148  1  0.16736336  0.82875085  0.87090495  1
  N  N149  1  0.17026857  0.49399833  0.12479821  1
  N  N150  1  0.65922680  0.66511180  0.87065118  1
  N  N151  1  0.67203029  -0.00364134  0.36642905  1
  N  N152  1  -0.00724618  0.66259734  0.87557778  1
  N  N153  1  0.33400396  0.33019813  0.37290991  1
  N  N154  1  0.32930840  0.32500037  0.62901849  1
  N  N155  1  0.65724124  0.32952566  0.37543357  1
  N  N156  1  0.83550861  0.16514517  0.62196280  1
  N  N157  1  0.50771258  0.50707980  0.87515448  1
  N  N158  1  0.17168430  0.83111230  0.38053466  1
  N  N159  1  0.17712487  0.49934482  0.62779600  1
  N  N160  1  0.85057666  0.84614852  0.37081016  1
  N  N161  1  0.67103488  -0.00565449  0.11530042  1
  N  N162  1  -0.00239140  0.00239826  0.87961079  1
  N  N163  1  0.16638349  0.16595902  0.86982578  1
  N  N164  1  0.83245824  0.49516399  0.87128828  1
  N  N165  1  0.83493388  0.50449859  0.12782420  1
  N  N166  1  0.16195747  0.15916822  0.12531810  1
  N  N167  1  0.83538646  0.17092537  0.38110279  1
  N  N168  1  0.00144653  0.33882342  0.37198905  1
  N  N169  1  -0.01292582  0.33035696  0.12613766  1
  N  N170  1  0.16727900  0.49514328  0.87494363  1
  N  N171  1  0.83072278  0.82534442  0.12673266  1
  N  N172  1  0.49313499  0.83762032  0.13004911  1
  N  N173  1  0.33077512  0.01345971  0.62438921  1
  N  N174  1  0.18315231  0.50059138  0.37527529  1
  N  N175  1  0.17273201  0.16403375  0.37496791  1
  N  N176  1  -0.00778200  0.33929124  0.62260010  1
  O  O177  1  0.00676340  0.65746825  0.11469987  1
  O  O178  1  0.85109173  0.83227782  0.61341130  1
  O  O179  1  0.64339113  0.66136226  0.12439032  1
  O  O180  1  0.54069854  0.84157059  0.61904072  1
  O  O181  1  0.50846695  0.17068321  0.37405178  1
  O  O182  1  0.32214512  0.64436039  0.62561128  1
  O  O183  1  0.50361714  0.51699847  0.37893003  1
  O  O184  1  -0.00184493  -0.00546953  0.37181641  1
  O  O185  1  0.65690236  0.66817310  0.62504289  1
  O  O186  1  0.51447955  0.50673600  0.62834347  1
  O  O187  1  0.17393050  0.83572202  0.13393137  1
  O  O188  1  0.66238933  0.33052088  0.87520043  1
  O  O189  1  0.51765699  0.17548226  0.12293553  1
  O  O190  1  -0.01921666  0.33012058  0.87795745  1
  O  O191  1  0.63995644  -0.00214681  0.88195876  1
  O  O192  1  0.01170768  0.00082177  0.12267408  1
  O  O193  1  0.31630516  0.32209885  0.12577142  1
  O  O194  1  0.31940831  -0.02163313  0.87053662  1
  O  O195  1  0.65447122  0.33179471  0.12400835  1
  O  O196  1  0.32297247  0.64501895  0.37360569  1
  O  O197  1  0.85213522  0.17168330  0.86794690  1
  O  O198  1  0.85040122  0.17440877  0.13296229  1
  O  O199  1  0.50237738  0.84163451  0.86944927  1
  O  O200  1  0.67039222  -0.00383560  0.63190709  1
  O  O201  1  0.15707609  0.16668569  0.62042957  1
  O  O202  1  0.84835279  0.51469659  0.62570890  1
  O  O203  1  0.32493794  0.31923100  0.88399363  1
  O  O204  1  0.31338622  0.01152468  0.38853019  1
  O  O205  1  0.83969576  0.51586404  0.38349934  1
  O  O206  1  0.52077939  0.17339653  0.62426537  1
  O  O207  1  0.50337547  0.51231951  0.12116925  1
  O  O208  1  -0.01809083  -0.00535011  0.63326458  1
  O  O209  1  0.33662166  0.66812680  0.12356942  1
  O  O210  1  0.52643378  0.84312013  0.38278828  1
  O  O211  1  0.33697029  0.67303299  0.87599597  1
  O  O212  1  0.54139865  0.17120961  0.87207654  1
  O  O213  1  0.16168857  0.82102346  0.62252986  1
  O  O214  1  0.31308715  -0.02343322  0.12466560  1
  O  O215  1  0.62982808  0.66401173  0.37181593  1
