# generated using pymatgen
data_Sr24Ta24N11O13
_symmetry_space_group_name_H-M   'P 1'
_cell_length_a   16.61821100
_cell_length_b   16.99982591
_cell_length_c   15.70634004
_cell_angle_alpha   90.07300276
_cell_angle_beta   90.06043207
_cell_angle_gamma   90.34921193
_symmetry_Int_Tables_number   1
_chemical_formula_structural   Sr24Ta24N11O13
_chemical_formula_sum   'Sr72 Ta72 N33 O39'
_cell_volume   4437.05767793
_cell_formula_units_Z   3
loop_
 _symmetry_equiv_pos_site_id
 _symmetry_equiv_pos_as_xyz
  1  'x, y, z'
loop_
 _atom_site_type_symbol
 _atom_site_label
 _atom_site_symmetry_multiplicity
 _atom_site_fract_x
 _atom_site_fract_y
 _atom_site_fract_z
 _atom_site_occupancy
  Sr  Sr0  1  -0.00820467  0.17665789  0.17185675  1
  Sr  Sr1  1  0.01381060  0.17706163  0.61513366  1
  Sr  Sr2  1  0.00269540  0.50888116  0.10961653  1
  Sr  Sr3  1  0.00673823  0.52549578  0.66105564  1
  Sr  Sr4  1  -0.00686282  0.85895131  0.11253042  1
  Sr  Sr5  1  -0.01386432  0.84044353  0.60851969  1
  Sr  Sr6  1  0.32789079  0.16161439  0.11583712  1
  Sr  Sr7  1  0.33227256  0.20054959  0.65469257  1
  Sr  Sr8  1  0.32199328  0.52966969  0.10604995  1
  Sr  Sr9  1  0.32615175  0.51260379  0.60220647  1
  Sr  Sr10  1  0.32554263  0.83922024  0.15264660  1
  Sr  Sr11  1  0.34701811  0.83925830  0.61922913  1
  Sr  Sr12  1  0.68344378  0.17848180  0.08567369  1
  Sr  Sr13  1  0.65644998  0.17504745  0.61325919  1
  Sr  Sr14  1  0.65111812  0.50240398  0.16097239  1
  Sr  Sr15  1  0.66690193  0.51663402  0.61594873  1
  Sr  Sr16  1  0.66384578  0.83945449  0.11686454  1
  Sr  Sr17  1  0.66408060  0.86306835  0.64587539  1
  Sr  Sr18  1  0.17594617  -0.01422315  0.09674496  1
  Sr  Sr19  1  0.18021850  -0.02364575  0.60953925  1
  Sr  Sr20  1  0.16589521  0.30543924  0.14473807  1
  Sr  Sr21  1  0.16268311  0.33875341  0.61505808  1
  Sr  Sr22  1  0.15946813  0.65243548  0.12230267  1
  Sr  Sr23  1  0.17467926  0.66262468  0.66486054  1
  Sr  Sr24  1  0.48863351  -0.02320733  0.17412699  1
  Sr  Sr25  1  0.50242536  -0.00346290  0.60693682  1
  Sr  Sr26  1  0.49892346  0.31448656  0.11609933  1
  Sr  Sr27  1  0.50983464  0.32928990  0.66212448  1
  Sr  Sr28  1  0.51514829  0.65976118  0.10899281  1
  Sr  Sr29  1  0.50104361  0.64552441  0.60046108  1
  Sr  Sr30  1  0.82495432  -0.00331505  0.11624598  1
  Sr  Sr31  1  0.84770136  -0.00494507  0.66914780  1
  Sr  Sr32  1  0.84024949  0.32393376  0.11404299  1
  Sr  Sr33  1  0.83155505  0.30505214  0.59403156  1
  Sr  Sr34  1  0.83557079  0.62991601  0.15193465  1
  Sr  Sr35  1  0.84030270  0.66018444  0.61394489  1
  Sr  Sr36  1  0.00321583  0.18610770  0.38645983  1
  Sr  Sr37  1  -0.00722209  0.16770801  0.83423479  1
  Sr  Sr38  1  0.00348330  0.52890692  0.34850755  1
  Sr  Sr39  1  -0.00047939  0.49686850  0.88413179  1
  Sr  Sr40  1  -0.00881800  0.84037183  0.39153528  1
  Sr  Sr41  1  -0.01623349  0.86956185  0.89631458  1
  Sr  Sr42  1  0.34486065  0.19071337  0.33523644  1
  Sr  Sr43  1  0.32620189  0.17273681  0.89148131  1
  Sr  Sr44  1  0.31904094  0.51103070  0.39324812  1
  Sr  Sr45  1  0.33168668  0.53397431  0.89764961  1
  Sr  Sr46  1  0.33702656  0.84597914  0.38251979  1
  Sr  Sr47  1  0.32264408  0.84309696  0.84639231  1
  Sr  Sr48  1  0.66455080  0.17201172  0.40463675  1
  Sr  Sr49  1  0.65904460  0.18551517  0.88676114  1
  Sr  Sr50  1  0.67524699  0.50401262  0.37969983  1
  Sr  Sr51  1  0.65155140  0.50704953  0.84156968  1
  Sr  Sr52  1  0.66872155  0.87277197  0.34404198  1
  Sr  Sr53  1  0.66331084  0.83182455  0.89014878  1
  Sr  Sr54  1  0.16594976  -0.02411669  0.40892228  1
  Sr  Sr55  1  0.18486789  -0.00909015  0.89464358  1
  Sr  Sr56  1  0.16887130  0.33052230  0.38604482  1
  Sr  Sr57  1  0.15652929  0.30641759  0.84327737  1
  Sr  Sr58  1  0.17484951  0.66384856  0.33612096  1
  Sr  Sr59  1  0.16180691  0.64625195  0.88235721  1
  Sr  Sr60  1  0.50149355  0.00517795  0.38436626  1
  Sr  Sr61  1  0.49610953  -0.03665643  0.83934137  1
  Sr  Sr62  1  0.50683048  0.33381535  0.33771082  1
  Sr  Sr63  1  0.50199469  0.32258578  0.87384213  1
  Sr  Sr64  1  0.50733534  0.63761477  0.39302359  1
  Sr  Sr65  1  0.51127745  0.65787357  0.89632882  1
  Sr  Sr66  1  0.85070738  -0.00669430  0.33260791  1
  Sr  Sr67  1  0.81249346  -0.00068623  0.89058042  1
  Sr  Sr68  1  0.83147320  0.31320865  0.38905221  1
  Sr  Sr69  1  0.83631304  0.32432423  0.90182811  1
  Sr  Sr70  1  0.84044494  0.65262474  0.38618814  1
  Sr  Sr71  1  0.83400189  0.62865225  0.84928332  1
  Ta  Ta72  1  0.11867175  0.16454771  0.00174467  1
  Ta  Ta73  1  0.20024518  0.15610081  0.49472916  1
  Ta  Ta74  1  0.16947992  0.44325884  -0.00644112  1
  Ta  Ta75  1  0.14138446  0.52752526  0.50562302  1
  Ta  Ta76  1  0.16958765  0.80586246  0.00482361  1
  Ta  Ta77  1  0.16126877  0.78533173  0.49801671  1
  Ta  Ta78  1  0.49561278  0.11943839  0.00380485  1
  Ta  Ta79  1  0.47532084  0.19842163  0.49781998  1
  Ta  Ta80  1  0.50760941  0.47741669  -0.00448725  1
  Ta  Ta81  1  0.49810607  0.45221251  0.50468807  1
  Ta  Ta82  1  0.48030954  0.84159683  0.01059603  1
  Ta  Ta83  1  0.52690847  0.81551402  0.48335286  1
  Ta  Ta84  1  0.88361876  0.16103750  0.00560132  1
  Ta  Ta85  1  0.83765735  0.11845983  0.49625138  1
  Ta  Ta86  1  0.79199657  0.49472746  0.00117876  1
  Ta  Ta87  1  0.86204888  0.48286249  0.50160976  1
  Ta  Ta88  1  0.83461039  0.76850444  0.00172349  1
  Ta  Ta89  1  0.80819052  0.85690521  0.50018712  1
  Ta  Ta90  1  0.16789618  0.11860337  0.25379300  1
  Ta  Ta91  1  0.17286952  0.12151160  0.74790764  1
  Ta  Ta92  1  0.17468662  0.47455917  0.24178655  1
  Ta  Ta93  1  0.19356057  0.48151511  0.75551792  1
  Ta  Ta94  1  0.14411102  0.84845090  0.25333944  1
  Ta  Ta95  1  0.12954972  0.83750646  0.75375487  1
  Ta  Ta96  1  0.54625017  0.16105032  0.24349518  1
  Ta  Ta97  1  0.50400388  0.13778242  0.75216659  1
  Ta  Ta98  1  0.45874452  0.50423310  0.24833947  1
  Ta  Ta99  1  0.46393273  0.50627441  0.74858913  1
  Ta  Ta100  1  0.50449152  0.79012697  0.26090302  1
  Ta  Ta101  1  0.50770270  0.78569446  0.74438531  1
  Ta  Ta102  1  0.80151576  0.16815054  0.25016924  1
  Ta  Ta103  1  0.80972860  0.17802134  0.75246018  1
  Ta  Ta104  1  0.83764638  0.45506496  0.25885251  1
  Ta  Ta105  1  0.82991673  0.44964524  0.74210626  1
  Ta  Ta106  1  0.83540898  0.80282562  0.24758236  1
  Ta  Ta107  1  0.83386507  0.80662304  0.75712816  1
  Ta  Ta108  1  0.04385933  0.00256427  0.24992418  1
  Ta  Ta109  1  0.04148780  -0.00326582  0.74549718  1
  Ta  Ta110  1  -0.00638196  0.36268074  0.25835795  1
  Ta  Ta111  1  -0.03592438  0.34511831  0.74224110  1
  Ta  Ta112  1  -0.00514213  0.70939117  0.24352440  1
  Ta  Ta113  1  -0.00549289  0.71367246  0.76793501  1
  Ta  Ta114  1  0.29698375  0.00905056  0.25533449  1
  Ta  Ta115  1  0.32959469  0.02914718  0.75134600  1
  Ta  Ta116  1  0.33001618  0.38065317  0.24423059  1
  Ta  Ta117  1  0.33130341  0.38322825  0.75587181  1
  Ta  Ta118  1  0.36580730  0.66504615  0.25599530  1
  Ta  Ta119  1  0.36501745  0.66748354  0.74857475  1
  Ta  Ta120  1  0.66526931  0.04947605  0.24119515  1
  Ta  Ta121  1  0.66000241  0.04198578  0.75394577  1
  Ta  Ta122  1  0.68319112  0.30882364  0.24483717  1
  Ta  Ta123  1  0.70235330  0.33018035  0.75234391  1
  Ta  Ta124  1  0.66827999  0.69316052  0.25754020  1
  Ta  Ta125  1  0.66368938  0.69035408  0.74857284  1
  Ta  Ta126  1  0.00169445  0.04571343  0.00741328  1
  Ta  Ta127  1  -0.03186675  0.01065876  0.50337269  1
  Ta  Ta128  1  0.01779316  0.30515217  -0.00606422  1
  Ta  Ta129  1  -0.00081439  0.38728351  0.50190871  1
  Ta  Ta130  1  -0.01403663  0.69153731  -0.00321524  1
  Ta  Ta131  1  0.03408552  0.66596038  0.49582211  1
  Ta  Ta132  1  0.37320769  -0.01192142  0.00432154  1
  Ta  Ta133  1  0.33844340  0.06214793  0.49241974  1
  Ta  Ta134  1  0.32553696  0.36034078  -0.00868282  1
  Ta  Ta135  1  0.36688434  0.32843333  0.49900525  1
  Ta  Ta136  1  0.33109018  0.71672251  -0.00301247  1
  Ta  Ta137  1  0.30006705  0.68163449  0.50120920  1
  Ta  Ta138  1  0.60958334  0.00423706  0.00731785  1
  Ta  Ta139  1  0.71751523  -0.00235345  0.49969541  1
  Ta  Ta140  1  0.66238771  0.37653018  0.00013323  1
  Ta  Ta141  1  0.63279375  0.34392962  0.49493024  1
  Ta  Ta142  1  0.69596573  0.64811318  0.00439295  1
  Ta  Ta143  1  0.67357048  0.72019647  0.48642400  1
  N  N144  1  0.33513061  0.68592428  0.87668093  1
  N  N145  1  -0.00131015  0.32498682  0.87241023  1
  N  N146  1  0.84113459  0.16236866  0.12257004  1
  N  N147  1  0.66121476  0.00535951  0.12041816  1
  N  N148  1  0.16063844  0.48442586  0.11941895  1
  N  N149  1  0.00521462  0.00160507  0.62394342  1
  N  N150  1  0.67937781  0.65942403  0.38259650  1
  N  N151  1  0.00756540  0.67938544  0.37431925  1
  N  N152  1  0.83514701  0.15363511  0.37260298  1
  N  N153  1  0.00187263  0.65385023  0.87251791  1
  N  N154  1  0.83319005  0.49281797  0.37814922  1
  N  N155  1  0.49761173  0.49732050  0.87521993  1
  N  N156  1  0.33359665  0.67318172  0.62425299  1
  N  N157  1  0.66193596  0.33260247  0.37634571  1
  N  N158  1  0.16397735  0.82313895  0.37751087  1
  N  N159  1  0.67301551  0.66268219  0.12984428  1
  N  N160  1  0.00238074  0.66767625  0.12623132  1
  N  N161  1  0.34100402  0.00417677  0.87182929  1
  N  N162  1  0.16444332  0.50554410  0.62764042  1
  N  N163  1  0.16499520  0.82434254  0.12530147  1
  N  N164  1  0.00816391  0.34281427  0.37959973  1
  N  N165  1  0.67098005  0.66626341  0.86956909  1
  N  N166  1  0.15785000  0.49064411  0.87924358  1
  N  N167  1  0.50792733  0.85285633  0.36533812  1
  N  N168  1  0.33331872  0.00158965  0.12261808  1
  N  N169  1  0.49717922  0.48897757  0.62454984  1
  N  N170  1  0.49913290  0.82473003  0.13205079  1
  N  N171  1  0.66453399  0.33627263  0.12236959  1
  N  N172  1  0.00238324  0.01222004  0.13177637  1
  N  N173  1  0.66662913  0.33942374  0.87184933  1
  N  N174  1  0.00314491  0.34223982  0.62416123  1
  N  N175  1  0.34217701  0.01671465  0.37142842  1
  N  N176  1  0.33697121  0.66641671  0.37514040  1
  O  O177  1  0.16446854  0.50404694  0.37533033  1
  O  O178  1  0.82230618  0.81935890  0.88092116  1
  O  O179  1  0.49236948  0.17081737  0.62893179  1
  O  O180  1  0.33988598  0.67996003  0.12223035  1
  O  O181  1  0.34403122  0.34503023  0.37209903  1
  O  O182  1  0.48417647  0.50134174  0.12498114  1
  O  O183  1  0.33480818  0.36382455  0.11993776  1
  O  O184  1  0.47802177  0.48830598  0.37543290  1
  O  O185  1  0.65719235  0.02180664  0.88077164  1
  O  O186  1  0.50490279  0.18236969  0.36858904  1
  O  O187  1  0.17835664  0.14233632  0.61728050  1
  O  O188  1  0.82465244  0.83505416  0.63260657  1
  O  O189  1  0.81647540  0.48156790  0.87392184  1
  O  O190  1  0.82920389  0.83730161  0.36905734  1
  O  O191  1  0.49480617  0.14356769  0.87630624  1
  O  O192  1  0.00707992  0.01409764  0.86878957  1
  O  O193  1  0.00561025  0.32942611  0.13225432  1
  O  O194  1  0.82590100  0.50435430  0.62624657  1
  O  O195  1  0.16363167  0.15461549  0.12355527  1
  O  O196  1  0.83560443  0.16887056  0.87776261  1
  O  O197  1  0.34536504  0.02498058  0.61522172  1
  O  O198  1  0.50861308  0.80592828  0.61692931  1
  O  O199  1  -0.00291635  0.67783011  0.63941841  1
  O  O200  1  0.67947181  0.01617079  0.37696841  1
  O  O201  1  0.81397750  0.48197562  0.12897356  1
  O  O202  1  0.33895863  0.32674148  0.87169992  1
  O  O203  1  0.82106705  0.15650083  0.62741482  1
  O  O204  1  0.67795311  0.01853049  0.62788489  1
  O  O205  1  0.15222783  0.83958465  0.87739421  1
  O  O206  1  0.68138966  0.67918433  0.61106114  1
  O  O207  1  0.14520674  0.82490728  0.62746902  1
  O  O208  1  0.82837795  0.80699778  0.11792267  1
  O  O209  1  0.50552642  0.81386919  0.87263115  1
  O  O210  1  0.66342495  0.32644440  0.62523300  1
  O  O211  1  0.17863932  0.17568154  0.36857939  1
  O  O212  1  0.00392386  0.00020863  0.37942326  1
  O  O213  1  0.15997896  0.14711380  0.87595713  1
  O  O214  1  0.49167486  0.15105036  0.12985341  1
  O  O215  1  0.34736612  0.34619021  0.62631128  1
