# generated using pymatgen
data_Sr24Ta24N11O13
_symmetry_space_group_name_H-M   'P 1'
_cell_length_a   16.86599324
_cell_length_b   16.72670304
_cell_length_c   15.70299192
_cell_angle_alpha   89.92093827
_cell_angle_beta   89.56566759
_cell_angle_gamma   89.80006005
_symmetry_Int_Tables_number   1
_chemical_formula_structural   Sr24Ta24N11O13
_chemical_formula_sum   'Sr72 Ta72 N33 O39'
_cell_volume   4429.85137317
_cell_formula_units_Z   3
loop_
 _symmetry_equiv_pos_site_id
 _symmetry_equiv_pos_as_xyz
  1  'x, y, z'
loop_
 _atom_site_type_symbol
 _atom_site_label
 _atom_site_symmetry_multiplicity
 _atom_site_fract_x
 _atom_site_fract_y
 _atom_site_fract_z
 _atom_site_occupancy
  Sr  Sr0  1  -0.00874498  0.17082924  0.11236042  1
  Sr  Sr1  1  0.00342249  0.16565139  0.65610611  1
  Sr  Sr2  1  0.01204858  0.50454458  0.14005318  1
  Sr  Sr3  1  0.00968932  0.48403706  0.61360786  1
  Sr  Sr4  1  0.01650464  0.82274458  0.10785043  1
  Sr  Sr5  1  -0.00161659  0.83717726  0.62181756  1
  Sr  Sr6  1  0.36365623  0.17046758  0.08127000  1
  Sr  Sr7  1  0.33695096  0.15117882  0.63313080  1
  Sr  Sr8  1  0.33738530  0.49767878  0.14433449  1
  Sr  Sr9  1  0.34979954  0.50550804  0.64126957  1
  Sr  Sr10  1  0.32651652  0.83927462  0.13338030  1
  Sr  Sr11  1  0.36281561  0.82360003  0.57373075  1
  Sr  Sr12  1  0.65317900  0.17253379  0.17257094  1
  Sr  Sr13  1  0.68076742  0.16413700  0.60503077  1
  Sr  Sr14  1  0.68231710  0.50033168  0.12333759  1
  Sr  Sr15  1  0.67228859  0.50624585  0.58541402  1
  Sr  Sr16  1  0.68324828  0.84500318  0.11098378  1
  Sr  Sr17  1  0.65753958  0.81940223  0.66482553  1
  Sr  Sr18  1  0.15886319  0.00109403  0.15414995  1
  Sr  Sr19  1  0.14578917  0.00384701  0.63719221  1
  Sr  Sr20  1  0.15154891  0.33524186  0.14065786  1
  Sr  Sr21  1  0.18099516  0.32914511  0.58105584  1
  Sr  Sr22  1  0.15700413  0.67039592  0.07651745  1
  Sr  Sr23  1  0.15101851  0.65602208  0.64167535  1
  Sr  Sr24  1  0.48463815  -0.01499691  0.10870024  1
  Sr  Sr25  1  0.49956270  -0.00334494  0.61203041  1
  Sr  Sr26  1  0.50448905  0.33828949  0.12061594  1
  Sr  Sr27  1  0.49227869  0.32088308  0.67396584  1
  Sr  Sr28  1  0.45493267  0.67137298  0.17342455  1
  Sr  Sr29  1  0.50356293  0.65535824  0.61580772  1
  Sr  Sr30  1  0.81327978  0.02386622  0.14097895  1
  Sr  Sr31  1  0.82628934  -0.00437369  0.58207288  1
  Sr  Sr32  1  0.83183809  0.33021047  0.09589830  1
  Sr  Sr33  1  0.84309441  0.32932597  0.63865716  1
  Sr  Sr34  1  0.82059126  0.66680367  0.12976036  1
  Sr  Sr35  1  0.81437681  0.69196647  0.65367954  1
  Sr  Sr36  1  0.01585530  0.16052360  0.33193606  1
  Sr  Sr37  1  -0.00262364  0.16923193  0.88231081  1
  Sr  Sr38  1  0.00563601  0.49060163  0.38385908  1
  Sr  Sr39  1  0.01927580  0.50060205  0.86520796  1
  Sr  Sr40  1  0.00279686  0.84404861  0.40448300  1
  Sr  Sr41  1  0.02274233  0.82114359  0.85243624  1
  Sr  Sr42  1  0.32788359  0.16568619  0.41813692  1
  Sr  Sr43  1  0.34648524  0.16188088  0.86589264  1
  Sr  Sr44  1  0.34884961  0.49088758  0.35919821  1
  Sr  Sr45  1  0.34881512  0.50834976  0.85614561  1
  Sr  Sr46  1  0.33855282  0.83998998  0.35510130  1
  Sr  Sr47  1  0.33937077  0.83092054  0.91065883  1
  Sr  Sr48  1  0.66702779  0.15529757  0.38767907  1
  Sr  Sr49  1  0.67210703  0.20866617  0.81625849  1
  Sr  Sr50  1  0.67675577  0.51106319  0.38054743  1
  Sr  Sr51  1  0.67812433  0.49744797  0.91457226  1
  Sr  Sr52  1  0.69789838  0.82949592  0.33819535  1
  Sr  Sr53  1  0.65166711  0.84167744  0.88293435  1
  Sr  Sr54  1  0.15463038  -0.00439929  0.35913265  1
  Sr  Sr55  1  0.15809121  0.01385222  0.83702334  1
  Sr  Sr56  1  0.16235997  0.33830575  0.36370919  1
  Sr  Sr57  1  0.16096936  0.31565722  0.91242099  1
  Sr  Sr58  1  0.13212524  0.67227759  0.41483335  1
  Sr  Sr59  1  0.17474746  0.65177789  0.86506510  1
  Sr  Sr60  1  0.47948760  0.00489553  0.39995638  1
  Sr  Sr61  1  0.49401035  -0.00956130  0.88611643  1
  Sr  Sr62  1  0.51618761  0.32843689  0.33879751  1
  Sr  Sr63  1  0.49499719  0.34162969  0.88709530  1
  Sr  Sr64  1  0.48731320  0.65978219  0.39647550  1
  Sr  Sr65  1  0.49762666  0.66825247  0.84297546  1
  Sr  Sr66  1  0.82220162  0.01025590  0.36681692  1
  Sr  Sr67  1  0.83259107  0.00517844  0.91364218  1
  Sr  Sr68  1  0.82375101  0.35052445  0.42752268  1
  Sr  Sr69  1  0.84418031  0.33105446  0.86315094  1
  Sr  Sr70  1  0.82411082  0.66385150  0.33881654  1
  Sr  Sr71  1  0.80243093  0.68003926  0.88256047  1
  Ta  Ta72  1  0.17283717  0.13151067  -0.00280729  1
  Ta  Ta73  1  0.14229047  0.15094291  0.49796949  1
  Ta  Ta74  1  0.19736925  0.48515410  -0.00033841  1
  Ta  Ta75  1  0.20350416  0.50822219  0.50191637  1
  Ta  Ta76  1  0.16905692  0.88240190  -0.00511282  1
  Ta  Ta77  1  0.18673642  0.84693473  0.50184356  1
  Ta  Ta78  1  0.55963044  0.17388737  -0.01030013  1
  Ta  Ta79  1  0.50247811  0.20790179  0.50480521  1
  Ta  Ta80  1  0.49497869  0.53934355  0.00254048  1
  Ta  Ta81  1  0.49978775  0.45102579  0.50801551  1
  Ta  Ta82  1  0.49875973  0.78083499  0.01154566  1
  Ta  Ta83  1  0.54847158  0.82852914  0.49225803  1
  Ta  Ta84  1  0.76262673  0.17194139  -0.00336193  1
  Ta  Ta85  1  0.87462493  0.16968518  0.49709229  1
  Ta  Ta86  1  0.86688081  0.50414763  0.00029175  1
  Ta  Ta87  1  0.84330047  0.54571423  0.50473921  1
  Ta  Ta88  1  0.86857332  0.83116655  -0.00336412  1
  Ta  Ta89  1  0.81578208  0.81381723  0.49817554  1
  Ta  Ta90  1  0.21387918  0.17019576  0.25087206  1
  Ta  Ta91  1  0.17584687  0.20474493  0.74589944  1
  Ta  Ta92  1  0.16485439  0.54299054  0.24849269  1
  Ta  Ta93  1  0.17779043  0.45422770  0.75018705  1
  Ta  Ta94  1  0.15169109  0.79832599  0.24878828  1
  Ta  Ta95  1  0.22622015  0.83822899  0.74504390  1
  Ta  Ta96  1  0.47047138  0.15186918  0.25768187  1
  Ta  Ta97  1  0.51788953  0.13252625  0.74752736  1
  Ta  Ta98  1  0.53201621  0.51026618  0.25164526  1
  Ta  Ta99  1  0.54161490  0.49714532  0.75244269  1
  Ta  Ta100  1  0.52362838  0.83693986  0.26576912  1
  Ta  Ta101  1  0.46254009  0.83706701  0.74122154  1
  Ta  Ta102  1  0.82903036  0.21815552  0.26356128  1
  Ta  Ta103  1  0.83021045  0.11799847  0.74277283  1
  Ta  Ta104  1  0.83743393  0.46392169  0.25878730  1
  Ta  Ta105  1  0.82242476  0.51320680  0.74146734  1
  Ta  Ta106  1  0.87755974  0.84175613  0.25106321  1
  Ta  Ta107  1  0.83405368  0.88036993  0.74665620  1
  Ta  Ta108  1  -0.01777947  -0.02614207  0.24853067  1
  Ta  Ta109  1  -0.04413617  -0.00275592  0.74222322  1
  Ta  Ta110  1  -0.04165018  0.33435571  0.25717904  1
  Ta  Ta111  1  0.04533388  0.33321142  0.74350061  1
  Ta  Ta112  1  0.02348868  0.68146947  0.24610309  1
  Ta  Ta113  1  -0.03314784  0.64783096  0.74633306  1
  Ta  Ta114  1  0.33553087  0.04246812  0.25279346  1
  Ta  Ta115  1  0.33949152  -0.03604259  0.74429583  1
  Ta  Ta116  1  0.33853140  0.28327096  0.25122158  1
  Ta  Ta117  1  0.29274831  0.33045458  0.75148006  1
  Ta  Ta118  1  0.26754823  0.67217147  0.24538288  1
  Ta  Ta119  1  0.33185793  0.70681938  0.74923013  1
  Ta  Ta120  1  0.62063239  -0.00908436  0.25506684  1
  Ta  Ta121  1  0.68530131  0.00714346  0.74906601  1
  Ta  Ta122  1  0.70140254  0.34841640  0.25880509  1
  Ta  Ta123  1  0.67400327  0.39416043  0.74281349  1
  Ta  Ta124  1  0.62970695  0.66539577  0.25259267  1
  Ta  Ta125  1  0.66390885  0.61244563  0.74500152  1
  Ta  Ta126  1  0.02337302  -0.01408725  -0.00672436  1
  Ta  Ta127  1  0.00100547  0.03575430  0.49628343  1
  Ta  Ta128  1  -0.00556304  0.36018748  0.00448718  1
  Ta  Ta129  1  0.00379656  0.28874164  0.49557885  1
  Ta  Ta130  1  -0.03412150  0.65538497  0.00140310  1
  Ta  Ta131  1  -0.05109091  0.66857957  0.49844401  1
  Ta  Ta132  1  0.28901799  0.00041282  -0.00154255  1
  Ta  Ta133  1  0.28875873  -0.01149637  0.49655376  1
  Ta  Ta134  1  0.32412779  0.35447602  0.00293498  1
  Ta  Ta135  1  0.37197575  0.34076631  0.50185490  1
  Ta  Ta136  1  0.35185350  0.65331146  0.00077386  1
  Ta  Ta137  1  0.30421695  0.65420667  0.49516078  1
  Ta  Ta138  1  0.65744941  0.03943583  0.00500464  1
  Ta  Ta139  1  0.66019812  -0.04960098  0.49226605  1
  Ta  Ta140  1  0.66818472  0.30590946  -0.00155918  1
  Ta  Ta141  1  0.62886131  0.33382477  0.51361119  1
  Ta  Ta142  1  0.61485885  0.66671127  0.00954732  1
  Ta  Ta143  1  0.68027062  0.69358959  0.49848371  1
  N  N144  1  0.50473595  0.16339060  0.62452765  1
  N  N145  1  0.00430813  0.33089960  0.37404388  1
  N  N146  1  -0.00882054  -0.00297462  0.61878752  1
  N  N147  1  0.50590572  0.82684164  0.62409507  1
  N  N148  1  -0.00618588  0.33374430  0.12440059  1
  N  N149  1  0.83871917  0.49321952  0.61913413  1
  N  N150  1  0.30978527  0.67058168  0.12346440  1
  N  N151  1  0.17799929  0.49549320  0.87421429  1
  N  N152  1  0.66251785  0.65826875  0.62688128  1
  N  N153  1  0.50266263  0.49179663  0.62452157  1
  N  N154  1  -0.00765901  0.66332447  0.12626187  1
  N  N155  1  0.33244333  0.67259282  0.87175812  1
  N  N156  1  0.66169775  -0.00252836  0.37743130  1
  N  N157  1  0.49653537  0.17077752  0.37745831  1
  N  N158  1  0.50811593  0.50382324  0.88561224  1
  N  N159  1  0.01507126  0.32581644  0.62267824  1
  N  N160  1  0.82704263  0.17286925  0.37832812  1
  N  N161  1  0.84850185  0.83637513  0.37333782  1
  N  N162  1  0.65043804  0.00888325  0.12943137  1
  N  N163  1  -0.00382363  -0.00104138  0.36889465  1
  N  N164  1  0.32103293  0.00446531  0.37440402  1
  N  N165  1  0.18101381  0.49364537  0.62265999  1
  N  N166  1  0.48825015  0.82381775  0.38426579  1
  N  N167  1  0.17286197  0.16711823  0.37042224  1
  N  N168  1  0.17135034  0.50847244  0.12806603  1
  N  N169  1  0.17126843  0.16652794  0.62527144  1
  N  N170  1  0.51980334  0.16999225  0.86905286  1
  N  N171  1  0.83717867  0.15903431  0.62550221  1
  N  N172  1  0.66025266  0.66708176  0.37169815  1
  N  N173  1  0.16901636  0.16299736  0.87716139  1
  N  N174  1  0.67034701  0.33634377  0.63292050  1
  N  N175  1  0.83076217  0.84413311  0.62634905  1
  N  N176  1  0.83624750  0.50500248  0.37682448  1
  O  O177  1  0.84171987  0.50058107  0.87746538  1
  O  O178  1  0.00714483  -0.00347894  0.11795622  1
  O  O179  1  0.33104133  0.33673571  0.87797120  1
  O  O180  1  -0.01852146  0.67073310  0.37310130  1
  O  O181  1  0.33765779  -0.01289213  0.61572578  1
  O  O182  1  0.67081171  0.34546663  0.38369412  1
  O  O183  1  0.17427844  0.50013089  0.37467972  1
  O  O184  1  0.84167602  0.50174622  0.12828870  1
  O  O185  1  0.16507460  0.82966624  0.37609643  1
  O  O186  1  0.68016507  0.35039169  0.87344526  1
  O  O187  1  -0.02968298  0.65942785  0.86817515  1
  O  O188  1  0.51367949  0.49104722  0.37667997  1
  O  O189  1  0.31556067  0.00426407  0.12963838  1
  O  O190  1  0.85584052  0.83658324  0.87226143  1
  O  O191  1  0.18004255  0.85513792  0.86624851  1
  O  O192  1  0.52211146  0.49198902  0.12596545  1
  O  O193  1  0.00374208  0.33597617  0.87239949  1
  O  O194  1  0.84948607  0.82786718  0.12037095  1
  O  O195  1  -0.02515241  0.67519700  0.62551126  1
  O  O196  1  0.32040578  0.67045933  0.61960914  1
  O  O197  1  0.17975602  0.83641252  0.62614404  1
  O  O198  1  0.00207863  -0.00745401  0.86910893  1
  O  O199  1  0.33954905  0.32896867  0.12712230  1
  O  O200  1  0.66794338  0.66076164  0.12320259  1
  O  O201  1  0.49313937  0.82335433  0.88602821  1
  O  O202  1  0.17083805  0.15890460  0.12640199  1
  O  O203  1  0.31163005  0.66821906  0.37122602  1
  O  O204  1  0.80811973  0.15672380  0.87452172  1
  O  O205  1  0.48787465  0.82284159  0.13313335  1
  O  O206  1  0.65331630  0.65033981  0.88229496  1
  O  O207  1  0.80420525  0.17962628  0.13658588  1
  O  O208  1  0.50901014  0.17941610  0.12867629  1
  O  O209  1  0.35807726  0.32988617  0.36964477  1
  O  O210  1  0.67202353  -0.00252271  0.87532734  1
  O  O211  1  0.16668088  0.84627906  0.12804811  1
  O  O212  1  0.66979955  -0.01107452  0.62309011  1
  O  O213  1  0.34005755  0.33670017  0.62612473  1
  O  O214  1  0.67869271  0.34012342  0.12957333  1
  O  O215  1  0.32300702  -0.01089337  0.86905303  1
