# generated using pymatgen
data_Sr24Ta24N11O13
_symmetry_space_group_name_H-M   'P 1'
_cell_length_a   17.38180228
_cell_length_b   16.70226827
_cell_length_c   15.40227399
_cell_angle_alpha   89.78561014
_cell_angle_beta   89.46934063
_cell_angle_gamma   88.97623589
_symmetry_Int_Tables_number   1
_chemical_formula_structural   Sr24Ta24N11O13
_chemical_formula_sum   'Sr72 Ta72 N33 O39'
_cell_volume   4470.58511374
_cell_formula_units_Z   3
loop_
 _symmetry_equiv_pos_site_id
 _symmetry_equiv_pos_as_xyz
  1  'x, y, z'
loop_
 _atom_site_type_symbol
 _atom_site_label
 _atom_site_symmetry_multiplicity
 _atom_site_fract_x
 _atom_site_fract_y
 _atom_site_fract_z
 _atom_site_occupancy
  Sr  Sr0  1  -0.04160438  0.17890949  0.14624461  1
  Sr  Sr1  1  0.02386777  0.12977742  0.60392137  1
  Sr  Sr2  1  0.00432092  0.54347505  0.10594054  1
  Sr  Sr3  1  0.00364416  0.45970838  0.66379370  1
  Sr  Sr4  1  0.05426441  0.84961621  0.11589816  1
  Sr  Sr5  1  0.00497647  0.84235823  0.60504871  1
  Sr  Sr6  1  0.37500226  0.13633569  0.14424751  1
  Sr  Sr7  1  0.32512656  0.18131674  0.68471836  1
  Sr  Sr8  1  0.32192270  0.51572908  0.12525213  1
  Sr  Sr9  1  0.40209525  0.46507828  0.56905569  1
  Sr  Sr10  1  0.31433186  0.83297918  0.09218862  1
  Sr  Sr11  1  0.40172630  0.84274459  0.65742214  1
  Sr  Sr12  1  0.66113827  0.20004290  0.09317579  1
  Sr  Sr13  1  0.69077255  0.14927802  0.65696335  1
  Sr  Sr14  1  0.65440762  0.49422637  0.21285364  1
  Sr  Sr15  1  0.68024771  0.49202639  0.62020345  1
  Sr  Sr16  1  0.64762529  0.80913062  0.14929051  1
  Sr  Sr17  1  0.78542940  0.81174215  0.53748148  1
  Sr  Sr18  1  0.13364983  0.05255823  0.17884217  1
  Sr  Sr19  1  0.16237946  -0.02302837  0.61507358  1
  Sr  Sr20  1  0.10824809  0.37099649  0.04770103  1
  Sr  Sr21  1  0.14358492  0.31487223  0.64581872  1
  Sr  Sr22  1  0.16408234  0.66968403  0.15570563  1
  Sr  Sr23  1  0.09247273  0.64605289  0.59789147  1
  Sr  Sr24  1  0.49843200  -0.02729842  0.18963030  1
  Sr  Sr25  1  0.48709116  0.04691998  0.63410519  1
  Sr  Sr26  1  0.49472238  0.34361557  0.14634115  1
  Sr  Sr27  1  0.55932152  0.33977912  0.54985000  1
  Sr  Sr28  1  0.47039960  0.67609892  0.09102698  1
  Sr  Sr29  1  0.51603987  0.62738063  0.65343770  1
  Sr  Sr30  1  0.78908116  0.03014088  0.10727810  1
  Sr  Sr31  1  0.87586227  -0.01149032  0.62917501  1
  Sr  Sr32  1  0.81630385  0.33806307  0.13760386  1
  Sr  Sr33  1  0.83567186  0.34966666  0.72207830  1
  Sr  Sr34  1  0.82578701  0.65878743  0.11630140  1
  Sr  Sr35  1  0.83860770  0.61005836  0.52979967  1
  Sr  Sr36  1  0.00394157  0.14890020  0.36995155  1
  Sr  Sr37  1  0.10521367  0.15094829  0.96687987  1
  Sr  Sr38  1  0.01507675  0.51585121  0.40168434  1
  Sr  Sr39  1  -0.03415186  0.49943163  0.88826872  1
  Sr  Sr40  1  0.09309856  0.83108928  0.34590371  1
  Sr  Sr41  1  0.00556617  0.85252133  0.83380000  1
  Sr  Sr42  1  0.29514668  0.17305631  0.33174319  1
  Sr  Sr43  1  0.33673475  0.16617156  0.89795072  1
  Sr  Sr44  1  0.31009137  0.48678982  0.35695582  1
  Sr  Sr45  1  0.35987125  0.51100837  0.87267453  1
  Sr  Sr46  1  0.35451250  0.88996246  0.45771537  1
  Sr  Sr47  1  0.35883910  0.82254579  0.87038064  1
  Sr  Sr48  1  0.62452245  0.17467315  0.44978564  1
  Sr  Sr49  1  0.64701391  0.14190099  0.86702962  1
  Sr  Sr50  1  0.71632292  0.47086714  0.40048242  1
  Sr  Sr51  1  0.66146166  0.51415848  0.84780691  1
  Sr  Sr52  1  0.64545958  0.86616010  0.34806911  1
  Sr  Sr53  1  0.69315772  0.82718715  0.94437188  1
  Sr  Sr54  1  0.17427814  0.00620468  0.39019832  1
  Sr  Sr55  1  0.18590500  -0.05270724  0.93031179  1
  Sr  Sr56  1  0.11155942  0.33082474  0.41540258  1
  Sr  Sr57  1  0.18395575  0.36614361  0.84682680  1
  Sr  Sr58  1  0.17628942  0.64478577  0.37383974  1
  Sr  Sr59  1  0.10372231  0.63847966  0.80704205  1
  Sr  Sr60  1  0.48591754  0.02232567  0.39834164  1
  Sr  Sr61  1  0.52178584  -0.02330131  0.82609530  1
  Sr  Sr62  1  0.44910422  0.34184263  0.35577544  1
  Sr  Sr63  1  0.49423318  0.31632185  0.93017176  1
  Sr  Sr64  1  0.44086661  0.71313981  0.45287316  1
  Sr  Sr65  1  0.53111930  0.67922120  0.87704245  1
  Sr  Sr66  1  0.79860226  0.00193794  0.38300838  1
  Sr  Sr67  1  0.79482055  -0.00605923  0.86736287  1
  Sr  Sr68  1  0.86314150  0.31458135  0.34904321  1
  Sr  Sr69  1  0.77674888  0.29407369  0.91266117  1
  Sr  Sr70  1  0.77719857  0.68056047  0.32288901  1
  Sr  Sr71  1  0.81239547  0.67206048  0.90421911  1
  Ta  Ta72  1  0.22390861  0.22611103  0.09790260  1
  Ta  Ta73  1  0.21429485  0.17082167  0.52549040  1
  Ta  Ta74  1  0.17993538  0.54757737  -0.01542281  1
  Ta  Ta75  1  0.19206992  0.48218102  0.51354281  1
  Ta  Ta76  1  0.16041011  0.74346228  -0.04351131  1
  Ta  Ta77  1  0.22040108  0.78289633  0.54451011  1
  Ta  Ta78  1  0.50409744  0.12857964  0.00150054  1
  Ta  Ta79  1  0.42399387  0.19522135  0.50008983  1
  Ta  Ta80  1  0.52055799  0.50014733  0.00995004  1
  Ta  Ta81  1  0.54313022  0.54311606  0.42912451  1
  Ta  Ta82  1  0.50809687  0.86262698  0.00803975  1
  Ta  Ta83  1  0.57666045  0.83561796  0.57299133  1
  Ta  Ta84  1  0.91238826  0.15139583  -0.06763495  1
  Ta  Ta85  1  0.84138663  0.17162633  0.50954234  1
  Ta  Ta86  1  0.79762366  0.49076680  0.00213231  1
  Ta  Ta87  1  0.86519396  0.43069524  0.51796755  1
  Ta  Ta88  1  0.87985475  0.84428516  0.00251242  1
  Ta  Ta89  1  0.89700442  0.83383628  0.36126686  1
  Ta  Ta90  1  0.12527634  0.25721619  0.23137859  1
  Ta  Ta91  1  0.15451351  0.12278711  0.76380188  1
  Ta  Ta92  1  0.14880071  0.45780746  0.23481697  1
  Ta  Ta93  1  0.23114066  0.51640033  0.70189952  1
  Ta  Ta94  1  0.27491139  0.81605198  0.30021574  1
  Ta  Ta95  1  0.20382125  0.81252372  0.73715246  1
  Ta  Ta96  1  0.53098033  0.17883288  0.26412423  1
  Ta  Ta97  1  0.50088577  0.23520161  0.73605354  1
  Ta  Ta98  1  0.46930236  0.54310196  0.26096942  1
  Ta  Ta99  1  0.50592275  0.41732649  0.75753829  1
  Ta  Ta100  1  0.44303364  0.80336115  0.25274036  1
  Ta  Ta101  1  0.61837176  0.80601282  0.75451318  1
  Ta  Ta102  1  0.76555325  0.17062128  0.27494749  1
  Ta  Ta103  1  0.86847346  0.15204348  0.76217613  1
  Ta  Ta104  1  0.87672548  0.49885171  0.26143331  1
  Ta  Ta105  1  0.83089446  0.54953207  0.74423815  1
  Ta  Ta106  1  0.84653869  0.84663812  0.19307807  1
  Ta  Ta107  1  0.80331619  0.81885346  0.75808370  1
  Ta  Ta108  1  -0.04400198  -0.03023994  0.24486765  1
  Ta  Ta109  1  0.00503720  0.06113811  0.81867230  1
  Ta  Ta110  1  0.00328358  0.37985540  0.22056939  1
  Ta  Ta111  1  -0.00046470  0.24739205  0.78939984  1
  Ta  Ta112  1  -0.03229696  0.70407063  0.24705449  1
  Ta  Ta113  1  -0.08140103  0.69082671  0.71407336  1
  Ta  Ta114  1  0.32753496  -0.03731597  0.25764323  1
  Ta  Ta115  1  0.30007611  -0.00416144  0.76023978  1
  Ta  Ta116  1  0.26953265  0.33914954  0.21723875  1
  Ta  Ta117  1  0.36155467  0.35515077  0.75082499  1
  Ta  Ta118  1  0.35080971  0.67309677  0.26607681  1
  Ta  Ta119  1  0.30258889  0.67281014  0.72153121  1
  Ta  Ta120  1  0.64747876  0.06065578  0.26230507  1
  Ta  Ta121  1  0.68772669  -0.06219568  0.69077463  1
  Ta  Ta122  1  0.65786263  0.30017508  0.28740018  1
  Ta  Ta123  1  0.63797602  0.32754897  0.75688870  1
  Ta  Ta124  1  0.57097225  0.66834578  0.28040863  1
  Ta  Ta125  1  0.73428757  0.68588080  0.70466315  1
  Ta  Ta126  1  -0.03265862  0.00139401  0.00175956  1
  Ta  Ta127  1  -0.01814810  -0.03688132  0.43428466  1
  Ta  Ta128  1  -0.04866971  0.30493371  -0.03554789  1
  Ta  Ta129  1  -0.06044547  0.29477886  0.55110465  1
  Ta  Ta130  1  -0.00628878  0.70514308  -0.01292716  1
  Ta  Ta131  1  -0.03140509  0.71203277  0.44960779  1
  Ta  Ta132  1  0.40359395  -0.00735572  -0.00569163  1
  Ta  Ta133  1  0.32354598  0.06061438  0.52017941  1
  Ta  Ta134  1  0.30906012  0.34367435  0.00807900  1
  Ta  Ta135  1  0.29834287  0.31264151  0.49980043  1
  Ta  Ta136  1  0.29740731  0.66159743  -0.01926017  1
  Ta  Ta137  1  0.29247030  0.62441850  0.53988218  1
  Ta  Ta138  1  0.59983448  0.00109121  0.03243716  1
  Ta  Ta139  1  0.64814290  -0.01505544  0.51512053  1
  Ta  Ta140  1  0.65325780  0.40079173  0.03230737  1
  Ta  Ta141  1  0.75169161  0.31015715  0.52649435  1
  Ta  Ta142  1  0.64941331  0.59858741  0.04827810  1
  Ta  Ta143  1  0.63360079  0.68421540  0.47621667  1
  N  N144  1  0.16099115  0.48007511  0.38570675  1
  N  N145  1  0.62622859  0.65197452  0.16350857  1
  N  N146  1  -0.00687070  0.69674659  0.12390987  1
  N  N147  1  0.04715723  -0.01374168  0.91667620  1
  N  N148  1  0.33899449  0.34703103  0.88443866  1
  N  N149  1  0.81674945  0.51049025  0.87723305  1
  N  N150  1  0.63937689  0.01804621  0.39505394  1
  N  N151  1  0.45325404  0.49268245  0.38125834  1
  N  N152  1  0.10915721  0.20217194  0.11911884  1
  N  N153  1  0.14980397  0.80908035  0.84839950  1
  N  N154  1  0.83631459  0.84003125  0.88824879  1
  N  N155  1  0.68531057  0.32076233  0.41072048  1
  N  N156  1  0.22283234  0.81768191  0.42216110  1
  N  N157  1  0.53306816  0.77826631  0.68059000  1
  N  N158  1  0.33882405  0.01084077  0.64376470  1
  N  N159  1  0.13853852  0.80917321  0.63136980  1
  N  N160  1  0.68834846  0.32260370  0.63927132  1
  N  N161  1  0.84191627  0.48502832  0.63972119  1
  N  N162  1  0.64543643  0.72142679  0.35726522  1
  N  N163  1  0.16075454  0.51436279  0.10793458  1
  N  N164  1  -0.00610234  0.28714771  0.67036337  1
  N  N165  1  -0.05272197  0.70387785  0.58209986  1
  N  N166  1  0.48236267  0.82446183  0.12670926  1
  N  N167  1  0.48357972  0.20503060  0.61308156  1
  N  N168  1  0.36065795  -0.01222509  0.87587532  1
  N  N169  1  0.47310128  0.18191892  0.37760975  1
  N  N170  1  0.64616126  -0.00246365  0.15418228  1
  N  N171  1  0.04345562  -0.00908551  0.32151160  1
  N  N172  1  0.14412438  0.48001254  0.63604587  1
  N  N173  1  0.65532916  0.34913643  0.14900729  1
  N  N174  1  0.78924019  0.83868354  0.30116831  1
  N  N175  1  0.86615644  0.47580124  0.38414535  1
  N  N176  1  0.16532982  0.15829433  0.64368814  1
  O  O177  1  0.50975946  0.18434396  0.12170744  1
  O  O178  1  0.83981985  0.13366699  0.63709067  1
  O  O179  1  0.21121891  0.27957515  0.97781603  1
  O  O180  1  0.80369355  0.18300977  0.15580157  1
  O  O181  1  0.14002102  0.15973237  0.30514615  1
  O  O182  1  0.66449100  0.67855097  0.95875958  1
  O  O183  1  0.35742957  -0.01670289  0.13057281  1
  O  O184  1  0.38144196  0.66292130  0.61453838  1
  O  O185  1  0.50018652  0.17283065  0.87524050  1
  O  O186  1  0.00158677  0.27319692  0.28308610  1
  O  O187  1  0.51191147  0.47513351  0.88196640  1
  O  O188  1  0.03797479  0.66563840  0.35271955  1
  O  O189  1  0.32392567  0.33477721  0.62907009  1
  O  O190  1  0.20241333  0.51738270  0.83483930  1
  O  O191  1  0.35509865  0.37158490  0.12589749  1
  O  O192  1  0.31807891  0.67090914  0.11518157  1
  O  O193  1  0.84416138  0.50291875  0.12441028  1
  O  O194  1  0.56107629  0.82808996  0.87341212  1
  O  O195  1  0.71410215  0.67343506  0.56633720  1
  O  O196  1  0.32288206  0.63476847  0.40503436  1
  O  O197  1  0.03080058  -0.01240775  0.54388583  1
  O  O198  1  0.75002600  -0.03607747  0.57144030  1
  O  O199  1  0.79301749  0.14809342  0.86458581  1
  O  O200  1  -0.05345744  0.35423198  0.84607121  1
  O  O201  1  0.47763031  0.50489500  0.13519135  1
  O  O202  1  0.84436903  0.15886088  0.37953820  1
  O  O203  1  0.47910435  0.85212922  0.51225690  1
  O  O204  1  0.32371429  0.66560874  0.84927234  1
  O  O205  1  -0.03142510  0.69469533  0.84175224  1
  O  O206  1  0.88410572  0.91303202  0.48355386  1
  O  O207  1  -0.03357273  0.33251026  0.09133679  1
  O  O208  1  0.64511142  0.34617382  0.90880331  1
  O  O209  1  0.17875874  0.82510699  0.04406948  1
  O  O210  1  0.54649372  0.49909767  0.54708095  1
  O  O211  1  0.29796186  0.32625130  0.36168546  1
  O  O212  1  -0.00894164  0.02574745  0.13385155  1
  O  O213  1  0.78842610  0.80880856  0.07922513  1
  O  O214  1  0.66856720  0.02643385  0.77172280  1
  O  O215  1  0.32584765  0.02163849  0.37637862  1
