# generated using pymatgen
data_Sr24Ta24N11O13
_symmetry_space_group_name_H-M   'P 1'
_cell_length_a   16.80209215
_cell_length_b   16.74924597
_cell_length_c   15.69772535
_cell_angle_alpha   89.49509309
_cell_angle_beta   89.51447561
_cell_angle_gamma   90.09128276
_symmetry_Int_Tables_number   1
_chemical_formula_structural   Sr24Ta24N11O13
_chemical_formula_sum   'Sr72 Ta72 N33 O39'
_cell_volume   4417.35485700
_cell_formula_units_Z   3
loop_
 _symmetry_equiv_pos_site_id
 _symmetry_equiv_pos_as_xyz
  1  'x, y, z'
loop_
 _atom_site_type_symbol
 _atom_site_label
 _atom_site_symmetry_multiplicity
 _atom_site_fract_x
 _atom_site_fract_y
 _atom_site_fract_z
 _atom_site_occupancy
  Sr  Sr0  1  0.00063990  0.17348366  0.16500963  1
  Sr  Sr1  1  0.03112760  0.16673389  0.62007810  1
  Sr  Sr2  1  0.00815449  0.49237736  0.07527951  1
  Sr  Sr3  1  -0.01328607  0.49913145  0.63582267  1
  Sr  Sr4  1  0.00025746  0.82317980  0.10978917  1
  Sr  Sr5  1  -0.00732508  0.83333723  0.61929783  1
  Sr  Sr6  1  0.34440656  0.17018142  0.10477646  1
  Sr  Sr7  1  0.34224815  0.14066738  0.67199688  1
  Sr  Sr8  1  0.31723901  0.50591274  0.16422387  1
  Sr  Sr9  1  0.34514798  0.48903328  0.61299012  1
  Sr  Sr10  1  0.32083822  0.82670583  0.13585572  1
  Sr  Sr11  1  0.34698382  0.84088298  0.57765506  1
  Sr  Sr12  1  0.70014911  0.16155490  0.08794954  1
  Sr  Sr13  1  0.68275617  0.18257000  0.62738619  1
  Sr  Sr14  1  0.66801361  0.48690857  0.13526447  1
  Sr  Sr15  1  0.66655288  0.53429574  0.57779369  1
  Sr  Sr16  1  0.67209433  0.83945556  0.12402587  1
  Sr  Sr17  1  0.65324498  0.82533430  0.66916665  1
  Sr  Sr18  1  0.14323666  0.02278769  0.14691179  1
  Sr  Sr19  1  0.16370823  -0.01863396  0.61261129  1
  Sr  Sr20  1  0.15837131  0.33417665  0.12274164  1
  Sr  Sr21  1  0.15828016  0.34735852  0.58080781  1
  Sr  Sr22  1  0.14787058  0.67680699  0.10690848  1
  Sr  Sr23  1  0.17960315  0.64280960  0.66729085  1
  Sr  Sr24  1  0.46977969  -0.00171544  0.14162865  1
  Sr  Sr25  1  0.50314174  -0.00764039  0.62335617  1
  Sr  Sr26  1  0.49130110  0.34431449  0.13867262  1
  Sr  Sr27  1  0.49983870  0.32249584  0.64166926  1
  Sr  Sr28  1  0.51842143  0.66823706  0.08372294  1
  Sr  Sr29  1  0.48649137  0.66443551  0.63184428  1
  Sr  Sr30  1  0.83111204  -0.00188131  0.12532594  1
  Sr  Sr31  1  0.80890470  0.00560937  0.59273353  1
  Sr  Sr32  1  0.82704296  0.34071829  0.11769005  1
  Sr  Sr33  1  0.84452737  0.31720663  0.67150287  1
  Sr  Sr34  1  0.81369580  0.66988914  0.17186189  1
  Sr  Sr35  1  0.84576726  0.65850538  0.61052396  1
  Sr  Sr36  1  0.02526073  0.17656622  0.37445302  1
  Sr  Sr37  1  0.00477961  0.16619210  0.84330248  1
  Sr  Sr38  1  -0.00069709  0.49642858  0.40923556  1
  Sr  Sr39  1  -0.00124267  0.49990636  0.86625632  1
  Sr  Sr40  1  -0.00371670  0.81477826  0.39329963  1
  Sr  Sr41  1  -0.00044186  0.84209594  0.87690094  1
  Sr  Sr42  1  0.36939801  0.15831887  0.33389014  1
  Sr  Sr43  1  0.33201124  0.17826249  0.88601657  1
  Sr  Sr44  1  0.33852618  0.48946112  0.38025988  1
  Sr  Sr45  1  0.34497712  0.52464010  0.82553490  1
  Sr  Sr46  1  0.33531541  0.83412586  0.36779822  1
  Sr  Sr47  1  0.33478507  0.82237089  0.92610170  1
  Sr  Sr48  1  0.66769438  0.15527704  0.42023839  1
  Sr  Sr49  1  0.69442695  0.18239227  0.86769585  1
  Sr  Sr50  1  0.67680691  0.49699043  0.35689572  1
  Sr  Sr51  1  0.64792199  0.50120685  0.91972128  1
  Sr  Sr52  1  0.67675837  0.84236048  0.33147231  1
  Sr  Sr53  1  0.66299516  0.83668568  0.87697630  1
  Sr  Sr54  1  0.15481001  0.00728421  0.39487373  1
  Sr  Sr55  1  0.15357746  0.01878977  0.83053838  1
  Sr  Sr56  1  0.15959056  0.34334083  0.37352526  1
  Sr  Sr57  1  0.16198091  0.33222840  0.91310414  1
  Sr  Sr58  1  0.18916916  0.67094903  0.32093364  1
  Sr  Sr59  1  0.16341079  0.66865325  0.88637159  1
  Sr  Sr60  1  0.49705691  -0.01191394  0.36790341  1
  Sr  Sr61  1  0.47432941  0.00463903  0.87028798  1
  Sr  Sr62  1  0.50596331  0.32845850  0.35901106  1
  Sr  Sr63  1  0.48762235  0.33408652  0.86482046  1
  Sr  Sr64  1  0.49410743  0.64777386  0.42159189  1
  Sr  Sr65  1  0.50163877  0.67267053  0.87107080  1
  Sr  Sr66  1  0.82372603  0.00296278  0.37414991  1
  Sr  Sr67  1  0.81874355  -0.00936863  0.91890114  1
  Sr  Sr68  1  0.82741939  0.32970940  0.35226424  1
  Sr  Sr69  1  0.82815576  0.35371066  0.88950789  1
  Sr  Sr70  1  0.83141941  0.65744606  0.38633385  1
  Sr  Sr71  1  0.83099137  0.68860336  0.82656279  1
  Ta  Ta72  1  0.14921256  0.14730967  -0.00580660  1
  Ta  Ta73  1  0.23080701  0.17195538  0.49663361  1
  Ta  Ta74  1  0.20805427  0.50441777  -0.00638819  1
  Ta  Ta75  1  0.17403270  0.54693904  0.49443579  1
  Ta  Ta76  1  0.15865432  0.88644651  0.00247069  1
  Ta  Ta77  1  0.16954757  0.77714888  0.49985355  1
  Ta  Ta78  1  0.53073744  0.16345837  0.00432013  1
  Ta  Ta79  1  0.47209183  0.16447160  0.49850901  1
  Ta  Ta80  1  0.46033194  0.49565437  -0.00087361  1
  Ta  Ta81  1  0.51239550  0.46036313  0.49766299  1
  Ta  Ta82  1  0.51280550  0.85836647  0.00151317  1
  Ta  Ta83  1  0.53587361  0.82829360  0.49687381  1
  Ta  Ta84  1  0.88301926  0.16555320  0.00241479  1
  Ta  Ta85  1  0.86274578  0.17796092  0.50123420  1
  Ta  Ta86  1  0.82630048  0.54500901  0.00307726  1
  Ta  Ta87  1  0.82648165  0.45041546  0.50953120  1
  Ta  Ta88  1  0.82938044  0.79824197  -0.00303823  1
  Ta  Ta89  1  0.79731695  0.83350179  0.49952389  1
  Ta  Ta90  1  0.20225637  0.17833203  0.25465866  1
  Ta  Ta91  1  0.17646643  0.22139555  0.74913758  1
  Ta  Ta92  1  0.12170831  0.50065979  0.23840653  1
  Ta  Ta93  1  0.17023199  0.45686124  0.75331103  1
  Ta  Ta94  1  0.14780652  0.86234570  0.24995189  1
  Ta  Ta95  1  0.18845884  0.82829595  0.75234920  1
  Ta  Ta96  1  0.55194676  0.16091133  0.25063781  1
  Ta  Ta97  1  0.53508548  0.15002027  0.74933628  1
  Ta  Ta98  1  0.50095482  0.53241651  0.24797861  1
  Ta  Ta99  1  0.54136856  0.50222180  0.74752636  1
  Ta  Ta100  1  0.50209264  0.79072377  0.25732078  1
  Ta  Ta101  1  0.46226395  0.83700380  0.75142158  1
  Ta  Ta102  1  0.80487888  0.16294086  0.24812140  1
  Ta  Ta103  1  0.83711369  0.10724158  0.75168537  1
  Ta  Ta104  1  0.88097235  0.49882502  0.24232015  1
  Ta  Ta105  1  0.78216300  0.50433096  0.74789736  1
  Ta  Ta106  1  0.86416041  0.84513917  0.25556769  1
  Ta  Ta107  1  0.83152362  0.88487521  0.75247452  1
  Ta  Ta108  1  -0.01067592  -0.03119493  0.25258147  1
  Ta  Ta109  1  -0.04122268  -0.00222280  0.74958665  1
  Ta  Ta110  1  -0.00269294  0.37005622  0.24295915  1
  Ta  Ta111  1  0.03769889  0.33599411  0.75249924  1
  Ta  Ta112  1  -0.00481779  0.63137347  0.24400168  1
  Ta  Ta113  1  0.01230605  0.67809899  0.74868289  1
  Ta  Ta114  1  0.29369952  -0.00006434  0.24689815  1
  Ta  Ta115  1  0.32184945  -0.06712346  0.75292709  1
  Ta  Ta116  1  0.31586277  0.32063849  0.24835700  1
  Ta  Ta117  1  0.29320355  0.33798121  0.74933061  1
  Ta  Ta118  1  0.38995026  0.66469414  0.25168160  1
  Ta  Ta119  1  0.32919237  0.72808154  0.75611352  1
  Ta  Ta120  1  0.66622944  0.03658129  0.25163800  1
  Ta  Ta121  1  0.67639739  0.01372999  0.75660411  1
  Ta  Ta122  1  0.66712698  0.28582821  0.24727771  1
  Ta  Ta123  1  0.66286665  0.37807280  0.75304821  1
  Ta  Ta124  1  0.62153668  0.66730179  0.25948511  1
  Ta  Ta125  1  0.66277745  0.62705316  0.75061390  1
  Ta  Ta126  1  0.01406722  0.02365660  -0.00505903  1
  Ta  Ta127  1  -0.02171829  0.01550013  0.50202795  1
  Ta  Ta128  1  -0.00899073  0.29562590  -0.00241271  1
  Ta  Ta129  1  -0.03967150  0.32373053  0.50708729  1
  Ta  Ta130  1  -0.05804364  0.66761309  0.00163533  1
  Ta  Ta131  1  0.04805853  0.65965642  0.50310169  1
  Ta  Ta132  1  0.28149909  0.00174248  -0.00050900  1
  Ta  Ta133  1  0.33703680  0.03921103  0.49860979  1
  Ta  Ta134  1  0.33154135  0.38769527  -0.00385687  1
  Ta  Ta135  1  0.35031818  0.29811976  0.50202712  1
  Ta  Ta136  1  0.33562353  0.63025807  -0.00148434  1
  Ta  Ta137  1  0.29880833  0.66350472  0.49386330  1
  Ta  Ta138  1  0.62487064  0.00475458  0.00135099  1
  Ta  Ta139  1  0.65681113  -0.05351613  0.49443357  1
  Ta  Ta140  1  0.63509584  0.31935887  0.00241420  1
  Ta  Ta141  1  0.67479943  0.34841431  0.49808960  1
  Ta  Ta142  1  0.71423258  0.67275864  0.00101361  1
  Ta  Ta143  1  0.66676558  0.72067304  0.49392398  1
  N  N144  1  0.33932206  0.66227097  0.37416926  1
  N  N145  1  0.00066272  0.33202499  0.62346240  1
  N  N146  1  0.66108081  0.34397267  0.87834934  1
  N  N147  1  0.83626738  0.50476630  0.12518859  1
  N  N148  1  0.17175113  0.50154159  0.86933327  1
  N  N149  1  0.31371884  0.00382465  0.12492319  1
  N  N150  1  0.00384341  0.66063255  0.62830737  1
  N  N151  1  0.84886743  0.16308814  0.13122433  1
  N  N152  1  -0.01310618  0.66286351  0.12348509  1
  N  N153  1  -0.00486516  0.00111205  0.87561171  1
  N  N154  1  0.50173518  0.49141810  0.37378770  1
  N  N155  1  0.49353282  0.82775585  0.37803561  1
  N  N156  1  0.66403736  -0.00297271  0.37162897  1
  N  N157  1  0.66482129  0.32867751  0.12772802  1
  N  N158  1  0.51616004  0.16030194  0.38267189  1
  N  N159  1  0.50001016  0.83490891  0.88188014  1
  N  N160  1  0.18343527  0.17357172  0.37822358  1
  N  N161  1  -0.00152000  0.33482323  0.87353295  1
  N  N162  1  0.66129674  0.00217774  0.87959457  1
  N  N163  1  0.66914609  0.32403085  0.37784054  1
  N  N164  1  0.16089864  0.50589105  0.12131918  1
  N  N165  1  -0.00092461  0.33149047  0.12529764  1
  N  N166  1  0.49650836  0.50313022  0.12070929  1
  N  N167  1  0.83539007  0.82991554  0.37587595  1
  N  N168  1  0.49906938  0.82937064  0.63069205  1
  N  N169  1  0.66400809  0.67160200  0.37753218  1
  N  N170  1  0.49823767  0.50286028  0.86637640  1
  N  N171  1  0.33288666  0.67459745  0.87552964  1
  N  N172  1  0.82777811  0.83977195  0.87448108  1
  N  N173  1  0.82648104  0.49691693  0.62356674  1
  N  N174  1  0.17129880  0.17550000  0.87485052  1
  N  N175  1  0.50286490  0.49705010  0.61752022  1
  N  N176  1  0.15522683  0.84515199  0.12745876  1
  O  O177  1  0.00629973  0.00338496  0.62388514  1
  O  O178  1  0.83090416  0.83113653  0.13080640  1
  O  O179  1  0.34185433  0.31892419  0.37116542  1
  O  O180  1  0.66087651  0.33090321  0.63441045  1
  O  O181  1  0.52427552  0.16324560  0.87248253  1
  O  O182  1  0.67630138  0.66582282  0.87409046  1
  O  O183  1  0.66783794  0.67619630  0.12528498  1
  O  O184  1  0.35711081  0.66178824  0.12199005  1
  O  O185  1  0.18887192  0.18555583  0.62114834  1
  O  O186  1  0.17290480  0.82091629  0.62191265  1
  O  O187  1  0.32770427  0.00250939  0.37676991  1
  O  O188  1  0.66569657  0.67662424  0.62885091  1
  O  O189  1  0.83952815  0.15963095  0.62760446  1
  O  O190  1  0.32938960  0.68904491  0.63092571  1
  O  O191  1  0.15719250  0.51259061  0.37049234  1
  O  O192  1  0.50168182  0.15923758  0.12686296  1
  O  O193  1  0.32216044  -0.01126668  0.62084324  1
  O  O194  1  0.84581018  0.14204111  0.87919799  1
  O  O195  1  0.84424286  0.17232079  0.37458071  1
  O  O196  1  -0.01238539  0.00201881  0.37884684  1
  O  O197  1  0.00197938  0.33891208  0.38130970  1
  O  O198  1  0.84588104  0.48650131  0.38278287  1
  O  O199  1  0.34080484  0.32483235  0.62588863  1
  O  O200  1  0.52051632  0.15792209  0.62252353  1
  O  O201  1  0.51059547  0.82847422  0.12725232  1
  O  O202  1  0.17567168  0.49818811  0.61704646  1
  O  O203  1  -0.01792158  0.66933313  0.87403067  1
  O  O204  1  0.81915296  0.50897161  0.87266646  1
  O  O205  1  0.32914122  0.33841767  0.87678974  1
  O  O206  1  0.67382433  -0.00137679  0.12124761  1
  O  O207  1  0.82584299  0.85078943  0.62780319  1
  O  O208  1  0.65943954  -0.02029695  0.62148210  1
  O  O209  1  0.16104084  0.84626184  0.87909078  1
  O  O210  1  0.18102489  0.17628290  0.11786514  1
  O  O211  1  0.00673299  0.65462229  0.38005635  1
  O  O212  1  0.31498454  -0.01968827  0.87305414  1
  O  O213  1  0.15931932  0.81974735  0.37577597  1
  O  O214  1  0.32252490  0.34523089  0.12277624  1
  O  O215  1  -0.01197758  -0.00878413  0.12565872  1
