# generated using pymatgen
data_Sr24Ta24N11O13
_symmetry_space_group_name_H-M   'P 1'
_cell_length_a   16.78233147
_cell_length_b   16.80158772
_cell_length_c   15.78882430
_cell_angle_alpha   89.90540927
_cell_angle_beta   90.02640374
_cell_angle_gamma   90.10477442
_symmetry_Int_Tables_number   1
_chemical_formula_structural   Sr24Ta24N11O13
_chemical_formula_sum   'Sr72 Ta72 N33 O39'
_cell_volume   4451.95788135
_cell_formula_units_Z   3
loop_
 _symmetry_equiv_pos_site_id
 _symmetry_equiv_pos_as_xyz
  1  'x, y, z'
loop_
 _atom_site_type_symbol
 _atom_site_label
 _atom_site_symmetry_multiplicity
 _atom_site_fract_x
 _atom_site_fract_y
 _atom_site_fract_z
 _atom_site_occupancy
  Sr  Sr0  1  0.00824985  0.17241774  0.11111162  1
  Sr  Sr1  1  0.00310418  0.16899568  0.66331227  1
  Sr  Sr2  1  0.01713043  0.50267267  0.16882894  1
  Sr  Sr3  1  -0.01328479  0.48554396  0.60782360  1
  Sr  Sr4  1  -0.00692545  0.82571476  0.13267241  1
  Sr  Sr5  1  -0.00575437  0.84963919  0.61131014  1
  Sr  Sr6  1  0.34842122  0.18008362  0.16614092  1
  Sr  Sr7  1  0.33065346  0.16466009  0.61445959  1
  Sr  Sr8  1  0.32446009  0.49449633  0.09659651  1
  Sr  Sr9  1  0.33398730  0.50333754  0.59160817  1
  Sr  Sr10  1  0.33835734  0.83901539  0.12284702  1
  Sr  Sr11  1  0.32948566  0.82077155  0.63807622  1
  Sr  Sr12  1  0.67561390  0.13732027  0.12308591  1
  Sr  Sr13  1  0.68621397  0.16305852  0.60346028  1
  Sr  Sr14  1  0.66898348  0.49492627  0.11926656  1
  Sr  Sr15  1  0.64327644  0.48903624  0.67137106  1
  Sr  Sr16  1  0.66885123  0.82202335  0.10852166  1
  Sr  Sr17  1  0.65729515  0.81727012  0.63103467  1
  Sr  Sr18  1  0.16461874  0.00289763  0.09381873  1
  Sr  Sr19  1  0.17372963  -0.01134567  0.59924405  1
  Sr  Sr20  1  0.16183303  0.32903799  0.13147397  1
  Sr  Sr21  1  0.16698645  0.34050504  0.61443951  1
  Sr  Sr22  1  0.18131792  0.66693722  0.11356546  1
  Sr  Sr23  1  0.15559927  0.67602690  0.66558023  1
  Sr  Sr24  1  0.50317623  0.00083034  0.11323887  1
  Sr  Sr25  1  0.48916317  0.02624568  0.62918894  1
  Sr  Sr26  1  0.49520505  0.35469129  0.12006153  1
  Sr  Sr27  1  0.50606531  0.33709476  0.65962652  1
  Sr  Sr28  1  0.51223493  0.67478249  0.16851940  1
  Sr  Sr29  1  0.48754713  0.66900276  0.61296011  1
  Sr  Sr30  1  0.84938735  -0.00003221  0.16963677  1
  Sr  Sr31  1  0.83701766  0.00770593  0.62735129  1
  Sr  Sr32  1  0.82545596  0.34973884  0.11690519  1
  Sr  Sr33  1  0.82075825  0.32880187  0.59804495  1
  Sr  Sr34  1  0.82391305  0.67625152  0.08762164  1
  Sr  Sr35  1  0.83767118  0.64423038  0.61978484  1
  Sr  Sr36  1  0.00049388  0.15866486  0.33326224  1
  Sr  Sr37  1  0.00611997  0.17351445  0.88597265  1
  Sr  Sr38  1  -0.00296132  0.49627203  0.38477484  1
  Sr  Sr39  1  0.02063626  0.50966992  0.82856598  1
  Sr  Sr40  1  -0.01384516  0.83927677  0.37842457  1
  Sr  Sr41  1  -0.00384948  0.83292834  0.87803199  1
  Sr  Sr42  1  0.32209253  0.16826103  0.38638486  1
  Sr  Sr43  1  0.35325761  0.18125801  0.83050352  1
  Sr  Sr44  1  0.33098985  0.49857221  0.39827186  1
  Sr  Sr45  1  0.32118410  0.49742167  0.90366566  1
  Sr  Sr46  1  0.33496458  0.81979098  0.35736688  1
  Sr  Sr47  1  0.33003546  0.84144807  0.88394252  1
  Sr  Sr48  1  0.68466727  0.15092315  0.38735560  1
  Sr  Sr49  1  0.67759928  0.15169753  0.89278408  1
  Sr  Sr50  1  0.65013657  0.48795206  0.33586702  1
  Sr  Sr51  1  0.67688578  0.48853892  0.89050528  1
  Sr  Sr52  1  0.65631786  0.79869368  0.38977009  1
  Sr  Sr53  1  0.66707937  0.83000694  0.87739021  1
  Sr  Sr54  1  0.17330904  -0.00806668  0.40251734  1
  Sr  Sr55  1  0.16950753  -0.00127517  0.89709607  1
  Sr  Sr56  1  0.16325188  0.32628483  0.37232673  1
  Sr  Sr57  1  0.16044521  0.32745352  0.86130790  1
  Sr  Sr58  1  0.14730143  0.68198562  0.32540620  1
  Sr  Sr59  1  0.17787323  0.66867602  0.88076899  1
  Sr  Sr60  1  0.49233929  0.02634879  0.36190231  1
  Sr  Sr61  1  0.49642289  -0.00024085  0.89123160  1
  Sr  Sr62  1  0.50565146  0.34416383  0.35065250  1
  Sr  Sr63  1  0.50090209  0.35473014  0.87721309  1
  Sr  Sr64  1  0.48452371  0.66406457  0.38989811  1
  Sr  Sr65  1  0.50715524  0.67457936  0.83620461  1
  Sr  Sr66  1  0.83543462  0.00056611  0.37554532  1
  Sr  Sr67  1  0.84633658  -0.00012645  0.83524723  1
  Sr  Sr68  1  0.81961830  0.34724835  0.37967000  1
  Sr  Sr69  1  0.82659055  0.32211036  0.91270057  1
  Sr  Sr70  1  0.83648733  0.66930363  0.41239538  1
  Sr  Sr71  1  0.82802057  0.64975956  0.88440966  1
  Ta  Ta72  1  0.21507637  0.17421902  -0.00078073  1
  Ta  Ta73  1  0.12173842  0.16666125  0.49584138  1
  Ta  Ta74  1  0.12531220  0.49963444  0.00315502  1
  Ta  Ta75  1  0.15826276  0.55989463  0.49705124  1
  Ta  Ta76  1  0.14930573  0.82561972  -0.00364172  1
  Ta  Ta77  1  0.16627046  0.79647989  0.50151863  1
  Ta  Ta78  1  0.48506020  0.18600740  -0.00228979  1
  Ta  Ta79  1  0.50870050  0.20809950  0.50542331  1
  Ta  Ta80  1  0.50108178  0.54332236  0.00552450  1
  Ta  Ta81  1  0.52114387  0.48483646  0.50136962  1
  Ta  Ta82  1  0.49979390  0.79649547  0.00138154  1
  Ta  Ta83  1  0.49385752  0.86954062  0.49979622  1
  Ta  Ta84  1  0.84130052  0.12377843  0.00265720  1
  Ta  Ta85  1  0.88262751  0.16464548  0.49543556  1
  Ta  Ta86  1  0.89609590  0.50414061  0.00399826  1
  Ta  Ta87  1  0.76910485  0.49616842  0.50534870  1
  Ta  Ta88  1  0.83810155  0.87093214  0.00609411  1
  Ta  Ta89  1  0.80881292  0.85022388  0.49986186  1
  Ta  Ta90  1  0.17259026  0.12671356  0.25142235  1
  Ta  Ta91  1  0.17428401  0.12930444  0.74722368  1
  Ta  Ta92  1  0.20105379  0.49919113  0.24934660  1
  Ta  Ta93  1  0.21297238  0.49776142  0.74252242  1
  Ta  Ta94  1  0.16677696  0.87516575  0.24731478  1
  Ta  Ta95  1  0.15869316  0.86230405  0.74836131  1
  Ta  Ta96  1  0.53363544  0.18562039  0.24830791  1
  Ta  Ta97  1  0.54985944  0.16470227  0.74999644  1
  Ta  Ta98  1  0.45912567  0.50629074  0.24968086  1
  Ta  Ta99  1  0.44758931  0.50620053  0.74737542  1
  Ta  Ta100  1  0.51982044  0.85498916  0.24653825  1
  Ta  Ta101  1  0.50192311  0.86250587  0.75611923  1
  Ta  Ta102  1  0.83027500  0.19752291  0.24129060  1
  Ta  Ta103  1  0.82950088  0.19529533  0.75839080  1
  Ta  Ta104  1  0.83423746  0.53086342  0.24608384  1
  Ta  Ta105  1  0.83216069  0.46719880  0.74982884  1
  Ta  Ta106  1  0.81477037  0.80721024  0.25154573  1
  Ta  Ta107  1  0.83250977  0.80195416  0.75201387  1
  Ta  Ta108  1  0.04476057  -0.00709649  0.24694876  1
  Ta  Ta109  1  0.04002456  -0.00033820  0.74842504  1
  Ta  Ta110  1  -0.02768108  0.32758853  0.24527556  1
  Ta  Ta111  1  -0.04671048  0.33471131  0.75231773  1
  Ta  Ta112  1  -0.05342486  0.66633259  0.25493648  1
  Ta  Ta113  1  -0.02440413  0.68954549  0.74826700  1
  Ta  Ta114  1  0.30400392  -0.00073223  0.24197726  1
  Ta  Ta115  1  0.30921495  -0.00320149  0.75207930  1
  Ta  Ta116  1  0.33013276  0.36821860  0.24667865  1
  Ta  Ta117  1  0.32665383  0.37338810  0.74831740  1
  Ta  Ta118  1  0.33061861  0.63215463  0.24810148  1
  Ta  Ta119  1  0.32989889  0.63478698  0.74532431  1
  Ta  Ta120  1  0.66075230  -0.03797669  0.24768378  1
  Ta  Ta121  1  0.64812906  0.00261889  0.75282726  1
  Ta  Ta122  1  0.67015993  0.29670700  0.24058913  1
  Ta  Ta123  1  0.68845069  0.30728706  0.75825161  1
  Ta  Ta124  1  0.70545441  0.66214365  0.24579553  1
  Ta  Ta125  1  0.69036619  0.66781244  0.75428438  1
  Ta  Ta126  1  -0.02829752  -0.00676197  0.00508849  1
  Ta  Ta127  1  -0.00291510  0.03971554  0.50303046  1
  Ta  Ta128  1  0.00469565  0.37492599  0.00177717  1
  Ta  Ta129  1  -0.00416092  0.28687932  0.49722065  1
  Ta  Ta130  1  0.00697139  0.63973489  0.00332285  1
  Ta  Ta131  1  0.03313545  0.67281537  0.49531593  1
  Ta  Ta132  1  0.33950815  0.05593859  -0.00184005  1
  Ta  Ta133  1  0.35257524  -0.02604382  0.50183497  1
  Ta  Ta134  1  0.33322594  0.29561639  0.00121081  1
  Ta  Ta135  1  0.38038045  0.32740768  0.49985548  1
  Ta  Ta136  1  0.37745020  0.67197678  0.00524888  1
  Ta  Ta137  1  0.28448442  0.67393252  0.49506842  1
  Ta  Ta138  1  0.72109717  -0.01295449  0.00381111  1
  Ta  Ta139  1  0.65334096  -0.02936048  0.49949574  1
  Ta  Ta140  1  0.64537384  0.30300988  0.00592339  1
  Ta  Ta141  1  0.64236013  0.35081163  0.50822986  1
  Ta  Ta142  1  0.62725793  0.65968483  0.00030943  1
  Ta  Ta143  1  0.65963928  0.61766943  0.50239287  1
  N  N144  1  0.66971124  0.65920615  0.12807217  1
  N  N145  1  0.82425767  0.83687288  0.38031097  1
  N  N146  1  -0.00273574  0.33784409  0.12563126  1
  N  N147  1  0.48824477  0.50455764  0.62702260  1
  N  N148  1  0.32325727  0.66308816  0.62512370  1
  N  N149  1  0.16031988  0.15732893  0.37449424  1
  N  N150  1  0.50146084  0.83513306  0.12490391  1
  N  N151  1  0.50142215  0.83737093  0.87551658  1
  N  N152  1  0.81390377  0.48534014  0.62947083  1
  N  N153  1  0.66297906  0.33237766  0.62822877  1
  N  N154  1  0.00378599  -0.00048872  0.12406264  1
  N  N155  1  0.84278235  0.16633533  0.12227043  1
  N  N156  1  0.33309244  0.33578562  0.12521109  1
  N  N157  1  0.00441078  0.00949581  0.62581084  1
  N  N158  1  0.68092824  -0.01593155  0.12887990  1
  N  N159  1  0.66561859  0.32837321  0.88215630  1
  N  N160  1  0.49686134  0.50995496  0.12512485  1
  N  N161  1  0.16116575  0.82748713  0.87572058  1
  N  N162  1  0.66699143  0.34025701  0.12348226  1
  N  N163  1  0.51943031  0.17835558  0.62699142  1
  N  N164  1  0.84293275  0.16005403  0.87540006  1
  N  N165  1  0.84824511  0.50957320  0.12440038  1
  N  N166  1  0.33361182  0.01354203  0.12354741  1
  N  N167  1  0.32194195  0.66439335  0.37455986  1
  N  N168  1  0.33274904  -0.00155242  0.62195451  1
  N  N169  1  0.16166740  0.82881123  0.62346832  1
  N  N170  1  0.33811498  0.66709682  0.12324177  1
  N  N171  1  0.16761382  0.50115993  0.12254561  1
  N  N172  1  0.83643808  0.83767266  0.12822406  1
  N  N173  1  0.49247273  0.50339912  0.37679937  1
  N  N174  1  -0.00795425  0.66898688  0.37096274  1
  N  N175  1  0.33719299  0.01640774  0.87610307  1
  N  N176  1  0.66673429  0.65877094  0.87342750  1
  O  O177  1  0.50145838  0.17763609  0.12854972  1
  O  O178  1  0.80865058  0.50067389  0.38177507  1
  O  O179  1  0.00021182  -0.00036418  0.87111337  1
  O  O180  1  0.68083459  -0.00462677  0.87314413  1
  O  O181  1  0.84649573  0.16449037  0.63031420  1
  O  O182  1  0.47856227  0.50933378  0.87377946  1
  O  O183  1  0.52925657  0.17795382  0.37680141  1
  O  O184  1  0.19164672  0.16319323  0.86760159  1
  O  O185  1  -0.01509954  0.33659028  0.87598775  1
  O  O186  1  0.16773491  0.83614153  0.36983543  1
  O  O187  1  0.32706899  0.33932876  0.88026886  1
  O  O188  1  0.16361940  0.15030132  0.62091308  1
  O  O189  1  0.82132890  0.82453238  0.62973945  1
  O  O190  1  0.15906072  0.52374545  0.36899618  1
  O  O191  1  -0.00708692  0.66465701  0.87090574  1
  O  O192  1  0.33292757  -0.00351317  0.37600281  1
  O  O193  1  0.65810502  -0.00804777  0.37733185  1
  O  O194  1  0.49387585  0.84644041  0.37333901  1
  O  O195  1  0.17438316  0.51492288  0.61933353  1
  O  O196  1  -0.00564099  0.68461591  0.62367151  1
  O  O197  1  0.66629827  0.64228385  0.37498990  1
  O  O198  1  -0.00619628  0.66102641  0.13002015  1
  O  O199  1  0.66298488  0.33513262  0.36600214  1
  O  O200  1  -0.02165173  0.32196273  0.62726760  1
  O  O201  1  0.50460811  0.17709211  0.86845727  1
  O  O202  1  0.19095805  0.16676263  0.12678504  1
  O  O203  1  0.16745209  0.49803521  0.87609743  1
  O  O204  1  0.33472983  0.65613813  0.88335057  1
  O  O205  1  0.00199889  0.31509415  0.37020141  1
  O  O206  1  0.16499975  0.83848652  0.12643918  1
  O  O207  1  0.65828345  0.64500837  0.62972146  1
  O  O208  1  0.00918716  0.00264243  0.37226446  1
  O  O209  1  0.34972507  0.33569219  0.37619968  1
  O  O210  1  0.85166997  0.49573933  0.88295213  1
  O  O211  1  0.65380735  -0.00797667  0.62227960  1
  O  O212  1  0.50102604  0.84878153  0.62292108  1
  O  O213  1  0.84266146  0.16361737  0.36749278  1
  O  O214  1  0.34581130  0.34350998  0.61943453  1
  O  O215  1  0.83588117  0.82862195  0.87619133  1
