# generated using pymatgen
data_Sr24Ta24N11O13
_symmetry_space_group_name_H-M   'P 1'
_cell_length_a   16.81915225
_cell_length_b   16.73028358
_cell_length_c   15.75557296
_cell_angle_alpha   89.67303449
_cell_angle_beta   90.12272978
_cell_angle_gamma   89.91564899
_symmetry_Int_Tables_number   1
_chemical_formula_structural   Sr24Ta24N11O13
_chemical_formula_sum   'Sr72 Ta72 N33 O39'
_cell_volume   4433.36061915
_cell_formula_units_Z   3
loop_
 _symmetry_equiv_pos_site_id
 _symmetry_equiv_pos_as_xyz
  1  'x, y, z'
loop_
 _atom_site_type_symbol
 _atom_site_label
 _atom_site_symmetry_multiplicity
 _atom_site_fract_x
 _atom_site_fract_y
 _atom_site_fract_z
 _atom_site_occupancy
  Sr  Sr0  1  -0.01884914  0.16604863  0.10630937  1
  Sr  Sr1  1  -0.00360430  0.17155437  0.63254842  1
  Sr  Sr2  1  -0.00589427  0.49147686  0.13667812  1
  Sr  Sr3  1  -0.01063933  0.51511684  0.58851336  1
  Sr  Sr4  1  -0.00806669  0.84911179  0.12741096  1
  Sr  Sr5  1  -0.00011906  0.82481530  0.66546618  1
  Sr  Sr6  1  0.30774080  0.16054781  0.13359177  1
  Sr  Sr7  1  0.33400146  0.16541941  0.62824683  1
  Sr  Sr8  1  0.33238816  0.50397739  0.15889439  1
  Sr  Sr9  1  0.32787887  0.50124771  0.60998527  1
  Sr  Sr10  1  0.32536041  0.82471286  0.08470446  1
  Sr  Sr11  1  0.31434221  0.83020694  0.61908195  1
  Sr  Sr12  1  0.66362266  0.15773818  0.13034962  1
  Sr  Sr13  1  0.64712902  0.16484516  0.59297957  1
  Sr  Sr14  1  0.64616745  0.50258068  0.10469111  1
  Sr  Sr15  1  0.66631296  0.48364727  0.66000059  1
  Sr  Sr16  1  0.64142352  0.83053688  0.17940422  1
  Sr  Sr17  1  0.69319519  0.84603379  0.61535454  1
  Sr  Sr18  1  0.16838115  -0.00729001  0.13986848  1
  Sr  Sr19  1  0.18525449  0.00975046  0.57898952  1
  Sr  Sr20  1  0.16173731  0.33295680  0.11524614  1
  Sr  Sr21  1  0.17761258  0.32005430  0.66877072  1
  Sr  Sr22  1  0.18683389  0.66664745  0.10340163  1
  Sr  Sr23  1  0.17294806  0.66728581  0.63283728  1
  Sr  Sr24  1  0.51189020  0.00111273  0.13131460  1
  Sr  Sr25  1  0.49475656  0.00116323  0.65568838  1
  Sr  Sr26  1  0.50880753  0.32640640  0.08010862  1
  Sr  Sr27  1  0.50838731  0.34534831  0.61718109  1
  Sr  Sr28  1  0.49920736  0.65983712  0.12560493  1
  Sr  Sr29  1  0.54219025  0.68165071  0.63577714  1
  Sr  Sr30  1  0.83559922  0.01790705  0.08761336  1
  Sr  Sr31  1  0.84801937  0.00102202  0.63942542  1
  Sr  Sr32  1  0.81864426  0.32836835  0.16648804  1
  Sr  Sr33  1  0.85211462  0.34371161  0.62397597  1
  Sr  Sr34  1  0.85837262  0.68709944  0.13495820  1
  Sr  Sr35  1  0.84387269  0.66475227  0.59497767  1
  Sr  Sr36  1  -0.01280313  0.15444281  0.41041937  1
  Sr  Sr37  1  -0.01937101  0.17672295  0.85836590  1
  Sr  Sr38  1  -0.00384520  0.50054547  0.37160474  1
  Sr  Sr39  1  0.00579536  0.50961675  0.91551053  1
  Sr  Sr40  1  0.00914795  0.83966795  0.33367888  1
  Sr  Sr41  1  -0.01715293  0.83935570  0.87546309  1
  Sr  Sr42  1  0.31831224  0.15397888  0.36072953  1
  Sr  Sr43  1  0.32252177  0.18180379  0.87337392  1
  Sr  Sr44  1  0.34154185  0.50181506  0.37881462  1
  Sr  Sr45  1  0.30278955  0.50143971  0.82512163  1
  Sr  Sr46  1  0.30859237  0.82972300  0.40970060  1
  Sr  Sr47  1  0.32216479  0.82368025  0.87731979  1
  Sr  Sr48  1  0.65976442  0.16601667  0.36667739  1
  Sr  Sr49  1  0.65165880  0.14935713  0.91613062  1
  Sr  Sr50  1  0.65142613  0.48761272  0.35784865  1
  Sr  Sr51  1  0.66456752  0.49558502  0.87565464  1
  Sr  Sr52  1  0.68908072  0.82537229  0.39374375  1
  Sr  Sr53  1  0.66084493  0.84765103  0.82890801  1
  Sr  Sr54  1  0.16025960  0.00063905  0.36655925  1
  Sr  Sr55  1  0.19559740  -0.00199883  0.90969613  1
  Sr  Sr56  1  0.17780136  0.33851398  0.33677510  1
  Sr  Sr57  1  0.15589370  0.33110766  0.88357645  1
  Sr  Sr58  1  0.19135699  0.65163160  0.41315171  1
  Sr  Sr59  1  0.16770176  0.67740276  0.85685440  1
  Sr  Sr60  1  0.50880264  0.01162813  0.33087233  1
  Sr  Sr61  1  0.50481534  -0.00132606  0.86720699  1
  Sr  Sr62  1  0.49077189  0.32506121  0.41891237  1
  Sr  Sr63  1  0.51156974  0.33980361  0.87763192  1
  Sr  Sr64  1  0.52224555  0.67490087  0.34983270  1
  Sr  Sr65  1  0.52241176  0.66415174  0.88406334  1
  Sr  Sr66  1  0.82170748  0.01091492  0.41744886  1
  Sr  Sr67  1  0.83702291  -0.00169802  0.86790901  1
  Sr  Sr68  1  0.84919725  0.33995433  0.37599668  1
  Sr  Sr69  1  0.83072925  0.33793891  0.83334304  1
  Sr  Sr70  1  0.85898586  0.67887431  0.36597652  1
  Sr  Sr71  1  0.83911186  0.64747189  0.92081261  1
  Ta  Ta72  1  0.14044666  0.15360319  0.00274098  1
  Ta  Ta73  1  0.16562642  0.20233259  0.49778380  1
  Ta  Ta74  1  0.20367503  0.50511223  -0.00755039  1
  Ta  Ta75  1  0.16390699  0.45600247  0.50511765  1
  Ta  Ta76  1  0.13628605  0.83450109  -0.00336998  1
  Ta  Ta77  1  0.11991786  0.83477387  0.50610008  1
  Ta  Ta78  1  0.46823262  0.14968576  0.00117474  1
  Ta  Ta79  1  0.48500488  0.13069707  0.49031500  1
  Ta  Ta80  1  0.44657370  0.49891990  -0.00839575  1
  Ta  Ta81  1  0.51696783  0.52855849  0.50170915  1
  Ta  Ta82  1  0.52295145  0.83644568  0.00167429  1
  Ta  Ta83  1  0.49251133  0.85761514  0.49381295  1
  Ta  Ta84  1  0.82391290  0.21016247  -0.00301894  1
  Ta  Ta85  1  0.81172432  0.19347067  0.50259673  1
  Ta  Ta86  1  0.82773728  0.45103485  -0.00390896  1
  Ta  Ta87  1  0.79303976  0.49502251  0.50272799  1
  Ta  Ta88  1  0.79848744  0.83757883  -0.00111783  1
  Ta  Ta89  1  0.88789150  0.83780347  0.49511571  1
  Ta  Ta90  1  0.11805143  0.16567734  0.25349997  1
  Ta  Ta91  1  0.16689842  0.11995601  0.74564024  1
  Ta  Ta92  1  0.16300193  0.52553719  0.25715045  1
  Ta  Ta93  1  0.11994409  0.50247153  0.74645349  1
  Ta  Ta94  1  0.19073618  0.80993506  0.24510671  1
  Ta  Ta95  1  0.16537271  0.88256753  0.74989138  1
  Ta  Ta96  1  0.49205525  0.21816327  0.25055085  1
  Ta  Ta97  1  0.51345607  0.18008550  0.75497005  1
  Ta  Ta98  1  0.49700663  0.43539366  0.24699562  1
  Ta  Ta99  1  0.47826241  0.50917235  0.74643281  1
  Ta  Ta100  1  0.44312868  0.83177846  0.24965417  1
  Ta  Ta101  1  0.47174081  0.82382988  0.74832702  1
  Ta  Ta102  1  0.83913936  0.14369508  0.25257288  1
  Ta  Ta103  1  0.78548369  0.16291549  0.75480375  1
  Ta  Ta104  1  0.80754027  0.51807863  0.24385625  1
  Ta  Ta105  1  0.85501986  0.52402695  0.75269301  1
  Ta  Ta106  1  0.83111304  0.88381241  0.25315546  1
  Ta  Ta107  1  0.83183630  0.77828521  0.75950138  1
  Ta  Ta108  1  -0.02737210  0.02190439  0.25297305  1
  Ta  Ta109  1  0.04485141  0.00298443  0.75061735  1
  Ta  Ta110  1  0.00261920  0.29682625  0.25652382  1
  Ta  Ta111  1  0.00266433  0.38278885  0.75296493  1
  Ta  Ta112  1  0.05693881  0.66479112  0.25442251  1
  Ta  Ta113  1  -0.01953057  0.64314445  0.75707340  1
  Ta  Ta114  1  0.33343496  -0.04719338  0.24550470  1
  Ta  Ta115  1  0.31382058  -0.00826823  0.74356152  1
  Ta  Ta116  1  0.36473462  0.33044425  0.24617982  1
  Ta  Ta117  1  0.36788217  0.33638131  0.74575959  1
  Ta  Ta118  1  0.32881006  0.69486162  0.25486290  1
  Ta  Ta119  1  0.37537437  0.67070723  0.74347581  1
  Ta  Ta120  1  0.70751218  -0.00113367  0.25188385  1
  Ta  Ta121  1  0.66539749  0.04454442  0.74742359  1
  Ta  Ta122  1  0.62834115  0.33196245  0.24684896  1
  Ta  Ta123  1  0.65997418  0.28307079  0.75517854  1
  Ta  Ta124  1  0.69797604  0.64698065  0.24438591  1
  Ta  Ta125  1  0.71131253  0.66278812  0.75719952  1
  Ta  Ta126  1  0.02411179  0.00556891  -0.00023789  1
  Ta  Ta127  1  0.00179671  -0.03735498  0.49911679  1
  Ta  Ta128  1  -0.04061850  0.33239720  -0.00281994  1
  Ta  Ta129  1  0.04243587  0.33310699  0.49940343  1
  Ta  Ta130  1  0.02361817  0.68897876  0.00160173  1
  Ta  Ta131  1  0.01443675  0.70686919  0.49560972  1
  Ta  Ta132  1  0.36425476  0.00931965  0.00379365  1
  Ta  Ta133  1  0.37835461  -0.00159989  0.49537477  1
  Ta  Ta134  1  0.33115511  0.37112619  -0.01157058  1
  Ta  Ta135  1  0.29761668  0.32658571  0.50216843  1
  Ta  Ta136  1  0.34176205  0.62184712  -0.00890657  1
  Ta  Ta137  1  0.39439974  0.66625089  0.49507039  1
  Ta  Ta138  1  0.66294098  -0.05479955  0.00806235  1
  Ta  Ta139  1  0.61658415  -0.00559529  0.49205836  1
  Ta  Ta140  1  0.70352369  0.32961689  -0.00660090  1
  Ta  Ta141  1  0.68813220  0.34012369  0.50195512  1
  Ta  Ta142  1  0.67010306  0.73389917  0.00375884  1
  Ta  Ta143  1  0.67433282  0.62357766  0.49969563  1
  N  N144  1  0.00704728  0.33031601  0.37736208  1
  N  N145  1  0.82175908  0.16628294  0.87925137  1
  N  N146  1  0.50468960  0.50512195  0.62569747  1
  N  N147  1  0.33740176  0.33581088  0.62063219  1
  N  N148  1  0.16554037  0.16133714  0.62628373  1
  N  N149  1  0.16495721  0.84185911  0.87370136  1
  N  N150  1  0.15997017  0.49680708  0.62569434  1
  N  N151  1  -0.00220875  0.00436678  0.11965826  1
  N  N152  1  0.66588638  0.32907756  0.86879936  1
  N  N153  1  -0.00149149  -0.00228724  0.37538261  1
  N  N154  1  -0.00974472  0.34490089  0.87673433  1
  N  N155  1  0.15861312  0.84044394  0.62491856  1
  N  N156  1  0.82916110  0.50074372  0.62316571  1
  N  N157  1  0.33532536  -0.01420438  0.12261882  1
  N  N158  1  0.02110321  0.67227382  0.37544672  1
  N  N159  1  0.67017001  -0.01247920  0.12453741  1
  N  N160  1  0.82703947  0.82518277  0.87582478  1
  N  N161  1  0.15178640  0.16565014  0.12513024  1
  N  N162  1  0.49578569  0.17128065  0.87817563  1
  N  N163  1  0.82272168  0.17667795  0.38143288  1
  N  N164  1  0.83114559  0.49373683  0.87813185  1
  N  N165  1  0.82272247  0.17417742  0.13093684  1
  N  N166  1  0.33815190  -0.00467084  0.62165023  1
  N  N167  1  0.66309993  -0.00573448  0.37954530  1
  N  N168  1  0.35179924  0.66930114  0.37685058  1
  N  N169  1  0.15740915  0.16382602  0.37761099  1
  N  N170  1  0.16947759  0.49696998  0.37674507  1
  N  N171  1  0.84754798  0.84466618  0.37562044  1
  N  N172  1  0.16878350  0.83179683  0.12583505  1
  N  N173  1  0.15951581  0.50459044  0.87791717  1
  N  N174  1  0.32840887  0.34122605  0.86764507  1
  N  N175  1  0.00418958  0.67189593  0.88053406  1
  N  N176  1  0.49114844  0.17131392  0.36754788  1
  O  O177  1  0.64826636  0.00627620  0.62570978  1
  O  O178  1  0.34180861  0.34268533  0.12126689  1
  O  O179  1  0.48859840  0.83923085  0.36998909  1
  O  O180  1  0.67817504  0.68551343  0.88241674  1
  O  O181  1  0.49132917  0.82898978  0.12518346  1
  O  O182  1  0.16210107  0.84001780  0.37169333  1
  O  O183  1  0.68147050  0.68484855  0.12449454  1
  O  O184  1  0.16577282  0.15728204  0.87180949  1
  O  O185  1  0.18104358  0.50653602  0.12498861  1
  O  O186  1  0.81627209  0.49972205  0.36990473  1
  O  O187  1  0.00617012  0.34013197  0.62858785  1
  O  O188  1  0.65816905  -0.00561222  0.86957438  1
  O  O189  1  0.67162139  0.33035431  0.62944639  1
  O  O190  1  -0.00449682  0.00318190  0.86848030  1
  O  O191  1  0.35289347  0.66356127  0.86803847  1
  O  O192  1  0.84692915  0.81781647  0.63304463  1
  O  O193  1  0.49857642  0.83005629  0.87649368  1
  O  O194  1  -0.00005779  0.67078367  0.62894117  1
  O  O195  1  0.83566852  0.84433391  0.13009968  1
  O  O196  1  0.34415975  -0.01126030  0.87702906  1
  O  O197  1  0.81857028  0.49336413  0.12256162  1
  O  O198  1  0.36150620  0.67292787  0.61548510  1
  O  O199  1  0.65864277  0.33327830  0.37929814  1
  O  O200  1  0.66004980  0.33194796  0.12026052  1
  O  O201  1  0.48579434  0.47717872  0.12115357  1
  O  O202  1  0.00547567  0.00339978  0.62607647  1
  O  O203  1  0.01585437  0.67334242  0.13394647  1
  O  O204  1  0.50096796  0.47891251  0.38157832  1
  O  O205  1  0.49518996  0.16040310  0.61702594  1
  O  O206  1  0.33564224  -0.01129296  0.37424088  1
  O  O207  1  0.82617495  0.16569968  0.62776730  1
  O  O208  1  0.68999792  0.64251496  0.63214366  1
  O  O209  1  0.67870335  0.64629164  0.37422566  1
  O  O210  1  0.49087156  0.17803500  0.12387476  1
  O  O211  1  -0.01801879  0.33129071  0.13387039  1
  O  O212  1  0.50293220  0.50531397  0.87869747  1
  O  O213  1  0.34125467  0.65662153  0.12795466  1
  O  O214  1  0.48292162  0.84221595  0.62656144  1
  O  O215  1  0.33768395  0.32888109  0.37780832  1
