# generated using pymatgen
data_Sr24Ta24N11O13
_symmetry_space_group_name_H-M   'P 1'
_cell_length_a   16.78992640
_cell_length_b   16.77415507
_cell_length_c   15.72493238
_cell_angle_alpha   89.78581697
_cell_angle_beta   90.19037662
_cell_angle_gamma   90.18290785
_symmetry_Int_Tables_number   1
_chemical_formula_structural   Sr24Ta24N11O13
_chemical_formula_sum   'Sr72 Ta72 N33 O39'
_cell_volume   4428.64230846
_cell_formula_units_Z   3
loop_
 _symmetry_equiv_pos_site_id
 _symmetry_equiv_pos_as_xyz
  1  'x, y, z'
loop_
 _atom_site_type_symbol
 _atom_site_label
 _atom_site_symmetry_multiplicity
 _atom_site_fract_x
 _atom_site_fract_y
 _atom_site_fract_z
 _atom_site_occupancy
  Sr  Sr0  1  -0.01709275  0.18075217  0.07874306  1
  Sr  Sr1  1  0.02117312  0.15610591  0.62775488  1
  Sr  Sr2  1  -0.00448579  0.48604284  0.16953717  1
  Sr  Sr3  1  0.00415833  0.50214638  0.61513335  1
  Sr  Sr4  1  0.01998245  0.80406478  0.11362517  1
  Sr  Sr5  1  0.00653517  0.83476019  0.66095690  1
  Sr  Sr6  1  0.32564841  0.16038649  0.13574378  1
  Sr  Sr7  1  0.34420929  0.19772629  0.58383905  1
  Sr  Sr8  1  0.32814000  0.50422087  0.12353195  1
  Sr  Sr9  1  0.34975944  0.49311132  0.66747243  1
  Sr  Sr10  1  0.33666024  0.82992137  0.08995327  1
  Sr  Sr11  1  0.33440789  0.83100689  0.62779290  1
  Sr  Sr12  1  0.67722267  0.17603432  0.16705095  1
  Sr  Sr13  1  0.66215632  0.16677607  0.62329456  1
  Sr  Sr14  1  0.67662257  0.50215162  0.12061680  1
  Sr  Sr15  1  0.65504733  0.50727738  0.58607062  1
  Sr  Sr16  1  0.66377678  0.84068665  0.12310018  1
  Sr  Sr17  1  0.70254805  0.82821124  0.61482857  1
  Sr  Sr18  1  0.15584476  -0.00167911  0.15463691  1
  Sr  Sr19  1  0.16471993  -0.01354330  0.63254070  1
  Sr  Sr20  1  0.15372225  0.30947540  0.09751172  1
  Sr  Sr21  1  0.16060455  0.33678216  0.63122892  1
  Sr  Sr22  1  0.15742745  0.65162886  0.14384531  1
  Sr  Sr23  1  0.16488503  0.66791120  0.58339253  1
  Sr  Sr24  1  0.48106986  -0.01632119  0.08935957  1
  Sr  Sr25  1  0.49400560  -0.01039194  0.64281282  1
  Sr  Sr26  1  0.47677725  0.31779667  0.13004118  1
  Sr  Sr27  1  0.50835383  0.33188349  0.61251675  1
  Sr  Sr28  1  0.51607753  0.66137887  0.17167358  1
  Sr  Sr29  1  0.48567216  0.66717893  0.62323395  1
  Sr  Sr30  1  0.83057079  0.00493149  0.13563913  1
  Sr  Sr31  1  0.82200539  0.02057879  0.59099684  1
  Sr  Sr32  1  0.83082075  0.34063369  0.12256106  1
  Sr  Sr33  1  0.82663341  0.33612603  0.66250911  1
  Sr  Sr34  1  0.82096733  0.66893137  0.07952145  1
  Sr  Sr35  1  0.85692354  0.66547656  0.63541360  1
  Sr  Sr36  1  0.00259414  0.15980386  0.41550438  1
  Sr  Sr37  1  0.00957565  0.16298801  0.87637526  1
  Sr  Sr38  1  0.00576522  0.51162619  0.39038226  1
  Sr  Sr39  1  -0.01620129  0.49416804  0.82762660  1
  Sr  Sr40  1  0.01467821  0.85196474  0.32011847  1
  Sr  Sr41  1  0.01140079  0.81920839  0.87766939  1
  Sr  Sr42  1  0.33124667  0.16634038  0.35939539  1
  Sr  Sr43  1  0.35252355  0.17281305  0.91564286  1
  Sr  Sr44  1  0.33919711  0.51132320  0.33479493  1
  Sr  Sr45  1  0.32580705  0.50147414  0.88275133  1
  Sr  Sr46  1  0.33605293  0.82661645  0.41603289  1
  Sr  Sr47  1  0.34104758  0.85010558  0.86013764  1
  Sr  Sr48  1  0.66736741  0.16789692  0.37995622  1
  Sr  Sr49  1  0.66143264  0.17637236  0.83053436  1
  Sr  Sr50  1  0.66461927  0.51173699  0.38019455  1
  Sr  Sr51  1  0.67920583  0.49147200  0.91248943  1
  Sr  Sr52  1  0.67367066  0.83684862  0.35615786  1
  Sr  Sr53  1  0.68980471  0.81983027  0.89517484  1
  Sr  Sr54  1  0.16772435  -0.00192870  0.36652902  1
  Sr  Sr55  1  0.15114202  -0.00885443  0.83637780  1
  Sr  Sr56  1  0.14628025  0.32005845  0.41464960  1
  Sr  Sr57  1  0.15791885  0.33620991  0.86579161  1
  Sr  Sr58  1  0.16059275  0.65869985  0.36300217  1
  Sr  Sr59  1  0.18813280  0.68050820  0.92982250  1
  Sr  Sr60  1  0.47961303  -0.02040390  0.39018462  1
  Sr  Sr61  1  0.49913974  0.00115395  0.87224367  1
  Sr  Sr62  1  0.48629382  0.31225339  0.37923436  1
  Sr  Sr63  1  0.49547207  0.34221048  0.88355558  1
  Sr  Sr64  1  0.49785844  0.66390542  0.37595189  1
  Sr  Sr65  1  0.47680934  0.66554328  0.83194626  1
  Sr  Sr66  1  0.82168745  -0.00346824  0.36463678  1
  Sr  Sr67  1  0.82883003  0.01541075  0.90282656  1
  Sr  Sr68  1  0.83357683  0.35170042  0.33696967  1
  Sr  Sr69  1  0.82705177  0.33222012  0.88006888  1
  Sr  Sr70  1  0.83184500  0.65700512  0.42156816  1
  Sr  Sr71  1  0.85395513  0.66976373  0.86077265  1
  Ta  Ta72  1  0.17052801  0.12562147  -0.00435166  1
  Ta  Ta73  1  0.18747598  0.13855580  0.50411246  1
  Ta  Ta74  1  0.13448427  0.49183255  0.00337504  1
  Ta  Ta75  1  0.20902917  0.49648622  0.49484297  1
  Ta  Ta76  1  0.16825316  0.87503424  -0.00235842  1
  Ta  Ta77  1  0.13406858  0.84163756  0.49825859  1
  Ta  Ta78  1  0.54252262  0.16766432  -0.00143978  1
  Ta  Ta79  1  0.50149484  0.13029821  0.49602316  1
  Ta  Ta80  1  0.49812830  0.52914588  0.00091733  1
  Ta  Ta81  1  0.46561301  0.49890830  0.49853346  1
  Ta  Ta82  1  0.50695286  0.78964196  0.00204754  1
  Ta  Ta83  1  0.53501070  0.82753598  0.49666998  1
  Ta  Ta84  1  0.78913573  0.17361973  0.00229450  1
  Ta  Ta85  1  0.82894955  0.21226639  0.50118652  1
  Ta  Ta86  1  0.87511366  0.49965175  -0.00075521  1
  Ta  Ta87  1  0.83214084  0.46586542  0.50419412  1
  Ta  Ta88  1  0.86297877  0.85440548  0.00546946  1
  Ta  Ta89  1  0.88026640  0.84283140  0.49366406  1
  Ta  Ta90  1  0.13957569  0.17950480  0.25693680  1
  Ta  Ta91  1  0.21326955  0.16957669  0.74560184  1
  Ta  Ta92  1  0.16404418  0.44824351  0.25900000  1
  Ta  Ta93  1  0.16746751  0.53368860  0.74899500  1
  Ta  Ta94  1  0.21464136  0.82901821  0.24302200  1
  Ta  Ta95  1  0.17600528  0.79380879  0.75066505  1
  Ta  Ta96  1  0.49986249  0.12008363  0.24842504  1
  Ta  Ta97  1  0.46544421  0.17209486  0.75151733  1
  Ta  Ta98  1  0.51927411  0.47222423  0.25489303  1
  Ta  Ta99  1  0.54445702  0.49863867  0.74557261  1
  Ta  Ta100  1  0.47534290  0.84486657  0.24898422  1
  Ta  Ta101  1  0.55146058  0.83374181  0.75289457  1
  Ta  Ta102  1  0.87067709  0.17421610  0.24830089  1
  Ta  Ta103  1  0.85192647  0.15544019  0.75578046  1
  Ta  Ta104  1  0.82760796  0.54264741  0.25692188  1
  Ta  Ta105  1  0.78283091  0.50815949  0.74207718  1
  Ta  Ta106  1  0.83791257  0.78333906  0.24997844  1
  Ta  Ta107  1  0.83642601  0.88292352  0.75105972  1
  Ta  Ta108  1  -0.00544766  0.06169898  0.24920712  1
  Ta  Ta109  1  -0.04319552  0.00501899  0.75270343  1
  Ta  Ta110  1  0.01370966  0.29923914  0.24660080  1
  Ta  Ta111  1  -0.01160827  0.30933823  0.75046076  1
  Ta  Ta112  1  -0.04318336  0.66493747  0.25107028  1
  Ta  Ta113  1  0.06191513  0.66369187  0.75247958  1
  Ta  Ta114  1  0.34146507  -0.02821771  0.25257956  1
  Ta  Ta115  1  0.33151750  0.04905100  0.74962438  1
  Ta  Ta116  1  0.28604024  0.33242198  0.25848668  1
  Ta  Ta117  1  0.33698609  0.30212644  0.74739339  1
  Ta  Ta118  1  0.33525024  0.70541944  0.25488912  1
  Ta  Ta119  1  0.28322057  0.66397903  0.74618405  1
  Ta  Ta120  1  0.61951617  0.00135563  0.24715945  1
  Ta  Ta121  1  0.68163640  -0.02254208  0.74958278  1
  Ta  Ta122  1  0.64540791  0.35437640  0.25125158  1
  Ta  Ta123  1  0.65755113  0.37095762  0.74995509  1
  Ta  Ta124  1  0.70922731  0.66782720  0.25086454  1
  Ta  Ta125  1  0.66019258  0.64330348  0.74917478  1
  Ta  Ta126  1  0.01429080  -0.01302947  -0.00173708  1
  Ta  Ta127  1  0.00343053  -0.04085492  0.49609162  1
  Ta  Ta128  1  -0.00656421  0.37798794  -0.00326069  1
  Ta  Ta129  1  -0.04588546  0.33207519  0.50775354  1
  Ta  Ta130  1  0.00309341  0.61021031  0.00539192  1
  Ta  Ta131  1  0.00301187  0.72643700  0.48875750  1
  Ta  Ta132  1  0.28808130  0.00462198  -0.00770870  1
  Ta  Ta133  1  0.32499323  0.02000798  0.50277302  1
  Ta  Ta134  1  0.31532125  0.34340618  0.00638430  1
  Ta  Ta135  1  0.32786949  0.37708784  0.49606819  1
  Ta  Ta136  1  0.39175231  0.66127589  0.00436512  1
  Ta  Ta137  1  0.33324021  0.62640424  0.50017635  1
  Ta  Ta138  1  0.66038442  0.04871157  0.00036486  1
  Ta  Ta139  1  0.63619870  -0.00713650  0.50307872  1
  Ta  Ta140  1  0.65849049  0.29712328  -0.00299923  1
  Ta  Ta141  1  0.70328203  0.33387331  0.50450901  1
  Ta  Ta142  1  0.60828701  0.65843603  -0.00210838  1
  Ta  Ta143  1  0.64927429  0.68863289  0.49482986  1
  N  N144  1  0.50416265  0.16786439  0.87184850  1
  N  N145  1  0.32788683  0.00931702  0.86643560  1
  N  N146  1  -0.00013885  0.33409898  0.62545096  1
  N  N147  1  0.16466679  0.49523967  0.37416990  1
  N  N148  1  0.32496486  -0.00594413  0.37451617  1
  N  N149  1  0.83343599  0.50516008  0.37733042  1
  N  N150  1  0.50492393  0.82496968  0.37341940  1
  N  N151  1  0.16042184  0.16419012  0.37943604  1
  N  N152  1  0.82866456  0.17102346  0.87557648  1
  N  N153  1  0.17529453  0.17287885  0.62690095  1
  N  N154  1  0.66856304  0.33633610  0.62377237  1
  N  N155  1  0.17524424  0.83060402  0.12466061  1
  N  N156  1  0.50428727  0.82466395  0.12420808  1
  N  N157  1  0.50279238  0.50065518  0.62674921  1
  N  N158  1  -0.00376010  0.33147386  0.12752777  1
  N  N159  1  0.66266576  0.33399942  0.87733218  1
  N  N160  1  0.00043082  0.68194214  0.37219435  1
  N  N161  1  0.49562323  0.15107805  0.37463671  1
  N  N162  1  0.82927366  0.50736909  0.62876013  1
  N  N163  1  -0.00489685  0.64832165  0.12356931  1
  N  N164  1  0.32265467  0.66046048  0.62574417  1
  N  N165  1  0.33416538  0.67094826  0.37471015  1
  N  N166  1  0.16548394  0.83011437  0.61842348  1
  N  N167  1  0.33465274  0.34322267  0.63112669  1
  N  N168  1  0.50178982  0.49444613  0.37638415  1
  N  N169  1  0.17394731  0.83264641  0.88142210  1
  N  N170  1  -0.00214060  0.33832681  0.87654858  1
  N  N171  1  0.83020722  0.17605776  0.12685974  1
  N  N172  1  -0.00335816  -0.00081137  0.87477821  1
  N  N173  1  0.66979934  0.67087821  0.37546630  1
  N  N174  1  0.32520578  0.32949175  0.37960472  1
  N  N175  1  0.31907487  0.32858032  0.12657179  1
  N  N176  1  0.66608836  -0.00266995  0.62544532  1
  O  O177  1  0.33466542  0.65711643  0.88413527  1
  O  O178  1  0.65613999  0.33984697  0.12448913  1
  O  O179  1  0.67139871  0.34080954  0.37319603  1
  O  O180  1  -0.00818665  0.31876044  0.38376993  1
  O  O181  1  0.66142403  0.66450927  0.62582663  1
  O  O182  1  0.83589743  0.50957691  0.12375592  1
  O  O183  1  0.53207245  0.83038094  0.87681764  1
  O  O184  1  0.82397162  0.17654662  0.62483758  1
  O  O185  1  0.16854422  0.84010087  0.36513999  1
  O  O186  1  0.16824394  0.15070611  0.87086657  1
  O  O187  1  -0.00161443  0.02563857  0.12757480  1
  O  O188  1  0.65092096  -0.00367578  0.36930286  1
  O  O189  1  0.32854116  0.00024364  0.11818223  1
  O  O190  1  0.01508044  0.68319958  0.62908968  1
  O  O191  1  -0.00547638  -0.00676859  0.62246923  1
  O  O192  1  -0.00175288  0.00740975  0.37476648  1
  O  O193  1  0.83028854  0.51121769  0.86570374  1
  O  O194  1  0.01454613  0.65453107  0.87133413  1
  O  O195  1  0.66422426  0.65888754  0.12636036  1
  O  O196  1  0.83370262  0.19394917  0.37325831  1
  O  O197  1  0.85176646  0.86057438  0.62518658  1
  O  O198  1  0.15183918  0.48834886  0.13281629  1
  O  O199  1  0.84235829  0.85706341  0.88045014  1
  O  O200  1  0.36001127  0.66554074  0.12867632  1
  O  O201  1  0.50124737  0.15948660  0.12548914  1
  O  O202  1  0.53026761  0.83045156  0.63152700  1
  O  O203  1  0.33116275  -0.01068573  0.62875040  1
  O  O204  1  0.63875148  -0.00095386  0.11917152  1
  O  O205  1  0.16558164  0.15046350  0.12236822  1
  O  O206  1  0.50309438  0.50762180  0.87222930  1
  O  O207  1  0.84947353  0.83392494  0.36678454  1
  O  O208  1  0.32994811  0.34277708  0.87340829  1
  O  O209  1  0.66574815  0.01157093  0.87597573  1
  O  O210  1  0.16978718  0.50950504  0.62331187  1
  O  O211  1  0.64942414  0.65459227  0.87635166  1
  O  O212  1  0.85232896  0.82671602  0.12592702  1
  O  O213  1  0.50376045  0.15532747  0.62914412  1
  O  O214  1  0.50250946  0.50434091  0.12875990  1
  O  O215  1  0.15984286  0.50620348  0.87995643  1
