# generated using pymatgen
data_Sr24Ta24N11O13
_symmetry_space_group_name_H-M   'P 1'
_cell_length_a   18.12120245
_cell_length_b   16.64279296
_cell_length_c   14.66772691
_cell_angle_alpha   90.00607103
_cell_angle_beta   87.70140552
_cell_angle_gamma   91.17967066
_symmetry_Int_Tables_number   1
_chemical_formula_structural   Sr24Ta24N11O13
_chemical_formula_sum   'Sr72 Ta72 N33 O39'
_cell_volume   4419.10463288
_cell_formula_units_Z   3
loop_
 _symmetry_equiv_pos_site_id
 _symmetry_equiv_pos_as_xyz
  1  'x, y, z'
loop_
 _atom_site_type_symbol
 _atom_site_label
 _atom_site_symmetry_multiplicity
 _atom_site_fract_x
 _atom_site_fract_y
 _atom_site_fract_z
 _atom_site_occupancy
  Sr  Sr0  1  -0.04931826  0.17267435  0.17159589  1
  Sr  Sr1  1  -0.00413241  0.17396611  0.59366210  1
  Sr  Sr2  1  -0.01415067  0.49984486  0.15609409  1
  Sr  Sr3  1  -0.05333527  0.50008893  0.62906806  1
  Sr  Sr4  1  0.01187315  0.83843664  0.10814032  1
  Sr  Sr5  1  -0.01807548  0.84119610  0.67179355  1
  Sr  Sr6  1  0.33055372  0.16530288  0.12215286  1
  Sr  Sr7  1  0.29596931  0.16267746  0.66979927  1
  Sr  Sr8  1  0.32197359  0.52509317  0.09159066  1
  Sr  Sr9  1  0.33574220  0.48237120  0.64561354  1
  Sr  Sr10  1  0.27993756  0.84968806  0.13195798  1
  Sr  Sr11  1  0.33286023  0.85618508  0.60885782  1
  Sr  Sr12  1  0.65300340  0.18443813  0.09661984  1
  Sr  Sr13  1  0.65214952  0.18126703  0.63830489  1
  Sr  Sr14  1  0.61417290  0.51410390  0.15376811  1
  Sr  Sr15  1  0.64770093  0.51512400  0.59564283  1
  Sr  Sr16  1  0.63916101  0.83542953  0.13026930  1
  Sr  Sr17  1  0.61583643  0.83416729  0.66119904  1
  Sr  Sr18  1  0.14433718  -0.00783711  0.12724446  1
  Sr  Sr19  1  0.17764491  -0.01610326  0.65642998  1
  Sr  Sr20  1  0.22219279  0.33541585  0.07569079  1
  Sr  Sr21  1  0.19025207  0.32502595  0.62456561  1
  Sr  Sr22  1  0.17036175  0.67108949  0.15041496  1
  Sr  Sr23  1  0.22691449  0.64957825  0.60614072  1
  Sr  Sr24  1  0.53869524  -0.00521153  0.08245995  1
  Sr  Sr25  1  0.50479381  -0.00091157  0.61695269  1
  Sr  Sr26  1  0.50552897  0.31537174  0.14274889  1
  Sr  Sr27  1  0.53270791  0.33337074  0.59446945  1
  Sr  Sr28  1  0.50080995  0.67046200  0.09419573  1
  Sr  Sr29  1  0.51278458  0.65180224  0.65399442  1
  Sr  Sr30  1  0.84384107  -0.01098703  0.15302947  1
  Sr  Sr31  1  0.88685001  -0.00183189  0.57646211  1
  Sr  Sr32  1  0.84855057  0.33000283  0.10212560  1
  Sr  Sr33  1  0.83809138  0.31978922  0.62945562  1
  Sr  Sr34  1  0.88702967  0.66428994  0.11313561  1
  Sr  Sr35  1  0.83763902  0.66612917  0.60688371  1
  Sr  Sr36  1  0.00707297  0.15324140  0.37507010  1
  Sr  Sr37  1  -0.03137745  0.19683141  0.88974321  1
  Sr  Sr38  1  -0.00357503  0.51855160  0.37376522  1
  Sr  Sr39  1  -0.04187520  0.48803200  0.89223111  1
  Sr  Sr40  1  -0.05821576  0.81693497  0.46226027  1
  Sr  Sr41  1  -0.00496859  0.83872052  0.88873339  1
  Sr  Sr42  1  0.33034885  0.17834064  0.34123643  1
  Sr  Sr43  1  0.27868067  0.16889961  0.90172962  1
  Sr  Sr44  1  0.29884522  0.49021789  0.41794282  1
  Sr  Sr45  1  0.34311236  0.49175602  0.87028799  1
  Sr  Sr46  1  0.32420823  0.84240622  0.38327765  1
  Sr  Sr47  1  0.28192086  0.86921904  0.85088289  1
  Sr  Sr48  1  0.61880855  0.17236191  0.40505752  1
  Sr  Sr49  1  0.68244732  0.15576871  0.86181901  1
  Sr  Sr50  1  0.64544626  0.51346783  0.37433324  1
  Sr  Sr51  1  0.64115534  0.52955185  0.88931957  1
  Sr  Sr52  1  0.67177787  0.85362328  0.34793090  1
  Sr  Sr53  1  0.65091295  0.82150214  0.89098210  1
  Sr  Sr54  1  0.21091476  0.00390447  0.33852187  1
  Sr  Sr55  1  0.15137705  0.00215777  0.89473836  1
  Sr  Sr56  1  0.18917018  0.31347581  0.39429452  1
  Sr  Sr57  1  0.18047435  0.34117527  0.85937660  1
  Sr  Sr58  1  0.18606078  0.65737418  0.37443035  1
  Sr  Sr59  1  0.20375821  0.61456277  0.85006093  1
  Sr  Sr60  1  0.51062692  -0.01994295  0.38994679  1
  Sr  Sr61  1  0.55895996  -0.00521776  0.84713475  1
  Sr  Sr62  1  0.49625667  0.33410801  0.36348240  1
  Sr  Sr63  1  0.55391704  0.30340344  0.88101289  1
  Sr  Sr64  1  0.54186337  0.68174412  0.31898742  1
  Sr  Sr65  1  0.50377946  0.66751838  0.87716296  1
  Sr  Sr66  1  0.82821819  0.00271769  0.36925258  1
  Sr  Sr67  1  0.85868134  -0.02589622  0.86277500  1
  Sr  Sr68  1  0.89585945  0.33206744  0.33196196  1
  Sr  Sr69  1  0.82016543  0.32293316  0.86933986  1
  Sr  Sr70  1  0.83489187  0.65274851  0.38744980  1
  Sr  Sr71  1  0.85630604  0.67065492  0.86356083  1
  Ta  Ta72  1  0.10639147  0.17647149  0.02394071  1
  Ta  Ta73  1  0.17376739  0.13240991  0.49853481  1
  Ta  Ta74  1  0.12518038  0.50136251  0.00290839  1
  Ta  Ta75  1  0.12234775  0.49835621  0.52346637  1
  Ta  Ta76  1  0.15793781  0.77566991  -0.04419559  1
  Ta  Ta77  1  0.12645774  0.81207684  0.52320750  1
  Ta  Ta78  1  0.46546144  0.14930778  -0.03065269  1
  Ta  Ta79  1  0.44963361  0.16689268  0.50866178  1
  Ta  Ta80  1  0.48939173  0.46307817  -0.00529063  1
  Ta  Ta81  1  0.47364479  0.51853787  0.49000040  1
  Ta  Ta82  1  0.44243321  0.84778484  -0.02177000  1
  Ta  Ta83  1  0.49695689  0.79750304  0.49691228  1
  Ta  Ta84  1  0.82388628  0.12690745  0.00400903  1
  Ta  Ta85  1  0.80601628  0.18138987  0.46418827  1
  Ta  Ta86  1  0.78453089  0.51079923  0.02281714  1
  Ta  Ta87  1  0.80999668  0.46674507  0.46332668  1
  Ta  Ta88  1  0.80736299  0.82998589  0.00895101  1
  Ta  Ta89  1  0.76825227  0.84624638  0.52663302  1
  Ta  Ta90  1  0.15072067  0.18528485  0.21990671  1
  Ta  Ta91  1  0.11271019  0.16910905  0.75835097  1
  Ta  Ta92  1  0.17675293  0.46340115  0.24686682  1
  Ta  Ta93  1  0.11202693  0.49056751  0.72312189  1
  Ta  Ta94  1  0.10110201  0.84156835  0.33027463  1
  Ta  Ta95  1  0.14579888  0.77958726  0.74434307  1
  Ta  Ta96  1  0.49937953  0.12695633  0.23299632  1
  Ta  Ta97  1  0.46532708  0.16352857  0.76603677  1
  Ta  Ta98  1  0.43927894  0.51524820  0.25583120  1
  Ta  Ta99  1  0.50511926  0.45760786  0.75549731  1
  Ta  Ta100  1  0.45603106  0.84153462  0.21929285  1
  Ta  Ta101  1  0.45057299  0.84229432  0.76889988  1
  Ta  Ta102  1  0.77447056  0.18223278  0.26332839  1
  Ta  Ta103  1  0.84231381  0.13002765  0.73570246  1
  Ta  Ta104  1  0.79541087  0.49539708  0.23560742  1
  Ta  Ta105  1  0.78323292  0.50557123  0.74280718  1
  Ta  Ta106  1  0.85664936  0.81525073  0.27000753  1
  Ta  Ta107  1  0.79187730  0.83244956  0.72428669  1
  Ta  Ta108  1  -0.00142159  -0.04917264  0.29435891  1
  Ta  Ta109  1  0.00582372  0.03836674  0.75564379  1
  Ta  Ta110  1  0.07138983  0.32906651  0.23068134  1
  Ta  Ta111  1  0.02279277  0.33563944  0.74490543  1
  Ta  Ta112  1  0.00676109  0.71982598  0.28193092  1
  Ta  Ta113  1  0.04516387  0.65401558  0.74282632  1
  Ta  Ta114  1  0.38429746  -0.00233680  0.23270753  1
  Ta  Ta115  1  0.37902379  0.01823183  0.78604809  1
  Ta  Ta116  1  0.33250973  0.36810735  0.24438624  1
  Ta  Ta117  1  0.38816168  0.31477114  0.77730497  1
  Ta  Ta118  1  0.35943993  0.67265078  0.24824734  1
  Ta  Ta119  1  0.35163611  0.70252606  0.76732782  1
  Ta  Ta120  1  0.66307007  0.04128994  0.25713940  1
  Ta  Ta121  1  0.72742852  -0.00827986  0.71412527  1
  Ta  Ta122  1  0.71013356  0.33832349  0.26908276  1
  Ta  Ta123  1  0.67728939  0.37912210  0.74129539  1
  Ta  Ta124  1  0.72149256  0.67157755  0.23026047  1
  Ta  Ta125  1  0.69811949  0.66749376  0.74486717  1
  Ta  Ta126  1  -0.01283057  0.03609711  0.01227306  1
  Ta  Ta127  1  0.06031503  -0.02569703  0.48174042  1
  Ta  Ta128  1  0.03949418  0.33917320  0.03237821  1
  Ta  Ta129  1  0.02985169  0.35525643  0.49641965  1
  Ta  Ta130  1  0.04946478  0.65391710  -0.00815089  1
  Ta  Ta131  1  0.04618251  0.66339307  0.54140379  1
  Ta  Ta132  1  0.36904272  -0.00069214  -0.01175221  1
  Ta  Ta133  1  0.33890495  0.04365715  0.50044693  1
  Ta  Ta134  1  0.39101141  0.32131995  -0.01806875  1
  Ta  Ta135  1  0.35765884  0.30490406  0.51073805  1
  Ta  Ta136  1  0.33088467  0.71554972  -0.02468772  1
  Ta  Ta137  1  0.39382289  0.66277149  0.48884256  1
  Ta  Ta138  1  0.71741299  -0.00906138  -0.00160359  1
  Ta  Ta139  1  0.69247051  0.00422021  0.51902011  1
  Ta  Ta140  1  0.67662722  0.37630746  0.02154285  1
  Ta  Ta141  1  0.71573971  0.33319944  0.46763453  1
  Ta  Ta142  1  0.71053552  0.67166864  0.02953250  1
  Ta  Ta143  1  0.65767263  0.70553401  0.49273221  1
  N  N144  1  0.66407767  0.01368405  0.39116658  1
  N  N145  1  0.33911260  0.33192076  0.38415257  1
  N  N146  1  0.81536371  0.83797429  0.39090947  1
  N  N147  1  0.47264136  0.50472774  0.12869341  1
  N  N148  1  0.15674223  0.15805520  0.62463466  1
  N  N149  1  0.51671917  0.83895783  0.87060216  1
  N  N150  1  -0.03462093  -0.01205378  0.41862325  1
  N  N151  1  0.03307256  0.32528414  0.36927065  1
  N  N152  1  -0.01785345  0.33623543  0.15149624  1
  N  N153  1  0.50329914  0.15543594  0.10292480  1
  N  N154  1  0.13459718  0.85061122  0.84866193  1
  N  N155  1  0.85757724  0.49721482  0.11293811  1
  N  N156  1  0.13694154  0.17853883  0.89505856  1
  N  N157  1  0.35529174  0.63822092  0.88029631  1
  N  N158  1  0.19189463  0.49237090  0.62608541  1
  N  N159  1  0.68308538  0.67726215  0.35594696  1
  N  N160  1  0.82866233  0.15905538  0.86243201  1
  N  N161  1  0.81185654  0.17045177  0.13026283  1
  N  N162  1  0.35232131  0.00668896  0.37127288  1
  N  N163  1  0.85851290  0.49824435  0.34120366  1
  N  N164  1  0.31724244  0.32728252  0.88568829  1
  N  N165  1  0.47886098  0.83482188  0.62319171  1
  N  N166  1  0.49465313  0.51443992  0.87081485  1
  N  N167  1  0.66060694  0.66746367  0.62192100  1
  N  N168  1  0.00050438  -0.00256988  0.88843259  1
  N  N169  1  0.53887925  0.14879009  0.86447678  1
  N  N170  1  0.85376235  0.82945881  0.60834499  1
  N  N171  1  0.30111140  0.01758552  0.88769829  1
  N  N172  1  0.63902330  0.67465530  0.14039011  1
  N  N173  1  0.35642911  0.32345421  0.12429617  1
  N  N174  1  0.86279469  0.17096410  0.34998471  1
  N  N175  1  0.49516104  0.49264890  0.61591323  1
  N  N176  1  0.50001849  0.83189569  0.09697611  1
  O  O177  1  0.36380282  0.67140204  0.63135588  1
  O  O178  1  0.70070763  0.67280290  0.89082002  1
  O  O179  1  0.31956076  0.00589522  0.12473267  1
  O  O180  1  0.02236265  0.34291187  0.88303186  1
  O  O181  1  0.48055053  0.16993028  0.36686449  1
  O  O182  1  0.19575090  0.80222286  0.41562999  1
  O  O183  1  0.34023191  0.68008041  0.11578767  1
  O  O184  1  0.68162406  0.37312624  0.88550868  1
  O  O185  1  0.80380400  0.51205375  0.87765929  1
  O  O186  1  0.63730391  0.02787378  0.64724104  1
  O  O187  1  0.15420550  0.85417929  0.05596648  1
  O  O188  1  0.48331704  0.82981553  0.35960592  1
  O  O189  1  0.80597316  0.50358243  0.59943444  1
  O  O190  1  0.02518657  -0.00768105  0.62548363  1
  O  O191  1  0.64924459  0.34409615  0.15037219  1
  O  O192  1  -0.00744510  0.64250565  0.87606135  1
  O  O193  1  0.33157909  0.32334253  0.64928575  1
  O  O194  1  0.70683308  -0.00762108  0.86120546  1
  O  O195  1  0.16446795  0.15853488  0.35433668  1
  O  O196  1  0.34083131  0.01205234  0.63815539  1
  O  O197  1  0.67938337  0.34011711  0.61039176  1
  O  O198  1  0.50634821  0.16082478  0.62420603  1
  O  O199  1  0.19515051  0.13961862  0.09787035  1
  O  O200  1  0.68455160  -0.00819991  0.13380419  1
  O  O201  1  0.84541420  0.16914155  0.59792050  1
  O  O202  1  0.19993958  0.82419392  0.62228074  1
  O  O203  1  0.80428475  0.82465472  0.87147389  1
  O  O204  1  0.85350556  0.83294565  0.12739649  1
  O  O205  1  -0.00474421  -0.01264695  0.14362862  1
  O  O206  1  0.17457455  0.51519725  0.12690997  1
  O  O207  1  0.51278299  0.48760462  0.35525443  1
  O  O208  1  0.33051313  0.68056669  0.38106104  1
  O  O209  1  -0.03120214  0.67563451  0.64716906  1
  O  O210  1  0.12149462  0.48736431  0.86857767  1
  O  O211  1  0.16316791  0.50034531  0.37922462  1
  O  O212  1  0.63381862  0.34911070  0.37595834  1
  O  O213  1  0.02678927  0.68585652  0.14655305  1
  O  O214  1  -0.02070630  0.32648204  0.62386106  1
  O  O215  1  -0.00605323  0.66801545  0.40814797  1
