# generated using pymatgen
data_Sr24Ta24N11O13
_symmetry_space_group_name_H-M   'P 1'
_cell_length_a   16.48526264
_cell_length_b   17.76466129
_cell_length_c   15.19883983
_cell_angle_alpha   91.07391938
_cell_angle_beta   90.05527161
_cell_angle_gamma   90.68131173
_symmetry_Int_Tables_number   1
_chemical_formula_structural   Sr24Ta24N11O13
_chemical_formula_sum   'Sr72 Ta72 N33 O39'
_cell_volume   4449.95825805
_cell_formula_units_Z   3
loop_
 _symmetry_equiv_pos_site_id
 _symmetry_equiv_pos_as_xyz
  1  'x, y, z'
loop_
 _atom_site_type_symbol
 _atom_site_label
 _atom_site_symmetry_multiplicity
 _atom_site_fract_x
 _atom_site_fract_y
 _atom_site_fract_z
 _atom_site_occupancy
  Sr  Sr0  1  0.00587140  0.13813145  0.09633478  1
  Sr  Sr1  1  -0.00783551  0.16613772  0.62650359  1
  Sr  Sr2  1  -0.00095060  0.46555939  0.10822478  1
  Sr  Sr3  1  0.01254240  0.48837959  0.64478192  1
  Sr  Sr4  1  0.00688595  0.83363418  0.14073699  1
  Sr  Sr5  1  0.00220247  0.78900147  0.58102714  1
  Sr  Sr6  1  0.33006544  0.13431679  0.11596269  1
  Sr  Sr7  1  0.34395287  0.15311075  0.65023499  1
  Sr  Sr8  1  0.33569728  0.49304428  0.14019177  1
  Sr  Sr9  1  0.33712678  0.45305685  0.59667918  1
  Sr  Sr10  1  0.34049942  0.79751382  0.11550029  1
  Sr  Sr11  1  0.33180197  0.81818541  0.61482959  1
  Sr  Sr12  1  0.67028197  0.16221650  0.13923784  1
  Sr  Sr13  1  0.67678798  0.14220232  0.61048139  1
  Sr  Sr14  1  0.67150636  0.45874085  0.09441754  1
  Sr  Sr15  1  0.66399679  0.47440590  0.62837039  1
  Sr  Sr16  1  0.66802059  0.81576250  0.11471392  1
  Sr  Sr17  1  0.68207180  0.82321977  0.64009855  1
  Sr  Sr18  1  0.15908710  0.01042153  0.12929423  1
  Sr  Sr19  1  0.15480860  0.04424873  0.65578321  1
  Sr  Sr20  1  0.16708820  0.36492518  0.13665065  1
  Sr  Sr21  1  0.14796632  0.34016691  0.60397436  1
  Sr  Sr22  1  0.16039458  0.69876798  0.12195380  1
  Sr  Sr23  1  0.16075501  0.67519236  0.63791126  1
  Sr  Sr24  1  0.50816382  0.02868597  0.13554580  1
  Sr  Sr25  1  0.49384259  0.00849136  0.59056768  1
  Sr  Sr26  1  0.48924818  0.36617756  0.10255305  1
  Sr  Sr27  1  0.50272133  0.33457339  0.64210308  1
  Sr  Sr28  1  0.49395173  0.67664535  0.13931318  1
  Sr  Sr29  1  0.49697938  0.70747651  0.64121435  1
  Sr  Sr30  1  0.82139641  0.02982763  0.10867488  1
  Sr  Sr31  1  0.82300107  0.00016487  0.63392261  1
  Sr  Sr32  1  0.83008263  0.33511055  0.12781873  1
  Sr  Sr33  1  0.82960678  0.36889710  0.66668671  1
  Sr  Sr34  1  0.84267737  0.71612719  0.14875402  1
  Sr  Sr35  1  0.82750551  0.67762467  0.59491476  1
  Sr  Sr36  1  0.01387126  0.16272481  0.40338470  1
  Sr  Sr37  1  0.00027552  0.11991799  0.86004915  1
  Sr  Sr38  1  0.00465054  0.45808302  0.34515652  1
  Sr  Sr39  1  0.00284704  0.50630653  0.86845510  1
  Sr  Sr40  1  0.00014842  0.82625203  0.35867307  1
  Sr  Sr41  1  0.01094696  0.80689840  0.89003238  1
  Sr  Sr42  1  0.33294332  0.12921016  0.34663834  1
  Sr  Sr43  1  0.33598720  0.15288108  0.87140725  1
  Sr  Sr44  1  0.34515295  0.48174618  0.36374098  1
  Sr  Sr45  1  0.34754681  0.47361809  0.88401327  1
  Sr  Sr46  1  0.35227431  0.82279724  0.39926938  1
  Sr  Sr47  1  0.32770024  0.79943301  0.85797397  1
  Sr  Sr48  1  0.66854276  0.16921204  0.36468672  1
  Sr  Sr49  1  0.67025140  0.12425703  0.89653018  1
  Sr  Sr50  1  0.68012400  0.48968170  0.40072039  1
  Sr  Sr51  1  0.65333284  0.48462933  0.86517663  1
  Sr  Sr52  1  0.67233605  0.78292387  0.33546714  1
  Sr  Sr53  1  0.66835071  0.82437854  0.86475740  1
  Sr  Sr54  1  0.14659404  0.01939603  0.35450454  1
  Sr  Sr55  1  0.17196185  0.01358915  0.88092934  1
  Sr  Sr56  1  0.16265393  0.33452749  0.38416816  1
  Sr  Sr57  1  0.15787591  0.37433083  0.89423375  1
  Sr  Sr58  1  0.16374896  0.71696563  0.41145920  1
  Sr  Sr59  1  0.15947263  0.68034526  0.86528317  1
  Sr  Sr60  1  0.50240892  0.02187200  0.37394638  1
  Sr  Sr61  1  0.49092727  0.02702112  0.89605340  1
  Sr  Sr62  1  0.50562674  0.36837191  0.41334444  1
  Sr  Sr63  1  0.49689208  0.33930612  0.86404371  1
  Sr  Sr64  1  0.49077947  0.66845971  0.35639273  1
  Sr  Sr65  1  0.50298603  0.68908222  0.87947379  1
  Sr  Sr66  1  0.83127057  0.05153126  0.40826410  1
  Sr  Sr67  1  0.82372986  -0.00537593  0.85626968  1
  Sr  Sr68  1  0.81948989  0.34739590  0.34562740  1
  Sr  Sr69  1  0.83274872  0.38923686  0.89929276  1
  Sr  Sr70  1  0.83640706  0.66951212  0.37716452  1
  Sr  Sr71  1  0.82755293  0.69977314  0.89596791  1
  Ta  Ta72  1  0.17011330  0.20742613  -0.00059263  1
  Ta  Ta73  1  0.19925078  0.16583150  0.50023595  1
  Ta  Ta74  1  0.17268879  0.54118762  0.00805773  1
  Ta  Ta75  1  0.17189070  0.53623462  0.47908365  1
  Ta  Ta76  1  0.17671553  0.86232226  -0.00391958  1
  Ta  Ta77  1  0.16009404  0.89322067  0.52000711  1
  Ta  Ta78  1  0.49844436  0.20477383  0.00956380  1
  Ta  Ta79  1  0.49086188  0.19226415  0.49146619  1
  Ta  Ta80  1  0.50372144  0.53891103  0.00531229  1
  Ta  Ta81  1  0.49930599  0.54619414  0.51473724  1
  Ta  Ta82  1  0.49846740  0.86963669  0.00389261  1
  Ta  Ta83  1  0.54362016  0.83767223  0.49068301  1
  Ta  Ta84  1  0.83555191  0.20591582  -0.02420404  1
  Ta  Ta85  1  0.83093406  0.22668411  0.51047971  1
  Ta  Ta86  1  0.82894784  0.55551766  0.02625489  1
  Ta  Ta87  1  0.86383821  0.49486313  0.49502368  1
  Ta  Ta88  1  0.83854313  0.87105748  0.00697438  1
  Ta  Ta89  1  0.82613416  0.86489507  0.47958076  1
  Ta  Ta90  1  0.16319067  0.19589459  0.23977469  1
  Ta  Ta91  1  0.15880044  0.21585821  0.75820058  1
  Ta  Ta92  1  0.16528658  0.55422348  0.27312900  1
  Ta  Ta93  1  0.19854043  0.50858836  0.74126582  1
  Ta  Ta94  1  0.19949937  0.85418915  0.25380840  1
  Ta  Ta95  1  0.15808156  0.86426520  0.73282073  1
  Ta  Ta96  1  0.48911959  0.22614560  0.24445173  1
  Ta  Ta97  1  0.53086330  0.16447525  0.75610823  1
  Ta  Ta98  1  0.53542704  0.49970564  0.25526291  1
  Ta  Ta99  1  0.49278988  0.53789889  0.72791986  1
  Ta  Ta100  1  0.50156172  0.86760690  0.23995315  1
  Ta  Ta101  1  0.49447495  0.88070914  0.74540679  1
  Ta  Ta102  1  0.87193787  0.17727087  0.24646016  1
  Ta  Ta103  1  0.83373092  0.21204001  0.77964550  1
  Ta  Ta104  1  0.83507321  0.53017019  0.22603236  1
  Ta  Ta105  1  0.82580821  0.55201625  0.75368730  1
  Ta  Ta106  1  0.82505633  0.89500929  0.26802825  1
  Ta  Ta107  1  0.87182686  0.83160800  0.73447888  1
  Ta  Ta108  1  -0.03686103  0.00953755  0.25552235  1
  Ta  Ta109  1  0.00125205  -0.06109442  0.73081098  1
  Ta  Ta110  1  0.00169975  0.28239096  0.23725113  1
  Ta  Ta111  1  -0.00254041  0.30673531  0.77214964  1
  Ta  Ta112  1  0.00711802  0.63253133  0.25452357  1
  Ta  Ta113  1  -0.03020520  0.66295248  0.74643005  1
  Ta  Ta114  1  0.34067837  -0.04747915  0.25209252  1
  Ta  Ta115  1  0.34186852  -0.03313658  0.74707194  1
  Ta  Ta116  1  0.33754272  0.29786128  0.25738491  1
  Ta  Ta117  1  0.29754318  0.32014508  0.74595316  1
  Ta  Ta118  1  0.29953053  0.65435003  0.26247723  1
  Ta  Ta119  1  0.33688078  0.61454931  0.73454612  1
  Ta  Ta120  1  0.67010992  -0.03776502  0.26880534  1
  Ta  Ta121  1  0.62825041  -0.00969608  0.74448610  1
  Ta  Ta122  1  0.63156243  0.33340682  0.24528778  1
  Ta  Ta123  1  0.67464364  0.28154128  0.77257535  1
  Ta  Ta124  1  0.67900626  0.60524835  0.23568593  1
  Ta  Ta125  1  0.67599975  0.63793884  0.74965233  1
  Ta  Ta126  1  -0.00677982  -0.03666192  0.00041125  1
  Ta  Ta127  1  -0.00117220  -0.02946399  0.50942914  1
  Ta  Ta128  1  -0.00437338  0.29124472  -0.01787037  1
  Ta  Ta129  1  -0.04222704  0.33633889  0.51067678  1
  Ta  Ta130  1  -0.00285786  0.64082578  0.01512186  1
  Ta  Ta131  1  0.00742993  0.61311986  0.48406530  1
  Ta  Ta132  1  0.33686063  -0.04758970  0.00419381  1
  Ta  Ta133  1  0.29452337  0.00176562  0.50260684  1
  Ta  Ta134  1  0.32419098  0.29829346  0.00278957  1
  Ta  Ta135  1  0.33994805  0.27670243  0.49316977  1
  Ta  Ta136  1  0.32626707  0.63083970  0.00313475  1
  Ta  Ta137  1  0.33121550  0.62676173  0.51327645  1
  Ta  Ta138  1  0.65838360  -0.03767900  0.00137410  1
  Ta  Ta139  1  0.67396930  -0.05564316  0.47165949  1
  Ta  Ta140  1  0.66900741  0.28953989  -0.01431151  1
  Ta  Ta141  1  0.68401139  0.30864632  0.51620297  1
  Ta  Ta142  1  0.66440899  0.63121209  0.01742943  1
  Ta  Ta143  1  0.64020315  0.65926888  0.49331033  1
  N  N144  1  0.33024093  0.65191876  0.13643143  1
  N  N145  1  0.32552013  0.67646527  0.62745590  1
  N  N146  1  0.66356426  0.31644850  0.12221267  1
  N  N147  1  0.50409632  0.51219930  0.38264593  1
  N  N148  1  0.16982897  0.81532260  0.60707298  1
  N  N149  1  -0.00365852  -0.00808894  0.12644891  1
  N  N150  1  0.16093393  0.18694636  0.62827863  1
  N  N151  1  0.49365810  0.51257611  0.12823587  1
  N  N152  1  0.49772957  0.17323302  0.87675410  1
  N  N153  1  0.83861011  0.47495298  0.11142569  1
  N  N154  1  0.16946548  0.84152316  0.86073057  1
  N  N155  1  0.50251624  0.47744357  0.61503906  1
  N  N156  1  0.50568092  0.82267630  0.12320507  1
  N  N157  1  -0.00397812  0.65985993  0.88210114  1
  N  N158  1  0.83179315  0.86196042  0.13426341  1
  N  N159  1  0.66778779  0.31940806  0.64299805  1
  N  N160  1  -0.00145364  0.67832580  0.38230599  1
  N  N161  1  0.00098648  0.68392304  0.14288318  1
  N  N162  1  0.16848307  0.84536445  0.13033738  1
  N  N163  1  -0.00609878  0.36557584  0.88648151  1
  N  N164  1  -0.00672783  0.00145523  0.38774066  1
  N  N165  1  0.17008620  0.17033766  0.36953905  1
  N  N166  1  0.00050791  0.31710686  0.11413918  1
  N  N167  1  -0.00144239  0.64525798  0.61853260  1
  N  N168  1  -0.01162429  0.33214491  0.63840035  1
  N  N169  1  0.16933171  0.15716551  0.11069537  1
  N  N170  1  0.65993892  -0.02098620  0.87022845  1
  N  N171  1  0.66795221  0.64191250  0.36941635  1
  N  N172  1  0.66181895  0.34857031  0.87779166  1
  N  N173  1  0.49777302  0.16868074  0.13438153  1
  N  N174  1  0.83699933  0.83853971  0.60527321  1
  N  N175  1  0.50673394  0.85032251  0.61258397  1
  N  N176  1  0.32926776  0.30942486  0.61935828  1
  O  O177  1  0.50474220  0.17936616  0.62031395  1
  O  O178  1  0.15841207  0.15577672  0.87218648  1
  O  O179  1  0.66937486  -0.02417862  0.61701201  1
  O  O180  1  0.65940464  0.02914305  0.38448579  1
  O  O181  1  0.66544666  -0.01600448  0.13858266  1
  O  O182  1  0.18408104  0.47364711  0.36401724  1
  O  O183  1  0.82834514  0.54492916  0.88563962  1
  O  O184  1  0.50555490  0.81624176  0.36019158  1
  O  O185  1  0.34583145  -0.02507360  0.38569628  1
  O  O186  1  0.83645882  0.80867490  0.35301720  1
  O  O187  1  0.50702352  0.16597840  0.36415693  1
  O  O188  1  0.65542493  0.68118805  0.14441096  1
  O  O189  1  0.84791850  0.49232870  0.36227244  1
  O  O190  1  0.33826269  0.64619990  0.86952469  1
  O  O191  1  0.17679149  0.52138456  0.87155129  1
  O  O192  1  0.00171674  -0.02896673  0.85930668  1
  O  O193  1  0.66426547  0.32129292  0.37574405  1
  O  O194  1  0.32972102  -0.03075495  0.87269815  1
  O  O195  1  0.83412839  0.18239990  0.11512636  1
  O  O196  1  0.66837957  0.67077150  0.62758162  1
  O  O197  1  0.50025092  0.53147453  0.86262872  1
  O  O198  1  0.32272418  0.34274219  0.38149942  1
  O  O199  1  0.66509696  0.63687376  0.88689561  1
  O  O200  1  0.83159394  0.19801113  0.37182239  1
  O  O201  1  0.82879142  0.84394159  0.86171983  1
  O  O202  1  0.32399968  0.32432683  0.13437468  1
  O  O203  1  0.83557786  0.20756239  0.64429992  1
  O  O204  1  0.83925375  0.51745569  0.62010639  1
  O  O205  1  0.34038011  -0.01917828  0.12829516  1
  O  O206  1  0.00267998  0.31919906  0.38333235  1
  O  O207  1  0.17371467  0.50354985  0.61192777  1
  O  O208  1  0.16852123  0.51888424  0.13565269  1
  O  O209  1  0.50478541  0.83576078  0.87065172  1
  O  O210  1  0.33492780  0.00359910  0.62188879  1
  O  O211  1  0.84244545  0.13103543  0.87445142  1
  O  O212  1  -0.02011428  0.02104180  0.63113621  1
  O  O213  1  0.33650717  0.31230156  0.87214867  1
  O  O214  1  0.33539354  0.68032286  0.38918589  1
  O  O215  1  0.15837170  0.85852548  0.38211553  1
