# generated using pymatgen
data_Sr24Ta24N11O13
_symmetry_space_group_name_H-M   'P 1'
_cell_length_a   16.82884428
_cell_length_b   16.78504783
_cell_length_c   15.73288289
_cell_angle_alpha   89.96174659
_cell_angle_beta   90.27926451
_cell_angle_gamma   89.97506140
_symmetry_Int_Tables_number   1
_chemical_formula_structural   Sr24Ta24N11O13
_chemical_formula_sum   'Sr72 Ta72 N33 O39'
_cell_volume   4444.05973042
_cell_formula_units_Z   3
loop_
 _symmetry_equiv_pos_site_id
 _symmetry_equiv_pos_as_xyz
  1  'x, y, z'
loop_
 _atom_site_type_symbol
 _atom_site_label
 _atom_site_symmetry_multiplicity
 _atom_site_fract_x
 _atom_site_fract_y
 _atom_site_fract_z
 _atom_site_occupancy
  Sr  Sr0  1  0.00940773  0.15964425  0.14971030  1
  Sr  Sr1  1  0.02065142  0.14972880  0.63285303  1
  Sr  Sr2  1  0.01899885  0.50455197  0.16476128  1
  Sr  Sr3  1  -0.00458731  0.49903516  0.61702971  1
  Sr  Sr4  1  -0.01346944  0.82693883  0.08062905  1
  Sr  Sr5  1  0.01815024  0.83743704  0.63464781  1
  Sr  Sr6  1  0.34047166  0.17211292  0.11246116  1
  Sr  Sr7  1  0.35004649  0.15708626  0.64823271  1
  Sr  Sr8  1  0.34169669  0.50180117  0.10916922  1
  Sr  Sr9  1  0.34419673  0.50284091  0.63002014  1
  Sr  Sr10  1  0.33149225  0.83597512  0.13858065  1
  Sr  Sr11  1  0.33334942  0.83591434  0.58992107  1
  Sr  Sr12  1  0.67485462  0.16531671  0.11188700  1
  Sr  Sr13  1  0.68096511  0.18508805  0.59560908  1
  Sr  Sr14  1  0.66379657  0.51484345  0.11460814  1
  Sr  Sr15  1  0.67275443  0.50370493  0.66800207  1
  Sr  Sr16  1  0.67620152  0.84089070  0.17540315  1
  Sr  Sr17  1  0.65942980  0.82860711  0.61614442  1
  Sr  Sr18  1  0.14819041  -0.00223340  0.14090579  1
  Sr  Sr19  1  0.16743759  -0.00104899  0.61598759  1
  Sr  Sr20  1  0.14759210  0.32529868  0.12858770  1
  Sr  Sr21  1  0.16147258  0.35976109  0.57668811  1
  Sr  Sr22  1  0.16361357  0.67893523  0.13218604  1
  Sr  Sr23  1  0.15731609  0.65660552  0.66642322  1
  Sr  Sr24  1  0.47955129  0.00466308  0.10785287  1
  Sr  Sr25  1  0.49649604  0.00049952  0.66193416  1
  Sr  Sr26  1  0.50845965  0.34235684  0.16880260  1
  Sr  Sr27  1  0.49149393  0.32213306  0.60888483  1
  Sr  Sr28  1  0.48827257  0.65202792  0.08256626  1
  Sr  Sr29  1  0.50181864  0.66027840  0.63750831  1
  Sr  Sr30  1  0.82973949  0.00932383  0.12723776  1
  Sr  Sr31  1  0.79874838  -0.00452482  0.60559817  1
  Sr  Sr32  1  0.80482736  0.33507514  0.07396314  1
  Sr  Sr33  1  0.83587430  0.34297389  0.63888865  1
  Sr  Sr34  1  0.83194905  0.66100256  0.13627737  1
  Sr  Sr35  1  0.85081365  0.67665679  0.57817101  1
  Sr  Sr36  1  0.02029109  0.14730212  0.36142956  1
  Sr  Sr37  1  0.00878248  0.17305715  0.85186302  1
  Sr  Sr38  1  -0.01468478  0.50459818  0.38405797  1
  Sr  Sr39  1  0.01312475  0.49552238  0.84863920  1
  Sr  Sr40  1  0.00415450  0.83398155  0.40924213  1
  Sr  Sr41  1  0.00883109  0.83607230  0.86984030  1
  Sr  Sr42  1  0.35320894  0.17042055  0.36970378  1
  Sr  Sr43  1  0.32833820  0.15826943  0.87623147  1
  Sr  Sr44  1  0.35508360  0.49434493  0.40159441  1
  Sr  Sr45  1  0.33541755  0.51051266  0.86860554  1
  Sr  Sr46  1  0.31897292  0.83523405  0.36624540  1
  Sr  Sr47  1  0.35501033  0.83540599  0.91601067  1
  Sr  Sr48  1  0.67435178  0.17705303  0.38360995  1
  Sr  Sr49  1  0.68461742  0.16789411  0.90116544  1
  Sr  Sr50  1  0.66678529  0.49724657  0.33849250  1
  Sr  Sr51  1  0.67652552  0.51294073  0.88996314  1
  Sr  Sr52  1  0.66989055  0.82941564  0.38626986  1
  Sr  Sr53  1  0.65018981  0.84539800  0.82876042  1
  Sr  Sr54  1  0.16629580  -0.00667885  0.39515209  1
  Sr  Sr55  1  0.14615458  0.00651371  0.83935194  1
  Sr  Sr56  1  0.14020410  0.33235478  0.36277869  1
  Sr  Sr57  1  0.18034709  0.33213056  0.92091659  1
  Sr  Sr58  1  0.17474617  0.66175967  0.34015795  1
  Sr  Sr59  1  0.15290933  0.67446868  0.86768004  1
  Sr  Sr60  1  0.48140900  -0.02632314  0.33491478  1
  Sr  Sr61  1  0.48816352  0.01389638  0.88582073  1
  Sr  Sr62  1  0.50790052  0.33433185  0.37889199  1
  Sr  Sr63  1  0.46324045  0.31724602  0.82876512  1
  Sr  Sr64  1  0.48680893  0.67175544  0.42398077  1
  Sr  Sr65  1  0.50448975  0.65799689  0.86772044  1
  Sr  Sr66  1  0.81013724  0.00908832  0.35778053  1
  Sr  Sr67  1  0.81848347  -0.00701600  0.89348665  1
  Sr  Sr68  1  0.82557035  0.32967129  0.41264881  1
  Sr  Sr69  1  0.82937412  0.34427663  0.85459422  1
  Sr  Sr70  1  0.83104153  0.66570060  0.36441807  1
  Sr  Sr71  1  0.84056871  0.67559702  0.91497417  1
  Ta  Ta72  1  0.15429159  0.13827520  -0.00191258  1
  Ta  Ta73  1  0.19364558  0.18019086  0.50289540  1
  Ta  Ta74  1  0.15827275  0.52242491  -0.00254236  1
  Ta  Ta75  1  0.17271750  0.54196417  0.50237107  1
  Ta  Ta76  1  0.17891744  0.84839030  -0.00639178  1
  Ta  Ta77  1  0.16765193  0.78586749  0.49933979  1
  Ta  Ta78  1  0.50336588  0.21180669  -0.00115916  1
  Ta  Ta79  1  0.50210194  0.12945907  0.50142348  1
  Ta  Ta80  1  0.50096881  0.45693437  -0.00539428  1
  Ta  Ta81  1  0.54246414  0.49665377  0.50499824  1
  Ta  Ta82  1  0.54055791  0.83182957  0.00510648  1
  Ta  Ta83  1  0.49648415  0.87561965  0.49990489  1
  Ta  Ta84  1  0.88141666  0.17018949  -0.00119570  1
  Ta  Ta85  1  0.86864006  0.15877687  0.49742333  1
  Ta  Ta86  1  0.88708085  0.49450955  -0.00090663  1
  Ta  Ta87  1  0.79237189  0.50207274  0.50532143  1
  Ta  Ta88  1  0.78391662  0.83723717  0.00827099  1
  Ta  Ta89  1  0.84393931  0.85366483  0.49155950  1
  Ta  Ta90  1  0.19919405  0.16472924  0.25072218  1
  Ta  Ta91  1  0.17749022  0.20311027  0.74316232  1
  Ta  Ta92  1  0.20946775  0.48754607  0.25263272  1
  Ta  Ta93  1  0.17380823  0.46542131  0.74805842  1
  Ta  Ta94  1  0.12600837  0.83782327  0.25424113  1
  Ta  Ta95  1  0.21550715  0.83530051  0.75355661  1
  Ta  Ta96  1  0.51719019  0.15204051  0.24598698  1
  Ta  Ta97  1  0.55178027  0.16907113  0.74656847  1
  Ta  Ta98  1  0.49318762  0.53572824  0.25210310  1
  Ta  Ta99  1  0.51256915  0.47547237  0.75363582  1
  Ta  Ta100  1  0.49438965  0.78017942  0.25145282  1
  Ta  Ta101  1  0.45333082  0.83127503  0.75005963  1
  Ta  Ta102  1  0.83161395  0.20799928  0.24102319  1
  Ta  Ta103  1  0.82630432  0.14031021  0.74780514  1
  Ta  Ta104  1  0.83647736  0.44805285  0.24718716  1
  Ta  Ta105  1  0.84132164  0.54696248  0.74710513  1
  Ta  Ta106  1  0.86974387  0.83742895  0.24939160  1
  Ta  Ta107  1  0.84103201  0.81798557  0.74941506  1
  Ta  Ta108  1  -0.00878023  -0.04463160  0.24779083  1
  Ta  Ta109  1  -0.05428949  -0.00255161  0.74289034  1
  Ta  Ta110  1  -0.04926642  0.32743508  0.24779863  1
  Ta  Ta111  1  0.06637377  0.33130599  0.74564128  1
  Ta  Ta112  1  -0.00164580  0.70645212  0.25437612  1
  Ta  Ta113  1  -0.04198311  0.67458189  0.74546484  1
  Ta  Ta114  1  0.31084349  0.01946442  0.25297327  1
  Ta  Ta115  1  0.32658644  -0.03725715  0.75210837  1
  Ta  Ta116  1  0.31351485  0.34217040  0.24979290  1
  Ta  Ta117  1  0.28154703  0.33586136  0.74258701  1
  Ta  Ta118  1  0.36112783  0.65518627  0.25853397  1
  Ta  Ta119  1  0.33652326  0.70533554  0.75167075  1
  Ta  Ta120  1  0.63850686  0.02536891  0.25279561  1
  Ta  Ta121  1  0.67016135  0.03731819  0.74541441  1
  Ta  Ta122  1  0.71002949  0.32845279  0.24500190  1
  Ta  Ta123  1  0.64431511  0.32308942  0.75150865  1
  Ta  Ta124  1  0.61690129  0.67027080  0.25354706  1
  Ta  Ta125  1  0.73285933  0.67722509  0.74773151  1
  Ta  Ta126  1  -0.00015123  0.02183217  -0.00015535  1
  Ta  Ta127  1  -0.03847924  0.00382807  0.50087467  1
  Ta  Ta128  1  -0.01286290  0.33429032  -0.00545336  1
  Ta  Ta129  1  -0.00864904  0.29328520  0.50310800  1
  Ta  Ta130  1  0.00858752  0.63054681  0.00838095  1
  Ta  Ta131  1  0.03878372  0.66546693  0.49813233  1
  Ta  Ta132  1  0.28230156  -0.00227755  -0.00577089  1
  Ta  Ta133  1  0.36354352  0.01102361  0.50222784  1
  Ta  Ta134  1  0.37948930  0.33452483  0.00000119  1
  Ta  Ta135  1  0.32099134  0.30845174  0.50515886  1
  Ta  Ta136  1  0.30000649  0.67002238  -0.00472176  1
  Ta  Ta137  1  0.29618484  0.66390594  0.50802916  1
  Ta  Ta138  1  0.65425439  -0.04756116  0.00293443  1
  Ta  Ta139  1  0.61634583  0.00034805  0.49664070  1
  Ta  Ta140  1  0.61511054  0.33753448  -0.00975250  1
  Ta  Ta141  1  0.66525067  0.38105446  0.51001994  1
  Ta  Ta142  1  0.66314956  0.71933968  0.00019940  1
  Ta  Ta143  1  0.67095126  0.62126774  0.50378236  1
  N  N144  1  -0.00099553  0.66870922  0.62945688  1
  N  N145  1  -0.00122834  0.66618066  0.12595057  1
  N  N146  1  0.50418295  0.49839331  0.12978098  1
  N  N147  1  -0.01461666  -0.00707131  0.62683441  1
  N  N148  1  0.32706786  0.00187332  0.37283297  1
  N  N149  1  0.32477950  0.00182318  0.87895715  1
  N  N150  1  0.33586834  0.66677855  0.62682212  1
  N  N151  1  0.33100602  0.33317605  0.62448081  1
  N  N152  1  0.00004228  0.66743290  0.37681805  1
  N  N153  1  0.33234399  -0.00282382  0.62337871  1
  N  N154  1  0.82954987  0.83215590  0.12372471  1
  N  N155  1  0.16838960  0.50817490  0.62186244  1
  N  N156  1  0.33584785  0.66819425  0.87908606  1
  N  N157  1  0.50363635  0.50028925  0.62965570  1
  N  N158  1  0.50893059  0.49987367  0.37623568  1
  N  N159  1  0.16913177  0.17097850  0.87832649  1
  N  N160  1  0.16758247  0.16904251  0.12479300  1
  N  N161  1  0.51568807  0.16333305  0.62248663  1
  N  N162  1  0.17172619  0.16619381  0.37691963  1
  N  N163  1  0.16235285  0.82450638  0.37640652  1
  N  N164  1  0.65229708  0.00541578  0.62808517  1
  N  N165  1  0.83432869  0.50700334  0.62621682  1
  N  N166  1  -0.00935362  -0.00645627  0.11982665  1
  N  N167  1  0.67054950  0.34006248  0.63304647  1
  N  N168  1  0.33657638  0.66439335  0.37891596  1
  N  N169  1  0.17589483  0.15403011  0.62898172  1
  N  N170  1  0.82693408  0.83439000  0.37253629  1
  N  N171  1  0.16591773  0.83556026  0.87182692  1
  N  N172  1  0.65541433  -0.00126754  0.37292813  1
  N  N173  1  0.16986604  0.50113694  0.87825541  1
  N  N174  1  0.50622049  0.17301382  0.12502362  1
  N  N175  1  0.84054514  0.17770103  0.11527090  1
  N  N176  1  0.50432149  0.50463374  0.87960080  1
  O  O177  1  0.85992964  0.50483495  0.87438629  1
  O  O178  1  0.84051195  0.17227738  0.37325587  1
  O  O179  1  -0.02018769  0.31470958  0.37823572  1
  O  O180  1  0.02301963  0.33257888  0.87368782  1
  O  O181  1  0.32567964  0.33362992  0.88102665  1
  O  O182  1  0.51814741  0.16997511  0.87509016  1
  O  O183  1  0.01588224  0.31350811  0.62476044  1
  O  O184  1  0.67684301  0.33680603  0.88092222  1
  O  O185  1  0.33943388  0.33793073  0.12372398  1
  O  O186  1  0.32329961  0.33293448  0.37332064  1
  O  O187  1  0.51328083  0.17675562  0.37922732  1
  O  O188  1  0.83733353  0.83417972  0.62434015  1
  O  O189  1  0.82640201  0.83376932  0.87853189  1
  O  O190  1  0.64651527  -0.00804257  0.12546672  1
  O  O191  1  0.66263595  -0.00722405  0.87695881  1
  O  O192  1  0.68941454  0.69587663  0.86697670  1
  O  O193  1  0.83685660  0.16154437  0.87475978  1
  O  O194  1  0.64338033  0.68351363  0.12865913  1
  O  O195  1  -0.00620578  -0.00597738  0.37286414  1
  O  O196  1  0.49410624  0.83857008  0.62527507  1
  O  O197  1  -0.01587314  0.33156232  0.12021331  1
  O  O198  1  0.33359840  0.66748037  0.12087599  1
  O  O199  1  0.17712651  0.82557124  0.62642763  1
  O  O200  1  0.32185203  -0.00234669  0.11903063  1
  O  O201  1  0.82570567  0.48002361  0.37658052  1
  O  O202  1  -0.00793037  0.67616675  0.88420154  1
  O  O203  1  0.15981420  0.83657388  0.12900779  1
  O  O204  1  -0.02373886  -0.00817874  0.86981695  1
  O  O205  1  0.19484198  0.49930583  0.37636610  1
  O  O206  1  0.83820712  0.15880060  0.62458574  1
  O  O207  1  0.68990790  0.67097236  0.62417892  1
  O  O208  1  0.65995474  0.33101103  0.12466769  1
  O  O209  1  0.18186546  0.49809796  0.12899196  1
  O  O210  1  0.49160321  0.82553008  0.38044807  1
  O  O211  1  0.49610916  0.81538004  0.12781486  1
  O  O212  1  0.50086129  0.83341821  0.87134203  1
  O  O213  1  0.64661043  0.65535050  0.37999097  1
  O  O214  1  0.86206946  0.47943149  0.12085036  1
  O  O215  1  0.67417375  0.33986092  0.36944010  1
