# generated using pymatgen
data_Sr24Ta24N11O13
_symmetry_space_group_name_H-M   'P 1'
_cell_length_a   16.87329443
_cell_length_b   16.71807695
_cell_length_c   15.72433193
_cell_angle_alpha   90.21398279
_cell_angle_beta   90.24023593
_cell_angle_gamma   89.82505070
_symmetry_Int_Tables_number   1
_chemical_formula_structural   Sr24Ta24N11O13
_chemical_formula_sum   'Sr72 Ta72 N33 O39'
_cell_volume   4435.57122309
_cell_formula_units_Z   3
loop_
 _symmetry_equiv_pos_site_id
 _symmetry_equiv_pos_as_xyz
  1  'x, y, z'
loop_
 _atom_site_type_symbol
 _atom_site_label
 _atom_site_symmetry_multiplicity
 _atom_site_fract_x
 _atom_site_fract_y
 _atom_site_fract_z
 _atom_site_occupancy
  Sr  Sr0  1  -0.00093964  0.16944934  0.12502238  1
  Sr  Sr1  1  -0.02321518  0.16085821  0.60307959  1
  Sr  Sr2  1  -0.02785449  0.49542501  0.10934240  1
  Sr  Sr3  1  -0.02199186  0.50701652  0.61179652  1
  Sr  Sr4  1  -0.00284158  0.83115619  0.11614085  1
  Sr  Sr5  1  0.01180208  0.84036178  0.66882352  1
  Sr  Sr6  1  0.31448251  0.16086084  0.14268519  1
  Sr  Sr7  1  0.32017090  0.14656661  0.63916050  1
  Sr  Sr8  1  0.31855579  0.48732145  0.10447591  1
  Sr  Sr9  1  0.32169618  0.51069950  0.62758869  1
  Sr  Sr10  1  0.34102454  0.83379362  0.14132209  1
  Sr  Sr11  1  0.30243211  0.83034626  0.57671421  1
  Sr  Sr12  1  0.66698583  0.16300122  0.13537100  1
  Sr  Sr13  1  0.63427316  0.18757895  0.58844548  1
  Sr  Sr14  1  0.66264373  0.51649802  0.16217770  1
  Sr  Sr15  1  0.65272997  0.49351485  0.64083920  1
  Sr  Sr16  1  0.66568472  0.81952636  0.07576710  1
  Sr  Sr17  1  0.65890255  0.84185670  0.63744102  1
  Sr  Sr18  1  0.16181958  -0.01339840  0.08367432  1
  Sr  Sr19  1  0.16827217  -0.00053919  0.62344039  1
  Sr  Sr20  1  0.17795974  0.33143680  0.13767980  1
  Sr  Sr21  1  0.20087456  0.33103352  0.64967636  1
  Sr  Sr22  1  0.18979461  0.66306078  0.15236364  1
  Sr  Sr23  1  0.16080883  0.65198540  0.62002715  1
  Sr  Sr24  1  0.50601817  0.00245088  0.13052924  1
  Sr  Sr25  1  0.50473556  0.00390586  0.63862322  1
  Sr  Sr26  1  0.52285536  0.34151755  0.12522494  1
  Sr  Sr27  1  0.50853974  0.34534472  0.59733790  1
  Sr  Sr28  1  0.50649766  0.67565965  0.12230540  1
  Sr  Sr29  1  0.51985469  0.66863728  0.65453190  1
  Sr  Sr30  1  0.84739517  0.01303765  0.16782200  1
  Sr  Sr31  1  0.83849559  -0.01275950  0.62260092  1
  Sr  Sr32  1  0.84598391  0.31651489  0.08215769  1
  Sr  Sr33  1  0.84130780  0.34035022  0.64305416  1
  Sr  Sr34  1  0.83938197  0.66915479  0.13515169  1
  Sr  Sr35  1  0.82975978  0.67571247  0.58812873  1
  Sr  Sr36  1  -0.00580936  0.15647511  0.37848695  1
  Sr  Sr37  1  -0.02290646  0.17383419  0.88470830  1
  Sr  Sr38  1  -0.01737101  0.50251054  0.39376086  1
  Sr  Sr39  1  -0.02695792  0.49617137  0.88249185  1
  Sr  Sr40  1  -0.01441268  0.82447057  0.32642898  1
  Sr  Sr41  1  0.00573508  0.83340277  0.88245862  1
  Sr  Sr42  1  0.31818907  0.15853370  0.36184188  1
  Sr  Sr43  1  0.32383088  0.15408631  0.84998840  1
  Sr  Sr44  1  0.32118862  0.48683623  0.39604384  1
  Sr  Sr45  1  0.32093177  0.51293898  0.87524227  1
  Sr  Sr46  1  0.33251146  0.82580711  0.36255689  1
  Sr  Sr47  1  0.32075509  0.84643847  0.90689893  1
  Sr  Sr48  1  0.65316877  0.17091070  0.35909531  1
  Sr  Sr49  1  0.65289773  0.18797561  0.92126793  1
  Sr  Sr50  1  0.64979152  0.50190014  0.35941275  1
  Sr  Sr51  1  0.66047305  0.49646666  0.84009475  1
  Sr  Sr52  1  0.69004099  0.83020623  0.42436150  1
  Sr  Sr53  1  0.65896425  0.84042206  0.86388126  1
  Sr  Sr54  1  0.17589722  0.00177054  0.41233564  1
  Sr  Sr55  1  0.16736529  -0.00099935  0.87298101  1
  Sr  Sr56  1  0.17902579  0.32318333  0.34173235  1
  Sr  Sr57  1  0.19743485  0.33906158  0.87162501  1
  Sr  Sr58  1  0.18501245  0.66525643  0.38415604  1
  Sr  Sr59  1  0.16914714  0.65401021  0.84791563  1
  Sr  Sr60  1  0.50122312  0.00243129  0.35522915  1
  Sr  Sr61  1  0.51220174  0.00739552  0.87180725  1
  Sr  Sr62  1  0.51678156  0.33965497  0.38411749  1
  Sr  Sr63  1  0.51077888  0.33640448  0.89724518  1
  Sr  Sr64  1  0.51557064  0.67592389  0.35674365  1
  Sr  Sr65  1  0.50730553  0.67278570  0.87319494  1
  Sr  Sr66  1  0.84261322  0.00200002  0.37554811  1
  Sr  Sr67  1  0.83299817  -0.01111602  0.83339663  1
  Sr  Sr68  1  0.86341295  0.32687835  0.41696118  1
  Sr  Sr69  1  0.83034530  0.33532356  0.86805690  1
  Sr  Sr70  1  0.83270221  0.65564336  0.36495550  1
  Sr  Sr71  1  0.84671902  0.68687060  0.92678773  1
  Ta  Ta72  1  0.16826853  0.18194242  0.00213194  1
  Ta  Ta73  1  0.16549391  0.19794402  0.49509186  1
  Ta  Ta74  1  0.13868104  0.50298914  -0.00056072  1
  Ta  Ta75  1  0.15088372  0.45867949  0.50454445  1
  Ta  Ta76  1  0.16877787  0.78800929  0.00692122  1
  Ta  Ta77  1  0.11211042  0.82820648  0.48927805  1
  Ta  Ta78  1  0.45988069  0.16516476  0.00181240  1
  Ta  Ta79  1  0.46210890  0.15694702  0.49720626  1
  Ta  Ta80  1  0.52943348  0.50919241  0.00177838  1
  Ta  Ta81  1  0.50026395  0.53393249  0.49974300  1
  Ta  Ta82  1  0.47948515  0.84257641  -0.00244196  1
  Ta  Ta83  1  0.49019589  0.83402631  0.50021712  1
  Ta  Ta84  1  0.82517677  0.11927889  -0.00282115  1
  Ta  Ta85  1  0.79749647  0.15752543  0.49825636  1
  Ta  Ta86  1  0.79258944  0.50404322  0.00139935  1
  Ta  Ta87  1  0.78732264  0.49835261  0.50085067  1
  Ta  Ta88  1  0.83396783  0.88323998  0.00144203  1
  Ta  Ta89  1  0.89338440  0.83210225  0.49860787  1
  Ta  Ta90  1  0.15430548  0.12219412  0.24909748  1
  Ta  Ta91  1  0.12822876  0.16699777  0.74800709  1
  Ta  Ta92  1  0.12687816  0.50120614  0.24550029  1
  Ta  Ta93  1  0.12191878  0.48354760  0.75183151  1
  Ta  Ta94  1  0.16342305  0.86294030  0.25145991  1
  Ta  Ta95  1  0.20272036  0.82892947  0.74913965  1
  Ta  Ta96  1  0.48071879  0.18697931  0.24264385  1
  Ta  Ta97  1  0.51069997  0.18917219  0.75589564  1
  Ta  Ta98  1  0.46492375  0.49909633  0.25625005  1
  Ta  Ta99  1  0.47706540  0.47782134  0.74840356  1
  Ta  Ta100  1  0.55049414  0.83720340  0.24601882  1
  Ta  Ta101  1  0.45372060  0.83827615  0.75307589  1
  Ta  Ta102  1  0.83395535  0.21368342  0.25595300  1
  Ta  Ta103  1  0.79424808  0.16943220  0.75384689  1
  Ta  Ta104  1  0.83625968  0.44583384  0.25312188  1
  Ta  Ta105  1  0.82996127  0.56387199  0.75263599  1
  Ta  Ta106  1  0.79438943  0.83465945  0.24278609  1
  Ta  Ta107  1  0.83805190  0.78932103  0.75851076  1
  Ta  Ta108  1  0.04052304  -0.00145579  0.24969194  1
  Ta  Ta109  1  0.01189460  0.02886924  0.74529326  1
  Ta  Ta110  1  -0.01762928  0.34388683  0.24524487  1
  Ta  Ta111  1  0.02893036  0.32339634  0.74919505  1
  Ta  Ta112  1  0.01816227  0.64075222  0.24710312  1
  Ta  Ta113  1  -0.02782188  0.65835583  0.75803462  1
  Ta  Ta114  1  0.29252634  -0.00529228  0.24908571  1
  Ta  Ta115  1  0.33095025  -0.04539062  0.74173637  1
  Ta  Ta116  1  0.36959975  0.33477554  0.24898770  1
  Ta  Ta117  1  0.37862379  0.33378376  0.75117548  1
  Ta  Ta118  1  0.35667400  0.63043905  0.25671132  1
  Ta  Ta119  1  0.33705886  0.71321850  0.74913327  1
  Ta  Ta120  1  0.67392536  -0.04927206  0.24930655  1
  Ta  Ta121  1  0.66474467  0.07434089  0.75088345  1
  Ta  Ta122  1  0.71182979  0.33328588  0.25571778  1
  Ta  Ta123  1  0.65742883  0.30024798  0.75014857  1
  Ta  Ta124  1  0.67401630  0.71626526  0.25232560  1
  Ta  Ta125  1  0.70856602  0.67521248  0.75844556  1
  Ta  Ta126  1  -0.03396385  0.00477042  0.00360144  1
  Ta  Ta127  1  0.00227485  -0.03867119  0.49424311  1
  Ta  Ta128  1  0.04163986  0.33556164  0.00060572  1
  Ta  Ta129  1  0.04621769  0.32663374  0.50061605  1
  Ta  Ta130  1  0.04336107  0.65861598  -0.00029148  1
  Ta  Ta131  1  0.00432992  0.70310029  0.49839388  1
  Ta  Ta132  1  0.35040238  0.01602952  0.00413584  1
  Ta  Ta133  1  0.36485803  0.00113158  0.49408898  1
  Ta  Ta134  1  0.34279369  0.29565418  0.00724523  1
  Ta  Ta135  1  0.32973653  0.30301376  0.49458909  1
  Ta  Ta136  1  0.33257986  0.68124297  -0.00318267  1
  Ta  Ta137  1  0.38271853  0.66901632  0.49891206  1
  Ta  Ta138  1  0.70197475  0.00420990  -0.00216193  1
  Ta  Ta139  1  0.67196309  0.02113448  0.50007872  1
  Ta  Ta140  1  0.67314099  0.38491844  -0.00119998  1
  Ta  Ta141  1  0.69526982  0.35488869  0.49922002  1
  Ta  Ta142  1  0.66765636  0.62459946  -0.00415956  1
  Ta  Ta143  1  0.65699812  0.64140209  0.49750232  1
  N  N144  1  0.16148104  0.49564708  0.86952594  1
  N  N145  1  0.00299151  0.66629757  0.87996904  1
  N  N146  1  0.16060442  0.16437454  0.37655316  1
  N  N147  1  0.16218293  0.49297189  0.12860032  1
  N  N148  1  0.83036362  0.83939129  0.11926634  1
  N  N149  1  0.33426305  0.33170317  0.12421472  1
  N  N150  1  0.15247045  0.49400629  0.62422940  1
  N  N151  1  0.82045565  0.16440976  0.87846837  1
  N  N152  1  0.49469400  0.49493441  0.37948902  1
  N  N153  1  0.33193258  -0.01334897  0.61956142  1
  N  N154  1  0.49323395  0.50043884  0.62960861  1
  N  N155  1  0.15866387  0.15964587  0.12116553  1
  N  N156  1  0.17049110  0.82162331  0.12512874  1
  N  N157  1  0.15962727  0.82529224  0.37326777  1
  N  N158  1  0.33634919  0.32770511  0.37579191  1
  N  N159  1  0.00020206  0.00050757  0.62568010  1
  N  N160  1  0.49140309  0.16853885  0.87830761  1
  N  N161  1  0.00355652  0.33250253  0.12181302  1
  N  N162  1  0.67333938  0.33249552  0.37624179  1
  N  N163  1  0.34387669  0.66540801  0.37714486  1
  N  N164  1  0.83765552  0.83498265  0.87375809  1
  N  N165  1  0.67064984  0.33503856  0.63187030  1
  N  N166  1  0.67333078  0.67187110  0.88170696  1
  N  N167  1  -0.00114172  -0.00329463  0.12246869  1
  N  N168  1  0.00132800  -0.00383641  0.37235391  1
  N  N169  1  0.33005430  -0.00323537  0.12224114  1
  N  N170  1  0.67027651  0.34133446  0.87989181  1
  N  N171  1  0.33699114  0.67431816  0.87401879  1
  N  N172  1  0.33266947  -0.00889391  0.37053362  1
  N  N173  1  0.82597763  0.17375238  0.37659716  1
  N  N174  1  0.67460486  0.67609592  0.38043777  1
  N  N175  1  0.49990022  0.83859328  0.87091971  1
  N  N176  1  0.51218188  0.83805655  0.12277228  1
  O  O177  1  0.01355426  0.32038283  0.62612695  1
  O  O178  1  0.84103388  0.83194616  0.37917367  1
  O  O179  1  0.15650210  0.16321444  0.62273951  1
  O  O180  1  0.82453109  0.18152157  0.62035291  1
  O  O181  1  0.48090593  0.16513278  0.36686723  1
  O  O182  1  0.49913180  0.83919458  0.62624263  1
  O  O183  1  0.15782562  0.83106814  0.62600769  1
  O  O184  1  0.82166752  0.52382320  0.62722273  1
  O  O185  1  -0.00058835  0.66606467  0.62278710  1
  O  O186  1  0.65827081  0.03042719  0.62698127  1
  O  O187  1  0.81757836  0.51496040  0.87354944  1
  O  O188  1  0.51220379  0.84019752  0.37718285  1
  O  O189  1  0.86083572  0.82583278  0.62528373  1
  O  O190  1  0.51621056  0.18107015  0.12103064  1
  O  O191  1  0.00707463  0.65793874  0.37367951  1
  O  O192  1  0.67162878  -0.01463601  0.38082372  1
  O  O193  1  0.01703221  0.33099153  0.37524853  1
  O  O194  1  0.50917475  0.50208265  0.12715521  1
  O  O195  1  0.81661556  0.48938349  0.13010468  1
  O  O196  1  0.82838233  0.49323265  0.37306852  1
  O  O197  1  0.35372744  0.32477591  0.87663295  1
  O  O198  1  0.35523414  0.32429977  0.62638151  1
  O  O199  1  0.82391998  0.16847901  0.13078433  1
  O  O200  1  -0.00418862  0.65518413  0.12423138  1
  O  O201  1  -0.00749238  0.01201688  0.87121805  1
  O  O202  1  0.67110022  0.02419128  0.87216675  1
  O  O203  1  0.67127061  0.67004989  0.12539569  1
  O  O204  1  0.15124399  0.16213250  0.87110344  1
  O  O205  1  0.16868279  0.81880771  0.87233963  1
  O  O206  1  0.48072226  0.16412302  0.62310439  1
  O  O207  1  0.67955380  -0.01300531  0.12191750  1
  O  O208  1  0.00885702  0.32842863  0.87806430  1
  O  O209  1  0.50254456  0.50493559  0.87777974  1
  O  O210  1  0.34614127  0.65975980  0.13134293  1
  O  O211  1  0.67351844  0.68343777  0.61982401  1
  O  O212  1  0.14424071  0.48479201  0.37573524  1
  O  O213  1  0.32518493  0.00059078  0.86991585  1
  O  O214  1  0.34888854  0.67558052  0.62420322  1
  O  O215  1  0.67672726  0.33947114  0.12020661  1
