# generated using pymatgen
data_Sr24Ta24N11O13
_symmetry_space_group_name_H-M   'P 1'
_cell_length_a   16.95501954
_cell_length_b   16.68325969
_cell_length_c   15.68032556
_cell_angle_alpha   89.55670075
_cell_angle_beta   89.78719806
_cell_angle_gamma   89.71455437
_symmetry_Int_Tables_number   1
_chemical_formula_structural   Sr24Ta24N11O13
_chemical_formula_sum   'Sr72 Ta72 N33 O39'
_cell_volume   4435.19743839
_cell_formula_units_Z   3
loop_
 _symmetry_equiv_pos_site_id
 _symmetry_equiv_pos_as_xyz
  1  'x, y, z'
loop_
 _atom_site_type_symbol
 _atom_site_label
 _atom_site_symmetry_multiplicity
 _atom_site_fract_x
 _atom_site_fract_y
 _atom_site_fract_z
 _atom_site_occupancy
  Sr  Sr0  1  0.02085584  0.17112002  0.12923909  1
  Sr  Sr1  1  0.00155461  0.14981997  0.66163721  1
  Sr  Sr2  1  0.02396500  0.49517408  0.09812510  1
  Sr  Sr3  1  0.00540115  0.50670086  0.63664805  1
  Sr  Sr4  1  0.01602486  0.81881205  0.13897177  1
  Sr  Sr5  1  -0.00466701  0.83784989  0.58748696  1
  Sr  Sr6  1  0.34903293  0.15465785  0.17257456  1
  Sr  Sr7  1  0.33814710  0.18204572  0.60060087  1
  Sr  Sr8  1  0.33409456  0.50906169  0.11968424  1
  Sr  Sr9  1  0.34972426  0.50718018  0.65835610  1
  Sr  Sr10  1  0.34924076  0.85187345  0.07090466  1
  Sr  Sr11  1  0.31299562  0.82595611  0.63507092  1
  Sr  Sr12  1  0.68461377  0.17378676  0.11519805  1
  Sr  Sr13  1  0.69981013  0.16864827  0.60236771  1
  Sr  Sr14  1  0.70404166  0.49378006  0.11845243  1
  Sr  Sr15  1  0.66236690  0.49284877  0.62342530  1
  Sr  Sr16  1  0.65240017  0.83238327  0.16831578  1
  Sr  Sr17  1  0.67388567  0.83720104  0.61879258  1
  Sr  Sr18  1  0.16655520  -0.01375424  0.11237086  1
  Sr  Sr19  1  0.14843781  0.00536828  0.64936584  1
  Sr  Sr20  1  0.16500943  0.35289352  0.08739081  1
  Sr  Sr21  1  0.13619288  0.32785802  0.62641993  1
  Sr  Sr22  1  0.17503489  0.65922891  0.15974376  1
  Sr  Sr23  1  0.14634431  0.67732662  0.60393790  1
  Sr  Sr24  1  0.50201624  0.00725670  0.12446926  1
  Sr  Sr25  1  0.46478778  0.00705832  0.63966902  1
  Sr  Sr26  1  0.46504094  0.33473442  0.14383140  1
  Sr  Sr27  1  0.48819886  0.33814069  0.64103600  1
  Sr  Sr28  1  0.49358794  0.66644415  0.12890490  1
  Sr  Sr29  1  0.51869641  0.67225381  0.57479970  1
  Sr  Sr30  1  0.81390658  -0.00075200  0.09475095  1
  Sr  Sr31  1  0.82976015  -0.00306908  0.63069340  1
  Sr  Sr32  1  0.83387992  0.32017664  0.14953903  1
  Sr  Sr33  1  0.81079204  0.34357106  0.58935437  1
  Sr  Sr34  1  0.85560158  0.66280410  0.11411110  1
  Sr  Sr35  1  0.81865561  0.65233278  0.67670074  1
  Sr  Sr36  1  0.00539528  0.16335025  0.34098975  1
  Sr  Sr37  1  0.01967704  0.15997952  0.86825656  1
  Sr  Sr38  1  0.01878018  0.48585593  0.41680787  1
  Sr  Sr39  1  0.01402320  0.51120048  0.85722418  1
  Sr  Sr40  1  0.01411547  0.81936923  0.36484305  1
  Sr  Sr41  1  -0.01609170  0.83513431  0.92020032  1
  Sr  Sr42  1  0.32719146  0.16892674  0.38422163  1
  Sr  Sr43  1  0.37693537  0.17121567  0.83052808  1
  Sr  Sr44  1  0.34340240  0.51552922  0.33132269  1
  Sr  Sr45  1  0.34066213  0.48678333  0.88871523  1
  Sr  Sr46  1  0.33389617  0.81834756  0.41901860  1
  Sr  Sr47  1  0.32165096  0.84515618  0.85881621  1
  Sr  Sr48  1  0.69808285  0.16867856  0.38779207  1
  Sr  Sr49  1  0.67597702  0.15766658  0.90554022  1
  Sr  Sr50  1  0.68271743  0.49026181  0.39036905  1
  Sr  Sr51  1  0.67791567  0.50637698  0.87641198  1
  Sr  Sr52  1  0.66197994  0.83067955  0.38070773  1
  Sr  Sr53  1  0.68099190  0.83947504  0.82775345  1
  Sr  Sr54  1  0.14990756  0.01147377  0.33400898  1
  Sr  Sr55  1  0.15544219  -0.01423236  0.89045842  1
  Sr  Sr56  1  0.16047110  0.33215582  0.41307451  1
  Sr  Sr57  1  0.14771463  0.33794435  0.88065250  1
  Sr  Sr58  1  0.16990259  0.66986870  0.38208122  1
  Sr  Sr59  1  0.19397622  0.66478257  0.81664280  1
  Sr  Sr60  1  0.48254952  0.01172042  0.35910322  1
  Sr  Sr61  1  0.48748066  -0.01115552  0.87214464  1
  Sr  Sr62  1  0.46517779  0.33378760  0.36515793  1
  Sr  Sr63  1  0.48985422  0.34460880  0.85334493  1
  Sr  Sr64  1  0.50358021  0.66641367  0.36827150  1
  Sr  Sr65  1  0.49193875  0.66370809  0.91657661  1
  Sr  Sr66  1  0.81677551  -0.01336671  0.41757970  1
  Sr  Sr67  1  0.82292483  0.00587443  0.86474294  1
  Sr  Sr68  1  0.83091828  0.32722520  0.36779684  1
  Sr  Sr69  1  0.79167768  0.32618798  0.91195012  1
  Sr  Sr70  1  0.83302514  0.67374826  0.33485320  1
  Sr  Sr71  1  0.84503487  0.65871249  0.88854157  1
  Ta  Ta72  1  0.20151439  0.16700150  0.00315395  1
  Ta  Ta73  1  0.14280719  0.14322595  0.49529555  1
  Ta  Ta74  1  0.17779242  0.55329925  -0.01553248  1
  Ta  Ta75  1  0.20869419  0.50572159  0.50922534  1
  Ta  Ta76  1  0.16862737  0.78149916  -0.01067993  1
  Ta  Ta77  1  0.16429589  0.88056997  0.49578101  1
  Ta  Ta78  1  0.48962702  0.18541318  0.00256706  1
  Ta  Ta79  1  0.52615181  0.16680647  0.49893283  1
  Ta  Ta80  1  0.52032765  0.48282481  0.00952098  1
  Ta  Ta81  1  0.47983003  0.48807128  0.49755154  1
  Ta  Ta82  1  0.55258820  0.83408417  -0.00169105  1
  Ta  Ta83  1  0.50489259  0.86679079  0.50201512  1
  Ta  Ta84  1  0.87179821  0.16745549  0.00315343  1
  Ta  Ta85  1  0.88257294  0.16263768  0.49696406  1
  Ta  Ta86  1  0.86766622  0.47453637  -0.00234311  1
  Ta  Ta87  1  0.84121616  0.53533550  0.50341422  1
  Ta  Ta88  1  0.78365227  0.83068332  -0.00372068  1
  Ta  Ta89  1  0.83039374  0.78558102  0.50845888  1
  Ta  Ta90  1  0.17451164  0.21839966  0.25182843  1
  Ta  Ta91  1  0.19830347  0.17350469  0.75058694  1
  Ta  Ta92  1  0.15446859  0.47624112  0.26058148  1
  Ta  Ta93  1  0.18762937  0.47932920  0.74048188  1
  Ta  Ta94  1  0.21568765  0.83424447  0.25056613  1
  Ta  Ta95  1  0.12273377  0.83622196  0.74827499  1
  Ta  Ta96  1  0.54729531  0.17668756  0.25846829  1
  Ta  Ta97  1  0.55694854  0.16610334  0.74659902  1
  Ta  Ta98  1  0.54398245  0.49612903  0.25218671  1
  Ta  Ta99  1  0.51150420  0.53874045  0.74734002  1
  Ta  Ta100  1  0.45087401  0.84020140  0.24818590  1
  Ta  Ta101  1  0.50254073  0.79681341  0.74772771  1
  Ta  Ta102  1  0.83625817  0.11932883  0.24923099  1
  Ta  Ta103  1  0.82693800  0.19906384  0.75901883  1
  Ta  Ta104  1  0.88778890  0.49521853  0.24904557  1
  Ta  Ta105  1  0.83882023  0.45394223  0.75978269  1
  Ta  Ta106  1  0.82939215  0.86699392  0.25270855  1
  Ta  Ta107  1  0.86972256  0.83216924  0.75182888  1
  Ta  Ta108  1  -0.04797461  -0.01548365  0.24985232  1
  Ta  Ta109  1  -0.01168248  -0.04374785  0.75337985  1
  Ta  Ta110  1  0.02409588  0.35202402  0.24555078  1
  Ta  Ta111  1  -0.05493729  0.32747957  0.75775479  1
  Ta  Ta112  1  0.00916061  0.61982367  0.25171364  1
  Ta  Ta113  1  0.00003521  0.70652944  0.75302828  1
  Ta  Ta114  1  0.32852014  -0.04003691  0.24224741  1
  Ta  Ta115  1  0.30019536  0.02311400  0.75635527  1
  Ta  Ta116  1  0.28349395  0.33867236  0.24896717  1
  Ta  Ta117  1  0.29593930  0.33110400  0.74810279  1
  Ta  Ta118  1  0.33974920  0.71410607  0.24668232  1
  Ta  Ta119  1  0.39754183  0.67059893  0.74509544  1
  Ta  Ta120  1  0.67921852  0.01663705  0.25702301  1
  Ta  Ta121  1  0.64748831  0.03004450  0.74662930  1
  Ta  Ta122  1  0.63732896  0.32797822  0.26059246  1
  Ta  Ta123  1  0.67052861  0.31256620  0.74877879  1
  Ta  Ta124  1  0.65992854  0.64164136  0.25368501  1
  Ta  Ta125  1  0.61964668  0.66814441  0.74438387  1
  Ta  Ta126  1  -0.01829229  0.01797165  -0.00019666  1
  Ta  Ta127  1  0.01043976  0.02042851  0.50170031  1
  Ta  Ta128  1  -0.03069063  0.32584705  -0.00007009  1
  Ta  Ta129  1  -0.01361619  0.28785861  0.50197863  1
  Ta  Ta130  1  0.04605986  0.66434298  -0.00580481  1
  Ta  Ta131  1  -0.04748681  0.66159790  0.50818031  1
  Ta  Ta132  1  0.33258351  0.05980604  -0.00058150  1
  Ta  Ta133  1  0.28918444  0.00136132  0.49504713  1
  Ta  Ta134  1  0.33373238  0.27036228  -0.00172051  1
  Ta  Ta135  1  0.32941394  0.39119667  0.50276108  1
  Ta  Ta136  1  0.30303611  0.67232345  -0.00191730  1
  Ta  Ta137  1  0.33911472  0.62487626  0.49536543  1
  Ta  Ta138  1  0.65425856  -0.03949841  -0.00775085  1
  Ta  Ta139  1  0.62069497  0.00688587  0.50097710  1
  Ta  Ta140  1  0.61443693  0.34146894  0.00275826  1
  Ta  Ta141  1  0.61931303  0.32520998  0.49405067  1
  Ta  Ta142  1  0.66621882  0.70269815  -0.00029823  1
  Ta  Ta143  1  0.71041208  0.66227731  0.50233001  1
  N  N144  1  0.50642458  0.50188528  0.36763234  1
  N  N145  1  0.33191846  0.00495468  0.11344292  1
  N  N146  1  0.16463792  0.82456443  0.87075860  1
  N  N147  1  0.34045356  0.66587343  0.37749332  1
  N  N148  1  -0.00956858  0.66539119  0.62695532  1
  N  N149  1  0.16491690  0.17372563  0.37571960  1
  N  N150  1  0.65845021  -0.00419080  0.86709866  1
  N  N151  1  0.17772752  0.50896543  0.86764316  1
  N  N152  1  0.00528557  0.32950679  0.12314786  1
  N  N153  1  0.50675731  0.50904626  0.62321794  1
  N  N154  1  0.83035309  0.82406635  0.62757403  1
  N  N155  1  0.85878415  0.49396930  0.12666459  1
  N  N156  1  -0.00730654  -0.00312636  0.88001787  1
  N  N157  1  0.67533919  0.66128282  0.37339172  1
  N  N158  1  0.84181109  0.16280260  0.13106333  1
  N  N159  1  0.17139300  0.49910589  0.37921704  1
  N  N160  1  0.84995558  0.15452526  0.37696694  1
  N  N161  1  0.65883853  0.00045759  0.38035629  1
  N  N162  1  -0.00790591  -0.00304261  0.62257903  1
  N  N163  1  0.67509236  0.33160313  0.38331463  1
  N  N164  1  0.00235328  0.66771927  0.87606635  1
  N  N165  1  0.66647810  0.66660576  0.62648410  1
  N  N166  1  0.83050237  0.16623617  0.87794583  1
  N  N167  1  0.82787092  0.83126694  0.88116920  1
  N  N168  1  0.65434997  0.33098461  0.62084234  1
  N  N169  1  0.32655250  0.01050072  0.87635143  1
  N  N170  1  0.17308726  0.83960992  0.37043709  1
  N  N171  1  0.15600800  0.84284301  0.61868866  1
  N  N172  1  0.01565215  0.65632999  0.13188083  1
  N  N173  1  0.33687849  0.67891141  0.11737485  1
  N  N174  1  0.83613434  0.50032641  0.87342540  1
  N  N175  1  0.64286056  0.33422313  0.87713579  1
  N  N176  1  0.15712381  0.51493752  0.62323240  1
  O  O177  1  0.32062530  0.31833327  0.87475736  1
  O  O178  1  0.51789440  0.17578871  0.87830495  1
  O  O179  1  0.67211683  -0.00035079  0.61998701  1
  O  O180  1  0.48547912  0.49065438  0.13318070  1
  O  O181  1  0.17647084  0.17461189  0.87422052  1
  O  O182  1  0.30667690  0.01192066  0.62019044  1
  O  O183  1  0.80835771  0.84667476  0.13051226  1
  O  O184  1  0.49380079  0.16636926  0.37126494  1
  O  O185  1  0.66677509  0.67656756  0.12468639  1
  O  O186  1  -0.00105266  0.65915478  0.37627543  1
  O  O187  1  -0.01898648  0.30911993  0.62986438  1
  O  O188  1  0.17097061  0.82554289  0.12701798  1
  O  O189  1  0.17966054  0.17412320  0.12980470  1
  O  O190  1  0.00045698  0.31879127  0.86873894  1
  O  O191  1  0.84724345  0.15882037  0.63330767  1
  O  O192  1  0.36411698  0.66506026  0.61948808  1
  O  O193  1  0.83850467  0.49961450  0.63073501  1
  O  O194  1  0.51560460  0.82592399  0.87380856  1
  O  O195  1  0.31781197  0.31688327  0.11675193  1
  O  O196  1  0.51559471  0.50684674  0.88407295  1
  O  O197  1  -0.02299142  -0.02248852  0.12409566  1
  O  O198  1  0.50671586  0.17562400  0.13100019  1
  O  O199  1  0.85166140  0.51337253  0.37538256  1
  O  O200  1  0.65171163  0.32952471  0.12738997  1
  O  O201  1  0.17568446  0.17312258  0.62175839  1
  O  O202  1  0.32031800  0.33783694  0.62115871  1
  O  O203  1  0.82781694  0.83303706  0.37766528  1
  O  O204  1  -0.01703994  -0.00767404  0.37308727  1
  O  O205  1  0.31297952  0.35498640  0.37892119  1
  O  O206  1  0.50264053  0.84840679  0.62658845  1
  O  O207  1  0.65865466  -0.01067384  0.12985894  1
  O  O208  1  0.00358299  0.31892968  0.37815781  1
  O  O209  1  0.34958760  0.67112423  0.86622957  1
  O  O210  1  0.17927819  0.50650412  0.11091005  1
  O  O211  1  0.51525628  0.16988630  0.62488133  1
  O  O212  1  0.65525938  0.67916439  0.87427555  1
  O  O213  1  0.31353140  0.00467571  0.36836694  1
  O  O214  1  0.50140777  0.83762504  0.12866351  1
  O  O215  1  0.48803369  0.85340623  0.37676723  1
