# generated using pymatgen
data_Sr24Ta24N11O13
_symmetry_space_group_name_H-M   'P 1'
_cell_length_a   16.62242688
_cell_length_b   17.58809607
_cell_length_c   15.23630655
_cell_angle_alpha   89.70681635
_cell_angle_beta   90.09954349
_cell_angle_gamma   90.75698249
_symmetry_Int_Tables_number   1
_chemical_formula_structural   Sr24Ta24N11O13
_chemical_formula_sum   'Sr72 Ta72 N33 O39'
_cell_volume   4453.98516709
_cell_formula_units_Z   3
loop_
 _symmetry_equiv_pos_site_id
 _symmetry_equiv_pos_as_xyz
  1  'x, y, z'
loop_
 _atom_site_type_symbol
 _atom_site_label
 _atom_site_symmetry_multiplicity
 _atom_site_fract_x
 _atom_site_fract_y
 _atom_site_fract_z
 _atom_site_occupancy
  Sr  Sr0  1  0.00965774  0.14327701  0.11849008  1
  Sr  Sr1  1  0.02201596  0.15977099  0.60502478  1
  Sr  Sr2  1  0.00058928  0.45687940  0.10229897  1
  Sr  Sr3  1  -0.01506679  0.49215301  0.66689776  1
  Sr  Sr4  1  0.01912172  0.85823218  0.12433822  1
  Sr  Sr5  1  -0.02088071  0.77481251  0.53637095  1
  Sr  Sr6  1  0.33145667  0.15453200  0.11806072  1
  Sr  Sr7  1  0.33011701  0.14800051  0.65881566  1
  Sr  Sr8  1  0.34309762  0.49721943  0.09004348  1
  Sr  Sr9  1  0.35050249  0.45970132  0.65865954  1
  Sr  Sr10  1  0.35052802  0.78530006  0.20739551  1
  Sr  Sr11  1  0.32487899  0.84435581  0.62757507  1
  Sr  Sr12  1  0.66524047  0.13588099  0.11376305  1
  Sr  Sr13  1  0.66550205  0.15817064  0.62461895  1
  Sr  Sr14  1  0.65710442  0.49337063  0.13804678  1
  Sr  Sr15  1  0.66576230  0.48351086  0.56823218  1
  Sr  Sr16  1  0.63500818  0.83534118  0.08102633  1
  Sr  Sr17  1  0.68843953  0.82435969  0.63919492  1
  Sr  Sr18  1  0.15841300  0.02274482  0.12600584  1
  Sr  Sr19  1  0.17864729  0.01105822  0.66315694  1
  Sr  Sr20  1  0.17104300  0.35894252  0.09215156  1
  Sr  Sr21  1  0.16705031  0.34607241  0.62640292  1
  Sr  Sr22  1  0.16925248  0.67741802  0.15749573  1
  Sr  Sr23  1  0.16481733  0.70819662  0.58821878  1
  Sr  Sr24  1  0.48669405  -0.01018357  0.14692102  1
  Sr  Sr25  1  0.49410940  0.00157284  0.57241839  1
  Sr  Sr26  1  0.48683072  0.37250996  0.12658202  1
  Sr  Sr27  1  0.50914680  0.33543696  0.62422079  1
  Sr  Sr28  1  0.49014494  0.64977795  0.10545376  1
  Sr  Sr29  1  0.48553760  0.69485005  0.64885905  1
  Sr  Sr30  1  0.86067062  0.01896219  0.16868912  1
  Sr  Sr31  1  0.81972580  0.02375596  0.60666224  1
  Sr  Sr32  1  0.82066761  0.33955676  0.10067421  1
  Sr  Sr33  1  0.83201206  0.36034758  0.65112403  1
  Sr  Sr34  1  0.78682627  0.72708755  0.16840239  1
  Sr  Sr35  1  0.82141182  0.66151867  0.60854747  1
  Sr  Sr36  1  0.00571037  0.17373340  0.38406191  1
  Sr  Sr37  1  0.00469292  0.12121131  0.85227380  1
  Sr  Sr38  1  0.01587319  0.47455020  0.33312456  1
  Sr  Sr39  1  -0.01396657  0.50721897  0.88176167  1
  Sr  Sr40  1  0.00959243  0.76551458  0.33088656  1
  Sr  Sr41  1  0.00430157  0.82824498  0.90301056  1
  Sr  Sr42  1  0.33705515  0.15345133  0.34087633  1
  Sr  Sr43  1  0.32740809  0.11569079  0.89056345  1
  Sr  Sr44  1  0.33345082  0.45905045  0.41245655  1
  Sr  Sr45  1  0.33406364  0.52042981  0.87854645  1
  Sr  Sr46  1  0.33665313  0.84495243  0.41958546  1
  Sr  Sr47  1  0.32025316  0.83010281  0.84486416  1
  Sr  Sr48  1  0.65585298  0.14917764  0.38120439  1
  Sr  Sr49  1  0.67352377  0.17120878  0.86315862  1
  Sr  Sr50  1  0.67514265  0.49118568  0.36291950  1
  Sr  Sr51  1  0.75989456  0.47829857  0.93671282  1
  Sr  Sr52  1  0.69943965  0.79552030  0.37894927  1
  Sr  Sr53  1  0.69018712  0.83003762  0.86121461  1
  Sr  Sr54  1  0.14965948  0.05066083  0.35552780  1
  Sr  Sr55  1  0.14505416  -0.01923897  0.89370506  1
  Sr  Sr56  1  0.15962585  0.34209792  0.39684662  1
  Sr  Sr57  1  0.16114746  0.39505226  0.86370764  1
  Sr  Sr58  1  0.17309432  0.65755259  0.37144629  1
  Sr  Sr59  1  0.15899858  0.71225375  0.87850933  1
  Sr  Sr60  1  0.50331353  0.00222033  0.35943480  1
  Sr  Sr61  1  0.52412423  -0.00624724  0.92851840  1
  Sr  Sr62  1  0.50681690  0.34785308  0.38132925  1
  Sr  Sr63  1  0.47950800  0.36498669  0.84370887  1
  Sr  Sr64  1  0.44849994  0.69698810  0.39753458  1
  Sr  Sr65  1  0.48502342  0.68304222  0.87237719  1
  Sr  Sr66  1  0.83418218  0.05338758  0.38870637  1
  Sr  Sr67  1  0.81042525  0.00714554  0.80953769  1
  Sr  Sr68  1  0.82751005  0.35664963  0.34405497  1
  Sr  Sr69  1  0.83798065  0.31410285  0.88070702  1
  Sr  Sr70  1  0.83180624  0.65407655  0.38169412  1
  Sr  Sr71  1  0.84396609  0.67409203  0.86612626  1
  Ta  Ta72  1  0.16974280  0.20092284  -0.02135097  1
  Ta  Ta73  1  0.20521284  0.17704783  0.49977671  1
  Ta  Ta74  1  0.15555629  0.55646499  0.00506508  1
  Ta  Ta75  1  0.15016116  0.51559839  0.50787719  1
  Ta  Ta76  1  0.23438873  0.83572935  0.04417710  1
  Ta  Ta77  1  0.14813887  0.89160264  0.48101819  1
  Ta  Ta78  1  0.48830238  0.21893106  -0.02200088  1
  Ta  Ta79  1  0.47003778  0.18224189  0.49853450  1
  Ta  Ta80  1  0.56386696  0.51142777  -0.05934926  1
  Ta  Ta81  1  0.49111027  0.54437672  0.51765317  1
  Ta  Ta82  1  0.43337970  0.82737987  0.02045287  1
  Ta  Ta83  1  0.54020223  0.83328193  0.49359016  1
  Ta  Ta84  1  0.84245502  0.13639644  -0.01821634  1
  Ta  Ta85  1  0.83990160  0.22843995  0.50687247  1
  Ta  Ta86  1  0.85689971  0.58917642  0.06452836  1
  Ta  Ta87  1  0.86824164  0.48944450  0.49119125  1
  Ta  Ta88  1  0.84001037  0.86017399  0.00632357  1
  Ta  Ta89  1  0.84322333  0.87752808  0.47615147  1
  Ta  Ta90  1  0.16475252  0.21976197  0.23704177  1
  Ta  Ta91  1  0.16458762  0.20477347  0.77970361  1
  Ta  Ta92  1  0.20224798  0.48589688  0.24805848  1
  Ta  Ta93  1  0.16408291  0.56249846  0.74265835  1
  Ta  Ta94  1  0.17365968  0.87026122  0.28631295  1
  Ta  Ta95  1  0.07935534  0.84041112  0.69434278  1
  Ta  Ta96  1  0.50873624  0.20753839  0.23714458  1
  Ta  Ta97  1  0.50119476  0.12477409  0.75431279  1
  Ta  Ta98  1  0.49324332  0.54223205  0.30309951  1
  Ta  Ta99  1  0.56188329  0.51577125  0.74459447  1
  Ta  Ta100  1  0.53881646  0.82479074  0.26463011  1
  Ta  Ta101  1  0.50548995  0.86802902  0.74630999  1
  Ta  Ta102  1  0.83729918  0.20183801  0.23926867  1
  Ta  Ta103  1  0.85661427  0.19218682  0.72989979  1
  Ta  Ta104  1  0.84156343  0.52133513  0.23104073  1
  Ta  Ta105  1  0.76609633  0.51651111  0.73308154  1
  Ta  Ta106  1  0.85153996  0.87199332  0.28339606  1
  Ta  Ta107  1  0.89108600  0.82323375  0.72786249  1
  Ta  Ta108  1  0.00058378  -0.04887112  0.32737906  1
  Ta  Ta109  1  -0.01269433  -0.04287095  0.72920159  1
  Ta  Ta110  1  -0.00228772  0.29958457  0.23275187  1
  Ta  Ta111  1  0.00705914  0.29766438  0.76182233  1
  Ta  Ta112  1  -0.02638473  0.62558165  0.20675370  1
  Ta  Ta113  1  0.00965434  0.68625175  0.73690115  1
  Ta  Ta114  1  0.30735112  -0.02910853  0.26681298  1
  Ta  Ta115  1  0.39689724  -0.00929452  0.74882676  1
  Ta  Ta116  1  0.31586303  0.32734993  0.24334696  1
  Ta  Ta117  1  0.31470592  0.29217301  0.77633072  1
  Ta  Ta118  1  0.33851509  0.60077704  0.25910514  1
  Ta  Ta119  1  0.30483480  0.65389833  0.73886927  1
  Ta  Ta120  1  0.68634248  -0.05015119  0.26079748  1
  Ta  Ta121  1  0.61595052  -0.00796908  0.73867996  1
  Ta  Ta122  1  0.65848699  0.29467840  0.23851250  1
  Ta  Ta123  1  0.66496397  0.37347493  0.76081030  1
  Ta  Ta124  1  0.61359129  0.65715744  0.27162918  1
  Ta  Ta125  1  0.66177007  0.64095364  0.75228368  1
  Ta  Ta126  1  -0.07969535  -0.00925122  -0.02542358  1
  Ta  Ta127  1  -0.00274733  -0.03637882  0.52074072  1
  Ta  Ta128  1  0.01498115  0.28483525  -0.03635640  1
  Ta  Ta129  1  -0.02305742  0.34638440  0.50147670  1
  Ta  Ta130  1  0.00438529  0.65667389  0.02040603  1
  Ta  Ta131  1  0.00543615  0.59615079  0.48669606  1
  Ta  Ta132  1  0.33172622  -0.04447300  0.01653248  1
  Ta  Ta133  1  0.30379240  0.02185270  0.49904239  1
  Ta  Ta134  1  0.32963587  0.29980190  -0.02710382  1
  Ta  Ta135  1  0.33944134  0.28338250  0.51386700  1
  Ta  Ta136  1  0.31404849  0.68506884  0.00570189  1
  Ta  Ta137  1  0.31939124  0.61549005  0.53504890  1
  Ta  Ta138  1  0.73706488  -0.01287816  -0.00260113  1
  Ta  Ta139  1  0.67319735  -0.04288651  0.48672352  1
  Ta  Ta140  1  0.62689549  0.33198626  -0.02075058  1
  Ta  Ta141  1  0.68686575  0.31038036  0.50631064  1
  Ta  Ta142  1  0.67543643  0.64549336  0.00171210  1
  Ta  Ta143  1  0.62151325  0.66225635  0.49239118  1
  N  N144  1  0.16885648  0.12886935  0.87623255  1
  N  N145  1  0.83362071  0.50047628  0.36772318  1
  N  N146  1  0.66886633  0.33266763  0.62986408  1
  N  N147  1  0.68702975  0.32100825  0.87051133  1
  N  N148  1  0.35201426  -0.00592980  0.38726134  1
  N  N149  1  -0.01037953  0.03385076  0.42114408  1
  N  N150  1  0.17016869  0.49521525  0.38271149  1
  N  N151  1  0.50793754  0.48210708  0.41346651  1
  N  N152  1  0.48362556  0.51732022  0.84492284  1
  N  N153  1  0.48456012  0.84397312  0.37398812  1
  N  N154  1  0.66030526  -0.00898539  0.61789915  1
  N  N155  1  0.83417775  0.15912392  0.85539058  1
  N  N156  1  0.16947521  0.50754942  0.12449387  1
  N  N157  1  0.84446942  0.15919651  0.60516242  1
  N  N158  1  0.86307588  0.79924225  0.38578252  1
  N  N159  1  -0.02191683  -0.02098194  0.85541519  1
  N  N160  1  0.48900820  0.82554629  0.13594617  1
  N  N161  1  0.00172336  0.35954101  0.86924367  1
  N  N162  1  0.15419218  0.54138078  0.86903559  1
  N  N163  1  0.16687304  0.85668882  0.60005747  1
  N  N164  1  0.34198847  -0.00120849  0.62616894  1
  N  N165  1  0.82116998  0.48295570  0.11039870  1
  N  N166  1  0.81836680  0.51061107  0.61324271  1
  N  N167  1  0.17116693  0.18037520  0.11545652  1
  N  N168  1  0.17614264  0.19187191  0.37552013  1
  N  N169  1  0.50554309  0.48943288  0.62980290  1
  N  N170  1  0.67120199  0.00664497  0.36654844  1
  N  N171  1  0.50133713  0.83938671  0.61765216  1
  N  N172  1  0.33659455  0.30540149  0.65135470  1
  N  N173  1  0.32335679  0.67528989  0.87350751  1
  N  N174  1  0.33458587  0.64424914  0.13961486  1
  N  N175  1  0.67670555  0.64468677  0.38060721  1
  N  N176  1  0.32627391  0.69884387  0.61643815  1
  O  O177  1  0.00202036  0.62145864  0.34819429  1
  O  O178  1  0.14196788  0.84381888  0.96410436  1
  O  O179  1  0.00190238  0.67990784  0.87315926  1
  O  O180  1  0.67499771  -0.01929408  0.87616877  1
  O  O181  1  0.83946198  0.20191376  0.37172981  1
  O  O182  1  0.49200490  0.15549161  0.62956546  1
  O  O183  1  0.01870829  0.71661102  0.13889981  1
  O  O184  1  0.49279892  0.19225220  0.37111666  1
  O  O185  1  -0.02534711  0.03166385  0.62560767  1
  O  O186  1  0.14545119  0.48688821  0.64691570  1
  O  O187  1  0.47185552  0.83072250  0.88816924  1
  O  O188  1  0.84316811  0.81707607  0.60567516  1
  O  O189  1  -0.00861942  0.32894319  0.37038828  1
  O  O190  1  0.66283248  0.67872399  0.62464516  1
  O  O191  1  0.36197974  -0.02303762  0.87900499  1
  O  O192  1  0.66834093  0.30448801  0.36722211  1
  O  O193  1  0.32374763  0.37678430  0.87327937  1
  O  O194  1  0.17962742  0.80271269  0.40155161  1
  O  O195  1  0.16959864  0.83009495  0.16004505  1
  O  O196  1  0.00548202  0.34360214  0.63006303  1
  O  O197  1  0.68825963  0.68374616  0.88008461  1
  O  O198  1  0.32936717  0.31773414  0.11161696  1
  O  O199  1  0.02320096  0.01385702  0.22215798  1
  O  O200  1  0.32307552  0.00798059  0.14135716  1
  O  O201  1  0.84873114  0.82209534  0.85899847  1
  O  O202  1  0.31641262  0.62505509  0.39654567  1
  O  O203  1  0.50008070  0.14081978  0.88844932  1
  O  O204  1  0.70586419  -0.01356221  0.12741896  1
  O  O205  1  0.65987065  0.32399864  0.10871759  1
  O  O206  1  0.83385012  0.17039134  0.11567244  1
  O  O207  1  0.48790445  0.21259048  0.11180978  1
  O  O208  1  0.85776293  0.85314888  0.14037017  1
  O  O209  1  0.17383546  0.17535984  0.64023443  1
  O  O210  1  0.64838630  0.64876527  0.13199654  1
  O  O211  1  -0.00083847  0.30151023  0.10044649  1
  O  O212  1  -0.00407469  0.64605638  0.61358653  1
  O  O213  1  0.49628987  0.50257051  0.04462458  1
  O  O214  1  0.33143388  0.31530380  0.37179727  1
  O  O215  1  0.85395481  0.52943665  0.81527993  1
