# generated using pymatgen
data_Sr24Ta24N11O13
_symmetry_space_group_name_H-M   'P 1'
_cell_length_a   17.18490208
_cell_length_b   16.72126929
_cell_length_c   15.62680561
_cell_angle_alpha   90.52007770
_cell_angle_beta   89.30364745
_cell_angle_gamma   89.57901482
_symmetry_Int_Tables_number   1
_chemical_formula_structural   Sr24Ta24N11O13
_chemical_formula_sum   'Sr72 Ta72 N33 O39'
_cell_volume   4489.77383250
_cell_formula_units_Z   3
loop_
 _symmetry_equiv_pos_site_id
 _symmetry_equiv_pos_as_xyz
  1  'x, y, z'
loop_
 _atom_site_type_symbol
 _atom_site_label
 _atom_site_symmetry_multiplicity
 _atom_site_fract_x
 _atom_site_fract_y
 _atom_site_fract_z
 _atom_site_occupancy
  Sr  Sr0  1  -0.00672940  0.17023360  0.11637118  1
  Sr  Sr1  1  0.03337675  0.18215965  0.60015757  1
  Sr  Sr2  1  0.00975675  0.51505743  0.15839098  1
  Sr  Sr3  1  0.00229504  0.50132413  0.60466033  1
  Sr  Sr4  1  0.01675633  0.83979250  0.11071292  1
  Sr  Sr5  1  0.00678280  0.85427217  0.65407211  1
  Sr  Sr6  1  0.36293536  0.17137654  0.09235415  1
  Sr  Sr7  1  0.34202227  0.18537873  0.65234007  1
  Sr  Sr8  1  0.35792219  0.49678336  0.12582730  1
  Sr  Sr9  1  0.37019639  0.50182163  0.60109968  1
  Sr  Sr10  1  0.33120370  0.83777747  0.14163885  1
  Sr  Sr11  1  0.35319091  0.83806599  0.60463241  1
  Sr  Sr12  1  0.67649064  0.17539461  0.16310373  1
  Sr  Sr13  1  0.66842312  0.17170064  0.61007094  1
  Sr  Sr14  1  0.68961390  0.50023184  0.09665477  1
  Sr  Sr15  1  0.67663956  0.52168243  0.66052515  1
  Sr  Sr16  1  0.69874006  0.83528610  0.13283973  1
  Sr  Sr17  1  0.70960853  0.83993463  0.58052268  1
  Sr  Sr18  1  0.15611597  -0.01561247  0.16623579  1
  Sr  Sr19  1  0.15602763  -0.01731762  0.59940912  1
  Sr  Sr20  1  0.12924340  0.31664688  0.13440136  1
  Sr  Sr21  1  0.16201406  0.33979702  0.64179255  1
  Sr  Sr22  1  0.15673664  0.65625218  0.09485805  1
  Sr  Sr23  1  0.13052386  0.65173852  0.65222019  1
  Sr  Sr24  1  0.48177914  -0.01823125  0.09062092  1
  Sr  Sr25  1  0.48417203  0.00506363  0.65342015  1
  Sr  Sr26  1  0.50121726  0.32659590  0.13885373  1
  Sr  Sr27  1  0.48910368  0.33006118  0.59186326  1
  Sr  Sr28  1  0.46240781  0.66600520  0.17306755  1
  Sr  Sr29  1  0.48989565  0.66684542  0.62872186  1
  Sr  Sr30  1  0.83472278  -0.00700580  0.10872582  1
  Sr  Sr31  1  0.82227373  0.00193390  0.63709928  1
  Sr  Sr32  1  0.82407259  0.32486380  0.09836934  1
  Sr  Sr33  1  0.79710924  0.32918813  0.65246530  1
  Sr  Sr34  1  0.82378552  0.65778519  0.15295027  1
  Sr  Sr35  1  0.81778302  0.65811975  0.59679151  1
  Sr  Sr36  1  0.01668594  0.17298237  0.36712960  1
  Sr  Sr37  1  -0.00950898  0.18549723  0.90355251  1
  Sr  Sr38  1  -0.01435349  0.50374838  0.37997351  1
  Sr  Sr39  1  0.03825040  0.51505883  0.84577492  1
  Sr  Sr40  1  0.03378282  0.86655821  0.37537882  1
  Sr  Sr41  1  0.01577389  0.81744673  0.87239142  1
  Sr  Sr42  1  0.36332596  0.19737683  0.36354501  1
  Sr  Sr43  1  0.33945227  0.17407007  0.87694125  1
  Sr  Sr44  1  0.36474452  0.49183114  0.36705646  1
  Sr  Sr45  1  0.34928038  0.50623408  0.90076180  1
  Sr  Sr46  1  0.32226835  0.82961841  0.37338931  1
  Sr  Sr47  1  0.35693592  0.83951981  0.87389653  1
  Sr  Sr48  1  0.66246874  0.16618479  0.38203732  1
  Sr  Sr49  1  0.68417117  0.14976983  0.82358592  1
  Sr  Sr50  1  0.69185077  0.52553280  0.37380792  1
  Sr  Sr51  1  0.66566242  0.48693435  0.88094068  1
  Sr  Sr52  1  0.69150027  0.83464796  0.36312563  1
  Sr  Sr53  1  0.67623692  0.84504533  0.92016660  1
  Sr  Sr54  1  0.17174017  0.01213108  0.37954117  1
  Sr  Sr55  1  0.14363030  -0.02588670  0.84617867  1
  Sr  Sr56  1  0.13709728  0.33618567  0.38010440  1
  Sr  Sr57  1  0.16206423  0.31102244  0.85938956  1
  Sr  Sr58  1  0.13759913  0.63126069  0.37563870  1
  Sr  Sr59  1  0.17448701  0.66854381  0.88814718  1
  Sr  Sr60  1  0.47236758  -0.02500243  0.37463726  1
  Sr  Sr61  1  0.49631006  0.01097434  0.87131249  1
  Sr  Sr62  1  0.50935835  0.33695077  0.37002768  1
  Sr  Sr63  1  0.48298408  0.34629100  0.92212782  1
  Sr  Sr64  1  0.46609552  0.66789379  0.39056153  1
  Sr  Sr65  1  0.50284308  0.65587063  0.83597720  1
  Sr  Sr66  1  0.79803589  0.00431694  0.37933838  1
  Sr  Sr67  1  0.84133053  -0.00937034  0.87266710  1
  Sr  Sr68  1  0.80430998  0.30757903  0.37285617  1
  Sr  Sr69  1  0.81539716  0.33262479  0.87585132  1
  Sr  Sr70  1  0.83070380  0.67140080  0.37574405  1
  Sr  Sr71  1  0.79417220  0.65430758  0.88615276  1
  Ta  Ta72  1  0.16890873  0.12415515  0.00249801  1
  Ta  Ta73  1  0.21581365  0.17590855  0.49982029  1
  Ta  Ta74  1  0.16754542  0.46723970  -0.00070925  1
  Ta  Ta75  1  0.20537739  0.49434724  0.50320981  1
  Ta  Ta76  1  0.18439289  0.85683948  0.00025908  1
  Ta  Ta77  1  0.15999587  0.78622745  0.50389675  1
  Ta  Ta78  1  0.55070815  0.16419393  -0.00482313  1
  Ta  Ta79  1  0.49308536  0.13475085  0.50423194  1
  Ta  Ta80  1  0.51057108  0.55358380  0.00336403  1
  Ta  Ta81  1  0.54964659  0.50928517  0.50443019  1
  Ta  Ta82  1  0.49913915  0.77505248  0.00507514  1
  Ta  Ta83  1  0.53613256  0.83167450  0.50366895  1
  Ta  Ta84  1  0.79677379  0.15741987  -0.00680911  1
  Ta  Ta85  1  0.85853812  0.16499824  0.50698036  1
  Ta  Ta86  1  0.87697476  0.50696418  0.00035068  1
  Ta  Ta87  1  0.82506633  0.46278118  0.50649689  1
  Ta  Ta88  1  0.86080903  0.80482383  0.00757545  1
  Ta  Ta89  1  0.88524742  0.84698655  0.49344866  1
  Ta  Ta90  1  0.21236868  0.17052954  0.24230823  1
  Ta  Ta91  1  0.16764914  0.13274539  0.74877522  1
  Ta  Ta92  1  0.19859631  0.48699624  0.24468182  1
  Ta  Ta93  1  0.23275567  0.50591031  0.74970051  1
  Ta  Ta94  1  0.16068754  0.78572655  0.24497609  1
  Ta  Ta95  1  0.21060805  0.81752782  0.74941580  1
  Ta  Ta96  1  0.50309057  0.12402436  0.23981106  1
  Ta  Ta97  1  0.50525911  0.21053610  0.76267501  1
  Ta  Ta98  1  0.54794118  0.50727788  0.25470413  1
  Ta  Ta99  1  0.49833379  0.46799439  0.75349651  1
  Ta  Ta100  1  0.53223042  0.83192369  0.24676082  1
  Ta  Ta101  1  0.53652977  0.83562967  0.75391593  1
  Ta  Ta102  1  0.85417515  0.15614846  0.24871909  1
  Ta  Ta103  1  0.87435035  0.16979409  0.74200755  1
  Ta  Ta104  1  0.83235709  0.46384844  0.24544750  1
  Ta  Ta105  1  0.86401644  0.50202098  0.75230309  1
  Ta  Ta106  1  0.87948200  0.84401197  0.26011641  1
  Ta  Ta107  1  0.82745806  0.81227807  0.74600176  1
  Ta  Ta108  1  -0.03181004  0.00709783  0.25061023  1
  Ta  Ta109  1  -0.00066418  0.05008375  0.74329663  1
  Ta  Ta110  1  -0.04906942  0.33533125  0.24244042  1
  Ta  Ta111  1  -0.03018281  0.33682303  0.74995510  1
  Ta  Ta112  1  -0.00014032  0.70553215  0.25949495  1
  Ta  Ta113  1  -0.05402765  0.66382080  0.74631943  1
  Ta  Ta114  1  0.33495657  0.03819762  0.23828772  1
  Ta  Ta115  1  0.30023046  0.00141636  0.74823829  1
  Ta  Ta116  1  0.29684112  0.33430097  0.23220048  1
  Ta  Ta117  1  0.35185244  0.35931995  0.75840647  1
  Ta  Ta118  1  0.28293795  0.65181881  0.24991989  1
  Ta  Ta119  1  0.31347706  0.65923944  0.74428028  1
  Ta  Ta120  1  0.62370262  -0.00620159  0.24517020  1
  Ta  Ta121  1  0.66108199  -0.05402184  0.75194152  1
  Ta  Ta122  1  0.67144182  0.36895806  0.24161151  1
  Ta  Ta123  1  0.61654319  0.33192156  0.75378390  1
  Ta  Ta124  1  0.63289346  0.66972922  0.24288676  1
  Ta  Ta125  1  0.66734051  0.73151971  0.74347121  1
  Ta  Ta126  1  0.03240767  0.00487226  0.00250261  1
  Ta  Ta127  1  -0.03197481  0.01277634  0.50021389  1
  Ta  Ta128  1  -0.00171504  0.38449589  -0.00088683  1
  Ta  Ta129  1  -0.05614442  0.33113219  0.50025845  1
  Ta  Ta130  1  -0.03638168  0.65797045  0.00302505  1
  Ta  Ta131  1  -0.00272400  0.70771757  0.49314131  1
  Ta  Ta132  1  0.28222052  -0.00182039  0.00077271  1
  Ta  Ta133  1  0.33585963  0.04680332  0.50028532  1
  Ta  Ta134  1  0.29131960  0.34081412  0.00876990  1
  Ta  Ta135  1  0.30397357  0.33424626  0.50440144  1
  Ta  Ta136  1  0.35778049  0.67745720  0.00540248  1
  Ta  Ta137  1  0.28348238  0.65759857  0.49812943  1
  Ta  Ta138  1  0.66482844  0.03739823  -0.00457986  1
  Ta  Ta139  1  0.61937135  -0.00351002  0.49900877  1
  Ta  Ta140  1  0.65877526  0.28900409  -0.00725390  1
  Ta  Ta141  1  0.66574352  0.37186575  0.50629949  1
  Ta  Ta142  1  0.62640013  0.67263692  0.01431670  1
  Ta  Ta143  1  0.63532590  0.67560895  0.50055997  1
  N  N144  1  -0.00131316  0.00579405  0.12524161  1
  N  N145  1  0.83624060  0.83559898  0.38199352  1
  N  N146  1  0.17094360  0.82089151  0.12416199  1
  N  N147  1  0.66132760  0.33045014  0.87509869  1
  N  N148  1  0.66436974  0.33405966  0.12399369  1
  N  N149  1  0.31458534  0.65975239  0.37691835  1
  N  N150  1  0.83423739  0.16557760  0.87017636  1
  N  N151  1  0.66431297  0.68403837  0.62200788  1
  N  N152  1  0.32689957  0.33468970  0.88330415  1
  N  N153  1  0.51142961  0.15845338  0.12299442  1
  N  N154  1  0.84280597  0.49919821  0.12422666  1
  N  N155  1  0.85050964  0.82838195  0.13094236  1
  N  N156  1  0.34955669  0.33233044  0.11650827  1
  N  N157  1  0.50687788  0.50760236  0.88540944  1
  N  N158  1  0.31947611  0.66184646  0.12161661  1
  N  N159  1  0.49524012  0.16998533  0.87782436  1
  N  N160  1  0.64187145  -0.00122561  0.37404144  1
  N  N161  1  0.83544141  0.49519174  0.62974086  1
  N  N162  1  0.83008614  0.16113769  0.12215888  1
  N  N163  1  -0.01638125  0.34313061  0.11727374  1
  N  N164  1  0.51821253  0.50372554  0.37576811  1
  N  N165  1  0.81842985  0.16578342  0.63343330  1
  N  N166  1  0.00107046  0.01401988  0.62023078  1
  N  N167  1  0.51533511  0.50318725  0.63338232  1
  N  N168  1  0.85151360  0.83527767  0.62672576  1
  N  N169  1  0.32972909  0.33827625  0.62583830  1
  N  N170  1  0.83086045  0.15884957  0.38131554  1
  N  N171  1  -0.01432425  0.66142563  0.37783252  1
  N  N172  1  0.65027496  0.33875136  0.62304197  1
  N  N173  1  0.18480725  0.82210530  0.87186537  1
  N  N174  1  0.66635845  -0.00614573  0.86796499  1
  N  N175  1  0.32858132  0.00103330  0.11986457  1
  N  N176  1  0.67807822  0.67296922  0.12859336  1
  O  O177  1  0.50420980  0.14685120  0.37677280  1
  O  O178  1  -0.02378667  0.33989441  0.62501930  1
  O  O179  1  0.32546953  0.00810370  0.62415965  1
  O  O180  1  -0.03536165  0.32601250  0.37506175  1
  O  O181  1  0.19258586  0.49742170  0.63397773  1
  O  O182  1  0.20448018  0.17529523  0.36813938  1
  O  O183  1  0.83958556  0.82703066  0.88217533  1
  O  O184  1  -0.02638639  0.66586405  0.61858403  1
  O  O185  1  0.19753257  0.48378129  0.37826775  1
  O  O186  1  0.17130568  0.80724609  0.37921626  1
  O  O187  1  0.16247372  0.49012343  0.12276706  1
  O  O188  1  0.65379782  -0.01269668  0.62536630  1
  O  O189  1  0.50962957  0.83940284  0.62551902  1
  O  O190  1  0.33861778  0.66897846  0.61679626  1
  O  O191  1  0.16018332  0.80877372  0.63282889  1
  O  O192  1  0.33117197  0.66780109  0.87135222  1
  O  O193  1  0.51342037  0.81777260  0.88095658  1
  O  O194  1  0.49585266  0.16565020  0.63093360  1
  O  O195  1  0.31868588  -0.00088039  0.87202144  1
  O  O196  1  0.65794523  -0.00427585  0.11884872  1
  O  O197  1  0.18572477  0.49015820  0.87273741  1
  O  O198  1  0.33058646  0.03351978  0.37472864  1
  O  O199  1  -0.01182155  0.66755270  0.13046066  1
  O  O200  1  0.17207074  0.15467163  0.12234644  1
  O  O201  1  0.18507312  0.16257044  0.62209708  1
  O  O202  1  0.52716169  0.82614034  0.37156562  1
  O  O203  1  0.65907298  0.33482956  0.37236486  1
  O  O204  1  0.83685864  0.49962123  0.37857958  1
  O  O205  1  0.50066141  0.82679451  0.12457585  1
  O  O206  1  0.16427978  0.14558070  0.87315579  1
  O  O207  1  -0.03163577  0.66358770  0.86931085  1
  O  O208  1  0.31595452  0.33992225  0.36237646  1
  O  O209  1  0.00137998  0.02735969  0.87940120  1
  O  O210  1  0.67310132  0.67888409  0.36944944  1
  O  O211  1  -0.00718027  0.34037390  0.87511379  1
  O  O212  1  0.50853584  0.51104736  0.12780661  1
  O  O213  1  0.01636359  0.02050207  0.37140523  1
  O  O214  1  0.82468674  0.49831966  0.87986903  1
  O  O215  1  0.65443616  0.69400537  0.86938856  1
