# generated using pymatgen
data_Sr24Ta24N11O13
_symmetry_space_group_name_H-M   'P 1'
_cell_length_a   17.48995136
_cell_length_b   16.62610371
_cell_length_c   15.29139673
_cell_angle_alpha   89.81641129
_cell_angle_beta   88.60381066
_cell_angle_gamma   90.57810499
_symmetry_Int_Tables_number   1
_chemical_formula_structural   Sr24Ta24N11O13
_chemical_formula_sum   'Sr72 Ta72 N33 O39'
_cell_volume   4445.00847917
_cell_formula_units_Z   3
loop_
 _symmetry_equiv_pos_site_id
 _symmetry_equiv_pos_as_xyz
  1  'x, y, z'
loop_
 _atom_site_type_symbol
 _atom_site_label
 _atom_site_symmetry_multiplicity
 _atom_site_fract_x
 _atom_site_fract_y
 _atom_site_fract_z
 _atom_site_occupancy
  Sr  Sr0  1  -0.00711443  0.16945167  0.13506467  1
  Sr  Sr1  1  -0.03608693  0.19025319  0.62606106  1
  Sr  Sr2  1  -0.01030694  0.51313298  0.10350617  1
  Sr  Sr3  1  -0.03533520  0.50175141  0.63652927  1
  Sr  Sr4  1  -0.04514720  0.82911632  0.17216066  1
  Sr  Sr5  1  0.00235848  0.83151141  0.61959407  1
  Sr  Sr6  1  0.32237970  0.18326182  0.10233175  1
  Sr  Sr7  1  0.30832961  0.16307551  0.63432102  1
  Sr  Sr8  1  0.29084419  0.49845287  0.17068917  1
  Sr  Sr9  1  0.35283187  0.51189736  0.62077997  1
  Sr  Sr10  1  0.33331402  0.83081089  0.13280377  1
  Sr  Sr11  1  0.30708955  0.86052060  0.63136711  1
  Sr  Sr12  1  0.62728281  0.16769754  0.16586529  1
  Sr  Sr13  1  0.67294330  0.16297125  0.62125958  1
  Sr  Sr14  1  0.66281228  0.50725018  0.13244693  1
  Sr  Sr15  1  0.63376300  0.52941387  0.62635654  1
  Sr  Sr16  1  0.66020079  0.85098204  0.10033822  1
  Sr  Sr17  1  0.63941749  0.83345341  0.63280048  1
  Sr  Sr18  1  0.21162677  -0.00197756  0.08675782  1
  Sr  Sr19  1  0.16169659  -0.00168701  0.62823584  1
  Sr  Sr20  1  0.17460633  0.31792582  0.15213793  1
  Sr  Sr21  1  0.20931326  0.34410322  0.60630157  1
  Sr  Sr22  1  0.17489183  0.66473956  0.11847327  1
  Sr  Sr23  1  0.19635317  0.63941209  0.61859592  1
  Sr  Sr24  1  0.51332655  -0.01324888  0.15260022  1
  Sr  Sr25  1  0.52645695  0.00795352  0.61332643  1
  Sr  Sr26  1  0.49978208  0.32390475  0.11607844  1
  Sr  Sr27  1  0.52715892  0.30104270  0.61963289  1
  Sr  Sr28  1  0.53729251  0.67051887  0.08290073  1
  Sr  Sr29  1  0.49178769  0.68036244  0.63325924  1
  Sr  Sr30  1  0.84100469  0.00201038  0.11658210  1
  Sr  Sr31  1  0.86244942  -0.02521328  0.62033502  1
  Sr  Sr32  1  0.87350107  0.33307971  0.08803615  1
  Sr  Sr33  1  0.82732723  0.33481337  0.63043284  1
  Sr  Sr34  1  0.83835970  0.64894789  0.15024418  1
  Sr  Sr35  1  0.86505720  0.67050620  0.61047769  1
  Sr  Sr36  1  -0.00984875  0.18370594  0.35125371  1
  Sr  Sr37  1  -0.04068949  0.17412306  0.90133983  1
  Sr  Sr38  1  -0.04373646  0.50396454  0.40326244  1
  Sr  Sr39  1  -0.01199626  0.49958546  0.88214559  1
  Sr  Sr40  1  -0.00271534  0.83367390  0.39347019  1
  Sr  Sr41  1  -0.00783875  0.84523996  0.84848529  1
  Sr  Sr42  1  0.28606083  0.16909263  0.40174475  1
  Sr  Sr43  1  0.31474319  0.16926896  0.88476797  1
  Sr  Sr44  1  0.33271932  0.50668244  0.39483399  1
  Sr  Sr45  1  0.31973698  0.51149396  0.84920051  1
  Sr  Sr46  1  0.32876823  0.84683498  0.34625403  1
  Sr  Sr47  1  0.29024149  0.82908703  0.91933185  1
  Sr  Sr48  1  0.66205429  0.17545091  0.39333682  1
  Sr  Sr49  1  0.65343976  0.18683008  0.84963870  1
  Sr  Sr50  1  0.65834465  0.51285018  0.34534328  1
  Sr  Sr51  1  0.62414292  0.50724275  0.90918473  1
  Sr  Sr52  1  0.62378389  0.83734440  0.40256830  1
  Sr  Sr53  1  0.65608798  0.83651698  0.88284975  1
  Sr  Sr54  1  0.18066364  -0.01548097  0.40025174  1
  Sr  Sr55  1  0.17491334  -0.00339262  0.85647898  1
  Sr  Sr56  1  0.16962201  0.32761542  0.36606783  1
  Sr  Sr57  1  0.20016269  0.32895413  0.85267479  1
  Sr  Sr58  1  0.21255458  0.66397039  0.33824385  1
  Sr  Sr59  1  0.17216546  0.64986360  0.90245716  1
  Sr  Sr60  1  0.50994443  0.00011129  0.36696521  1
  Sr  Sr61  1  0.54603578  0.00243889  0.84791689  1
  Sr  Sr62  1  0.54470567  0.33043022  0.33048564  1
  Sr  Sr63  1  0.50261697  0.31814581  0.90433698  1
  Sr  Sr64  1  0.51023706  0.64674056  0.40213512  1
  Sr  Sr65  1  0.49712693  0.66465421  0.86063152  1
  Sr  Sr66  1  0.88101043  -0.00761277  0.34418214  1
  Sr  Sr67  1  0.84347638  -0.01399587  0.89946162  1
  Sr  Sr68  1  0.84520164  0.32427667  0.40551291  1
  Sr  Sr69  1  0.84234303  0.33239572  0.85698846  1
  Sr  Sr70  1  0.84666895  0.66656513  0.36497199  1
  Sr  Sr71  1  0.87288050  0.65997029  0.84696246  1
  Ta  Ta72  1  0.13278460  0.16944169  -0.00478387  1
  Ta  Ta73  1  0.11473089  0.17072241  0.50156108  1
  Ta  Ta74  1  0.16584888  0.46800175  0.00971706  1
  Ta  Ta75  1  0.12866522  0.50033848  0.47896499  1
  Ta  Ta76  1  0.10751653  0.83888555  0.02207277  1
  Ta  Ta77  1  0.17410301  0.79555790  0.49002812  1
  Ta  Ta78  1  0.49996849  0.13025271  0.00926281  1
  Ta  Ta79  1  0.45556355  0.17003192  0.47473628  1
  Ta  Ta80  1  0.44350091  0.50048727  0.01945235  1
  Ta  Ta81  1  0.50470699  0.45288482  0.48384792  1
  Ta  Ta82  1  0.47614871  0.85253727  -0.01144252  1
  Ta  Ta83  1  0.45327855  0.84366701  0.50600267  1
  Ta  Ta84  1  0.77410156  0.17482235  0.00367005  1
  Ta  Ta85  1  0.83173292  0.12513944  0.49722219  1
  Ta  Ta86  1  0.80373424  0.50441232  -0.01264986  1
  Ta  Ta87  1  0.78348581  0.50895193  0.50135652  1
  Ta  Ta88  1  0.83710057  0.79962615  0.00125244  1
  Ta  Ta89  1  0.79976915  0.83241508  0.48326498  1
  Ta  Ta90  1  0.16449229  0.12570757  0.24696091  1
  Ta  Ta91  1  0.11492430  0.17473615  0.74794868  1
  Ta  Ta92  1  0.11143501  0.50307817  0.26593101  1
  Ta  Ta93  1  0.13552123  0.49184248  0.74406139  1
  Ta  Ta94  1  0.13958174  0.84316613  0.22725371  1
  Ta  Ta95  1  0.16272089  0.79619147  0.75522552  1
  Ta  Ta96  1  0.44409427  0.16865539  0.26601079  1
  Ta  Ta97  1  0.46572794  0.16185710  0.75101452  1
  Ta  Ta98  1  0.47205972  0.50529218  0.23419783  1
  Ta  Ta99  1  0.49650085  0.45690365  0.75459065  1
  Ta  Ta100  1  0.50605693  0.79720429  0.24140948  1
  Ta  Ta101  1  0.44719128  0.84811973  0.76297599  1
  Ta  Ta102  1  0.80792756  0.17752786  0.24049473  1
  Ta  Ta103  1  0.82394890  0.12669496  0.75217220  1
  Ta  Ta104  1  0.83321870  0.46293832  0.24509069  1
  Ta  Ta105  1  0.78022440  0.50796357  0.75767230  1
  Ta  Ta106  1  0.77680928  0.83735154  0.27025110  1
  Ta  Ta107  1  0.80340525  0.82608110  0.74122321  1
  Ta  Ta108  1  0.05864282  -0.01023849  0.23748256  1
  Ta  Ta109  1  0.00223962  0.04103815  0.74911675  1
  Ta  Ta110  1  -0.00284230  0.36801565  0.25265612  1
  Ta  Ta111  1  0.03605885  0.33588613  0.74293687  1
  Ta  Ta112  1  0.03154150  0.65630747  0.26845544  1
  Ta  Ta113  1  0.04775842  0.66151978  0.74635039  1
  Ta  Ta114  1  0.33353262  0.03632526  0.25053746  1
  Ta  Ta115  1  0.37315148  0.00443073  0.76785841  1
  Ta  Ta116  1  0.36115367  0.32489359  0.26335562  1
  Ta  Ta117  1  0.37747400  0.32899605  0.75402570  1
  Ta  Ta118  1  0.38920287  0.66172935  0.23982072  1
  Ta  Ta119  1  0.32486789  0.70497163  0.75890809  1
  Ta  Ta120  1  0.70177238  -0.00538333  0.26187099  1
  Ta  Ta121  1  0.71506463  -0.00838558  0.74851802  1
  Ta  Ta122  1  0.72529933  0.33010718  0.23671143  1
  Ta  Ta123  1  0.65764531  0.37363840  0.75824934  1
  Ta  Ta124  1  0.65998363  0.70420561  0.24282701  1
  Ta  Ta125  1  0.70157070  0.67235703  0.76176388  1
  Ta  Ta126  1  0.03019781  -0.00631974  0.00953466  1
  Ta  Ta127  1  0.00801309  0.03683345  0.50202252  1
  Ta  Ta128  1  0.05030962  0.33169991  -0.00250605  1
  Ta  Ta129  1  0.02969382  0.34227394  0.50773851  1
  Ta  Ta130  1  -0.00519452  0.70212055  0.00398532  1
  Ta  Ta131  1  0.05260637  0.65745891  0.49102743  1
  Ta  Ta132  1  0.39189021  -0.00370682  -0.01494703  1
  Ta  Ta133  1  0.36428189  0.00593188  0.49716073  1
  Ta  Ta134  1  0.32880606  0.37302500  0.00891959  1
  Ta  Ta135  1  0.38900744  0.32428582  0.47963885  1
  Ta  Ta136  1  0.35405866  0.64434166  0.01615724  1
  Ta  Ta137  1  0.33978740  0.70643032  0.49834085  1
  Ta  Ta138  1  0.66638443  0.03908486  0.00976101  1
  Ta  Ta139  1  0.72002142  -0.00720089  0.48237649  1
  Ta  Ta140  1  0.69453196  0.32869279  0.01856577  1
  Ta  Ta141  1  0.66974753  0.37020545  0.48986268  1
  Ta  Ta142  1  0.72150663  0.66984579  -0.01064405  1
  Ta  Ta143  1  0.69870638  0.67433668  0.49747324  1
  N  N144  1  0.81982431  0.15833265  0.61940112  1
  N  N145  1  -0.00116610  0.33678339  0.38133850  1
  N  N146  1  0.01108109  -0.00065467  0.62997740  1
  N  N147  1  0.83246318  0.49597461  0.11268582  1
  N  N148  1  0.35625268  0.66991622  0.37296005  1
  N  N149  1  0.14350246  0.16402985  0.37101195  1
  N  N150  1  0.84322163  0.49252525  0.86011803  1
  N  N151  1  0.49995102  0.48967497  0.35521383  1
  N  N152  1  0.81387749  0.50308211  0.62751044  1
  N  N153  1  0.68373295  0.67524466  0.11882352  1
  N  N154  1  0.31911658  0.66890763  0.14357506  1
  N  N155  1  0.82602300  0.82401505  0.61616089  1
  N  N156  1  -0.01014187  0.67525701  0.38686024  1
  N  N157  1  0.14884119  0.49420357  0.13340743  1
  N  N158  1  0.67373261  0.00806080  0.13837156  1
  N  N159  1  0.18866480  0.83048739  0.10961172  1
  N  N160  1  0.47848498  0.84371542  0.63176857  1
  N  N161  1  0.01460791  0.67352105  0.88290810  1
  N  N162  1  0.33016838  0.00229751  0.37606311  1
  N  N163  1  0.48152970  0.15970934  0.13273653  1
  N  N164  1  0.34112553  0.67462369  0.63164836  1
  N  N165  1  0.85340953  0.83168507  0.36258267  1
  N  N166  1  0.01899697  0.66594743  0.62163919  1
  N  N167  1  -0.01711233  0.34642727  0.63290807  1
  N  N168  1  0.81532178  0.50080256  0.36843125  1
  N  N169  1  0.50040793  0.83039533  0.11064415  1
  N  N170  1  0.34622411  0.33714018  0.88048738  1
  N  N171  1  0.16153110  0.16139880  0.11690929  1
  N  N172  1  0.68698971  0.33998514  0.36595521  1
  N  N173  1  0.33257968  0.66850908  0.88819054  1
  N  N174  1  0.01734832  0.33427460  0.12238921  1
  N  N175  1  0.80902826  0.16464695  0.88144005  1
  N  N176  1  0.33692823  0.33657400  0.14029034  1
  O  O177  1  0.81657398  0.17093859  0.37060841  1
  O  O178  1  -0.00983431  0.00481640  0.13328311  1
  O  O179  1  0.49792565  0.46468922  0.62253418  1
  O  O180  1  0.02618355  -0.00471628  0.37476582  1
  O  O181  1  0.46681681  0.16108801  0.61892588  1
  O  O182  1  0.35314580  -0.00294172  0.12360072  1
  O  O183  1  0.52367012  0.15657557  0.35979820  1
  O  O184  1  0.64326036  0.34437158  0.13780821  1
  O  O185  1  0.51762149  0.82273264  0.85963417  1
  O  O186  1  0.36222589  0.01072343  0.63821012  1
  O  O187  1  -0.00305215  0.33754613  0.87609217  1
  O  O188  1  0.84251717  0.16245659  0.11600975  1
  O  O189  1  0.15937390  0.49040225  0.87057766  1
  O  O190  1  0.66126158  0.34637844  0.88913346  1
  O  O191  1  0.69628673  0.67659486  0.63434959  1
  O  O192  1  0.19044020  0.48896535  0.36332682  1
  O  O193  1  0.31420449  0.00922716  0.88958250  1
  O  O194  1  0.48440109  0.84098262  0.36470432  1
  O  O195  1  0.66450543  0.67045975  0.37443718  1
  O  O196  1  0.81652089  0.82402253  0.13080929  1
  O  O197  1  0.35945492  0.32641980  0.61823564  1
  O  O198  1  0.30980634  0.34632168  0.38982622  1
  O  O199  1  0.16432538  0.16374600  0.62054574  1
  O  O200  1  0.17527680  0.82274284  0.36001948  1
  O  O201  1  0.69589973  -0.00977665  0.61882422  1
  O  O202  1  0.64878423  0.01672992  0.38385389  1
  O  O203  1  0.84358529  0.82521025  0.87317777  1
  O  O204  1  0.48030076  0.48883048  0.88277025  1
  O  O205  1  0.65006537  0.67596871  0.88708626  1
  O  O206  1  0.50134012  0.16309541  0.87460747  1
  O  O207  1  -0.00683513  0.67279428  0.14142742  1
  O  O208  1  0.16487842  0.81008257  0.61921387  1
  O  O209  1  0.52380909  0.48249325  0.11034395  1
  O  O210  1  0.14504582  0.82442783  0.88351643  1
  O  O211  1  0.15009184  0.49095425  0.61166281  1
  O  O212  1  0.68932666  -0.00648582  0.88376004  1
  O  O213  1  0.66547078  0.35841746  0.63053475  1
  O  O214  1  0.16718462  0.16000142  0.86155035  1
  O  O215  1  0.02334236  -0.00085907  0.87847789  1
