# generated using pymatgen
data_Sr24Ta24N11O13
_symmetry_space_group_name_H-M   'P 1'
_cell_length_a   16.79568798
_cell_length_b   16.79607868
_cell_length_c   15.74036116
_cell_angle_alpha   89.82353490
_cell_angle_beta   89.77408660
_cell_angle_gamma   90.08411445
_symmetry_Int_Tables_number   1
_chemical_formula_structural   Sr24Ta24N11O13
_chemical_formula_sum   'Sr72 Ta72 N33 O39'
_cell_volume   4440.32215088
_cell_formula_units_Z   3
loop_
 _symmetry_equiv_pos_site_id
 _symmetry_equiv_pos_as_xyz
  1  'x, y, z'
loop_
 _atom_site_type_symbol
 _atom_site_label
 _atom_site_symmetry_multiplicity
 _atom_site_fract_x
 _atom_site_fract_y
 _atom_site_fract_z
 _atom_site_occupancy
  Sr  Sr0  1  0.01641614  0.15954407  0.08373289  1
  Sr  Sr1  1  -0.00989724  0.16133891  0.63606582  1
  Sr  Sr2  1  0.00847873  0.48217297  0.13006780  1
  Sr  Sr3  1  -0.00682390  0.51890919  0.57393458  1
  Sr  Sr4  1  0.00159269  0.83756112  0.12005301  1
  Sr  Sr5  1  -0.00985702  0.82668588  0.66709029  1
  Sr  Sr6  1  0.32353115  0.16044802  0.16224675  1
  Sr  Sr7  1  0.33660649  0.16915207  0.62635726  1
  Sr  Sr8  1  0.33934924  0.48339257  0.09792916  1
  Sr  Sr9  1  0.30385567  0.50030052  0.63761111  1
  Sr  Sr10  1  0.33724590  0.83388962  0.12647092  1
  Sr  Sr11  1  0.32357607  0.82582880  0.61446752  1
  Sr  Sr12  1  0.66530538  0.15050414  0.13798706  1
  Sr  Sr13  1  0.66115611  0.17115935  0.59136214  1
  Sr  Sr14  1  0.67133025  0.50800384  0.16962608  1
  Sr  Sr15  1  0.65243218  0.49647297  0.63123727  1
  Sr  Sr16  1  0.66947432  0.81391042  0.07941187  1
  Sr  Sr17  1  0.66143855  0.85152090  0.62744023  1
  Sr  Sr18  1  0.15688197  0.00097149  0.10884151  1
  Sr  Sr19  1  0.17521630  0.01995787  0.58248954  1
  Sr  Sr20  1  0.17047697  0.34145122  0.11953672  1
  Sr  Sr21  1  0.17029407  0.31946379  0.68001790  1
  Sr  Sr22  1  0.16931894  0.68909101  0.15954430  1
  Sr  Sr23  1  0.16671913  0.65948061  0.61052918  1
  Sr  Sr24  1  0.50361341  0.00071009  0.11779210  1
  Sr  Sr25  1  0.47848377  -0.01029551  0.67736143  1
  Sr  Sr26  1  0.50515300  0.33318512  0.09135832  1
  Sr  Sr27  1  0.50675586  0.32849898  0.62437526  1
  Sr  Sr28  1  0.49881928  0.65582833  0.13281528  1
  Sr  Sr29  1  0.51982506  0.67732169  0.59279152  1
  Sr  Sr30  1  0.83640479  0.00065593  0.16207268  1
  Sr  Sr31  1  0.82180615  0.00679450  0.61017428  1
  Sr  Sr32  1  0.82602394  0.32363606  0.12669856  1
  Sr  Sr33  1  0.84006342  0.34234549  0.64111972  1
  Sr  Sr34  1  0.84697264  0.68116358  0.11097137  1
  Sr  Sr35  1  0.83838679  0.66292541  0.62570050  1
  Sr  Sr36  1  0.00807418  0.14374568  0.41712603  1
  Sr  Sr37  1  -0.00070898  0.18055790  0.85933678  1
  Sr  Sr38  1  0.00847218  0.47310085  0.36666459  1
  Sr  Sr39  1  -0.01066384  0.50520799  0.91585641  1
  Sr  Sr40  1  -0.01555150  0.83866516  0.33051168  1
  Sr  Sr41  1  0.00162808  0.83059622  0.87813222  1
  Sr  Sr42  1  0.32747247  0.16361915  0.38088241  1
  Sr  Sr43  1  0.34349036  0.16981359  0.83915033  1
  Sr  Sr44  1  0.32177797  0.48172155  0.37792458  1
  Sr  Sr45  1  0.31874902  0.49989182  0.88066529  1
  Sr  Sr46  1  0.34392984  0.81630140  0.36923347  1
  Sr  Sr47  1  0.33118282  0.84519850  0.87120823  1
  Sr  Sr48  1  0.66982623  0.15385294  0.36606133  1
  Sr  Sr49  1  0.65776028  0.18473474  0.92116705  1
  Sr  Sr50  1  0.65004006  0.50005419  0.37384006  1
  Sr  Sr51  1  0.67886634  0.49836304  0.83059422  1
  Sr  Sr52  1  0.67652929  0.83047712  0.41953226  1
  Sr  Sr53  1  0.65612891  0.85637373  0.86731518  1
  Sr  Sr54  1  0.16692464  0.01006343  0.38470379  1
  Sr  Sr55  1  0.15095001  -0.00602595  0.91072031  1
  Sr  Sr56  1  0.18259568  0.32815749  0.33267977  1
  Sr  Sr57  1  0.16513314  0.34230370  0.88843314  1
  Sr  Sr58  1  0.16735349  0.67121767  0.38430874  1
  Sr  Sr59  1  0.18054207  0.68533386  0.82745096  1
  Sr  Sr60  1  0.49294890  0.01444990  0.32892044  1
  Sr  Sr61  1  0.50608380  0.00478062  0.88844012  1
  Sr  Sr62  1  0.49600783  0.32080319  0.41477336  1
  Sr  Sr63  1  0.50826968  0.33795382  0.87780734  1
  Sr  Sr64  1  0.51111783  0.66109418  0.36488626  1
  Sr  Sr65  1  0.50715951  0.66016252  0.89749290  1
  Sr  Sr66  1  0.82936330  0.00558659  0.38382751  1
  Sr  Sr67  1  0.85326443  0.00002462  0.82355131  1
  Sr  Sr68  1  0.83122671  0.34552804  0.35100074  1
  Sr  Sr69  1  0.83231464  0.32530356  0.87901672  1
  Sr  Sr70  1  0.84115151  0.67243437  0.37927465  1
  Sr  Sr71  1  0.84011419  0.67164249  0.88510873  1
  Ta  Ta72  1  0.20432324  0.17102830  -0.00511617  1
  Ta  Ta73  1  0.16861765  0.22390104  0.50919730  1
  Ta  Ta74  1  0.16703469  0.55724570  -0.00020994  1
  Ta  Ta75  1  0.16320602  0.43371265  0.50697287  1
  Ta  Ta76  1  0.17151135  0.80083626  -0.00350265  1
  Ta  Ta77  1  0.12144175  0.83616596  0.49913134  1
  Ta  Ta78  1  0.45987063  0.16446649  0.00311650  1
  Ta  Ta79  1  0.49070172  0.12582552  0.50999710  1
  Ta  Ta80  1  0.54611514  0.50265836  0.00525227  1
  Ta  Ta81  1  0.47152562  0.50544634  0.49835000  1
  Ta  Ta82  1  0.48913254  0.82511128  0.00078688  1
  Ta  Ta83  1  0.49503367  0.87146568  0.50210664  1
  Ta  Ta84  1  0.83930069  0.12909907  -0.00802815  1
  Ta  Ta85  1  0.83346087  0.20564797  0.50283550  1
  Ta  Ta86  1  0.80162008  0.50030998  0.00223097  1
  Ta  Ta87  1  0.80579298  0.49405564  0.49971724  1
  Ta  Ta88  1  0.83302604  0.88348060  -0.00427493  1
  Ta  Ta89  1  0.86810152  0.83058941  0.50491681  1
  Ta  Ta90  1  0.13733821  0.15699717  0.24345486  1
  Ta  Ta91  1  0.16804016  0.12954346  0.75352570  1
  Ta  Ta92  1  0.17655978  0.51788918  0.24389893  1
  Ta  Ta93  1  0.11890275  0.50307980  0.74579360  1
  Ta  Ta94  1  0.17163706  0.86714451  0.24582300  1
  Ta  Ta95  1  0.16702317  0.87603776  0.74740087  1
  Ta  Ta96  1  0.49856845  0.20454790  0.24487624  1
  Ta  Ta97  1  0.53416932  0.17187575  0.75500639  1
  Ta  Ta98  1  0.48346447  0.46710215  0.24921309  1
  Ta  Ta99  1  0.47579614  0.51184157  0.75229840  1
  Ta  Ta100  1  0.54810554  0.82806321  0.25230094  1
  Ta  Ta101  1  0.49567582  0.79239348  0.74457444  1
  Ta  Ta102  1  0.88361828  0.16632761  0.24987185  1
  Ta  Ta103  1  0.78956819  0.17114646  0.74880954  1
  Ta  Ta104  1  0.85353696  0.52871638  0.25492530  1
  Ta  Ta105  1  0.87279821  0.50647415  0.74627716  1
  Ta  Ta106  1  0.78645052  0.83063047  0.24982662  1
  Ta  Ta107  1  0.80725718  0.81465931  0.74646191  1
  Ta  Ta108  1  0.01255501  0.02669469  0.25056836  1
  Ta  Ta109  1  0.04551831  -0.00088888  0.73956384  1
  Ta  Ta110  1  0.00257583  0.28140479  0.24941075  1
  Ta  Ta111  1  -0.00233532  0.38556634  0.75412457  1
  Ta  Ta112  1  -0.00001539  0.64255947  0.25369869  1
  Ta  Ta113  1  0.00131259  0.63084972  0.74532012  1
  Ta  Ta114  1  0.30518165  -0.01472270  0.24720659  1
  Ta  Ta115  1  0.27813340  0.00044495  0.74981198  1
  Ta  Ta116  1  0.37382306  0.33353779  0.24444201  1
  Ta  Ta117  1  0.35618168  0.35215529  0.76089540  1
  Ta  Ta118  1  0.32859407  0.62481551  0.24586878  1
  Ta  Ta119  1  0.37907677  0.66239859  0.74687604  1
  Ta  Ta120  1  0.66419952  -0.04930112  0.24599245  1
  Ta  Ta121  1  0.66320542  0.04352354  0.74803992  1
  Ta  Ta122  1  0.61983593  0.33036050  0.25162381  1
  Ta  Ta123  1  0.66782193  0.30335330  0.75172456  1
  Ta  Ta124  1  0.67957615  0.70144709  0.25424036  1
  Ta  Ta125  1  0.66582495  0.68961653  0.74799158  1
  Ta  Ta126  1  -0.04070189  -0.00460188  -0.00011664  1
  Ta  Ta127  1  -0.00337929  -0.04443688  0.50126861  1
  Ta  Ta128  1  -0.00849406  0.32782238  0.00280816  1
  Ta  Ta129  1  0.01972432  0.32303845  0.50678778  1
  Ta  Ta130  1  0.04441620  0.67126061  -0.00172274  1
  Ta  Ta131  1  -0.00106683  0.71629309  0.50259894  1
  Ta  Ta132  1  0.33171012  0.03415491  0.00219477  1
  Ta  Ta133  1  0.38030097  -0.00355468  0.49888872  1
  Ta  Ta134  1  0.33390676  0.29346544  0.00245325  1
  Ta  Ta135  1  0.30740209  0.33466260  0.50679611  1
  Ta  Ta136  1  0.30809673  0.67481986  -0.00385539  1
  Ta  Ta137  1  0.35291634  0.63948472  0.49751798  1
  Ta  Ta138  1  0.71138002  0.00173363  0.00118956  1
  Ta  Ta139  1  0.60324058  0.00265295  0.50616311  1
  Ta  Ta140  1  0.67499772  0.38738003  -0.00262980  1
  Ta  Ta141  1  0.69335179  0.34191452  0.50346991  1
  Ta  Ta142  1  0.67487365  0.61403453  0.00076026  1
  Ta  Ta143  1  0.69055311  0.64483183  0.50012639  1
  N  N144  1  0.00724554  0.67184459  0.62686858  1
  N  N145  1  0.16788419  0.16793661  0.87337781  1
  N  N146  1  -0.00320489  -0.00738892  0.37112727  1
  N  N147  1  0.16490955  0.83835987  0.87660031  1
  N  N148  1  0.66919740  0.67140757  0.62615071  1
  N  N149  1  0.16489055  0.84193457  0.12482554  1
  N  N150  1  -0.00687047  -0.00314163  0.11998972  1
  N  N151  1  0.50107025  0.16596053  0.88139001  1
  N  N152  1  0.33366825  0.32882764  0.12792048  1
  N  N153  1  0.49324026  0.49117140  0.37936468  1
  N  N154  1  0.83021207  0.17463768  0.62202770  1
  N  N155  1  0.49940349  0.16067106  0.12979829  1
  N  N156  1  0.50988929  0.49868489  0.12565994  1
  N  N157  1  0.49402680  0.15943094  0.63140600  1
  N  N158  1  0.00464781  0.00054557  0.62179359  1
  N  N159  1  0.33611585  0.33924398  0.87982547  1
  N  N160  1  0.16872714  0.51300982  0.12106135  1
  N  N161  1  0.64581208  0.00838147  0.63117014  1
  N  N162  1  0.67177780  0.67188090  0.37681649  1
  N  N163  1  0.66984246  0.34526251  0.87767039  1
  N  N164  1  0.83117317  0.83636294  0.62676607  1
  N  N165  1  0.84134520  0.50197059  0.37501643  1
  N  N166  1  0.83651492  0.50243245  0.62768044  1
  N  N167  1  -0.00027847  0.32394057  0.13143763  1
  N  N168  1  0.49502783  0.83364560  0.62646773  1
  N  N169  1  0.67282893  -0.00979593  0.12325844  1
  N  N170  1  0.32881126  0.00115565  0.12520733  1
  N  N171  1  0.00075156  0.34607471  0.87244865  1
  N  N172  1  0.15113728  0.48414060  0.62203398  1
  N  N173  1  0.66865948  0.33749598  0.62493588  1
  N  N174  1  0.16738530  0.17313860  0.62142359  1
  N  N175  1  0.82883071  0.15902676  0.87164766  1
  N  N176  1  0.16708810  0.16890481  0.12463199  1
  O  O177  1  0.32870811  0.33825946  0.63269529  1
  O  O178  1  0.52095206  0.83197979  0.37699758  1
  O  O179  1  0.16421355  0.47421211  0.37807267  1
  O  O180  1  0.82288652  0.84426467  0.87050051  1
  O  O181  1  0.00251352  0.33511013  0.63142231  1
  O  O182  1  0.82752515  0.51131054  0.12911413  1
  O  O183  1  0.67369678  0.65167242  0.87719675  1
  O  O184  1  0.64383910  -0.00275198  0.36754511  1
  O  O185  1  0.16200874  0.51692975  0.87582968  1
  O  O186  1  0.01424541  0.65979002  0.12913145  1
  O  O187  1  0.49102181  0.49529447  0.63036333  1
  O  O188  1  0.49584990  0.82085165  0.87500717  1
  O  O189  1  0.48668853  0.16407722  0.37171541  1
  O  O190  1  0.85743557  0.16949087  0.38101624  1
  O  O191  1  0.82907259  0.83413146  0.37507964  1
  O  O192  1  0.65110019  0.33674975  0.37506654  1
  O  O193  1  0.31336896  0.00098653  0.87700537  1
  O  O194  1  0.66402640  0.00944064  0.88091846  1
  O  O195  1  0.33676711  0.64263614  0.36907512  1
  O  O196  1  0.15371037  0.83277942  0.62319846  1
  O  O197  1  0.33474717  0.67413424  0.87272681  1
  O  O198  1  0.85662347  0.15641492  0.12605855  1
  O  O199  1  0.32907951  -0.00182857  0.61886060  1
  O  O200  1  0.00148022  -0.01037606  0.86680710  1
  O  O201  1  0.16997689  0.17854911  0.38409217  1
  O  O202  1  0.34997228  0.65932340  0.62036544  1
  O  O203  1  0.50252530  0.50689604  0.87711148  1
  O  O204  1  0.83076536  0.50589832  0.87522264  1
  O  O205  1  0.32779217  0.65558616  0.12228241  1
  O  O206  1  0.00789754  0.31616279  0.37962133  1
  O  O207  1  0.51608649  0.82255004  0.12242367  1
  O  O208  1  0.14065644  0.84202226  0.37296258  1
  O  O209  1  0.82188204  0.83840563  0.11869050  1
  O  O210  1  0.00276052  0.67183395  0.37627130  1
  O  O211  1  0.34320595  -0.00302542  0.37372520  1
  O  O212  1  0.65812799  0.35176735  0.13163350  1
  O  O213  1  0.33503745  0.32659998  0.37933490  1
  O  O214  1  0.02289476  0.67312557  0.86952903  1
  O  O215  1  0.67852575  0.66023216  0.12273128  1
