# generated using pymatgen
data_Sr24Ta24N11O13
_symmetry_space_group_name_H-M   'P 1'
_cell_length_a   16.68994426
_cell_length_b   18.14809990
_cell_length_c   14.61356999
_cell_angle_alpha   87.65015030
_cell_angle_beta   90.41264540
_cell_angle_gamma   91.09871497
_symmetry_Int_Tables_number   1
_chemical_formula_structural   Sr24Ta24N11O13
_chemical_formula_sum   'Sr72 Ta72 N33 O39'
_cell_volume   4421.68914439
_cell_formula_units_Z   3
loop_
 _symmetry_equiv_pos_site_id
 _symmetry_equiv_pos_as_xyz
  1  'x, y, z'
loop_
 _atom_site_type_symbol
 _atom_site_label
 _atom_site_symmetry_multiplicity
 _atom_site_fract_x
 _atom_site_fract_y
 _atom_site_fract_z
 _atom_site_occupancy
  Sr  Sr0  1  0.01382822  0.15295126  0.10034884  1
  Sr  Sr1  1  -0.00916871  0.14796270  0.64130561  1
  Sr  Sr2  1  -0.00204594  0.44907260  0.17454866  1
  Sr  Sr3  1  -0.00561199  0.50466102  0.62919941  1
  Sr  Sr4  1  0.00742038  0.82783919  0.13828233  1
  Sr  Sr5  1  0.02075265  0.78270807  0.60939869  1
  Sr  Sr6  1  0.33439371  0.12159866  0.15838333  1
  Sr  Sr7  1  0.34093431  0.18710045  0.61652825  1
  Sr  Sr8  1  0.33660306  0.50587516  0.13514231  1
  Sr  Sr9  1  0.36458443  0.46854454  0.63761356  1
  Sr  Sr10  1  0.34882393  0.82296420  0.10306859  1
  Sr  Sr11  1  0.33298228  0.77651652  0.65745569  1
  Sr  Sr12  1  0.67698553  0.16121048  0.12953027  1
  Sr  Sr13  1  0.67712814  0.13106525  0.64194133  1
  Sr  Sr14  1  0.69215067  0.49072818  0.11601945  1
  Sr  Sr15  1  0.66184036  0.46970645  0.64603830  1
  Sr  Sr16  1  0.66574913  0.77892262  0.17761866  1
  Sr  Sr17  1  0.66197533  0.81890679  0.62669137  1
  Sr  Sr18  1  0.15330626  0.00593057  0.14359154  1
  Sr  Sr19  1  0.16822184  0.06344598  0.59050422  1
  Sr  Sr20  1  0.16904629  0.32499891  0.11863290  1
  Sr  Sr21  1  0.13481967  0.36883732  0.61128425  1
  Sr  Sr22  1  0.16637461  0.71637533  0.08097247  1
  Sr  Sr23  1  0.16658818  0.65108586  0.63116115  1
  Sr  Sr24  1  0.49326577  0.01397894  0.10679999  1
  Sr  Sr25  1  0.48378379  0.04476737  0.63474683  1
  Sr  Sr26  1  0.50525603  0.38548569  0.06367847  1
  Sr  Sr27  1  0.50589242  0.33202550  0.62001510  1
  Sr  Sr28  1  0.48321426  0.67068019  0.14969502  1
  Sr  Sr29  1  0.50666005  0.68637635  0.61568303  1
  Sr  Sr30  1  0.83730833  0.04632758  0.07619016  1
  Sr  Sr31  1  0.83581233  0.01340595  0.62472876  1
  Sr  Sr32  1  0.81261874  0.33358232  0.13491816  1
  Sr  Sr33  1  0.83638267  0.36513157  0.60665219  1
  Sr  Sr34  1  0.83059398  0.67416601  0.12384473  1
  Sr  Sr35  1  0.82043340  0.70158362  0.60531986  1
  Sr  Sr36  1  -0.00589483  0.11020586  0.41724297  1
  Sr  Sr37  1  -0.00393415  0.14288222  0.87777838  1
  Sr  Sr38  1  0.01315058  0.47649807  0.40226198  1
  Sr  Sr39  1  0.01472775  0.49081459  0.86272981  1
  Sr  Sr40  1  0.01304923  0.83326867  0.36141703  1
  Sr  Sr41  1  0.00304963  0.79177781  0.90130154  1
  Sr  Sr42  1  0.33265045  0.17066537  0.38374417  1
  Sr  Sr43  1  0.34581501  0.15034000  0.84846804  1
  Sr  Sr44  1  0.35445629  0.49849334  0.34947223  1
  Sr  Sr45  1  0.33522636  0.44799091  0.92869062  1
  Sr  Sr46  1  0.34129915  0.79969846  0.41042572  1
  Sr  Sr47  1  0.33322166  0.83084337  0.88015223  1
  Sr  Sr48  1  0.67180827  0.15567642  0.35083770  1
  Sr  Sr49  1  0.66987169  0.10809207  0.90696275  1
  Sr  Sr50  1  0.67062259  0.45000291  0.40172225  1
  Sr  Sr51  1  0.67192939  0.49567178  0.89454594  1
  Sr  Sr52  1  0.66639589  0.82749385  0.39836848  1
  Sr  Sr53  1  0.68890055  0.81160291  0.86557045  1
  Sr  Sr54  1  0.16894305  0.00181059  0.37143201  1
  Sr  Sr55  1  0.16001935  0.04010705  0.83035527  1
  Sr  Sr56  1  0.17248236  0.38657122  0.31850370  1
  Sr  Sr57  1  0.15142723  0.34174428  0.90281191  1
  Sr  Sr58  1  0.15325056  0.69007763  0.40133935  1
  Sr  Sr59  1  0.16276430  0.67790562  0.85498023  1
  Sr  Sr60  1  0.48559023  0.04283398  0.35351509  1
  Sr  Sr61  1  0.47811868  0.00319738  0.88479427  1
  Sr  Sr62  1  0.48257592  0.34422612  0.38809868  1
  Sr  Sr63  1  0.48678292  0.35142397  0.84506744  1
  Sr  Sr64  1  0.50360556  0.69226907  0.36996474  1
  Sr  Sr65  1  0.50144400  0.71912490  0.85112035  1
  Sr  Sr66  1  0.80975727  0.01844402  0.38340273  1
  Sr  Sr67  1  0.83727740  0.00102783  0.85285304  1
  Sr  Sr68  1  0.82558699  0.33561626  0.35667771  1
  Sr  Sr69  1  0.82825813  0.38158383  0.85200125  1
  Sr  Sr70  1  0.82965209  0.72431387  0.34664614  1
  Sr  Sr71  1  0.82719152  0.67854060  0.90148817  1
  Ta  Ta72  1  0.20265575  0.16050925  0.00407068  1
  Ta  Ta73  1  0.14861796  0.23335420  0.46584313  1
  Ta  Ta74  1  0.15597297  0.52890296  0.03269441  1
  Ta  Ta75  1  0.21154077  0.51129099  0.49133279  1
  Ta  Ta76  1  0.16167166  0.88782638  -0.02355884  1
  Ta  Ta77  1  0.18672956  0.87294780  0.53961501  1
  Ta  Ta78  1  0.50248441  0.20109262  0.00336281  1
  Ta  Ta79  1  0.53257086  0.18440790  0.49691929  1
  Ta  Ta80  1  0.49274193  0.56190411  -0.01955488  1
  Ta  Ta81  1  0.50959909  0.53215695  0.50206517  1
  Ta  Ta82  1  0.53678702  0.83971678  0.02149178  1
  Ta  Ta83  1  0.49283543  0.88797606  0.50787573  1
  Ta  Ta84  1  0.83138052  0.21761149  -0.02452901  1
  Ta  Ta85  1  0.82704616  0.19581156  0.50816452  1
  Ta  Ta86  1  0.87462186  0.50880748  0.01257360  1
  Ta  Ta87  1  0.82462384  0.54882153  0.48449145  1
  Ta  Ta88  1  0.83459875  0.86390356  0.01707690  1
  Ta  Ta89  1  0.85807345  0.86711156  0.49699975  1
  Ta  Ta90  1  0.14635283  0.18081731  0.27769953  1
  Ta  Ta91  1  0.15418499  0.21878705  0.74575451  1
  Ta  Ta92  1  0.15548914  0.56813555  0.22658902  1
  Ta  Ta93  1  0.20685081  0.49487566  0.76961831  1
  Ta  Ta94  1  0.20044335  0.83615601  0.25625532  1
  Ta  Ta95  1  0.16194484  0.87026464  0.74083877  1
  Ta  Ta96  1  0.49729952  0.22219477  0.22557737  1
  Ta  Ta97  1  0.53361115  0.18890317  0.76957976  1
  Ta  Ta98  1  0.53484945  0.49726307  0.23837884  1
  Ta  Ta99  1  0.50480284  0.54298211  0.78227522  1
  Ta  Ta100  1  0.50079310  0.87062124  0.26101122  1
  Ta  Ta101  1  0.49463750  0.88056482  0.72976973  1
  Ta  Ta102  1  0.86965539  0.16754138  0.24892220  1
  Ta  Ta103  1  0.82771840  0.20369626  0.76380167  1
  Ta  Ta104  1  0.84383273  0.54151500  0.28569207  1
  Ta  Ta105  1  0.82892057  0.55188716  0.74848074  1
  Ta  Ta106  1  0.82222024  0.89462128  0.22491793  1
  Ta  Ta107  1  0.86966157  0.83903198  0.75022265  1
  Ta  Ta108  1  -0.03239929  -0.00147724  0.24014941  1
  Ta  Ta109  1  0.01080013  -0.05595100  0.73774800  1
  Ta  Ta110  1  0.00740036  0.26538705  0.27732248  1
  Ta  Ta111  1  -0.00896925  0.30295363  0.74829187  1
  Ta  Ta112  1  0.00279990  0.63307182  0.24636758  1
  Ta  Ta113  1  -0.03383245  0.65238613  0.75619620  1
  Ta  Ta114  1  0.33380518  -0.05356208  0.25283329  1
  Ta  Ta115  1  0.31761043  -0.03737651  0.72218194  1
  Ta  Ta116  1  0.35792931  0.31756769  0.20757603  1
  Ta  Ta117  1  0.28807308  0.32470061  0.75779916  1
  Ta  Ta118  1  0.29096680  0.67394771  0.23958513  1
  Ta  Ta119  1  0.34495623  0.60545945  0.78307848  1
  Ta  Ta120  1  0.66106016  -0.03570115  0.22757962  1
  Ta  Ta121  1  0.64271283  -0.03285271  0.75761068  1
  Ta  Ta122  1  0.62348070  0.32886561  0.22931239  1
  Ta  Ta123  1  0.67182028  0.28220958  0.76874614  1
  Ta  Ta124  1  0.67358865  0.61003778  0.27742427  1
  Ta  Ta125  1  0.67074813  0.63755521  0.74504225  1
  Ta  Ta126  1  0.01013997  -0.03371761  -0.02217522  1
  Ta  Ta127  1  0.01051594  -0.05193268  0.52550059  1
  Ta  Ta128  1  -0.03070386  0.32724827  0.00612307  1
  Ta  Ta129  1  -0.01012616  0.28649242  0.47327720  1
  Ta  Ta130  1  0.00917594  0.61343510  0.02470601  1
  Ta  Ta131  1  -0.03371390  0.63983935  0.46960380  1
  Ta  Ta132  1  0.29143756  -0.00253369  -0.01194497  1
  Ta  Ta133  1  0.33269769  -0.03574021  0.51851028  1
  Ta  Ta134  1  0.34236246  0.27159637  0.01486496  1
  Ta  Ta135  1  0.29409873  0.34458155  0.47878708  1
  Ta  Ta136  1  0.33452015  0.64108862  -0.02159160  1
  Ta  Ta137  1  0.34244308  0.61847302  0.50139042  1
  Ta  Ta138  1  0.67848548  -0.06760946  0.03388218  1
  Ta  Ta139  1  0.63445711  -0.00885013  0.49479141  1
  Ta  Ta140  1  0.66202324  0.29435243  -0.02938460  1
  Ta  Ta141  1  0.67266570  0.28191133  0.50531100  1
  Ta  Ta142  1  0.63718326  0.65838839  0.00735374  1
  Ta  Ta143  1  0.66835699  0.62890444  0.48846991  1
  N  N144  1  0.50240204  0.81288600  0.14865445  1
  N  N145  1  0.82767909  0.16101782  0.38192957  1
  N  N146  1  0.49470729  0.51847080  0.11719664  1
  N  N147  1  -0.00152028  0.00104603  0.11281693  1
  N  N148  1  0.50057126  0.83211979  0.39461471  1
  N  N149  1  0.66122368  0.32957933  0.09591397  1
  N  N150  1  0.49525660  0.18788853  0.36580958  1
  N  N151  1  0.00935072  0.01620090  0.62350117  1
  N  N152  1  0.33542774  0.36634669  0.08890594  1
  N  N153  1  0.50175246  0.14431172  0.89598138  1
  N  N154  1  0.32599992  0.67349213  0.11216070  1
  N  N155  1  0.83421240  0.15686884  0.64727999  1
  N  N156  1  0.67261781  0.64157628  0.13987308  1
  N  N157  1  0.84506329  0.83912901  0.88665213  1
  N  N158  1  0.32925357  0.31063259  0.88173333  1
  N  N159  1  0.66615074  0.69003969  0.36254288  1
  N  N160  1  0.32899166  -0.01838389  0.12216711  1
  N  N161  1  0.50190399  0.18489892  0.63523801  1
  N  N162  1  -0.00192924  0.00423466  0.84671075  1
  N  N163  1  0.83403042  0.13955234  0.88723278  1
  N  N164  1  0.00211349  0.64845647  0.88406554  1
  N  N165  1  0.16137967  0.13733396  0.40815636  1
  N  N166  1  0.83324240  0.86626013  0.36626238  1
  N  N167  1  0.49749612  0.82091390  0.62133739  1
  N  N168  1  0.17686771  0.79747630  0.64124609  1
  N  N169  1  0.83769349  0.52019981  0.88729677  1
  N  N170  1  0.66434016  0.67470135  0.60604291  1
  N  N171  1  0.67127068  0.66909333  0.87340974  1
  N  N172  1  0.50645971  0.47872931  0.89702900  1
  N  N173  1  -0.00092197  0.69392403  0.35429941  1
  N  N174  1  0.32806911  0.69459825  0.85354852  1
  N  N175  1  0.32356129  -0.00788758  0.84896314  1
  N  N176  1  0.83664698  0.18451258  0.11630231  1
  O  O177  1  0.65264096  0.36669233  0.85218638  1
  O  O178  1  0.66518385  -0.01474648  0.62232018  1
  O  O179  1  0.17405540  0.81519816  0.87687023  1
  O  O180  1  0.65382882  0.02646343  0.10058122  1
  O  O181  1  0.85084744  0.46556445  0.40066971  1
  O  O182  1  0.30255769  0.33341068  0.61227767  1
  O  O183  1  0.66369147  -0.03546055  0.89039002  1
  O  O184  1  0.32496065  0.34025167  0.34471618  1
  O  O185  1  0.32711176  0.04511994  0.61135706  1
  O  O186  1  0.15403259  0.46766839  0.15868253  1
  O  O187  1  0.32902429  -0.00346213  0.37559771  1
  O  O188  1  0.15350658  0.18778025  0.88371588  1
  O  O189  1  0.01497851  -0.02225544  0.37506733  1
  O  O190  1  0.66757978  0.31378807  0.36286065  1
  O  O191  1  0.50651921  0.49069852  0.37890048  1
  O  O192  1  -0.01968495  0.35530945  0.35084474  1
  O  O193  1  0.17172379  0.49272753  0.90406574  1
  O  O194  1  0.66781961  0.32817589  0.62846168  1
  O  O195  1  -0.00980012  0.34142332  0.87021290  1
  O  O196  1  0.83351998  0.50583786  0.62426214  1
  O  O197  1  0.20509927  0.50121370  0.63474959  1
  O  O198  1  0.17056760  0.16456137  0.14146956  1
  O  O199  1  0.81338306  0.84623639  0.62991580  1
  O  O200  1  0.52078401  0.14511747  0.13430422  1
  O  O201  1  0.17384606  0.52027683  0.36197010  1
  O  O202  1  0.15597133  0.20865611  0.61022921  1
  O  O203  1  -0.00517987  0.31210110  0.13758429  1
  O  O204  1  -0.01124539  0.69223980  0.11489414  1
  O  O205  1  0.51025439  0.52673446  0.63893418  1
  O  O206  1  0.16864257  0.85273658  0.12196110  1
  O  O207  1  0.34420018  0.64915213  0.36620366  1
  O  O208  1  -0.00346766  0.64512396  0.60977810  1
  O  O209  1  0.18800393  0.83353616  0.39588517  1
  O  O210  1  0.85361211  0.80874174  0.14839388  1
  O  O211  1  0.84416134  0.51371769  0.15248500  1
  O  O212  1  -0.01252043  0.30689234  0.60939933  1
  O  O213  1  0.65088931  0.00004374  0.35577855  1
  O  O214  1  0.49084546  0.85541210  0.89128331  1
  O  O215  1  0.34032277  0.63058383  0.63694852  1
