# generated using pymatgen
data_Sr24Ta24N11O13
_symmetry_space_group_name_H-M   'P 1'
_cell_length_a   16.63040182
_cell_length_b   17.04819438
_cell_length_c   15.47580312
_cell_angle_alpha   89.41168046
_cell_angle_beta   90.06606882
_cell_angle_gamma   90.76564868
_symmetry_Int_Tables_number   1
_chemical_formula_structural   Sr24Ta24N11O13
_chemical_formula_sum   'Sr72 Ta72 N33 O39'
_cell_volume   4387.04844668
_cell_formula_units_Z   3
loop_
 _symmetry_equiv_pos_site_id
 _symmetry_equiv_pos_as_xyz
  1  'x, y, z'
loop_
 _atom_site_type_symbol
 _atom_site_label
 _atom_site_symmetry_multiplicity
 _atom_site_fract_x
 _atom_site_fract_y
 _atom_site_fract_z
 _atom_site_occupancy
  Sr  Sr0  1  0.00803004  0.16265772  0.12587288  1
  Sr  Sr1  1  -0.02072160  0.17190025  0.55636884  1
  Sr  Sr2  1  -0.01316364  0.48260708  0.17467623  1
  Sr  Sr3  1  0.00308183  0.49062525  0.61123678  1
  Sr  Sr4  1  -0.01575503  0.83937719  0.10743824  1
  Sr  Sr5  1  0.00211521  0.84769786  0.67463847  1
  Sr  Sr6  1  0.31679626  0.11462919  0.16819247  1
  Sr  Sr7  1  0.34324825  0.18771150  0.60975544  1
  Sr  Sr8  1  0.33121099  0.49449067  0.14113814  1
  Sr  Sr9  1  0.34151044  0.45180187  0.61329261  1
  Sr  Sr10  1  0.34296247  0.83264914  0.08031900  1
  Sr  Sr11  1  0.33668152  0.77935981  0.64231586  1
  Sr  Sr12  1  0.65545382  0.16863785  0.11246427  1
  Sr  Sr13  1  0.69220756  0.16190934  0.67431902  1
  Sr  Sr14  1  0.66738682  0.50454430  0.09482337  1
  Sr  Sr15  1  0.66388988  0.48692852  0.63587069  1
  Sr  Sr16  1  0.64578520  0.81248497  0.18387750  1
  Sr  Sr17  1  0.67322355  0.82035467  0.61196269  1
  Sr  Sr18  1  0.14489338  0.00030279  0.16722557  1
  Sr  Sr19  1  0.16962513  0.03348520  0.60264356  1
  Sr  Sr20  1  0.14394217  0.33988543  0.08390628  1
  Sr  Sr21  1  0.18589829  0.33038633  0.63273551  1
  Sr  Sr22  1  0.16866718  0.72408940  0.06914331  1
  Sr  Sr23  1  0.15941444  0.65263513  0.62842722  1
  Sr  Sr24  1  0.49683019  -0.00594451  0.12707078  1
  Sr  Sr25  1  0.49873463  0.04453931  0.64401423  1
  Sr  Sr26  1  0.48134879  0.36313565  0.12530803  1
  Sr  Sr27  1  0.50249781  0.34027228  0.59916167  1
  Sr  Sr28  1  0.48820414  0.67363253  0.15275447  1
  Sr  Sr29  1  0.51431008  0.66527324  0.64002029  1
  Sr  Sr30  1  0.83895100  0.02116650  0.07060531  1
  Sr  Sr31  1  0.82422474  -0.01383957  0.63453766  1
  Sr  Sr32  1  0.82815901  0.31999582  0.18581334  1
  Sr  Sr33  1  0.82774759  0.35066585  0.61304349  1
  Sr  Sr34  1  0.83014189  0.66009460  0.13728379  1
  Sr  Sr35  1  0.83488389  0.67434292  0.58602541  1
  Sr  Sr36  1  0.00124569  0.13158890  0.36459925  1
  Sr  Sr37  1  0.00981079  0.18869769  0.90818643  1
  Sr  Sr38  1  -0.00295652  0.52772195  0.38589765  1
  Sr  Sr39  1  0.01145766  0.47670876  0.86108869  1
  Sr  Sr40  1  0.02128876  0.83541351  0.33146313  1
  Sr  Sr41  1  -0.00697121  0.82578609  0.88996182  1
  Sr  Sr42  1  0.34787081  0.13006550  0.39302335  1
  Sr  Sr43  1  0.31550391  0.15671875  0.83181688  1
  Sr  Sr44  1  0.34320157  0.51607403  0.34799890  1
  Sr  Sr45  1  0.32549263  0.45204893  0.92096761  1
  Sr  Sr46  1  0.32126072  0.81088943  0.42471644  1
  Sr  Sr47  1  0.33843968  0.81817891  0.87409808  1
  Sr  Sr48  1  0.65966736  0.17058539  0.32783112  1
  Sr  Sr49  1  0.67230443  0.15865950  0.89072151  1
  Sr  Sr50  1  0.65092002  0.45037342  0.41725085  1
  Sr  Sr51  1  0.67296737  0.50325998  0.87444138  1
  Sr  Sr52  1  0.67469417  0.84339800  0.39737460  1
  Sr  Sr53  1  0.66050629  0.81277542  0.84525846  1
  Sr  Sr54  1  0.17116398  -0.01348153  0.38210672  1
  Sr  Sr55  1  0.16617714  0.02482575  0.83072019  1
  Sr  Sr56  1  0.16501879  0.41662818  0.27791909  1
  Sr  Sr57  1  0.16944521  0.32181744  0.86557943  1
  Sr  Sr58  1  0.17104486  0.67472860  0.40278953  1
  Sr  Sr59  1  0.15434095  0.68689249  0.85209432  1
  Sr  Sr60  1  0.51156769  0.00715870  0.35416492  1
  Sr  Sr61  1  0.48921246  0.01227348  0.89254500  1
  Sr  Sr62  1  0.46460834  0.33905429  0.38393928  1
  Sr  Sr63  1  0.53409960  0.33989838  0.93558125  1
  Sr  Sr64  1  0.49915818  0.69818129  0.38804376  1
  Sr  Sr65  1  0.50310325  0.67887328  0.85493210  1
  Sr  Sr66  1  0.82998639  -0.00012306  0.41384803  1
  Sr  Sr67  1  0.83713263  -0.02424771  0.86204665  1
  Sr  Sr68  1  0.86022439  0.33085027  0.39636038  1
  Sr  Sr69  1  0.83407394  0.35087723  0.83129015  1
  Sr  Sr70  1  0.84129582  0.68682216  0.35580000  1
  Sr  Sr71  1  0.82718101  0.65321675  0.91745693  1
  Ta  Ta72  1  0.18585544  0.13238455  0.00563449  1
  Ta  Ta73  1  0.16491940  0.20001351  0.46414641  1
  Ta  Ta74  1  0.15962883  0.53928432  0.01743601  1
  Ta  Ta75  1  0.18829363  0.48824677  0.48694208  1
  Ta  Ta76  1  0.16904594  0.89884889  -0.01944980  1
  Ta  Ta77  1  0.13390078  0.83743764  0.52136207  1
  Ta  Ta78  1  0.45495235  0.17021767  0.01607627  1
  Ta  Ta79  1  0.54576583  0.17096169  0.49912107  1
  Ta  Ta80  1  0.49193472  0.54510738  0.00575893  1
  Ta  Ta81  1  0.49650326  0.52992784  0.50511852  1
  Ta  Ta82  1  0.53239490  0.82639441  0.00340411  1
  Ta  Ta83  1  0.48978453  0.87902434  0.52390565  1
  Ta  Ta84  1  0.83753057  0.21225779  0.00304648  1
  Ta  Ta85  1  0.78485684  0.16605254  0.49201305  1
  Ta  Ta86  1  0.85083535  0.47503838  0.01657904  1
  Ta  Ta87  1  0.81395740  0.51972906  0.48577250  1
  Ta  Ta88  1  0.77967177  0.82507970  0.00816976  1
  Ta  Ta89  1  0.88558074  0.83402748  0.49664985  1
  Ta  Ta90  1  0.17254641  0.21376105  0.27362341  1
  Ta  Ta91  1  0.09871859  0.17900329  0.72756927  1
  Ta  Ta92  1  0.17032373  0.58828011  0.21485883  1
  Ta  Ta93  1  0.19477046  0.50141907  0.75814228  1
  Ta  Ta94  1  0.20668171  0.82200577  0.24601270  1
  Ta  Ta95  1  0.18622661  0.86529882  0.73953205  1
  Ta  Ta96  1  0.47918177  0.20466460  0.23627234  1
  Ta  Ta97  1  0.51081728  0.20713904  0.76721784  1
  Ta  Ta98  1  0.54090790  0.50399476  0.25533287  1
  Ta  Ta99  1  0.48887679  0.47869376  0.75825809  1
  Ta  Ta100  1  0.44886429  0.83820737  0.25454459  1
  Ta  Ta101  1  0.49585497  0.87195245  0.74875246  1
  Ta  Ta102  1  0.83569536  0.12912684  0.24748662  1
  Ta  Ta103  1  0.89242546  0.17878970  0.74226039  1
  Ta  Ta104  1  0.78193527  0.49724621  0.26551569  1
  Ta  Ta105  1  0.83845211  0.54199230  0.73964222  1
  Ta  Ta106  1  0.83091892  0.87152379  0.25048608  1
  Ta  Ta107  1  0.83226064  0.78408877  0.75921081  1
  Ta  Ta108  1  -0.05129552  -0.00685221  0.24519533  1
  Ta  Ta109  1  -0.00556243  0.04590227  0.74269730  1
  Ta  Ta110  1  0.02116711  0.29914509  0.27014500  1
  Ta  Ta111  1  0.00345777  0.30380474  0.69995436  1
  Ta  Ta112  1  0.03948202  0.67216243  0.23109709  1
  Ta  Ta113  1  -0.03846853  0.66051539  0.75611859  1
  Ta  Ta114  1  0.32925667  -0.06050127  0.26005894  1
  Ta  Ta115  1  0.33874436  -0.03329541  0.73792973  1
  Ta  Ta116  1  0.31745684  0.29318873  0.23295932  1
  Ta  Ta117  1  0.39973215  0.32894727  0.78543644  1
  Ta  Ta118  1  0.31013226  0.70022753  0.24048894  1
  Ta  Ta119  1  0.33360972  0.59341808  0.76245848  1
  Ta  Ta120  1  0.71220671  -0.00416557  0.25001340  1
  Ta  Ta121  1  0.64437880  -0.02079553  0.75273404  1
  Ta  Ta122  1  0.64299675  0.35374050  0.23967883  1
  Ta  Ta123  1  0.62950238  0.32838013  0.75702619  1
  Ta  Ta124  1  0.66239113  0.62594052  0.27189318  1
  Ta  Ta125  1  0.70738910  0.65603532  0.73679085  1
  Ta  Ta126  1  0.03802228  0.00715397  -0.01435999  1
  Ta  Ta127  1  0.00362600  -0.04439303  0.49599130  1
  Ta  Ta128  1  -0.05381356  0.34481973  0.02633091  1
  Ta  Ta129  1  0.06844161  0.34456401  0.45984381  1
  Ta  Ta130  1  0.00574507  0.62084841  0.00648842  1
  Ta  Ta131  1  0.00376826  0.71667106  0.50250237  1
  Ta  Ta132  1  0.30506390  0.01574910  -0.00994360  1
  Ta  Ta133  1  0.34910268  -0.03483886  0.53119716  1
  Ta  Ta134  1  0.32296090  0.26307891  0.01571341  1
  Ta  Ta135  1  0.25395184  0.32997013  0.42115008  1
  Ta  Ta136  1  0.33625610  0.63687117  -0.00541352  1
  Ta  Ta137  1  0.34283700  0.61752187  0.51331740  1
  Ta  Ta138  1  0.66063353  -0.05641126  0.00840002  1
  Ta  Ta139  1  0.65147036  0.04027597  0.49659143  1
  Ta  Ta140  1  0.72500125  0.33628141  0.00286984  1
  Ta  Ta141  1  0.66687973  0.28191744  0.50484708  1
  Ta  Ta142  1  0.64637217  0.68729767  0.01755790  1
  Ta  Ta143  1  0.66496698  0.63122784  0.48286048  1
  N  N144  1  0.49186845  0.83314133  0.13262206  1
  N  N145  1  0.50454532  0.49687380  0.63177156  1
  N  N146  1  0.84417741  0.48081878  0.36794027  1
  N  N147  1  0.33296856  -0.00233385  0.86002271  1
  N  N148  1  0.84042502  0.83746127  0.37488276  1
  N  N149  1  0.49855849  0.83996311  0.87332373  1
  N  N150  1  0.17698323  0.80243179  0.63401560  1
  N  N151  1  -0.00553695  0.00475515  0.86862244  1
  N  N152  1  0.83743929  0.50594168  0.61393619  1
  N  N153  1  0.16448932  0.49276800  0.13325612  1
  N  N154  1  0.16414378  0.84358730  0.86924791  1
  N  N155  1  0.33040820  0.67744210  0.11062244  1
  N  N156  1  0.67182895  0.66231624  0.61387046  1
  N  N157  1  0.01363520  0.33619998  0.57053677  1
  N  N158  1  0.83112550  0.16449349  0.37724654  1
  N  N159  1  0.50214284  0.51524595  0.12976760  1
  N  N160  1  0.83230963  0.16791335  0.12371061  1
  N  N161  1  0.33506834  0.63013467  0.64161573  1
  N  N162  1  0.01083305  0.38563022  0.34923470  1
  N  N163  1  0.66982500  0.00612664  0.37258213  1
  N  N164  1  -0.00265937  -0.01617719  0.36699763  1
  N  N165  1  0.68262771  0.33463784  0.88268962  1
  N  N166  1  0.49557454  0.14465668  0.13305796  1
  N  N167  1  0.82114440  0.81523251  0.88579061  1
  N  N168  1  0.66474357  0.32213135  0.63465146  1
  N  N169  1  0.32359968  0.37404179  0.31833885  1
  N  N170  1  -0.00623267  0.32743398  0.14879589  1
  N  N171  1  0.82714358  0.49403654  0.14004728  1
  N  N172  1  0.33222606  0.30216133  0.89623679  1
  N  N173  1  -0.00508511  0.65031945  0.88536206  1
  N  N174  1  0.66142358  0.66520817  0.13956949  1
  N  N175  1  0.66467668  0.69499998  0.37402571  1
  N  N176  1  0.65901938  0.33546317  0.11682778  1
  O  O177  1  0.18236292  0.53749867  0.35755579  1
  O  O178  1  0.14019738  0.18018705  0.59535116  1
  O  O179  1  0.85782681  0.19707605  0.86432506  1
  O  O180  1  0.01780912  0.68885467  0.36204621  1
  O  O181  1  0.83648752  0.16853071  0.61979494  1
  O  O182  1  0.32659459  -0.03343660  0.39903929  1
  O  O183  1  0.17168362  0.49576375  0.88754161  1
  O  O184  1  0.32819440  0.66595807  0.38984647  1
  O  O185  1  0.49560535  0.48764390  0.37946372  1
  O  O186  1  0.84672190  0.83189065  0.63734272  1
  O  O187  1  0.66068403  -0.02775006  0.87838290  1
  O  O188  1  -0.00449757  -0.00077786  0.62128797  1
  O  O189  1  0.17124325  0.83048975  0.38907787  1
  O  O190  1  -0.00834323  -0.00290508  0.11339875  1
  O  O191  1  0.16538111  0.14888258  0.13654222  1
  O  O192  1  0.65752816  0.00757487  0.62880266  1
  O  O193  1  0.51364143  0.17304061  0.90150275  1
  O  O194  1  0.66000699  0.31489355  0.36660526  1
  O  O195  1  -0.01147823  0.69286665  0.11381534  1
  O  O196  1  0.00047083  0.68712943  0.63343742  1
  O  O197  1  0.15258684  0.17309454  0.85661641  1
  O  O198  1  0.18437418  0.48811344  0.62762245  1
  O  O199  1  0.51220193  0.81476443  0.62887061  1
  O  O200  1  0.48799324  0.85414866  0.39361057  1
  O  O201  1  0.33284506  -0.02104790  0.11795931  1
  O  O202  1  0.17723745  0.86141805  0.11351355  1
  O  O203  1  0.34023780  0.67002444  0.86003268  1
  O  O204  1  0.49982404  0.18155866  0.36581048  1
  O  O205  1  0.19206236  0.12592940  0.36538711  1
  O  O206  1  0.82825320  0.81650315  0.12976938  1
  O  O207  1  0.32713596  0.31411509  0.68847814  1
  O  O208  1  0.04121070  0.34067029  0.95200569  1
  O  O209  1  0.65905001  -0.02179796  0.13208899  1
  O  O210  1  0.51860334  0.51285089  0.88386228  1
  O  O211  1  0.83403504  0.50078078  0.86602136  1
  O  O212  1  0.31678381  0.34864305  0.10848884  1
  O  O213  1  0.33751119  0.04324293  0.62766882  1
  O  O214  1  0.66109418  0.66067155  0.86139787  1
  O  O215  1  0.50670819  0.18854716  0.62719391  1
