# generated using pymatgen
data_Sr24Ta24N11O13
_symmetry_space_group_name_H-M   'P 1'
_cell_length_a   17.10678386
_cell_length_b   16.56411864
_cell_length_c   15.50533195
_cell_angle_alpha   90.70458217
_cell_angle_beta   89.85102062
_cell_angle_gamma   89.45039632
_symmetry_Int_Tables_number   1
_chemical_formula_structural   Sr24Ta24N11O13
_chemical_formula_sum   'Sr72 Ta72 N33 O39'
_cell_volume   4393.02166248
_cell_formula_units_Z   3
loop_
 _symmetry_equiv_pos_site_id
 _symmetry_equiv_pos_as_xyz
  1  'x, y, z'
loop_
 _atom_site_type_symbol
 _atom_site_label
 _atom_site_symmetry_multiplicity
 _atom_site_fract_x
 _atom_site_fract_y
 _atom_site_fract_z
 _atom_site_occupancy
  Sr  Sr0  1  -0.00274330  0.18585561  0.10712685  1
  Sr  Sr1  1  0.00420433  0.16599617  0.65936812  1
  Sr  Sr2  1  -0.00552931  0.49541212  0.14126504  1
  Sr  Sr3  1  -0.05237351  0.49761438  0.62971447  1
  Sr  Sr4  1  -0.00751277  0.82430603  0.13204438  1
  Sr  Sr5  1  0.00048656  0.83006014  0.61325678  1
  Sr  Sr6  1  0.30996119  0.17534375  0.14370476  1
  Sr  Sr7  1  0.32975457  0.14470994  0.58113197  1
  Sr  Sr8  1  0.28762929  0.49264370  0.05222481  1
  Sr  Sr9  1  0.34541886  0.49377526  0.62405724  1
  Sr  Sr10  1  0.33234073  0.82874115  0.11390918  1
  Sr  Sr11  1  0.32235161  0.84079160  0.68018536  1
  Sr  Sr12  1  0.67273170  0.15734755  0.11199756  1
  Sr  Sr13  1  0.63743065  0.18153748  0.67415210  1
  Sr  Sr14  1  0.66376966  0.53945346  0.11525027  1
  Sr  Sr15  1  0.65818312  0.49674772  0.56156235  1
  Sr  Sr16  1  0.67038452  0.84500603  0.17780024  1
  Sr  Sr17  1  0.67199540  0.83429917  0.61214967  1
  Sr  Sr18  1  0.16192574  -0.01770127  0.17523103  1
  Sr  Sr19  1  0.17260987  -0.00165181  0.62664274  1
  Sr  Sr20  1  0.15010048  0.32945437  0.12806583  1
  Sr  Sr21  1  0.21061427  0.32145709  0.61260596  1
  Sr  Sr22  1  0.18670361  0.67716203  0.06814114  1
  Sr  Sr23  1  0.19968458  0.65980090  0.63713815  1
  Sr  Sr24  1  0.47366288  0.00390040  0.06962600  1
  Sr  Sr25  1  0.50522001  -0.00575959  0.63800210  1
  Sr  Sr26  1  0.55254165  0.34888311  0.10960574  1
  Sr  Sr27  1  0.49731588  0.33276643  0.65436840  1
  Sr  Sr28  1  0.51132901  0.68506936  0.14597166  1
  Sr  Sr29  1  0.50943821  0.63896634  0.56490778  1
  Sr  Sr30  1  0.83477733  0.00568365  0.13874727  1
  Sr  Sr31  1  0.83489088  -0.02096583  0.56466297  1
  Sr  Sr32  1  0.87454906  0.34404620  0.16112229  1
  Sr  Sr33  1  0.82157495  0.33737305  0.60397214  1
  Sr  Sr34  1  0.85603466  0.65922690  0.10832746  1
  Sr  Sr35  1  0.83560492  0.68247697  0.66156103  1
  Sr  Sr36  1  -0.07324546  0.16707629  0.46997010  1
  Sr  Sr37  1  0.00753751  0.16830912  0.87309232  1
  Sr  Sr38  1  0.01334165  0.47669157  0.37320749  1
  Sr  Sr39  1  -0.05244139  0.50314619  0.83826778  1
  Sr  Sr40  1  0.01186699  0.84727445  0.37476305  1
  Sr  Sr41  1  -0.02285057  0.82758067  0.89512521  1
  Sr  Sr42  1  0.33021759  0.16602501  0.36818494  1
  Sr  Sr43  1  0.31716559  0.16280352  0.92064452  1
  Sr  Sr44  1  0.31828752  0.51061764  0.40801055  1
  Sr  Sr45  1  0.34066270  0.48002981  0.83857029  1
  Sr  Sr46  1  0.32885507  0.81992723  0.33087297  1
  Sr  Sr47  1  0.34894260  0.83291145  0.88892335  1
  Sr  Sr48  1  0.65426185  0.17804126  0.33323569  1
  Sr  Sr49  1  0.66482528  0.15100664  0.88816005  1
  Sr  Sr50  1  0.62160023  0.50635227  0.34394619  1
  Sr  Sr51  1  0.66327899  0.50714913  0.90712121  1
  Sr  Sr52  1  0.64441319  0.85607202  0.39613434  1
  Sr  Sr53  1  0.67757578  0.82120257  0.83737186  1
  Sr  Sr54  1  0.18294323  -0.00746502  0.38069809  1
  Sr  Sr55  1  0.14861458  -0.00424121  0.84047352  1
  Sr  Sr56  1  0.18221617  0.34463155  0.38362329  1
  Sr  Sr57  1  0.17303236  0.32023335  0.89890580  1
  Sr  Sr58  1  0.17584094  0.64359969  0.41158693  1
  Sr  Sr59  1  0.21927646  0.66054812  0.86201673  1
  Sr  Sr60  1  0.48758121  0.01290328  0.41707653  1
  Sr  Sr61  1  0.51972813  -0.01425163  0.85676510  1
  Sr  Sr62  1  0.48840118  0.31279018  0.30951023  1
  Sr  Sr63  1  0.52826516  0.33768923  0.86923454  1
  Sr  Sr64  1  0.48508083  0.67270484  0.35662233  1
  Sr  Sr65  1  0.54460953  0.66064608  0.90143467  1
  Sr  Sr66  1  0.80420617  0.00957902  0.35899349  1
  Sr  Sr67  1  0.84034282  0.01689746  0.91573104  1
  Sr  Sr68  1  0.83467282  0.35236071  0.39678332  1
  Sr  Sr69  1  0.85137277  0.31280531  0.80659832  1
  Sr  Sr70  1  0.90645540  0.65743477  0.32291195  1
  Sr  Sr71  1  0.81826526  0.67031674  0.88135525  1
  Ta  Ta72  1  0.15413491  0.11769430  0.01281184  1
  Ta  Ta73  1  0.12522696  0.16654740  0.48595300  1
  Ta  Ta74  1  0.10702381  0.50221645  -0.03118302  1
  Ta  Ta75  1  0.12200458  0.48553514  0.57295868  1
  Ta  Ta76  1  0.15367375  0.86627164  -0.00099390  1
  Ta  Ta77  1  0.19333358  0.82673046  0.50100624  1
  Ta  Ta78  1  0.48454979  0.18919318  -0.00707411  1
  Ta  Ta79  1  0.51459461  0.19690624  0.49062342  1
  Ta  Ta80  1  0.47097445  0.49919331  -0.00167360  1
  Ta  Ta81  1  0.48826463  0.43704390  0.47532366  1
  Ta  Ta82  1  0.53560420  0.82937947  -0.00311798  1
  Ta  Ta83  1  0.46477192  0.83281462  0.50024246  1
  Ta  Ta84  1  0.83786391  0.21586442  -0.00849918  1
  Ta  Ta85  1  0.75271293  0.17175776  0.51005410  1
  Ta  Ta86  1  0.83652953  0.46969899  0.00305167  1
  Ta  Ta87  1  0.82965181  0.55814839  0.47917562  1
  Ta  Ta88  1  0.80559525  0.84156308  0.00543137  1
  Ta  Ta89  1  0.84100232  0.78184632  0.48699586  1
  Ta  Ta90  1  0.13330401  0.16450585  0.26900044  1
  Ta  Ta91  1  0.19509446  0.17080458  0.75571984  1
  Ta  Ta92  1  0.18248713  0.52350109  0.21604546  1
  Ta  Ta93  1  0.13200969  0.50059084  0.76513795  1
  Ta  Ta94  1  0.16580807  0.78474863  0.24629310  1
  Ta  Ta95  1  0.13586162  0.81329637  0.77005291  1
  Ta  Ta96  1  0.48752160  0.11543149  0.24196340  1
  Ta  Ta97  1  0.45440703  0.15818979  0.76528136  1
  Ta  Ta98  1  0.43747547  0.50254383  0.23078620  1
  Ta  Ta99  1  0.53197849  0.51705588  0.74603827  1
  Ta  Ta100  1  0.49139840  0.89161900  0.24564833  1
  Ta  Ta101  1  0.51195472  0.78560841  0.74459474  1
  Ta  Ta102  1  0.84610504  0.18403321  0.26637286  1
  Ta  Ta103  1  0.82743350  0.11804265  0.72553135  1
  Ta  Ta104  1  0.80075379  0.50936016  0.25927704  1
  Ta  Ta105  1  0.76779504  0.51257344  0.72893071  1
  Ta  Ta106  1  0.82339716  0.81818635  0.28373113  1
  Ta  Ta107  1  0.84200841  0.87768677  0.74530583  1
  Ta  Ta108  1  -0.00761299  0.07113883  0.27219869  1
  Ta  Ta109  1  -0.04012882  -0.00967481  0.75141893  1
  Ta  Ta110  1  0.00676924  0.25048317  0.32224404  1
  Ta  Ta111  1  0.04658327  0.34925207  0.73086680  1
  Ta  Ta112  1  0.07145418  0.65210980  0.23169225  1
  Ta  Ta113  1  0.03475193  0.66323837  0.76675844  1
  Ta  Ta114  1  0.36212791  -0.00034341  0.25093514  1
  Ta  Ta115  1  0.33024047  0.04375919  0.75836420  1
  Ta  Ta116  1  0.31896456  0.39098259  0.23303387  1
  Ta  Ta117  1  0.33653247  0.27808665  0.75962214  1
  Ta  Ta118  1  0.30308808  0.63089579  0.23643238  1
  Ta  Ta119  1  0.40763808  0.65913268  0.74738946  1
  Ta  Ta120  1  0.61402450  0.00657088  0.24298275  1
  Ta  Ta121  1  0.71148362  0.00038598  0.74106056  1
  Ta  Ta122  1  0.70495475  0.35013359  0.24590629  1
  Ta  Ta123  1  0.67174239  0.38778137  0.74170335  1
  Ta  Ta124  1  0.71949216  0.67783488  0.28393487  1
  Ta  Ta125  1  0.63759553  0.64345298  0.71511123  1
  Ta  Ta126  1  0.03144894  0.00279500  0.01377804  1
  Ta  Ta127  1  0.02386149  0.01403229  0.50411625  1
  Ta  Ta128  1  -0.03122581  0.35680852  -0.03122127  1
  Ta  Ta129  1  0.02909074  0.32922577  0.53355607  1
  Ta  Ta130  1  0.02088336  0.64289657  -0.01882842  1
  Ta  Ta131  1  -0.00394824  0.64924774  0.50817051  1
  Ta  Ta132  1  0.27848137  -0.00383008  0.00868536  1
  Ta  Ta133  1  0.33149576  -0.06235820  0.49986825  1
  Ta  Ta134  1  0.37704461  0.33163166  0.00047185  1
  Ta  Ta135  1  0.37575242  0.32552368  0.48792715  1
  Ta  Ta136  1  0.38348361  0.64896003  -0.00695816  1
  Ta  Ta137  1  0.33811783  0.72555751  0.50320488  1
  Ta  Ta138  1  0.66645222  -0.05190217  0.00584111  1
  Ta  Ta139  1  0.65449595  0.04906207  0.50918667  1
  Ta  Ta140  1  0.73109107  0.33548786  -0.01077248  1
  Ta  Ta141  1  0.63083440  0.30974214  0.49105745  1
  Ta  Ta142  1  0.68119526  0.74418385  0.03223097  1
  Ta  Ta143  1  0.70378473  0.67469830  0.47256998  1
  N  N144  1  -0.02020708  0.32821779  0.42285311  1
  N  N145  1  0.83807278  0.82823786  0.60803707  1
  N  N146  1  0.65947765  -0.00018599  0.62759850  1
  N  N147  1  0.20385622  0.50000554  0.66572585  1
  N  N148  1  0.18917403  0.16146945  0.38499948  1
  N  N149  1  0.17329244  0.81776850  0.37657732  1
  N  N150  1  0.84364121  0.86799345  0.40026344  1
  N  N151  1  0.36793101  0.66429654  0.86719177  1
  N  N152  1  0.51278851  0.14938142  0.87647412  1
  N  N153  1  0.15559812  0.15966868  0.13448097  1
  N  N154  1  0.86165694  0.50622186  0.36544370  1
  N  N155  1  -0.03714923  0.32851924  0.64921552  1
  N  N156  1  0.01996988  0.66175881  0.11483576  1
  N  N157  1  0.50777635  0.49669812  0.87092637  1
  N  N158  1  0.83268433  0.16249452  0.60918805  1
  N  N159  1  0.80272324  0.17724485  0.38256932  1
  N  N160  1  0.33896293  0.32868617  0.88267147  1
  N  N161  1  0.80427369  0.51897030  0.60580064  1
  N  N162  1  0.82662347  0.84628907  0.87816479  1
  N  N163  1  0.33403971  -0.01524033  0.38396996  1
  N  N164  1  0.65905475  0.00057588  0.11905501  1
  N  N165  1  0.16459424  0.15703307  0.87673479  1
  N  N166  1  0.47210176  0.48549004  0.35100341  1
  N  N167  1  0.66002418  0.66839071  0.58737016  1
  N  N168  1  0.18849543  0.82040188  0.87977738  1
  N  N169  1  0.51785958  0.82214626  0.86876567  1
  N  N170  1  0.14577480  0.49650544  0.08720314  1
  N  N171  1  -0.03291831  0.66806679  0.86609496  1
  N  N172  1  0.31434489  -0.00258275  0.12795736  1
  N  N173  1  0.00405242  0.32571680  0.84977351  1
  N  N174  1  0.49584711  0.16436460  0.36861073  1
  N  N175  1  0.16724513  0.82701629  0.12007719  1
  N  N176  1  0.83157917  0.50477885  0.12483925  1
  O  O177  1  0.68622164  0.69050104  0.14981091  1
  O  O178  1  0.64510636  0.01304925  0.37907110  1
  O  O179  1  0.83712724  0.16649567  0.86934067  1
  O  O180  1  0.01162329  0.33596086  0.08398845  1
  O  O181  1  0.49529851  0.15297681  0.11468764  1
  O  O182  1  0.30967612  0.00232031  0.87575886  1
  O  O183  1  0.67107931  -0.00709597  0.87715385  1
  O  O184  1  0.33413565  0.34576770  0.35495951  1
  O  O185  1  0.49047633  0.84029302  0.36981189  1
  O  O186  1  0.35459788  0.30577157  0.62723189  1
  O  O187  1  0.69011522  0.35022497  0.86703020  1
  O  O188  1  -0.00800499  0.00865868  0.37930473  1
  O  O189  1  -0.00825436  0.00264468  0.88392433  1
  O  O190  1  0.80790082  0.51668241  0.87813817  1
  O  O191  1  0.62833963  0.69856213  0.36560510  1
  O  O192  1  0.67042778  0.33912894  0.36811504  1
  O  O193  1  0.83479042  0.84697289  0.15642410  1
  O  O194  1  0.64924467  0.34446766  0.61854523  1
  O  O195  1  -0.00798124  0.02892964  0.13774928  1
  O  O196  1  0.18285720  0.48828313  0.46866068  1
  O  O197  1  0.51425687  0.49791234  0.12292017  1
  O  O198  1  0.84406542  0.18934896  0.11959720  1
  O  O199  1  0.19989871  0.50006803  0.88539185  1
  O  O200  1  0.30741443  0.34172126  0.11345339  1
  O  O201  1  0.03573002  0.63896681  0.38160758  1
  O  O202  1  0.48985897  0.84642415  0.12224355  1
  O  O203  1  0.50138831  0.48224972  0.59926670  1
  O  O204  1  0.32667649  -0.00700785  0.63282713  1
  O  O205  1  0.49200420  0.17203920  0.63821359  1
  O  O206  1  0.17046656  0.82650478  0.64407622  1
  O  O207  1  0.35139926  0.68235320  0.62575140  1
  O  O208  1  0.33613685  0.66620842  0.11506302  1
  O  O209  1  0.01571421  0.00059798  0.63380937  1
  O  O210  1  0.49463172  0.83408496  0.62549210  1
  O  O211  1  0.70668739  0.33466349  0.12092417  1
  O  O212  1  0.32946085  0.67024073  0.38064324  1
  O  O213  1  0.17541925  0.16279458  0.61211541  1
  O  O214  1  0.68648037  0.64421155  0.96540240  1
  O  O215  1  -0.00431791  0.66522738  0.63477997  1
