# generated using pymatgen
data_Sr24Ta24N11O13
_symmetry_space_group_name_H-M   'P 1'
_cell_length_a   16.72896033
_cell_length_b   16.88016133
_cell_length_c   15.66212261
_cell_angle_alpha   89.45379690
_cell_angle_beta   89.97031823
_cell_angle_gamma   90.04697751
_symmetry_Int_Tables_number   1
_chemical_formula_structural   Sr24Ta24N11O13
_chemical_formula_sum   'Sr72 Ta72 N33 O39'
_cell_volume   4422.58535572
_cell_formula_units_Z   3
loop_
 _symmetry_equiv_pos_site_id
 _symmetry_equiv_pos_as_xyz
  1  'x, y, z'
loop_
 _atom_site_type_symbol
 _atom_site_label
 _atom_site_symmetry_multiplicity
 _atom_site_fract_x
 _atom_site_fract_y
 _atom_site_fract_z
 _atom_site_occupancy
  Sr  Sr0  1  -0.00858457  0.16722190  0.13438894  1
  Sr  Sr1  1  0.01049070  0.20513180  0.57598439  1
  Sr  Sr2  1  0.00198145  0.52186523  0.10629969  1
  Sr  Sr3  1  0.00952107  0.50277934  0.66920051  1
  Sr  Sr4  1  0.00606173  0.85467458  0.10501443  1
  Sr  Sr5  1  -0.00086335  0.83932265  0.62334404  1
  Sr  Sr6  1  0.32902186  0.16059503  0.14036933  1
  Sr  Sr7  1  0.32563977  0.18076821  0.64320587  1
  Sr  Sr8  1  0.33814930  0.51935368  0.11121726  1
  Sr  Sr9  1  0.32483240  0.50916909  0.59377848  1
  Sr  Sr10  1  0.32180524  0.83941678  0.14884256  1
  Sr  Sr11  1  0.34662004  0.84488131  0.61697901  1
  Sr  Sr12  1  0.65982016  0.18001460  0.07940861  1
  Sr  Sr13  1  0.67558181  0.16031593  0.62874683  1
  Sr  Sr14  1  0.65964862  0.48534978  0.17029433  1
  Sr  Sr15  1  0.66384840  0.52039655  0.60691153  1
  Sr  Sr16  1  0.65951655  0.82004259  0.10771508  1
  Sr  Sr17  1  0.66684019  0.83393241  0.66198766  1
  Sr  Sr18  1  0.15695143  0.00165460  0.07734450  1
  Sr  Sr19  1  0.17839065  -0.01559535  0.64569042  1
  Sr  Sr20  1  0.16108723  0.30450798  0.17589499  1
  Sr  Sr21  1  0.17953425  0.33368751  0.61261318  1
  Sr  Sr22  1  0.17084501  0.66153961  0.13103737  1
  Sr  Sr23  1  0.15670502  0.64599900  0.64756860  1
  Sr  Sr24  1  0.50246311  -0.01957835  0.14583218  1
  Sr  Sr25  1  0.50282737  0.00660167  0.58474035  1
  Sr  Sr26  1  0.49376982  0.33181249  0.11988458  1
  Sr  Sr27  1  0.50581893  0.30791161  0.66881277  1
  Sr  Sr28  1  0.49493465  0.66301176  0.08907491  1
  Sr  Sr29  1  0.50047741  0.67445043  0.63700947  1
  Sr  Sr30  1  0.84392856  0.00031265  0.16097846  1
  Sr  Sr31  1  0.83061607  -0.01856826  0.62729394  1
  Sr  Sr32  1  0.83746692  0.31665982  0.09833185  1
  Sr  Sr33  1  0.83649740  0.33870787  0.62018783  1
  Sr  Sr34  1  0.82830097  0.65045502  0.13131181  1
  Sr  Sr35  1  0.84718911  0.66394759  0.60071336  1
  Sr  Sr36  1  -0.00560683  0.18300432  0.35814322  1
  Sr  Sr37  1  0.00468551  0.17505615  0.91017036  1
  Sr  Sr38  1  0.00836742  0.53205316  0.33359709  1
  Sr  Sr39  1  0.00006635  0.49231239  0.88149983  1
  Sr  Sr40  1  -0.01193797  0.83383265  0.39967694  1
  Sr  Sr41  1  0.00203469  0.86939757  0.85712961  1
  Sr  Sr42  1  0.34386478  0.18624471  0.35455478  1
  Sr  Sr43  1  0.31819446  0.16520321  0.86388763  1
  Sr  Sr44  1  0.32499602  0.51196347  0.39039657  1
  Sr  Sr45  1  0.34673351  0.50803414  0.90712210  1
  Sr  Sr46  1  0.34516580  0.84037001  0.37982501  1
  Sr  Sr47  1  0.32598730  0.83971505  0.84764031  1
  Sr  Sr48  1  0.66730744  0.15806601  0.41511419  1
  Sr  Sr49  1  0.68108645  0.17296804  0.86000119  1
  Sr  Sr50  1  0.67794346  0.49826740  0.38697556  1
  Sr  Sr51  1  0.63877364  0.50631416  0.83009433  1
  Sr  Sr52  1  0.66996679  0.85487106  0.32495077  1
  Sr  Sr53  1  0.66458406  0.82507447  0.88536143  1
  Sr  Sr54  1  0.15918995  -0.03811870  0.41726415  1
  Sr  Sr55  1  0.17241730  0.00637866  0.86842010  1
  Sr  Sr56  1  0.17785688  0.32973136  0.39405549  1
  Sr  Sr57  1  0.17382847  0.32227443  0.84188038  1
  Sr  Sr58  1  0.17059557  0.66271077  0.34643313  1
  Sr  Sr59  1  0.16767930  0.62602668  0.89622690  1
  Sr  Sr60  1  0.49595899  0.00467353  0.36874767  1
  Sr  Sr61  1  0.53142608  0.00007082  0.92003029  1
  Sr  Sr62  1  0.50263434  0.33900386  0.33886926  1
  Sr  Sr63  1  0.49324655  0.32349904  0.88436327  1
  Sr  Sr64  1  0.48792028  0.65441892  0.42119419  1
  Sr  Sr65  1  0.50391870  0.68225567  0.86225643  1
  Sr  Sr66  1  0.83885921  -0.00964528  0.36956723  1
  Sr  Sr67  1  0.82832491  -0.00611272  0.83148158  1
  Sr  Sr68  1  0.81964471  0.32201366  0.40352342  1
  Sr  Sr69  1  0.84345613  0.32890830  0.88057941  1
  Sr  Sr70  1  0.82562949  0.65440240  0.36633909  1
  Sr  Sr71  1  0.84050770  0.66588109  0.91197937  1
  Ta  Ta72  1  0.17233138  0.20344885  0.00965851  1
  Ta  Ta73  1  0.17717682  0.13727702  0.49395846  1
  Ta  Ta74  1  0.17373245  0.44242890  0.00359447  1
  Ta  Ta75  1  0.13439977  0.50951942  0.50017281  1
  Ta  Ta76  1  0.17309445  0.81036160  -0.01089853  1
  Ta  Ta77  1  0.16386240  0.78762242  0.50910119  1
  Ta  Ta78  1  0.46776543  0.15559560  0.00305015  1
  Ta  Ta79  1  0.48907596  0.19300387  0.50127450  1
  Ta  Ta80  1  0.53926946  0.49344695  -0.00184527  1
  Ta  Ta81  1  0.49927850  0.45852459  0.51265005  1
  Ta  Ta82  1  0.45964130  0.83816212  0.00059375  1
  Ta  Ta83  1  0.55151900  0.83293834  0.49647964  1
  Ta  Ta84  1  0.83356947  0.12570137  -0.00531409  1
  Ta  Ta85  1  0.84984106  0.13519518  0.50098436  1
  Ta  Ta86  1  0.78312721  0.49409846  0.00105593  1
  Ta  Ta87  1  0.88570814  0.50129173  0.49332366  1
  Ta  Ta88  1  0.84100046  0.86631069  -0.00631862  1
  Ta  Ta89  1  0.79051047  0.82838416  0.49546386  1
  Ta  Ta90  1  0.16108339  0.11885775  0.25449330  1
  Ta  Ta91  1  0.12254446  0.16598559  0.73800830  1
  Ta  Ta92  1  0.18289683  0.47960917  0.24909893  1
  Ta  Ta93  1  0.20727747  0.49114520  0.75172794  1
  Ta  Ta94  1  0.14645672  0.85010263  0.24280933  1
  Ta  Ta95  1  0.15604879  0.78776347  0.77112665  1
  Ta  Ta96  1  0.54291151  0.16662797  0.25251558  1
  Ta  Ta97  1  0.50000229  0.11996758  0.74934883  1
  Ta  Ta98  1  0.48555017  0.52867329  0.25616641  1
  Ta  Ta99  1  0.45971363  0.49412402  0.73862608  1
  Ta  Ta100  1  0.49995445  0.78313387  0.24733536  1
  Ta  Ta101  1  0.49985475  0.88485932  0.75741442  1
  Ta  Ta102  1  0.79700415  0.17587197  0.24455907  1
  Ta  Ta103  1  0.87936406  0.17382571  0.74931628  1
  Ta  Ta104  1  0.84254854  0.45448844  0.25358496  1
  Ta  Ta105  1  0.81692448  0.51111595  0.74867880  1
  Ta  Ta106  1  0.85308165  0.81592319  0.23978103  1
  Ta  Ta107  1  0.84011833  0.79138555  0.75585925  1
  Ta  Ta108  1  0.03953732  -0.00425963  0.24614601  1
  Ta  Ta109  1  0.00287274  0.05241565  0.74811899  1
  Ta  Ta110  1  -0.02097584  0.35732303  0.25126015  1
  Ta  Ta111  1  0.00251756  0.29843181  0.74783435  1
  Ta  Ta112  1  -0.00480825  0.71317056  0.23530736  1
  Ta  Ta113  1  -0.00929504  0.68701147  0.76437334  1
  Ta  Ta114  1  0.26941278  -0.00187551  0.25447754  1
  Ta  Ta115  1  0.37635093  0.00525159  0.75090397  1
  Ta  Ta116  1  0.32928657  0.37596923  0.25402300  1
  Ta  Ta117  1  0.33994886  0.37453123  0.74545353  1
  Ta  Ta118  1  0.36393282  0.66402335  0.25109733  1
  Ta  Ta119  1  0.32361730  0.64632327  0.75576592  1
  Ta  Ta120  1  0.66837987  0.04804140  0.24848564  1
  Ta  Ta121  1  0.63682286  0.00183986  0.74962067  1
  Ta  Ta122  1  0.68082876  0.29858082  0.24590436  1
  Ta  Ta123  1  0.68728075  0.35126299  0.74546533  1
  Ta  Ta124  1  0.62325681  0.66259389  0.25357387  1
  Ta  Ta125  1  0.71429353  0.66371637  0.75608854  1
  Ta  Ta126  1  -0.04102653  0.00857307  -0.00392100  1
  Ta  Ta127  1  -0.00401615  0.02755220  0.50403965  1
  Ta  Ta128  1  0.04803941  0.33470893  0.00612645  1
  Ta  Ta129  1  0.00300522  0.39106805  0.49615094  1
  Ta  Ta130  1  0.01561157  0.70643088  -0.01346196  1
  Ta  Ta131  1  0.01932720  0.65096169  0.50659670  1
  Ta  Ta132  1  0.35027899  -0.00385739  -0.00298878  1
  Ta  Ta133  1  0.32337928  0.03828621  0.50217356  1
  Ta  Ta134  1  0.30764453  0.32191309  0.00623170  1
  Ta  Ta135  1  0.37837188  0.33359774  0.50326087  1
  Ta  Ta136  1  0.32552759  0.70625503  -0.00056946  1
  Ta  Ta137  1  0.29711665  0.68426450  0.50095564  1
  Ta  Ta138  1  0.71719840  -0.00135448  -0.00220652  1
  Ta  Ta139  1  0.67640949  -0.03298170  0.49778970  1
  Ta  Ta140  1  0.66241633  0.37666564  0.00020708  1
  Ta  Ta141  1  0.61481280  0.33509262  0.50193325  1
  Ta  Ta142  1  0.66414225  0.61421077  -0.00333988  1
  Ta  Ta143  1  0.66967053  0.71276960  0.49866599  1
  N  N144  1  0.16543085  0.85480469  0.86835691  1
  N  N145  1  -0.00167814  0.64328032  0.88413725  1
  N  N146  1  0.32985731  0.67265302  0.38060667  1
  N  N147  1  0.66883738  -0.00304934  0.62090609  1
  N  N148  1  0.00120955  0.00925291  0.12788653  1
  N  N149  1  0.00114820  0.66261665  0.62986602  1
  N  N150  1  -0.00086800  0.67852598  0.11469937  1
  N  N151  1  0.49920877  0.84255170  0.87496891  1
  N  N152  1  0.83778669  0.49407578  0.37702771  1
  N  N153  1  0.33733370  0.33782355  0.62297018  1
  N  N154  1  0.83203988  0.83462387  0.87289786  1
  N  N155  1  0.49506620  0.82250867  0.12573094  1
  N  N156  1  0.67330538  0.65838202  0.87582961  1
  N  N157  1  0.16149273  0.16285384  0.61517422  1
  N  N158  1  0.83834269  0.16616981  0.86564912  1
  N  N159  1  0.66628105  0.33249252  0.12543525  1
  N  N160  1  0.67927973  -0.00014571  0.87353557  1
  N  N161  1  0.82681029  0.16251539  0.12501757  1
  N  N162  1  0.50360084  0.51523960  0.62368992  1
  N  N163  1  0.34150162  0.34416286  0.37233033  1
  N  N164  1  0.33235769  0.00498974  0.87649226  1
  N  N165  1  0.16448086  0.83667234  0.12106386  1
  N  N166  1  0.50776735  0.16807236  0.37240820  1
  N  N167  1  0.16361682  0.15784147  0.12608690  1
  N  N168  1  0.33782984  0.01107872  0.62127660  1
  N  N169  1  -0.00188086  0.02052442  0.87324993  1
  N  N170  1  0.50250610  0.15770617  0.62835052  1
  N  N171  1  0.16596348  0.50049121  0.37069004  1
  N  N172  1  0.66934447  0.00550143  0.36768425  1
  N  N173  1  0.33697121  0.66500860  0.87561575  1
  N  N174  1  0.17580784  0.47453674  0.87982847  1
  N  N175  1  0.16801877  0.49251262  0.62614064  1
  N  N176  1  0.33194944  0.67380738  0.12663785  1
  O  O177  1  0.83832352  0.15274125  0.37351868  1
  O  O178  1  -0.00093151  0.33996086  0.12646588  1
  O  O179  1  0.49101818  0.16461987  0.12772742  1
  O  O180  1  0.00210540  -0.00204509  0.62609502  1
  O  O181  1  0.33165266  0.33573846  0.88087610  1
  O  O182  1  0.00770456  0.68056203  0.36306161  1
  O  O183  1  0.15245893  0.17475501  0.36997242  1
  O  O184  1  0.15775031  0.80716748  0.63829872  1
  O  O185  1  0.65218224  0.66500065  0.37692324  1
  O  O186  1  0.32948472  0.32264695  0.13391654  1
  O  O187  1  0.66949912  0.34289468  0.62126356  1
  O  O188  1  0.50713678  0.82076512  0.37682771  1
  O  O189  1  0.67776039  0.34116397  0.87053583  1
  O  O190  1  0.49208672  0.50412822  0.38278654  1
  O  O191  1  0.84536253  0.50617949  0.62447590  1
  O  O192  1  0.67844634  0.67635234  0.62714851  1
  O  O193  1  0.16565466  0.50239501  0.12067807  1
  O  O194  1  0.31222574  -0.00662316  0.37602907  1
  O  O195  1  0.33882215  0.67033745  0.62176289  1
  O  O196  1  0.16336362  0.16965100  0.88180415  1
  O  O197  1  0.47927700  0.16301550  0.87802377  1
  O  O198  1  0.82731313  0.82822941  0.36479489  1
  O  O199  1  -0.00357913  0.34406521  0.37724457  1
  O  O200  1  0.01541385  0.33388980  0.87182071  1
  O  O201  1  0.15316492  0.81571176  0.38180539  1
  O  O202  1  0.82010355  0.82286793  0.62543132  1
  O  O203  1  0.64736573  0.64971821  0.12833641  1
  O  O204  1  0.31021585  0.00057732  0.12979206  1
  O  O205  1  0.81098914  0.48671822  0.13266436  1
  O  O206  1  0.65634537  0.33055888  0.37875062  1
  O  O207  1  0.50246335  0.50739384  0.12912657  1
  O  O208  1  0.83657990  0.15553801  0.62396896  1
  O  O209  1  0.51118863  0.84356535  0.62064476  1
  O  O210  1  0.00482737  0.00758899  0.37836534  1
  O  O211  1  0.83279033  0.81685556  0.11611495  1
  O  O212  1  0.67927070  0.00793111  0.12308655  1
  O  O213  1  0.49566178  0.49140545  0.87085838  1
  O  O214  1  0.81493576  0.49781147  0.87330460  1
  O  O215  1  0.00039409  0.34893566  0.62711603  1
