# generated using pymatgen
data_Sr24Ta24N11O13
_symmetry_space_group_name_H-M   'P 1'
_cell_length_a   16.75098641
_cell_length_b   16.88624714
_cell_length_c   15.74208710
_cell_angle_alpha   89.65314775
_cell_angle_beta   89.85494524
_cell_angle_gamma   89.64230150
_symmetry_Int_Tables_number   1
_chemical_formula_structural   Sr24Ta24N11O13
_chemical_formula_sum   'Sr72 Ta72 N33 O39'
_cell_volume   4452.64495416
_cell_formula_units_Z   3
loop_
 _symmetry_equiv_pos_site_id
 _symmetry_equiv_pos_as_xyz
  1  'x, y, z'
loop_
 _atom_site_type_symbol
 _atom_site_label
 _atom_site_symmetry_multiplicity
 _atom_site_fract_x
 _atom_site_fract_y
 _atom_site_fract_z
 _atom_site_occupancy
  Sr  Sr0  1  -0.00819883  0.17029721  0.17056060  1
  Sr  Sr1  1  0.01585243  0.17001516  0.61159098  1
  Sr  Sr2  1  -0.00146773  0.49807326  0.13128406  1
  Sr  Sr3  1  -0.00049572  0.51043726  0.58034163  1
  Sr  Sr4  1  -0.00325434  0.83756977  0.11361751  1
  Sr  Sr5  1  -0.00194915  0.80982319  0.67127774  1
  Sr  Sr6  1  0.32509025  0.17034508  0.11608989  1
  Sr  Sr7  1  0.33807557  0.14745935  0.65429833  1
  Sr  Sr8  1  0.32458814  0.49201510  0.11454990  1
  Sr  Sr9  1  0.32383165  0.48385918  0.64228093  1
  Sr  Sr10  1  0.33988447  0.80860673  0.12434743  1
  Sr  Sr11  1  0.32390981  0.83109102  0.61372593  1
  Sr  Sr12  1  0.67862772  0.14715837  0.10688034  1
  Sr  Sr13  1  0.65198182  0.15350389  0.60213978  1
  Sr  Sr14  1  0.65353361  0.49198340  0.13747787  1
  Sr  Sr15  1  0.66744109  0.48017214  0.64516783  1
  Sr  Sr16  1  0.65776236  0.80930727  0.12957311  1
  Sr  Sr17  1  0.67478162  0.82171405  0.62331090  1
  Sr  Sr18  1  0.17763282  0.02299072  0.13253978  1
  Sr  Sr19  1  0.17393496  -0.00376967  0.58976633  1
  Sr  Sr20  1  0.17188526  0.34785511  0.08299851  1
  Sr  Sr21  1  0.16218003  0.32628766  0.63299696  1
  Sr  Sr22  1  0.15892118  0.66047297  0.16947387  1
  Sr  Sr23  1  0.17844000  0.67356003  0.62753130  1
  Sr  Sr24  1  0.50736135  0.03286232  0.12088614  1
  Sr  Sr25  1  0.49849051  0.00686428  0.65276734  1
  Sr  Sr26  1  0.47972236  0.34971765  0.16578270  1
  Sr  Sr27  1  0.50913531  0.34498767  0.60401049  1
  Sr  Sr28  1  0.50720438  0.67235691  0.12411111  1
  Sr  Sr29  1  0.49620397  0.70712013  0.57621835  1
  Sr  Sr30  1  0.84012223  -0.00113915  0.13537083  1
  Sr  Sr31  1  0.84724772  0.02267911  0.60447720  1
  Sr  Sr32  1  0.82607933  0.34582801  0.11364962  1
  Sr  Sr33  1  0.83014388  0.33672785  0.66322855  1
  Sr  Sr34  1  0.85005876  0.68018442  0.08865337  1
  Sr  Sr35  1  0.81534594  0.66027653  0.63605884  1
  Sr  Sr36  1  0.01009992  0.15119359  0.39042590  1
  Sr  Sr37  1  -0.01352137  0.18441017  0.82331194  1
  Sr  Sr38  1  0.00172654  0.50899547  0.37181448  1
  Sr  Sr39  1  -0.00258790  0.47957686  0.91918292  1
  Sr  Sr40  1  0.00487424  0.82624120  0.33948192  1
  Sr  Sr41  1  -0.00253968  0.84458850  0.88995248  1
  Sr  Sr42  1  0.34233269  0.15312342  0.33575101  1
  Sr  Sr43  1  0.32507702  0.15726264  0.88830986  1
  Sr  Sr44  1  0.33070647  0.46864005  0.38424699  1
  Sr  Sr45  1  0.31720685  0.49445357  0.86765174  1
  Sr  Sr46  1  0.33386866  0.82088782  0.39266626  1
  Sr  Sr47  1  0.33454569  0.82246839  0.87716852  1
  Sr  Sr48  1  0.66884030  0.14868582  0.39283825  1
  Sr  Sr49  1  0.66330590  0.15011374  0.89885221  1
  Sr  Sr50  1  0.66015046  0.47906553  0.35558933  1
  Sr  Sr51  1  0.66647136  0.49673490  0.86082567  1
  Sr  Sr52  1  0.67500262  0.81317063  0.38955794  1
  Sr  Sr53  1  0.65948116  0.81460355  0.86349122  1
  Sr  Sr54  1  0.17825599  0.01328469  0.37430217  1
  Sr  Sr55  1  0.16826213  -0.01744553  0.91981025  1
  Sr  Sr56  1  0.15015211  0.33911396  0.41870452  1
  Sr  Sr57  1  0.17477269  0.32376103  0.86265146  1
  Sr  Sr58  1  0.16302188  0.66743146  0.37343988  1
  Sr  Sr59  1  0.17847722  0.67487814  0.83446021  1
  Sr  Sr60  1  0.50412936  0.02398577  0.35610959  1
  Sr  Sr61  1  0.50380635  0.01055277  0.86448448  1
  Sr  Sr62  1  0.49825264  0.33800345  0.38476001  1
  Sr  Sr63  1  0.50089760  0.36855765  0.83715199  1
  Sr  Sr64  1  0.51566198  0.69232589  0.35691262  1
  Sr  Sr65  1  0.48808202  0.67329748  0.91863268  1
  Sr  Sr66  1  0.83659104  0.00095287  0.37111013  1
  Sr  Sr67  1  0.84893015  0.01357869  0.88840773  1
  Sr  Sr68  1  0.84436886  0.35617079  0.33246899  1
  Sr  Sr69  1  0.81796695  0.33593540  0.88393104  1
  Sr  Sr70  1  0.83198055  0.66264359  0.41360360  1
  Sr  Sr71  1  0.84475405  0.68536974  0.86313729  1
  Ta  Ta72  1  0.12790875  0.17278152  0.00318688  1
  Ta  Ta73  1  0.21175233  0.16766139  0.49929217  1
  Ta  Ta74  1  0.16490936  0.54551524  0.00421260  1
  Ta  Ta75  1  0.18289368  0.51885849  0.50091145  1
  Ta  Ta76  1  0.17013901  0.78669852  -0.00164184  1
  Ta  Ta77  1  0.12893942  0.82918422  0.50483009  1
  Ta  Ta78  1  0.49753741  0.21614440  -0.00113217  1
  Ta  Ta79  1  0.46733799  0.16309816  0.50046185  1
  Ta  Ta80  1  0.49910514  0.47532477  0.00369203  1
  Ta  Ta81  1  0.49696673  0.52858723  0.49701870  1
  Ta  Ta82  1  0.50270602  0.86724236  0.00580602  1
  Ta  Ta83  1  0.50542427  0.88654487  0.49138069  1
  Ta  Ta84  1  0.87073681  0.17498654  -0.00337383  1
  Ta  Ta85  1  0.83401582  0.21360505  0.50248296  1
  Ta  Ta86  1  0.80935619  0.51942082  -0.00150214  1
  Ta  Ta87  1  0.81524323  0.47520459  0.49639321  1
  Ta  Ta88  1  0.80325971  0.85005522  -0.00119562  1
  Ta  Ta89  1  0.87468088  0.83885385  0.50266133  1
  Ta  Ta90  1  0.16587526  0.21189968  0.25517245  1
  Ta  Ta91  1  0.16817443  0.11911319  0.74813420  1
  Ta  Ta92  1  0.16826558  0.46593637  0.25247585  1
  Ta  Ta93  1  0.12181967  0.49887154  0.74641333  1
  Ta  Ta94  1  0.17898573  0.85532226  0.24791292  1
  Ta  Ta95  1  0.16751197  0.86989809  0.75295950  1
  Ta  Ta96  1  0.53552046  0.18920716  0.25411005  1
  Ta  Ta97  1  0.50782875  0.19614001  0.74672195  1
  Ta  Ta98  1  0.47212657  0.52732229  0.25009782  1
  Ta  Ta99  1  0.49133955  0.54489293  0.74701230  1
  Ta  Ta100  1  0.49819558  0.86720945  0.24645662  1
  Ta  Ta101  1  0.49469402  0.81200601  0.75370266  1
  Ta  Ta102  1  0.80669689  0.18476658  0.25144886  1
  Ta  Ta103  1  0.79248876  0.15969117  0.75341893  1
  Ta  Ta104  1  0.83130973  0.54367114  0.25076125  1
  Ta  Ta105  1  0.88229166  0.50436477  0.75028410  1
  Ta  Ta106  1  0.82551901  0.80940523  0.24589637  1
  Ta  Ta107  1  0.82499878  0.87710881  0.75575416  1
  Ta  Ta108  1  0.02010070  -0.01111827  0.25243999  1
  Ta  Ta109  1  0.03387342  -0.00130031  0.75030840  1
  Ta  Ta110  1  0.03662837  0.33706977  0.25174091  1
  Ta  Ta111  1  -0.00137048  0.37910243  0.74390266  1
  Ta  Ta112  1  -0.03884124  0.66530516  0.24928303  1
  Ta  Ta113  1  0.00261532  0.61899255  0.75289065  1
  Ta  Ta114  1  0.33849331  -0.03795440  0.25423923  1
  Ta  Ta115  1  0.29993545  -0.01567250  0.74870414  1
  Ta  Ta116  1  0.28767623  0.32898925  0.25418352  1
  Ta  Ta117  1  0.35192513  0.30824727  0.74893283  1
  Ta  Ta118  1  0.34452280  0.63850710  0.25111870  1
  Ta  Ta119  1  0.38151299  0.66813769  0.74209165  1
  Ta  Ta120  1  0.66464074  -0.03334417  0.24879434  1
  Ta  Ta121  1  0.69587744  -0.00018434  0.74985099  1
  Ta  Ta122  1  0.66559599  0.29612389  0.24948024  1
  Ta  Ta123  1  0.65746398  0.28788794  0.74662324  1
  Ta  Ta124  1  0.70802013  0.65813513  0.24971571  1
  Ta  Ta125  1  0.60216153  0.66223269  0.74494018  1
  Ta  Ta126  1  0.00225874  0.06554574  0.00120473  1
  Ta  Ta127  1  0.00410612  -0.05192946  0.49909732  1
  Ta  Ta128  1  -0.00041320  0.28329366  -0.00131518  1
  Ta  Ta129  1  -0.04810631  0.33463731  0.50336259  1
  Ta  Ta130  1  0.03867644  0.66467916  0.00367412  1
  Ta  Ta131  1  0.00395230  0.70285543  0.49844998  1
  Ta  Ta132  1  0.35473939  -0.02120402  0.00422463  1
  Ta  Ta133  1  0.35790365  0.01475912  0.49905171  1
  Ta  Ta134  1  0.37500640  0.33359113  -0.00793441  1
  Ta  Ta135  1  0.33085318  0.28571569  0.49606240  1
  Ta  Ta136  1  0.29410511  0.65801415  0.00343616  1
  Ta  Ta137  1  0.33774969  0.62821711  0.49956388  1
  Ta  Ta138  1  0.66969451  -0.03810058  0.00396068  1
  Ta  Ta139  1  0.64829406  -0.02206504  0.49483002  1
  Ta  Ta140  1  0.62153937  0.33594898  -0.00048890  1
  Ta  Ta141  1  0.71005760  0.32997137  0.50192466  1
  Ta  Ta142  1  0.68075679  0.64545654  0.00027008  1
  Ta  Ta143  1  0.65450634  0.61719749  0.49499462  1
  N  N144  1  0.16106918  0.17783769  0.12342930  1
  N  N145  1  0.49997012  0.17259995  0.62263392  1
  N  N146  1  0.67770709  -0.00718331  0.37544047  1
  N  N147  1  0.50692626  0.18075756  0.37449397  1
  N  N148  1  0.17495131  0.15359398  0.62650089  1
  N  N149  1  -0.00374216  0.67217542  0.37700795  1
  N  N150  1  0.00382093  0.66905803  0.12795557  1
  N  N151  1  0.17166844  0.17076211  0.37466377  1
  N  N152  1  0.83296318  0.83243778  0.12565513  1
  N  N153  1  0.32913223  0.31863651  0.37157206  1
  N  N154  1  0.15782165  0.83284215  0.62837094  1
  N  N155  1  0.33229976  -0.00985543  0.62850576  1
  N  N156  1  0.83939041  0.84350311  0.87348415  1
  N  N157  1  0.50231863  0.84312974  0.37610235  1
  N  N158  1  0.34241924  0.66183419  0.62205224  1
  N  N159  1  0.00832849  -0.00868494  0.37438288  1
  N  N160  1  0.49961621  0.82641830  0.12390705  1
  N  N161  1  0.66979738  0.32082432  0.62433249  1
  N  N162  1  0.33342100  0.33039146  0.87015546  1
  N  N163  1  0.16292675  0.49909756  0.37698695  1
  N  N164  1  0.32901661  0.65512847  0.12601054  1
  N  N165  1  0.67055892  0.65375359  0.12334388  1
  N  N166  1  0.83016330  0.17368605  0.87397857  1
  N  N167  1  0.83061050  0.50318304  0.37680679  1
  N  N168  1  0.16516521  0.82768174  0.87916085  1
  N  N169  1  0.15645626  0.49763201  0.62493091  1
  N  N170  1  0.67032710  0.64744731  0.37735710  1
  N  N171  1  0.16057912  0.50331155  0.12646619  1
  N  N172  1  0.67219488  -0.00476367  0.12400978  1
  N  N173  1  0.33545072  -0.00833346  0.37432219  1
  N  N174  1  0.49410825  0.50331650  0.12557607  1
  N  N175  1  0.49949085  0.83458905  0.87378558  1
  N  N176  1  -0.00582577  0.34066141  0.61966238  1
  O  O177  1  0.49711217  0.19420633  0.12816170  1
  O  O178  1  0.84748272  0.83011552  0.38003651  1
  O  O179  1  0.16552329  0.83989981  0.37318046  1
  O  O180  1  0.33820224  -0.00067415  0.12552039  1
  O  O181  1  0.82816297  0.17861598  0.63106115  1
  O  O182  1  0.83821851  0.50410110  0.62821673  1
  O  O183  1  0.16785880  0.16394393  0.86864060  1
  O  O184  1  0.67239615  0.31900925  0.37734750  1
  O  O185  1  0.84977964  0.85058204  0.63063832  1
  O  O186  1  -0.00133913  0.34184579  0.37533300  1
  O  O187  1  0.50331179  0.18084690  0.88006371  1
  O  O188  1  0.65102719  0.33452278  0.87380943  1
  O  O189  1  -0.00234710  0.33100275  0.86730022  1
  O  O190  1  0.01586903  0.32257414  0.12610785  1
  O  O191  1  0.49207905  0.51669898  0.88161759  1
  O  O192  1  0.49927422  0.85027927  0.62296866  1
  O  O193  1  0.32533163  0.66621334  0.37778710  1
  O  O194  1  0.49977928  0.49766758  0.37211894  1
  O  O195  1  0.82108153  0.50279083  0.12391965  1
  O  O196  1  0.49413712  0.51327213  0.62009372  1
  O  O197  1  0.01001211  -0.01224872  0.62726734  1
  O  O198  1  0.00398107  0.64335964  0.88073178  1
  O  O199  1  0.64066447  0.65616427  0.86912340  1
  O  O200  1  0.82626948  0.18849674  0.37305033  1
  O  O201  1  0.33587311  -0.01648328  0.87898582  1
  O  O202  1  0.01262947  0.01846675  0.87595059  1
  O  O203  1  0.00646199  0.02288764  0.12486928  1
  O  O204  1  0.66656945  -0.00265534  0.87231680  1
  O  O205  1  0.67967495  -0.00618836  0.62248641  1
  O  O206  1  0.65129801  0.65395745  0.62457281  1
  O  O207  1  0.15451241  0.50338983  0.88235995  1
  O  O208  1  0.83871839  0.51069693  0.87665199  1
  O  O209  1  0.00170460  0.66088700  0.62210797  1
  O  O210  1  0.32998411  0.32981223  0.11612749  1
  O  O211  1  0.17500774  0.82817566  0.12601214  1
  O  O212  1  0.82966019  0.18247721  0.12590314  1
  O  O213  1  0.65330443  0.32318807  0.11948009  1
  O  O214  1  0.33588703  0.32527430  0.62258512  1
  O  O215  1  0.33716749  0.66711558  0.87238950  1
