# generated using pymatgen
data_Sr24Ta24N11O13
_symmetry_space_group_name_H-M   'P 1'
_cell_length_a   16.66604204
_cell_length_b   16.98529046
_cell_length_c   15.74943652
_cell_angle_alpha   90.01063416
_cell_angle_beta   90.31364132
_cell_angle_gamma   89.90265108
_symmetry_Int_Tables_number   1
_chemical_formula_structural   Sr24Ta24N11O13
_chemical_formula_sum   'Sr72 Ta72 N33 O39'
_cell_volume   4458.23883606
_cell_formula_units_Z   3
loop_
 _symmetry_equiv_pos_site_id
 _symmetry_equiv_pos_as_xyz
  1  'x, y, z'
loop_
 _atom_site_type_symbol
 _atom_site_label
 _atom_site_symmetry_multiplicity
 _atom_site_fract_x
 _atom_site_fract_y
 _atom_site_fract_z
 _atom_site_occupancy
  Sr  Sr0  1  0.00365501  0.14013128  0.09717782  1
  Sr  Sr1  1  -0.00271181  0.15349258  0.60957013  1
  Sr  Sr2  1  -0.00338518  0.51498417  0.10672349  1
  Sr  Sr3  1  0.01116641  0.48432609  0.66797536  1
  Sr  Sr4  1  0.00813801  0.83562000  0.16612426  1
  Sr  Sr5  1  -0.00902744  0.80920735  0.62245202  1
  Sr  Sr6  1  0.32820778  0.15409526  0.12075270  1
  Sr  Sr7  1  0.33224097  0.17046777  0.66311197  1
  Sr  Sr8  1  0.33961952  0.49970211  0.13837240  1
  Sr  Sr9  1  0.32034725  0.48238506  0.57820944  1
  Sr  Sr10  1  0.31812054  0.83732883  0.08547005  1
  Sr  Sr11  1  0.33658562  0.82211861  0.63429246  1
  Sr  Sr12  1  0.67355140  0.16527064  0.13329707  1
  Sr  Sr13  1  0.66766320  0.13065271  0.60893165  1
  Sr  Sr14  1  0.65554776  0.47452881  0.12600133  1
  Sr  Sr15  1  0.65961750  0.49470792  0.62755858  1
  Sr  Sr16  1  0.67232213  0.82603536  0.12246328  1
  Sr  Sr17  1  0.66767546  0.81052087  0.62267933  1
  Sr  Sr18  1  0.16072567  0.00170514  0.13487081  1
  Sr  Sr19  1  0.17057052  0.01822280  0.60481361  1
  Sr  Sr20  1  0.16364203  0.36714149  0.14094173  1
  Sr  Sr21  1  0.16015088  0.33236924  0.62085354  1
  Sr  Sr22  1  0.17096420  0.68609245  0.10917963  1
  Sr  Sr23  1  0.16751815  0.67028735  0.62727545  1
  Sr  Sr24  1  0.50661707  0.02062726  0.17953556  1
  Sr  Sr25  1  0.49595658  -0.00840515  0.60933766  1
  Sr  Sr26  1  0.50228941  0.32965535  0.08820315  1
  Sr  Sr27  1  0.50367182  0.34381482  0.62415547  1
  Sr  Sr28  1  0.49736424  0.68365576  0.12275772  1
  Sr  Sr29  1  0.50709501  0.66874126  0.66298769  1
  Sr  Sr30  1  0.82245548  0.01644755  0.08832629  1
  Sr  Sr31  1  0.83909648  -0.00328273  0.64402134  1
  Sr  Sr32  1  0.83776517  0.35370041  0.14161415  1
  Sr  Sr33  1  0.83211896  0.36650769  0.64202855  1
  Sr  Sr34  1  0.84352782  0.69112291  0.13877866  1
  Sr  Sr35  1  0.82053584  0.67105105  0.58337463  1
  Sr  Sr36  1  0.01191548  0.15973073  0.40594044  1
  Sr  Sr37  1  -0.00595326  0.14073644  0.88599803  1
  Sr  Sr38  1  -0.00353587  0.47708117  0.33187819  1
  Sr  Sr39  1  -0.00240281  0.51392796  0.88782530  1
  Sr  Sr40  1  -0.00234943  0.81347806  0.37632503  1
  Sr  Sr41  1  -0.00077944  0.83181929  0.83760434  1
  Sr  Sr42  1  0.32387538  0.15344730  0.33163590  1
  Sr  Sr43  1  0.33713164  0.16808652  0.87531672  1
  Sr  Sr44  1  0.33336305  0.50199424  0.36757977  1
  Sr  Sr45  1  0.33860870  0.48188500  0.90446549  1
  Sr  Sr46  1  0.32763035  0.84286851  0.42100264  1
  Sr  Sr47  1  0.33113505  0.81890465  0.86974310  1
  Sr  Sr48  1  0.65530249  0.15366490  0.37491848  1
  Sr  Sr49  1  0.67901798  0.14069360  0.88568410  1
  Sr  Sr50  1  0.67410716  0.48455315  0.40090582  1
  Sr  Sr51  1  0.64964376  0.48188036  0.84844452  1
  Sr  Sr52  1  0.65301770  0.81001048  0.34999615  1
  Sr  Sr53  1  0.67634568  0.82270187  0.90007010  1
  Sr  Sr54  1  0.16078803  0.00937036  0.36581559  1
  Sr  Sr55  1  0.18714651  0.01524623  0.91169340  1
  Sr  Sr56  1  0.17881616  0.34403068  0.36977338  1
  Sr  Sr57  1  0.15681057  0.35193566  0.86140295  1
  Sr  Sr58  1  0.17780731  0.68034834  0.40754843  1
  Sr  Sr59  1  0.15603579  0.68293822  0.85604821  1
  Sr  Sr60  1  0.50138519  -0.00788477  0.38768815  1
  Sr  Sr61  1  0.49454541  0.01791569  0.82998592  1
  Sr  Sr62  1  0.50897615  0.34560261  0.41621313  1
  Sr  Sr63  1  0.49766977  0.33506041  0.87690433  1
  Sr  Sr64  1  0.49384452  0.65771898  0.33786985  1
  Sr  Sr65  1  0.50138776  0.67853322  0.87429462  1
  Sr  Sr66  1  0.83378249  0.03622940  0.40524281  1
  Sr  Sr67  1  0.84053219  -0.00921329  0.86307564  1
  Sr  Sr68  1  0.82782236  0.34746587  0.35072604  1
  Sr  Sr69  1  0.84043060  0.36717117  0.85881988  1
  Sr  Sr70  1  0.83913889  0.67882973  0.37062763  1
  Sr  Sr71  1  0.83002201  0.67441629  0.91360723  1
  Ta  Ta72  1  0.16654113  0.21125837  -0.00078853  1
  Ta  Ta73  1  0.20634165  0.17591440  0.49686986  1
  Ta  Ta74  1  0.18245274  0.52682713  0.00041014  1
  Ta  Ta75  1  0.12071352  0.49963443  0.49963247  1
  Ta  Ta76  1  0.12851286  0.84166219  -0.00226269  1
  Ta  Ta77  1  0.14513672  0.85884743  0.50517638  1
  Ta  Ta78  1  0.50592944  0.13748504  0.00327893  1
  Ta  Ta79  1  0.45608114  0.16936844  0.49327694  1
  Ta  Ta80  1  0.50490202  0.52314173  -0.00468088  1
  Ta  Ta81  1  0.49873759  0.53790342  0.50321867  1
  Ta  Ta82  1  0.49733370  0.86406769  0.00372077  1
  Ta  Ta83  1  0.50872491  0.79852863  0.49819130  1
  Ta  Ta84  1  0.84028228  0.22061691  -0.00187058  1
  Ta  Ta85  1  0.83264726  0.21701124  0.50036041  1
  Ta  Ta86  1  0.79613521  0.50481331  -0.00155605  1
  Ta  Ta87  1  0.87815518  0.49718593  0.49378379  1
  Ta  Ta88  1  0.87530102  0.84241398  0.00239400  1
  Ta  Ta89  1  0.82878406  0.85826479  0.49996420  1
  Ta  Ta90  1  0.13365688  0.18250533  0.25127069  1
  Ta  Ta91  1  0.14507302  0.16232489  0.74593771  1
  Ta  Ta92  1  0.16769246  0.54957927  0.25081725  1
  Ta  Ta93  1  0.20983330  0.50331690  0.74295160  1
  Ta  Ta94  1  0.19992392  0.83118436  0.25029061  1
  Ta  Ta95  1  0.17309438  0.88142313  0.75639437  1
  Ta  Ta96  1  0.49874831  0.21174928  0.25776978  1
  Ta  Ta97  1  0.52428700  0.18509370  0.74363908  1
  Ta  Ta98  1  0.51100779  0.46830367  0.25760602  1
  Ta  Ta99  1  0.45422957  0.49817773  0.74467109  1
  Ta  Ta100  1  0.44591868  0.83596134  0.25638203  1
  Ta  Ta101  1  0.51497691  0.84791843  0.74675104  1
  Ta  Ta102  1  0.86636277  0.16629037  0.24732589  1
  Ta  Ta103  1  0.83500406  0.19587774  0.74978133  1
  Ta  Ta104  1  0.81086663  0.52658133  0.25056378  1
  Ta  Ta105  1  0.82745115  0.54947848  0.75197934  1
  Ta  Ta106  1  0.82970330  0.88634119  0.24882688  1
  Ta  Ta107  1  0.81923767  0.80419185  0.75236199  1
  Ta  Ta108  1  -0.03241235  0.01488310  0.24814320  1
  Ta  Ta109  1  0.04392099  0.00255422  0.75519734  1
  Ta  Ta110  1  0.00105271  0.28687657  0.24932203  1
  Ta  Ta111  1  -0.00539950  0.28776315  0.74619446  1
  Ta  Ta112  1  0.03081939  0.65381751  0.25131387  1
  Ta  Ta113  1  -0.04728897  0.66130989  0.75323338  1
  Ta  Ta114  1  0.33131193  -0.04005452  0.25505567  1
  Ta  Ta115  1  0.31419730  -0.01106091  0.74657627  1
  Ta  Ta116  1  0.37735257  0.33030866  0.25524220  1
  Ta  Ta117  1  0.33186982  0.36090048  0.74944589  1
  Ta  Ta118  1  0.31572868  0.69591770  0.25719484  1
  Ta  Ta119  1  0.33181685  0.61989036  0.74191689  1
  Ta  Ta120  1  0.69616340  -0.01036924  0.25090880  1
  Ta  Ta121  1  0.65955534  -0.03968303  0.74804545  1
  Ta  Ta122  1  0.63342685  0.32831421  0.25391173  1
  Ta  Ta123  1  0.66815052  0.28856859  0.74932988  1
  Ta  Ta124  1  0.67281246  0.62462617  0.25063600  1
  Ta  Ta125  1  0.70162961  0.66205292  0.74952970  1
  Ta  Ta126  1  0.00230738  -0.04418655  -0.00020531  1
  Ta  Ta127  1  -0.00051024  -0.03265245  0.50397864  1
  Ta  Ta128  1  -0.00386340  0.31174637  -0.00199066  1
  Ta  Ta129  1  -0.01739152  0.34884645  0.50311662  1
  Ta  Ta130  1  0.00486067  0.70546324  0.00125823  1
  Ta  Ta131  1  0.00113535  0.61915148  0.49630891  1
  Ta  Ta132  1  0.40165666  0.00332560  0.00199916  1
  Ta  Ta133  1  0.33029253  0.03816362  0.49872800  1
  Ta  Ta134  1  0.30800259  0.32005693  -0.00024013  1
  Ta  Ta135  1  0.33522481  0.28774070  0.49369334  1
  Ta  Ta136  1  0.33306816  0.64620334  -0.00342559  1
  Ta  Ta137  1  0.37431667  0.66319292  0.50384856  1
  Ta  Ta138  1  0.60202733  -0.00393143  0.00369434  1
  Ta  Ta139  1  0.67917085  -0.04860156  0.49984357  1
  Ta  Ta140  1  0.69708604  0.32355826  0.00329094  1
  Ta  Ta141  1  0.69715217  0.30618231  0.49753753  1
  Ta  Ta142  1  0.65839600  0.62429903  -0.00045617  1
  Ta  Ta143  1  0.62462940  0.65847720  0.50277674  1
  N  N144  1  0.49652192  0.49903775  0.62722922  1
  N  N145  1  0.83642094  0.84943001  0.12958370  1
  N  N146  1  0.16817792  0.17257101  0.62583827  1
  N  N147  1  -0.00268570  0.32732589  0.62580636  1
  N  N148  1  -0.00655246  -0.00568799  0.13044919  1
  N  N149  1  0.33504046  0.67332609  0.37665842  1
  N  N150  1  0.17078274  0.52126812  0.12277556  1
  N  N151  1  0.83426380  0.83268237  0.62086666  1
  N  N152  1  0.16559037  0.17218753  0.37019169  1
  N  N153  1  0.48855163  0.82720412  0.37360369  1
  N  N154  1  0.66477215  0.65363633  0.62304412  1
  N  N155  1  0.50055449  0.49806429  0.37560079  1
  N  N156  1  0.33190457  0.00358144  0.62645824  1
  N  N157  1  0.00412693  -0.00773058  0.86979784  1
  N  N158  1  0.49628654  0.16540855  0.37481394  1
  N  N159  1  0.67189517  0.32387468  0.37486973  1
  N  N160  1  0.49841363  0.83122623  0.62623183  1
  N  N161  1  0.84017647  0.50433463  0.37219235  1
  N  N162  1  0.66939445  -0.02263291  0.62603113  1
  N  N163  1  0.82411342  0.51479830  0.87982926  1
  N  N164  1  0.00257750  0.67361388  0.12634624  1
  N  N165  1  -0.01069307  0.67022614  0.87534588  1
  N  N166  1  0.33056836  0.66054490  0.62112161  1
  N  N167  1  0.00011897  0.65797922  0.37740845  1
  N  N168  1  0.33330663  -0.00272161  0.37500435  1
  N  N169  1  0.32835926  0.32842004  0.87401431  1
  N  N170  1  0.16352976  0.49960238  0.61792166  1
  N  N171  1  0.83808593  0.83462138  0.87404700  1
  N  N172  1  0.49400142  0.50298438  0.87443712  1
  N  N173  1  0.17110032  0.84642943  0.87848402  1
  N  N174  1  0.67014558  0.32175288  0.12352351  1
  N  N175  1  0.16758523  0.84339861  0.13064096  1
  N  N176  1  0.33909526  0.33298967  0.37257193  1
  O  O177  1  0.84487482  0.17194265  0.12097893  1
  O  O178  1  0.49710165  0.83772107  0.88002824  1
  O  O179  1  0.84260126  0.83404914  0.36503492  1
  O  O180  1  0.35890090  -0.00016700  0.12408427  1
  O  O181  1  0.65920116  0.65101454  0.87204938  1
  O  O182  1  0.48977677  0.83939256  0.13080576  1
  O  O183  1  0.50417063  0.16809188  0.12904013  1
  O  O184  1  0.16678272  0.18797151  0.12348313  1
  O  O185  1  -0.00157884  -0.01717355  0.63166138  1
  O  O186  1  0.64436475  -0.01088160  0.88195783  1
  O  O187  1  -0.00977068  0.65594320  0.62783871  1
  O  O188  1  0.34214497  0.32916767  0.12298505  1
  O  O189  1  0.16033616  0.84681740  0.62807287  1
  O  O190  1  0.00093413  0.31235500  0.12135664  1
  O  O191  1  -0.01137859  -0.00434296  0.38170675  1
  O  O192  1  0.49946011  0.49072224  0.12278415  1
  O  O193  1  0.84911322  0.18684860  0.37053144  1
  O  O194  1  0.33974128  0.66006189  0.87078590  1
  O  O195  1  0.83446829  0.18228598  0.87912559  1
  O  O196  1  0.65488641  0.64238767  0.12353044  1
  O  O197  1  0.66212587  0.64570721  0.37487747  1
  O  O198  1  0.16397172  0.50721916  0.37344578  1
  O  O199  1  0.51399834  0.16608934  0.87031672  1
  O  O200  1  -0.00067720  0.32478654  0.86874660  1
  O  O201  1  0.16031913  0.84418504  0.37918365  1
  O  O202  1  0.50063577  0.17959402  0.62097328  1
  O  O203  1  0.33487337  0.67124231  0.12087644  1
  O  O204  1  0.68196515  -0.00495264  0.37962176  1
  O  O205  1  0.83791697  0.51342946  0.61600979  1
  O  O206  1  0.35009920  0.00529431  0.87849049  1
  O  O207  1  0.83808654  0.50596681  0.12513853  1
  O  O208  1  0.33658204  0.32521866  0.62568211  1
  O  O209  1  0.66642892  0.31075627  0.62498641  1
  O  O210  1  0.17247737  0.50697762  0.86633653  1
  O  O211  1  0.83613018  0.19201524  0.62711821  1
  O  O212  1  0.16556449  0.18876122  0.87602508  1
  O  O213  1  0.65584687  -0.00740513  0.12922695  1
  O  O214  1  0.66959270  0.30815290  0.87297642  1
  O  O215  1  -0.00406321  0.31590217  0.37310294  1
