# generated using pymatgen
data_Sr24Ta24N11O13
_symmetry_space_group_name_H-M   'P 1'
_cell_length_a   16.54180365
_cell_length_b   17.46948833
_cell_length_c   15.59661202
_cell_angle_alpha   89.76273749
_cell_angle_beta   89.50279260
_cell_angle_gamma   90.78834815
_symmetry_Int_Tables_number   1
_chemical_formula_structural   Sr24Ta24N11O13
_chemical_formula_sum   'Sr72 Ta72 N33 O39'
_cell_volume   4506.42252355
_cell_formula_units_Z   3
loop_
 _symmetry_equiv_pos_site_id
 _symmetry_equiv_pos_as_xyz
  1  'x, y, z'
loop_
 _atom_site_type_symbol
 _atom_site_label
 _atom_site_symmetry_multiplicity
 _atom_site_fract_x
 _atom_site_fract_y
 _atom_site_fract_z
 _atom_site_occupancy
  Sr  Sr0  1  -0.00151265  0.17465395  0.11534635  1
  Sr  Sr1  1  -0.00711149  0.18205465  0.64936309  1
  Sr  Sr2  1  0.00099278  0.51594359  0.13390782  1
  Sr  Sr3  1  0.00555357  0.51547735  0.60901221  1
  Sr  Sr4  1  -0.01287060  0.84990220  0.15089007  1
  Sr  Sr5  1  0.01164221  0.85099302  0.58686414  1
  Sr  Sr6  1  0.32880632  0.20072284  0.12716563  1
  Sr  Sr7  1  0.32939389  0.16530081  0.61108562  1
  Sr  Sr8  1  0.33231775  0.52570527  0.11813218  1
  Sr  Sr9  1  0.32785929  0.53294616  0.60840687  1
  Sr  Sr10  1  0.33184842  0.83692636  0.11986788  1
  Sr  Sr11  1  0.32814216  0.84586263  0.66831618  1
  Sr  Sr12  1  0.65827482  0.17740691  0.13780256  1
  Sr  Sr13  1  0.66415881  0.21069583  0.60990351  1
  Sr  Sr14  1  0.65868786  0.51210360  0.13103885  1
  Sr  Sr15  1  0.65359090  0.52035272  0.63265858  1
  Sr  Sr16  1  0.66954199  0.87263763  0.08275262  1
  Sr  Sr17  1  0.66927519  0.83629764  0.62607630  1
  Sr  Sr18  1  0.17628282  -0.03275194  0.13958686  1
  Sr  Sr19  1  0.17632335  -0.01102406  0.60618156  1
  Sr  Sr20  1  0.15513710  0.32752186  0.13727747  1
  Sr  Sr21  1  0.17579547  0.30178207  0.64417871  1
  Sr  Sr22  1  0.16935414  0.64842048  0.08730403  1
  Sr  Sr23  1  0.17237513  0.67036175  0.63722226  1
  Sr  Sr24  1  0.48909885  -0.02813382  0.11455300  1
  Sr  Sr25  1  0.50586332  -0.03700848  0.64769971  1
  Sr  Sr26  1  0.50957897  0.31796641  0.13666741  1
  Sr  Sr27  1  0.49528550  0.32419132  0.63003193  1
  Sr  Sr28  1  0.49466763  0.65071196  0.15019533  1
  Sr  Sr29  1  0.51416626  0.65418177  0.58908882  1
  Sr  Sr30  1  0.84422474  -0.00256023  0.13483771  1
  Sr  Sr31  1  0.84095892  -0.03172043  0.62750069  1
  Sr  Sr32  1  0.82935263  0.30074382  0.08445235  1
  Sr  Sr33  1  0.84630837  0.32742626  0.61754989  1
  Sr  Sr34  1  0.83449888  0.64803633  0.12270744  1
  Sr  Sr35  1  0.83021016  0.63940041  0.65739326  1
  Sr  Sr36  1  -0.00818238  0.18809654  0.36493078  1
  Sr  Sr37  1  -0.00807432  0.15972118  0.87712891  1
  Sr  Sr38  1  -0.00046053  0.49796196  0.37319858  1
  Sr  Sr39  1  0.00513165  0.53650468  0.87330818  1
  Sr  Sr40  1  0.00545043  0.83610710  0.37214554  1
  Sr  Sr41  1  -0.01040609  0.85854439  0.88431772  1
  Sr  Sr42  1  0.32997019  0.17589034  0.39147559  1
  Sr  Sr43  1  0.33688473  0.20398772  0.86762918  1
  Sr  Sr44  1  0.33070244  0.53941861  0.39145615  1
  Sr  Sr45  1  0.32455512  0.52745472  0.88744472  1
  Sr  Sr46  1  0.34619868  0.84441708  0.33459100  1
  Sr  Sr47  1  0.32621969  0.83958610  0.88152161  1
  Sr  Sr48  1  0.66857959  0.17033196  0.37058557  1
  Sr  Sr49  1  0.65915237  0.20116876  0.86957961  1
  Sr  Sr50  1  0.65780987  0.52919530  0.35111613  1
  Sr  Sr51  1  0.66383064  0.51567657  0.87481625  1
  Sr  Sr52  1  0.65762557  0.84321234  0.41805194  1
  Sr  Sr53  1  0.67396758  0.85516779  0.85947386  1
  Sr  Sr54  1  0.17361650  -0.02514489  0.38027812  1
  Sr  Sr55  1  0.17853736  -0.02714356  0.88053140  1
  Sr  Sr56  1  0.16660555  0.31903508  0.34839949  1
  Sr  Sr57  1  0.15523778  0.30365020  0.88085923  1
  Sr  Sr58  1  0.15101230  0.65073316  0.42173834  1
  Sr  Sr59  1  0.17782038  0.67098747  0.86304982  1
  Sr  Sr60  1  0.50594739  -0.02351187  0.37468029  1
  Sr  Sr61  1  0.50000411  -0.03127480  0.87738169  1
  Sr  Sr62  1  0.50630452  0.29915297  0.37172545  1
  Sr  Sr63  1  0.50242599  0.33190564  0.86286239  1
  Sr  Sr64  1  0.50242229  0.67192044  0.37230401  1
  Sr  Sr65  1  0.51042488  0.63510831  0.89473227  1
  Sr  Sr66  1  0.83680019  -0.01935311  0.37370589  1
  Sr  Sr67  1  0.83644743  -0.01751347  0.87203432  1
  Sr  Sr68  1  0.83173005  0.31616310  0.41480526  1
  Sr  Sr69  1  0.84586393  0.30427270  0.86382849  1
  Sr  Sr70  1  0.84457913  0.65343009  0.32964037  1
  Sr  Sr71  1  0.82873356  0.64773188  0.88096678  1
  Ta  Ta72  1  0.17024344  0.12316337  0.00020012  1
  Ta  Ta73  1  0.13382066  0.16249929  0.50241213  1
  Ta  Ta74  1  0.16091138  0.46618423  0.00510714  1
  Ta  Ta75  1  0.17114084  0.44707809  0.49417725  1
  Ta  Ta76  1  0.13776816  0.81699963  0.00345305  1
  Ta  Ta77  1  0.21296284  0.82492888  0.49834477  1
  Ta  Ta78  1  0.49983032  0.13303024  -0.00340256  1
  Ta  Ta79  1  0.50871237  0.11451482  0.50653043  1
  Ta  Ta80  1  0.49354473  0.46601310  0.00751209  1
  Ta  Ta81  1  0.49640869  0.46558961  0.48297144  1
  Ta  Ta82  1  0.50785090  0.79117995  0.00485812  1
  Ta  Ta83  1  0.46276337  0.82860654  0.50315378  1
  Ta  Ta84  1  0.80658758  0.13118035  -0.00251955  1
  Ta  Ta85  1  0.83151874  0.12969021  0.51049453  1
  Ta  Ta86  1  0.83421583  0.46519603  0.00537838  1
  Ta  Ta87  1  0.81652393  0.51364707  0.49189995  1
  Ta  Ta88  1  0.83565387  0.80255420  0.00453128  1
  Ta  Ta89  1  0.83542053  0.79170080  0.49282067  1
  Ta  Ta90  1  0.16931606  0.12936068  0.25480635  1
  Ta  Ta91  1  0.16831124  0.12065932  0.74807963  1
  Ta  Ta92  1  0.17842204  0.52036626  0.25400385  1
  Ta  Ta93  1  0.17024874  0.47025629  0.74760753  1
  Ta  Ta94  1  0.16575638  0.78463661  0.25280108  1
  Ta  Ta95  1  0.13158805  0.83385631  0.74733600  1
  Ta  Ta96  1  0.48455708  0.12123806  0.25048129  1
  Ta  Ta97  1  0.49928455  0.13027624  0.74854316  1
  Ta  Ta98  1  0.47787459  0.47357538  0.26119905  1
  Ta  Ta99  1  0.47613458  0.49916846  0.75013498  1
  Ta  Ta100  1  0.54928717  0.82993497  0.24880314  1
  Ta  Ta101  1  0.50730880  0.78193155  0.74878006  1
  Ta  Ta102  1  0.83407725  0.18564355  0.24563719  1
  Ta  Ta103  1  0.81108930  0.13607590  0.73384113  1
  Ta  Ta104  1  0.82999456  0.45515870  0.23946106  1
  Ta  Ta105  1  0.83787270  0.46800261  0.74917957  1
  Ta  Ta106  1  0.77864244  0.83282057  0.24350910  1
  Ta  Ta107  1  0.85074215  0.80457458  0.75230383  1
  Ta  Ta108  1  0.01619256  0.03021062  0.26448295  1
  Ta  Ta109  1  0.02305599  0.00260301  0.74102855  1
  Ta  Ta110  1  -0.05850917  0.33709375  0.24674580  1
  Ta  Ta111  1  0.00486510  0.37783593  0.74532389  1
  Ta  Ta112  1  0.04399541  0.66891760  0.25377951  1
  Ta  Ta113  1  -0.00441302  0.71211678  0.74547340  1
  Ta  Ta114  1  0.33792547  0.03528913  0.25198490  1
  Ta  Ta115  1  0.33598763  0.03360162  0.75959621  1
  Ta  Ta116  1  0.33687493  0.38561293  0.25994133  1
  Ta  Ta117  1  0.32895939  0.38707561  0.74866339  1
  Ta  Ta118  1  0.28840071  0.67231104  0.24968773  1
  Ta  Ta119  1  0.37472860  0.67057006  0.74970396  1
  Ta  Ta120  1  0.66158837  -0.01327403  0.25220039  1
  Ta  Ta121  1  0.66668149  0.04690825  0.73533702  1
  Ta  Ta122  1  0.71401661  0.33876811  0.24667541  1
  Ta  Ta123  1  0.69017298  0.36914693  0.74289072  1
  Ta  Ta124  1  0.66900698  0.71285510  0.25106859  1
  Ta  Ta125  1  0.65257392  0.68724289  0.74564728  1
  Ta  Ta126  1  0.02404402  0.00995008  0.01155852  1
  Ta  Ta127  1  -0.00128565  0.04152636  0.49452622  1
  Ta  Ta128  1  -0.00260181  0.37353067  0.00085872  1
  Ta  Ta129  1  0.03207257  0.33136137  0.50163353  1
  Ta  Ta130  1  -0.00554857  0.70516243  0.00420969  1
  Ta  Ta131  1  -0.04927044  0.67271943  0.49456705  1
  Ta  Ta132  1  0.33481971  0.04414448  -0.01065171  1
  Ta  Ta133  1  0.35463633  -0.01950119  0.50921394  1
  Ta  Ta134  1  0.32818078  0.37112680  0.00460060  1
  Ta  Ta135  1  0.33133593  0.36737977  0.49146019  1
  Ta  Ta136  1  0.35588695  0.69125923  0.00018676  1
  Ta  Ta137  1  0.33769245  0.71562151  0.50494458  1
  Ta  Ta138  1  0.66169004  0.04248541  -0.00695401  1
  Ta  Ta139  1  0.66905713  0.03260457  0.51826270  1
  Ta  Ta140  1  0.66599837  0.36534203  0.00342178  1
  Ta  Ta141  1  0.66028500  0.38548490  0.49285711  1
  Ta  Ta142  1  0.66686276  0.69902986  0.00758952  1
  Ta  Ta143  1  0.71624017  0.66685775  0.49411626  1
  N  N144  1  0.67197990  0.67789623  0.37777766  1
  N  N145  1  0.50375610  0.82798234  0.36829640  1
  N  N146  1  0.82776026  0.15459972  0.12369877  1
  N  N147  1  0.16958302  0.82872729  0.62571797  1
  N  N148  1  0.16525819  0.82448116  0.87349416  1
  N  N149  1  0.50460163  0.81681199  0.62102373  1
  N  N150  1  0.33502428  0.68030374  0.62870091  1
  N  N151  1  0.50417020  0.82342987  0.12449405  1
  N  N152  1  0.00718667  0.34237041  0.62394965  1
  N  N153  1  0.83175185  0.50308065  0.12240182  1
  N  N154  1  0.49536412  0.52437178  0.37832847  1
  N  N155  1  0.34089677  -0.00981018  0.87947160  1
  N  N156  1  0.66748356  -0.01762419  0.63058425  1
  N  N157  1  0.83241149  0.18166904  0.61960731  1
  N  N158  1  0.16082725  0.48935651  0.12740132  1
  N  N159  1  0.16161513  0.49160786  0.37885885  1
  N  N160  1  0.66853202  0.36059155  0.61832424  1
  N  N161  1  0.00307833  -0.01353197  0.38616305  1
  N  N162  1  0.33513723  0.67566345  0.87525937  1
  N  N163  1  0.67010200  0.33816432  0.12608322  1
  N  N164  1  0.00124870  -0.00150061  0.62074032  1
  N  N165  1  0.00582269  0.00595502  0.13584305  1
  N  N166  1  0.67494373  0.67253995  0.62472523  1
  N  N167  1  0.33883987  0.00008415  0.63018663  1
  N  N168  1  0.49533049  0.48932872  0.87206896  1
  N  N169  1  0.49831135  0.49196500  0.13232941  1
  N  N170  1  -0.00150432  0.66388558  0.37572266  1
  N  N171  1  0.16791182  0.82030073  0.12664608  1
  N  N172  1  0.82471152  0.84286859  0.12745739  1
  N  N173  1  0.82914732  0.82502093  0.87441374  1
  N  N174  1  0.32772857  0.67687187  0.12940726  1
  N  N175  1  0.17013280  0.82289740  0.38124239  1
  N  N176  1  0.16650025  0.15159307  0.62483154  1
  O  O177  1  0.49054060  0.49843120  0.61050160  1
  O  O178  1  0.49266231  0.14264763  0.62471724  1
  O  O179  1  0.33618499  0.00733825  0.37602028  1
  O  O180  1  0.83934795  0.48862783  0.87454463  1
  O  O181  1  0.83337322  0.81348360  0.62104045  1
  O  O182  1  -0.00615233  0.34699026  0.13003418  1
  O  O183  1  0.67896917  0.33798459  0.37653699  1
  O  O184  1  0.17530114  0.13731308  0.13052587  1
  O  O185  1  0.51458082  0.82311919  0.87195677  1
  O  O186  1  0.50809112  0.13244724  0.37747736  1
  O  O187  1  0.83543334  0.49233036  0.61638132  1
  O  O188  1  0.32860312  0.36146996  0.87859928  1
  O  O189  1  0.82672028  0.16692294  0.37916625  1
  O  O190  1  0.66288489  0.35301618  0.86907253  1
  O  O191  1  0.33375386  0.02188415  0.12029855  1
  O  O192  1  -0.00709697  0.68617033  0.61909232  1
  O  O193  1  0.33648398  0.37198394  0.62398537  1
  O  O194  1  0.31957959  0.35893125  0.13477025  1
  O  O195  1  0.17257654  0.16370075  0.38035984  1
  O  O196  1  0.67154587  0.66316711  0.12778777  1
  O  O197  1  -0.00430333  0.69181838  0.87713490  1
  O  O198  1  0.83094141  0.15089736  0.86837884  1
  O  O199  1  -0.00257868  0.67539958  0.13117384  1
  O  O200  1  0.65978356  0.01542308  0.12883821  1
  O  O201  1  0.65855953  0.01906058  0.86683732  1
  O  O202  1  0.32884010  0.32336316  0.37467757  1
  O  O203  1  0.34043823  0.68308133  0.36646016  1
  O  O204  1  -0.01562204  0.33544814  0.37486180  1
  O  O205  1  0.82862729  0.50367266  0.36549179  1
  O  O206  1  0.67144246  0.68775274  0.88113036  1
  O  O207  1  0.15914612  0.14755840  0.87810303  1
  O  O208  1  0.49565923  0.14010740  0.12763860  1
  O  O209  1  -0.00165011  0.00841803  0.87964349  1
  O  O210  1  0.16835780  0.48527881  0.62001265  1
  O  O211  1  0.50214633  0.15574688  0.87553657  1
  O  O212  1  0.16238163  0.48666169  0.87155220  1
  O  O213  1  0.66907410  0.00015311  0.38073019  1
  O  O214  1  0.82895234  0.82216908  0.36684966  1
  O  O215  1  0.00064828  0.35969333  0.87645141  1
