# generated using pymatgen
data_Sr24Ta24N11O13
_symmetry_space_group_name_H-M   'P 1'
_cell_length_a   16.80231191
_cell_length_b   16.82543181
_cell_length_c   15.68417020
_cell_angle_alpha   89.64855226
_cell_angle_beta   90.35632749
_cell_angle_gamma   89.94420355
_symmetry_Int_Tables_number   1
_chemical_formula_structural   Sr24Ta24N11O13
_chemical_formula_sum   'Sr72 Ta72 N33 O39'
_cell_volume   4433.83999236
_cell_formula_units_Z   3
loop_
 _symmetry_equiv_pos_site_id
 _symmetry_equiv_pos_as_xyz
  1  'x, y, z'
loop_
 _atom_site_type_symbol
 _atom_site_label
 _atom_site_symmetry_multiplicity
 _atom_site_fract_x
 _atom_site_fract_y
 _atom_site_fract_z
 _atom_site_occupancy
  Sr  Sr0  1  -0.00636562  0.16146164  0.11544422  1
  Sr  Sr1  1  0.01204991  0.17375031  0.66981359  1
  Sr  Sr2  1  -0.01070209  0.51010088  0.08178233  1
  Sr  Sr3  1  0.00289128  0.50477061  0.62320081  1
  Sr  Sr4  1  -0.00178903  0.82434305  0.16921445  1
  Sr  Sr5  1  -0.01626144  0.84917512  0.62410115  1
  Sr  Sr6  1  0.34093679  0.15827321  0.13196693  1
  Sr  Sr7  1  0.31443140  0.18785885  0.57171081  1
  Sr  Sr8  1  0.35202147  0.50012161  0.10752747  1
  Sr  Sr9  1  0.33027184  0.47948011  0.66874403  1
  Sr  Sr10  1  0.29491451  0.83975045  0.09445153  1
  Sr  Sr11  1  0.32522828  0.84983787  0.63467472  1
  Sr  Sr12  1  0.66432594  0.20270297  0.09279185  1
  Sr  Sr13  1  0.66471473  0.16835759  0.62814658  1
  Sr  Sr14  1  0.68663686  0.50188829  0.17166645  1
  Sr  Sr15  1  0.65807491  0.52608536  0.61101063  1
  Sr  Sr16  1  0.66419820  0.83429009  0.12047316  1
  Sr  Sr17  1  0.65793849  0.84695929  0.62481417  1
  Sr  Sr18  1  0.17818360  0.01092098  0.08208198  1
  Sr  Sr19  1  0.15422219  -0.00846302  0.64149838  1
  Sr  Sr20  1  0.18209866  0.32742112  0.16831413  1
  Sr  Sr21  1  0.15801939  0.33992483  0.61908806  1
  Sr  Sr22  1  0.16130816  0.66673797  0.13074405  1
  Sr  Sr23  1  0.19687521  0.66613561  0.60605829  1
  Sr  Sr24  1  0.50714195  -0.01034952  0.13605145  1
  Sr  Sr25  1  0.50775648  -0.00563268  0.66124747  1
  Sr  Sr26  1  0.49088018  0.31900708  0.07902230  1
  Sr  Sr27  1  0.50282696  0.33655800  0.63215799  1
  Sr  Sr28  1  0.52214716  0.65617701  0.14469605  1
  Sr  Sr29  1  0.49440617  0.68053371  0.59171923  1
  Sr  Sr30  1  0.83776578  -0.01917741  0.14467662  1
  Sr  Sr31  1  0.81794866  -0.00860249  0.58185301  1
  Sr  Sr32  1  0.83904960  0.33125064  0.12262222  1
  Sr  Sr33  1  0.83466332  0.29971458  0.63146854  1
  Sr  Sr34  1  0.83991803  0.66011115  0.11424886  1
  Sr  Sr35  1  0.83318088  0.65855968  0.64391033  1
  Sr  Sr36  1  -0.00887405  0.18367550  0.32878114  1
  Sr  Sr37  1  -0.00087966  0.16109188  0.88450805  1
  Sr  Sr38  1  0.00771388  0.49498860  0.41828784  1
  Sr  Sr39  1  -0.00577370  0.50941479  0.87585394  1
  Sr  Sr40  1  -0.01237454  0.85684025  0.38175697  1
  Sr  Sr41  1  -0.00703875  0.83563603  0.83674073  1
  Sr  Sr42  1  0.33749591  0.15828843  0.35879463  1
  Sr  Sr43  1  0.33085928  0.16291966  0.91418210  1
  Sr  Sr44  1  0.30555605  0.50459782  0.31421522  1
  Sr  Sr45  1  0.33905307  0.49662200  0.88306448  1
  Sr  Sr46  1  0.32116337  0.82601480  0.40562411  1
  Sr  Sr47  1  0.32304408  0.84053788  0.86530189  1
  Sr  Sr48  1  0.67941942  0.17996584  0.40893182  1
  Sr  Sr49  1  0.65988135  0.18402127  0.85911677  1
  Sr  Sr50  1  0.66009824  0.50883624  0.37879356  1
  Sr  Sr51  1  0.67498779  0.51957861  0.84028530  1
  Sr  Sr52  1  0.65416999  0.86036895  0.35389521  1
  Sr  Sr53  1  0.66854326  0.82767022  0.89941212  1
  Sr  Sr54  1  0.18869769  -0.00068316  0.41709361  1
  Sr  Sr55  1  0.16615085  -0.01002828  0.86563276  1
  Sr  Sr56  1  0.16874752  0.32353708  0.38056395  1
  Sr  Sr57  1  0.16128345  0.34606313  0.83329409  1
  Sr  Sr58  1  0.17029558  0.66916169  0.36695276  1
  Sr  Sr59  1  0.18761356  0.65609926  0.91196451  1
  Sr  Sr60  1  0.49209844  0.00167871  0.33566648  1
  Sr  Sr61  1  0.51261156  -0.02424833  0.86338007  1
  Sr  Sr62  1  0.50710805  0.31266554  0.41084410  1
  Sr  Sr63  1  0.49556131  0.33839567  0.86530160  1
  Sr  Sr64  1  0.49788929  0.66906229  0.37089858  1
  Sr  Sr65  1  0.51076476  0.66775431  0.90392543  1
  Sr  Sr66  1  0.82383283  -0.00109007  0.37062427  1
  Sr  Sr67  1  0.82318205  -0.01715875  0.90430136  1
  Sr  Sr68  1  0.83071797  0.32672784  0.35182760  1
  Sr  Sr69  1  0.84244544  0.31116385  0.89639863  1
  Sr  Sr70  1  0.84482406  0.63542834  0.40046642  1
  Sr  Sr71  1  0.83244369  0.67201724  0.86356768  1
  Ta  Ta72  1  0.16515347  0.21527462  -0.00111545  1
  Ta  Ta73  1  0.10875184  0.16756790  0.49977952  1
  Ta  Ta74  1  0.16736766  0.46035396  -0.00076932  1
  Ta  Ta75  1  0.19864034  0.49901168  0.50263413  1
  Ta  Ta76  1  0.11544618  0.83049866  -0.00234579  1
  Ta  Ta77  1  0.13831122  0.82124534  0.51074565  1
  Ta  Ta78  1  0.50764309  0.12798125  -0.00366057  1
  Ta  Ta79  1  0.49609446  0.12697059  0.50001342  1
  Ta  Ta80  1  0.54759323  0.50201092  0.00292410  1
  Ta  Ta81  1  0.47005372  0.49562785  0.49333166  1
  Ta  Ta82  1  0.47085028  0.82847777  0.01164288  1
  Ta  Ta83  1  0.49932694  0.86718863  0.49565062  1
  Ta  Ta84  1  0.81736819  0.13642352  0.00196305  1
  Ta  Ta85  1  0.88479320  0.16109768  0.50121913  1
  Ta  Ta86  1  0.79941970  0.49882178  0.00272596  1
  Ta  Ta87  1  0.82632701  0.45706649  0.49804393  1
  Ta  Ta88  1  0.87571577  0.82433332  -0.00013820  1
  Ta  Ta89  1  0.81975914  0.80299862  0.49712718  1
  Ta  Ta90  1  0.16699637  0.12324816  0.24869015  1
  Ta  Ta91  1  0.21233488  0.16919957  0.74868435  1
  Ta  Ta92  1  0.10637895  0.50682134  0.24610687  1
  Ta  Ta93  1  0.15738914  0.53426786  0.75336186  1
  Ta  Ta94  1  0.17457945  0.86081660  0.24978613  1
  Ta  Ta95  1  0.16089354  0.79035508  0.75588742  1
  Ta  Ta96  1  0.52181775  0.18656380  0.24121366  1
  Ta  Ta97  1  0.44797570  0.16649795  0.74903386  1
  Ta  Ta98  1  0.50265387  0.44211388  0.24766968  1
  Ta  Ta99  1  0.50275159  0.54161292  0.74848342  1
  Ta  Ta100  1  0.44616270  0.82510047  0.23616453  1
  Ta  Ta101  1  0.49635470  0.79835678  0.75837455  1
  Ta  Ta102  1  0.79733627  0.16100634  0.24230088  1
  Ta  Ta103  1  0.83092928  0.12635947  0.75008603  1
  Ta  Ta104  1  0.87828187  0.50410143  0.25128961  1
  Ta  Ta105  1  0.83514717  0.46345170  0.74846143  1
  Ta  Ta106  1  0.82479472  0.79150677  0.26848534  1
  Ta  Ta107  1  0.81544851  0.85828517  0.74769336  1
  Ta  Ta108  1  0.05449485  0.00321631  0.25141290  1
  Ta  Ta109  1  -0.05490692  0.00363187  0.74516754  1
  Ta  Ta110  1  0.00214497  0.37459811  0.25107036  1
  Ta  Ta111  1  -0.02147849  0.35396244  0.75161321  1
  Ta  Ta112  1  -0.00627781  0.63437463  0.25358033  1
  Ta  Ta113  1  0.04519720  0.66695392  0.75055883  1
  Ta  Ta114  1  0.30857861  -0.02128122  0.24663100  1
  Ta  Ta115  1  0.33203992  0.04304216  0.75177913  1
  Ta  Ta116  1  0.37812913  0.32924484  0.24408822  1
  Ta  Ta117  1  0.33154206  0.28989254  0.75155367  1
  Ta  Ta118  1  0.33655909  0.69951507  0.24200828  1
  Ta  Ta119  1  0.35777443  0.66396897  0.75618489  1
  Ta  Ta120  1  0.66544139  0.05727464  0.24960169  1
  Ta  Ta121  1  0.70172165  0.00163347  0.74515283  1
  Ta  Ta122  1  0.63872588  0.32138610  0.24907334  1
  Ta  Ta123  1  0.69033485  0.35771162  0.75026189  1
  Ta  Ta124  1  0.69733988  0.68285524  0.25585986  1
  Ta  Ta125  1  0.63817635  0.68745539  0.75025328  1
  Ta  Ta126  1  -0.00464055  -0.03493760  0.00085650  1
  Ta  Ta127  1  0.00411579  0.03676066  0.50532758  1
  Ta  Ta128  1  0.04256317  0.33197877  -0.00121437  1
  Ta  Ta129  1  -0.01077883  0.30725383  0.49999288  1
  Ta  Ta130  1  -0.00082063  0.70789491  -0.00418501  1
  Ta  Ta131  1  0.01100008  0.69241077  0.50558149  1
  Ta  Ta132  1  0.36993860  -0.00660093  -0.00147060  1
  Ta  Ta133  1  0.38076238  0.00175762  0.49759981  1
  Ta  Ta134  1  0.29292819  0.33177700  -0.00266653  1
  Ta  Ta135  1  0.33423274  0.39354484  0.49084894  1
  Ta  Ta136  1  0.36005812  0.68399102  0.00731683  1
  Ta  Ta137  1  0.33835183  0.59372114  0.49316299  1
  Ta  Ta138  1  0.65946806  0.02964074  0.00264210  1
  Ta  Ta139  1  0.62112100  0.00629570  0.49613745  1
  Ta  Ta140  1  0.66871772  0.38741221  0.00360219  1
  Ta  Ta141  1  0.68778824  0.35663013  0.49848336  1
  Ta  Ta142  1  0.67559961  0.63296888  0.00357127  1
  Ta  Ta143  1  0.67882713  0.70180135  0.49841641  1
  N  N144  1  0.84190925  0.48546767  0.37614280  1
  N  N145  1  0.00336030  0.33295807  0.87683626  1
  N  N146  1  -0.00728940  0.00552194  0.63007236  1
  N  N147  1  0.82811015  0.82867148  0.62725066  1
  N  N148  1  0.83953287  0.16708151  0.12711661  1
  N  N149  1  0.67041123  0.67099383  0.87702252  1
  N  N150  1  0.16277104  0.83475618  0.63220398  1
  N  N151  1  0.34355222  0.66544262  0.88080261  1
  N  N152  1  0.00373522  0.33948603  0.37314067  1
  N  N153  1  0.83839222  0.82836623  0.87999009  1
  N  N154  1  0.14938630  0.83768144  0.13096522  1
  N  N155  1  0.84178817  0.15130551  0.61585089  1
  N  N156  1  0.50200624  0.16411111  0.11940060  1
  N  N157  1  0.33736784  0.32933634  0.12647078  1
  N  N158  1  0.17234509  0.50160964  0.62758829  1
  N  N159  1  0.16258134  0.82786042  0.88101221  1
  N  N160  1  0.51083546  0.82699752  0.13407951  1
  N  N161  1  0.67843316  0.66630018  0.13094957  1
  N  N162  1  0.33957946  -0.00371046  0.37573731  1
  N  N163  1  0.83930745  0.49848928  0.12362764  1
  N  N164  1  0.83079358  0.84735989  0.37694732  1
  N  N165  1  0.00120673  0.33620602  0.62721577  1
  N  N166  1  0.66815575  0.33857137  0.37683447  1
  N  N167  1  0.66745587  0.35040234  0.12570087  1
  N  N168  1  0.65844389  0.02011550  0.37332640  1
  N  N169  1  0.49730952  0.82445917  0.87921987  1
  N  N170  1  0.33053340  0.32791496  0.87356641  1
  N  N171  1  0.33677012  0.00149893  0.87092628  1
  N  N172  1  0.33422670  -0.00157373  0.12210652  1
  N  N173  1  0.16885778  0.50012436  0.87942966  1
  N  N174  1  0.66277561  0.68098604  0.62167053  1
  N  N175  1  0.83187614  0.15555745  0.87778003  1
  N  N176  1  0.66320942  0.00948606  0.62572118  1
  O  O177  1  0.16393791  0.17205737  0.62519732  1
  O  O178  1  0.51937102  0.51503705  0.87107068  1
  O  O179  1  0.49155375  0.16737947  0.87319443  1
  O  O180  1  0.33047296  0.35470129  0.36789121  1
  O  O181  1  0.14673473  0.16198241  0.37511705  1
  O  O182  1  0.66244575  0.34788804  0.62928795  1
  O  O183  1  0.64987055  0.66510800  0.37834460  1
  O  O184  1  0.67847073  0.34608124  0.87538538  1
  O  O185  1  0.84224638  0.15882242  0.36852889  1
  O  O186  1  0.16899374  0.16912330  0.12792221  1
  O  O187  1  0.00651106  0.66464465  0.38302157  1
  O  O188  1  0.33604447  0.64930998  0.36287729  1
  O  O189  1  0.15707657  0.50786333  0.36715368  1
  O  O190  1  0.31386227  0.65616069  0.12203416  1
  O  O191  1  0.03038670  0.00648037  0.37510787  1
  O  O192  1  0.66608652  0.01121689  0.87490421  1
  O  O193  1  0.83443935  0.48644784  0.87523720  1
  O  O194  1  0.00126664  0.34171036  0.12123700  1
  O  O195  1  0.49646128  0.15844732  0.37369698  1
  O  O196  1  0.48600399  0.15235737  0.62800663  1
  O  O197  1  0.49817904  0.48102052  0.36937129  1
  O  O198  1  0.02027273  -0.01097253  0.12420854  1
  O  O199  1  0.16238352  0.83663131  0.38356621  1
  O  O200  1  0.49489003  0.84008013  0.62348184  1
  O  O201  1  0.48165364  0.84570319  0.36781800  1
  O  O202  1  -0.00312079  0.66853313  0.87255271  1
  O  O203  1  0.00051106  0.66524167  0.12325145  1
  O  O204  1  0.51491048  0.49174965  0.12864620  1
  O  O205  1  0.84150507  0.49037453  0.62427004  1
  O  O206  1  0.34382976  0.00332086  0.62441250  1
  O  O207  1  0.14340582  0.50339512  0.12211939  1
  O  O208  1  0.17323020  0.17744910  0.87200367  1
  O  O209  1  -0.01833287  -0.01193929  0.87582482  1
  O  O210  1  0.34436544  0.63105956  0.61841916  1
  O  O211  1  0.84785045  0.82232943  0.14006498  1
  O  O212  1  0.49333563  0.51794563  0.62410621  1
  O  O213  1  0.33775631  0.33732097  0.61191480  1
  O  O214  1  -0.00031241  0.67796417  0.62945021  1
  O  O215  1  0.66488685  0.00613593  0.12795258  1
