# generated using pymatgen
data_Sr24Ta24N11O13
_symmetry_space_group_name_H-M   'P 1'
_cell_length_a   16.47343477
_cell_length_b   17.92124007
_cell_length_c   14.97991115
_cell_angle_alpha   91.28939941
_cell_angle_beta   90.21521726
_cell_angle_gamma   89.42991866
_symmetry_Int_Tables_number   1
_chemical_formula_structural   Sr24Ta24N11O13
_chemical_formula_sum   'Sr72 Ta72 N33 O39'
_cell_volume   4421.06871702
_cell_formula_units_Z   3
loop_
 _symmetry_equiv_pos_site_id
 _symmetry_equiv_pos_as_xyz
  1  'x, y, z'
loop_
 _atom_site_type_symbol
 _atom_site_label
 _atom_site_symmetry_multiplicity
 _atom_site_fract_x
 _atom_site_fract_y
 _atom_site_fract_z
 _atom_site_occupancy
  Sr  Sr0  1  0.00751297  0.16643587  0.13512917  1
  Sr  Sr1  1  0.00794463  0.21160312  0.61207838  1
  Sr  Sr2  1  -0.00229171  0.54996057  0.16736928  1
  Sr  Sr3  1  0.00573291  0.51996667  0.62980657  1
  Sr  Sr4  1  0.01974849  0.84045920  0.10530327  1
  Sr  Sr5  1  -0.00817050  0.83587423  0.64244968  1
  Sr  Sr6  1  0.34320009  0.17175327  0.08788053  1
  Sr  Sr7  1  0.32891903  0.22040355  0.65146760  1
  Sr  Sr8  1  0.33590037  0.51270166  0.14798889  1
  Sr  Sr9  1  0.34431372  0.53401547  0.62278197  1
  Sr  Sr10  1  0.34612600  0.88139403  0.16240931  1
  Sr  Sr11  1  0.34088656  0.80804446  0.61477846  1
  Sr  Sr12  1  0.66297151  0.20522519  0.15413723  1
  Sr  Sr13  1  0.66571646  0.18216486  0.63430681  1
  Sr  Sr14  1  0.67761105  0.51137502  0.10596995  1
  Sr  Sr15  1  0.66649310  0.54112276  0.64811866  1
  Sr  Sr16  1  0.66853325  0.83089369  0.13923235  1
  Sr  Sr17  1  0.67483894  0.85799564  0.60338295  1
  Sr  Sr18  1  0.15450887  -0.01039824  0.15799147  1
  Sr  Sr19  1  0.16560133  -0.05890195  0.59709462  1
  Sr  Sr20  1  0.16578861  0.28222503  0.08775728  1
  Sr  Sr21  1  0.16173051  0.34395050  0.65162800  1
  Sr  Sr22  1  0.16755087  0.66295052  0.13188692  1
  Sr  Sr23  1  0.18364671  0.63888085  0.57720329  1
  Sr  Sr24  1  0.50221366  0.00225788  0.12421385  1
  Sr  Sr25  1  0.49005014  -0.04475297  0.59251871  1
  Sr  Sr26  1  0.48574527  0.31815425  0.13731302  1
  Sr  Sr27  1  0.49969685  0.32079872  0.62434958  1
  Sr  Sr28  1  0.49821510  0.62229851  0.07873961  1
  Sr  Sr29  1  0.49624698  0.66090340  0.62710981  1
  Sr  Sr30  1  0.83694298  -0.04995722  0.07726706  1
  Sr  Sr31  1  0.83187086  -0.01420317  0.63438231  1
  Sr  Sr32  1  0.82503946  0.32649785  0.11989072  1
  Sr  Sr33  1  0.82274387  0.30212100  0.61574732  1
  Sr  Sr34  1  0.81299609  0.65746797  0.14938409  1
  Sr  Sr35  1  0.84367098  0.65060636  0.62072834  1
  Sr  Sr36  1  0.00467294  0.16947974  0.36262890  1
  Sr  Sr37  1  0.01165888  0.19658472  0.89653831  1
  Sr  Sr38  1  -0.00373735  0.51320263  0.38922494  1
  Sr  Sr39  1  0.00962001  0.51546493  0.86679049  1
  Sr  Sr40  1  0.00447751  0.87909467  0.40499427  1
  Sr  Sr41  1  0.00229248  0.83337311  0.87470290  1
  Sr  Sr42  1  0.33497028  0.19970498  0.41761536  1
  Sr  Sr43  1  0.32393491  0.16413570  0.87010021  1
  Sr  Sr44  1  0.33908544  0.49595632  0.36796473  1
  Sr  Sr45  1  0.32964295  0.55027723  0.92565004  1
  Sr  Sr46  1  0.33553857  0.89658198  0.39616699  1
  Sr  Sr47  1  0.34460661  0.84624036  0.84482250  1
  Sr  Sr48  1  0.65560093  0.18896187  0.38200350  1
  Sr  Sr49  1  0.68310492  0.17275270  0.85200193  1
  Sr  Sr50  1  0.67463088  0.53168414  0.39506644  1
  Sr  Sr51  1  0.67036231  0.51469445  0.88763399  1
  Sr  Sr52  1  0.67403531  0.83896034  0.35871977  1
  Sr  Sr53  1  0.66231769  0.87802955  0.91430139  1
  Sr  Sr54  1  0.15874648  0.00602621  0.37186858  1
  Sr  Sr55  1  0.16148656  -0.03733280  0.83140165  1
  Sr  Sr56  1  0.15120993  0.30501663  0.39333054  1
  Sr  Sr57  1  0.15461969  0.34537223  0.86933626  1
  Sr  Sr58  1  0.17051064  0.60965911  0.34383078  1
  Sr  Sr59  1  0.15497723  0.66266586  0.92707962  1
  Sr  Sr60  1  0.51646411  -0.00547285  0.35755441  1
  Sr  Sr61  1  0.48138310  -0.01045549  0.89865275  1
  Sr  Sr62  1  0.49556315  0.31956788  0.37946224  1
  Sr  Sr63  1  0.49469041  0.28290922  0.84520124  1
  Sr  Sr64  1  0.48855586  0.62275407  0.39363576  1
  Sr  Sr65  1  0.48800972  0.66355759  0.85392906  1
  Sr  Sr66  1  0.82225815  -0.02771576  0.39356885  1
  Sr  Sr67  1  0.83475730  0.00053598  0.85754323  1
  Sr  Sr68  1  0.83444956  0.29673787  0.36649009  1
  Sr  Sr69  1  0.82218489  0.31860464  0.89922031  1
  Sr  Sr70  1  0.83229638  0.65395451  0.36704854  1
  Sr  Sr71  1  0.83531649  0.62962399  0.84440364  1
  Ta  Ta72  1  0.16372867  0.10182582  -0.01019703  1
  Ta  Ta73  1  0.16703101  0.13300235  0.52015531  1
  Ta  Ta74  1  0.15787449  0.47127272  0.02491821  1
  Ta  Ta75  1  0.17293562  0.46270245  0.50479308  1
  Ta  Ta76  1  0.20101158  0.84763927  0.00753595  1
  Ta  Ta77  1  0.16463557  0.78429653  0.46473799  1
  Ta  Ta78  1  0.53312346  0.15823240  -0.00178471  1
  Ta  Ta79  1  0.49884215  0.12686136  0.51890228  1
  Ta  Ta80  1  0.48961848  0.44401853  -0.02677792  1
  Ta  Ta81  1  0.50971600  0.46832341  0.52082873  1
  Ta  Ta82  1  0.49326527  0.80758289  0.01322757  1
  Ta  Ta83  1  0.50556548  0.79335045  0.47528360  1
  Ta  Ta84  1  0.82844851  0.13380690  0.01442489  1
  Ta  Ta85  1  0.83577414  0.13119522  0.50512525  1
  Ta  Ta86  1  0.86628034  0.49854672  0.01115731  1
  Ta  Ta87  1  0.83044517  0.46323419  0.51027121  1
  Ta  Ta88  1  0.82853315  0.77674440  -0.01150465  1
  Ta  Ta89  1  0.84156434  0.79702451  0.49718149  1
  Ta  Ta90  1  0.20833997  0.16270880  0.25680564  1
  Ta  Ta91  1  0.17013116  0.11593509  0.71687239  1
  Ta  Ta92  1  0.15957191  0.43362453  0.22789250  1
  Ta  Ta93  1  0.18801849  0.52291185  0.76368615  1
  Ta  Ta94  1  0.18367140  0.80226197  0.27454651  1
  Ta  Ta95  1  0.17091687  0.78320579  0.74319937  1
  Ta  Ta96  1  0.46772577  0.15539633  0.25742547  1
  Ta  Ta97  1  0.49262103  0.10930790  0.73864433  1
  Ta  Ta98  1  0.52730606  0.48262176  0.24681088  1
  Ta  Ta99  1  0.49669823  0.46922393  0.77313692  1
  Ta  Ta100  1  0.48955818  0.77769867  0.26870686  1
  Ta  Ta101  1  0.53366961  0.83206300  0.74383779  1
  Ta  Ta102  1  0.83151823  0.11100433  0.23528218  1
  Ta  Ta103  1  0.87179176  0.16221724  0.75352741  1
  Ta  Ta104  1  0.82883522  0.46593497  0.26487335  1
  Ta  Ta105  1  0.83127955  0.45406248  0.74820538  1
  Ta  Ta106  1  0.86965912  0.82941917  0.24573192  1
  Ta  Ta107  1  0.80998363  0.81129176  0.77115704  1
  Ta  Ta108  1  -0.04535691  -0.00066648  0.24387186  1
  Ta  Ta109  1  0.00998387  0.04867339  0.71880942  1
  Ta  Ta110  1  0.00184016  0.37093888  0.22992595  1
  Ta  Ta111  1  -0.03039372  0.35067538  0.76365424  1
  Ta  Ta112  1  0.01317569  0.72566854  0.26895311  1
  Ta  Ta113  1  0.05507506  0.67297768  0.74203579  1
  Ta  Ta114  1  0.33539146  0.05659596  0.25970323  1
  Ta  Ta115  1  0.33445357  0.02124586  0.72930930  1
  Ta  Ta116  1  0.30327936  0.32261985  0.24546153  1
  Ta  Ta117  1  0.33989917  0.39816685  0.78613021  1
  Ta  Ta118  1  0.34623245  0.70075778  0.22082236  1
  Ta  Ta119  1  0.27432990  0.67117808  0.77089401  1
  Ta  Ta120  1  0.69288353  0.02739030  0.22699036  1
  Ta  Ta121  1  0.63118139  0.00164031  0.75530368  1
  Ta  Ta122  1  0.66312951  0.37989207  0.25405889  1
  Ta  Ta123  1  0.66356417  0.36928124  0.75004472  1
  Ta  Ta124  1  0.62213543  0.66691275  0.24465587  1
  Ta  Ta125  1  0.67056030  0.72068769  0.75951164  1
  Ta  Ta126  1  0.01752929  0.01916867  -0.01614037  1
  Ta  Ta127  1  -0.00111943  0.04484571  0.52128789  1
  Ta  Ta128  1  0.00473626  0.39008438  0.03366847  1
  Ta  Ta129  1  -0.01237833  0.36869135  0.49956876  1
  Ta  Ta130  1  -0.03332325  0.67308837  0.00764767  1
  Ta  Ta131  1  0.00622050  0.70288115  0.48476935  1
  Ta  Ta132  1  0.29359779  -0.00357104  -0.00762814  1
  Ta  Ta133  1  0.32520864  0.05091062  0.53613832  1
  Ta  Ta134  1  0.33366600  0.36822924  -0.01894314  1
  Ta  Ta135  1  0.32627415  0.37564728  0.51455465  1
  Ta  Ta136  1  0.33704502  0.73203428  0.01747706  1
  Ta  Ta137  1  0.32899698  0.71264969  0.41513256  1
  Ta  Ta138  1  0.67462965  0.05360705  0.01325730  1
  Ta  Ta139  1  0.66533117  0.03888929  0.49905974  1
  Ta  Ta140  1  0.63298701  0.33838846  -0.00935120  1
  Ta  Ta141  1  0.66546725  0.37678958  0.51208713  1
  Ta  Ta142  1  0.66751203  0.69697486  -0.01817220  1
  Ta  Ta143  1  0.66258995  0.70249763  0.49743670  1
  N  N144  1  0.32225960  0.69192545  0.89318935  1
  N  N145  1  0.50119244  0.50558551  0.64409917  1
  N  N146  1  0.66599989  0.31631275  0.86074599  1
  N  N147  1  0.00475446  0.69098686  0.13239564  1
  N  N148  1  0.84539628  0.15844264  0.89028109  1
  N  N149  1  0.83163865  0.81160770  0.11526137  1
  N  N150  1  0.83013862  0.82597634  0.37392748  1
  N  N151  1  0.49460050  0.13929159  0.86647520  1
  N  N152  1  0.16865550  0.49365681  0.63297720  1
  N  N153  1  0.66332409  0.34850441  0.12276072  1
  N  N154  1  0.82133877  0.15588130  0.63290773  1
  N  N155  1  0.16428669  0.50288863  0.90247517  1
  N  N156  1  0.66807547  0.01690062  0.87862083  1
  N  N157  1  0.49962162  0.52770610  0.89218078  1
  N  N158  1  0.49860301  0.16463161  0.12861736  1
  N  N159  1  0.83446311  0.50925483  0.63724911  1
  N  N160  1  0.67451523  0.67253310  0.36127378  1
  N  N161  1  0.49700223  0.15921334  0.39680577  1
  N  N162  1  0.17055211  0.15752311  0.38869433  1
  N  N163  1  0.83234125  0.50827483  0.14633750  1
  N  N164  1  0.00572688  -0.02553657  0.61912853  1
  N  N165  1  0.50598084  0.81406950  0.61618063  1
  N  N166  1  0.01835687  0.67465827  0.61180851  1
  N  N167  1  0.66224911  0.32382068  0.62230035  1
  N  N168  1  0.67013738  0.68254354  0.62711686  1
  N  N169  1  0.17401491  0.86864276  0.38023258  1
  N  N170  1  0.65547334  0.66744988  0.11029223  1
  N  N171  1  0.32393532  0.00030439  0.85835038  1
  N  N172  1  0.32680499  0.63022300  0.31649388  1
  N  N173  1  0.33380406  0.64560717  0.09613790  1
  N  N174  1  0.83444592  0.51175714  0.39267267  1
  N  N175  1  0.83424336  0.48959976  0.88389397  1
  N  N176  1  0.66109002  0.65075829  0.85606781  1
  O  O177  1  0.00816583  0.66875170  0.87555904  1
  O  O178  1  -0.00491011  0.35602723  0.36655210  1
  O  O179  1  -0.00410374  0.02065458  0.37340356  1
  O  O180  1  0.16942255  0.11595063  0.85029828  1
  O  O181  1  -0.00083586  0.64411005  0.35590820  1
  O  O182  1  0.85268150  0.19015488  0.13214290  1
  O  O183  1  0.16668130  0.46492472  0.35944628  1
  O  O184  1  0.34941200  0.65070001  0.51784241  1
  O  O185  1  0.68011254  -0.02883823  0.10615476  1
  O  O186  1  0.67107216  0.03843964  0.35780507  1
  O  O187  1  0.00719908  0.00962173  0.85398991  1
  O  O188  1  0.30473976  0.30816837  0.87115800  1
  O  O189  1  0.33109060  0.37238058  0.65290346  1
  O  O190  1  0.00249553  0.30221800  0.11760305  1
  O  O191  1  0.18725986  0.85069663  0.14183755  1
  O  O192  1  0.32256722  0.32242049  0.11294462  1
  O  O193  1  0.83809735  0.14704603  0.36428564  1
  O  O194  1  0.31992049  0.34499066  0.37537890  1
  O  O195  1  0.33860122  0.02027422  0.11807843  1
  O  O196  1  0.17414529  0.52729584  0.15440392  1
  O  O197  1  -0.00262823  0.35638584  0.63162125  1
  O  O198  1  0.16752697  0.13926074  0.12801003  1
  O  O199  1  0.18122590  0.79621982  0.60085238  1
  O  O200  1  0.17214441  0.20626547  0.62757046  1
  O  O201  1  0.32879100  0.04016008  0.40067645  1
  O  O202  1  0.50156496  0.47921888  0.11448383  1
  O  O203  1  0.50306091  0.83380277  0.14276725  1
  O  O204  1  0.50103680  0.82612425  0.88126042  1
  O  O205  1  0.82119342  0.86289344  0.89426902  1
  O  O206  1  0.83278246  0.80488252  0.64169191  1
  O  O207  1  -0.00507219  0.35034283  0.89541008  1
  O  O208  1  0.32706497  -0.04774194  0.61600324  1
  O  O209  1  0.50382600  0.47940580  0.37817265  1
  O  O210  1  -0.00136308  -0.00063964  0.11741195  1
  O  O211  1  0.67271459  0.00903119  0.62547782  1
  O  O212  1  0.16849901  0.82555287  0.88054235  1
  O  O213  1  0.66064309  0.33250696  0.37824210  1
  O  O214  1  0.49303373  0.86109392  0.36818588  1
  O  O215  1  0.48455269  0.18778178  0.64081458  1
