# generated using pymatgen
data_Sr24Ta24N11O13
_symmetry_space_group_name_H-M   'P 1'
_cell_length_a   16.78448760
_cell_length_b   16.71981495
_cell_length_c   15.70505920
_cell_angle_alpha   90.15861728
_cell_angle_beta   90.12815354
_cell_angle_gamma   89.97361886
_symmetry_Int_Tables_number   1
_chemical_formula_structural   Sr24Ta24N11O13
_chemical_formula_sum   'Sr72 Ta72 N33 O39'
_cell_volume   4407.33778279
_cell_formula_units_Z   3
loop_
 _symmetry_equiv_pos_site_id
 _symmetry_equiv_pos_as_xyz
  1  'x, y, z'
loop_
 _atom_site_type_symbol
 _atom_site_label
 _atom_site_symmetry_multiplicity
 _atom_site_fract_x
 _atom_site_fract_y
 _atom_site_fract_z
 _atom_site_occupancy
  Sr  Sr0  1  0.00219920  0.16665285  0.08214273  1
  Sr  Sr1  1  0.01190994  0.16386923  0.63228498  1
  Sr  Sr2  1  0.01700836  0.48734387  0.15985844  1
  Sr  Sr3  1  -0.00137115  0.50365074  0.61792864  1
  Sr  Sr4  1  0.00403662  0.82554361  0.11589931  1
  Sr  Sr5  1  0.00170296  0.83749856  0.61268500  1
  Sr  Sr6  1  0.34172921  0.16640186  0.11222991  1
  Sr  Sr7  1  0.33006821  0.19049570  0.67722523  1
  Sr  Sr8  1  0.33109426  0.51661468  0.09674331  1
  Sr  Sr9  1  0.34907036  0.50043710  0.59714000  1
  Sr  Sr10  1  0.32793568  0.82419247  0.17971656  1
  Sr  Sr11  1  0.33433163  0.83774418  0.61907391  1
  Sr  Sr12  1  0.70100646  0.15806161  0.16074529  1
  Sr  Sr13  1  0.66619964  0.16578587  0.60903777  1
  Sr  Sr14  1  0.69560468  0.48247114  0.11282288  1
  Sr  Sr15  1  0.66245835  0.49425876  0.66793178  1
  Sr  Sr16  1  0.65832780  0.83155291  0.12143983  1
  Sr  Sr17  1  0.68519390  0.81121689  0.63271988  1
  Sr  Sr18  1  0.18317667  0.01526141  0.13071794  1
  Sr  Sr19  1  0.15018868  -0.00296014  0.57653315  1
  Sr  Sr20  1  0.16499639  0.33621924  0.15081495  1
  Sr  Sr21  1  0.15780468  0.35271332  0.61083666  1
  Sr  Sr22  1  0.16254689  0.66713923  0.12194630  1
  Sr  Sr23  1  0.16377198  0.68920640  0.66751162  1
  Sr  Sr24  1  0.50221908  0.00201570  0.09176361  1
  Sr  Sr25  1  0.47331626  -0.00125152  0.63404552  1
  Sr  Sr26  1  0.47431747  0.33432169  0.09390198  1
  Sr  Sr27  1  0.50865999  0.33341085  0.63744726  1
  Sr  Sr28  1  0.50250007  0.67933923  0.15114269  1
  Sr  Sr29  1  0.48189125  0.67664773  0.59759900  1
  Sr  Sr30  1  0.82349425  -0.01253764  0.15769935  1
  Sr  Sr31  1  0.82490911  0.00695279  0.64517448  1
  Sr  Sr32  1  0.83990298  0.32489574  0.12934960  1
  Sr  Sr33  1  0.82093028  0.32057898  0.58955831  1
  Sr  Sr34  1  0.83343658  0.67651385  0.07545885  1
  Sr  Sr35  1  0.82422802  0.65284516  0.63248385  1
  Sr  Sr36  1  0.03199651  0.15889215  0.41612128  1
  Sr  Sr37  1  0.00047500  0.16603523  0.87012052  1
  Sr  Sr38  1  -0.00515914  0.49775854  0.38297532  1
  Sr  Sr39  1  0.02092751  0.49739169  0.82944624  1
  Sr  Sr40  1  -0.00633277  0.83956830  0.37611890  1
  Sr  Sr41  1  0.01844477  0.82727056  0.89292319  1
  Sr  Sr42  1  0.32253079  0.18540847  0.32568186  1
  Sr  Sr43  1  0.34249815  0.15417696  0.89088051  1
  Sr  Sr44  1  0.34427753  0.49546366  0.40340044  1
  Sr  Sr45  1  0.33937378  0.51817130  0.90228211  1
  Sr  Sr46  1  0.33952019  0.84791605  0.39202971  1
  Sr  Sr47  1  0.33512604  0.82380792  0.83671979  1
  Sr  Sr48  1  0.67104769  0.17507484  0.38552363  1
  Sr  Sr49  1  0.68232853  0.15196925  0.85330310  1
  Sr  Sr50  1  0.66083553  0.49461157  0.33047651  1
  Sr  Sr51  1  0.67933703  0.47489199  0.88544534  1
  Sr  Sr52  1  0.67143617  0.81371679  0.36610911  1
  Sr  Sr53  1  0.66409443  0.82612605  0.89130028  1
  Sr  Sr54  1  0.18551896  0.00765818  0.36706402  1
  Sr  Sr55  1  0.14839888  0.00853408  0.92167970  1
  Sr  Sr56  1  0.16425526  0.34404153  0.38224409  1
  Sr  Sr57  1  0.15343188  0.32395905  0.82559278  1
  Sr  Sr58  1  0.15321296  0.68058731  0.33607194  1
  Sr  Sr59  1  0.17267739  0.66464013  0.88219554  1
  Sr  Sr60  1  0.50240517  0.02028099  0.40792056  1
  Sr  Sr61  1  0.48394507  -0.01040180  0.87700699  1
  Sr  Sr62  1  0.49204258  0.32934329  0.38206747  1
  Sr  Sr63  1  0.50460683  0.33997412  0.86946882  1
  Sr  Sr64  1  0.49234888  0.68197402  0.37625435  1
  Sr  Sr65  1  0.48317834  0.67605215  0.88426758  1
  Sr  Sr66  1  0.81478908  -0.00277621  0.35547934  1
  Sr  Sr67  1  0.83083394  0.00431088  0.84349541  1
  Sr  Sr68  1  0.81887467  0.33633297  0.35569994  1
  Sr  Sr69  1  0.83750080  0.31810456  0.91545807  1
  Sr  Sr70  1  0.84519792  0.67443528  0.42339067  1
  Sr  Sr71  1  0.81080481  0.64230609  0.86119144  1
  Ta  Ta72  1  0.17273490  0.20969000  -0.01092890  1
  Ta  Ta73  1  0.21706229  0.17962269  0.50481069  1
  Ta  Ta74  1  0.14885647  0.47919621  -0.00995765  1
  Ta  Ta75  1  0.16707696  0.55127512  0.50603812  1
  Ta  Ta76  1  0.20686553  0.83356616  0.00690447  1
  Ta  Ta77  1  0.16417835  0.80516625  0.49831458  1
  Ta  Ta78  1  0.55462069  0.16600843  0.00838717  1
  Ta  Ta79  1  0.44382676  0.17969019  0.50499347  1
  Ta  Ta80  1  0.52602671  0.52425296  0.00026349  1
  Ta  Ta81  1  0.54516957  0.49837834  0.49947935  1
  Ta  Ta82  1  0.46355038  0.82716101  0.00884967  1
  Ta  Ta83  1  0.53231946  0.85138861  0.50514826  1
  Ta  Ta84  1  0.82362984  0.13098974  0.00026837  1
  Ta  Ta85  1  0.85271700  0.14767749  0.49754341  1
  Ta  Ta86  1  0.89187699  0.49569771  -0.00871452  1
  Ta  Ta87  1  0.79111960  0.49377359  0.49960449  1
  Ta  Ta88  1  0.83298066  0.87001056  -0.00230862  1
  Ta  Ta89  1  0.82841003  0.86513541  0.50079526  1
  Ta  Ta90  1  0.11882215  0.16800593  0.24612835  1
  Ta  Ta91  1  0.16603450  0.11110098  0.75272338  1
  Ta  Ta92  1  0.20504071  0.50383341  0.25527051  1
  Ta  Ta93  1  0.21166392  0.50564267  0.74488670  1
  Ta  Ta94  1  0.14528683  0.85946588  0.25046955  1
  Ta  Ta95  1  0.16240353  0.88764668  0.74525826  1
  Ta  Ta96  1  0.51335838  0.15532124  0.24188886  1
  Ta  Ta97  1  0.51654906  0.15285791  0.75510230  1
  Ta  Ta98  1  0.47338419  0.48851393  0.24587088  1
  Ta  Ta99  1  0.48018763  0.51979751  0.75469387  1
  Ta  Ta100  1  0.50419461  0.87514090  0.25608667  1
  Ta  Ta101  1  0.52162443  0.82793115  0.74983113  1
  Ta  Ta102  1  0.89360299  0.16106950  0.25166997  1
  Ta  Ta103  1  0.84037142  0.19868911  0.74696093  1
  Ta  Ta104  1  0.84069680  0.54271770  0.24612878  1
  Ta  Ta105  1  0.83821607  0.44788907  0.75311110  1
  Ta  Ta106  1  0.83829064  0.79047023  0.25250384  1
  Ta  Ta107  1  0.86061081  0.81983975  0.74906822  1
  Ta  Ta108  1  0.01207703  0.02031466  0.25010667  1
  Ta  Ta109  1  0.02230067  -0.00857363  0.74607997  1
  Ta  Ta110  1  0.00262848  0.29198106  0.25089953  1
  Ta  Ta111  1  -0.04422418  0.32732422  0.74611267  1
  Ta  Ta112  1  -0.04477382  0.66653925  0.25005350  1
  Ta  Ta113  1  -0.01931096  0.68609002  0.74880421  1
  Ta  Ta114  1  0.37674418  0.00671395  0.25022998  1
  Ta  Ta115  1  0.29462511  0.00200418  0.75266302  1
  Ta  Ta116  1  0.33795129  0.37765141  0.24119035  1
  Ta  Ta117  1  0.33665551  0.38218984  0.75354793  1
  Ta  Ta118  1  0.33141099  0.63059916  0.25868805  1
  Ta  Ta119  1  0.34143226  0.63648680  0.74095555  1
  Ta  Ta120  1  0.62108231  -0.00058437  0.24930671  1
  Ta  Ta121  1  0.63665887  -0.01600832  0.75083688  1
  Ta  Ta122  1  0.62053186  0.31918559  0.22926105  1
  Ta  Ta123  1  0.69953444  0.31744538  0.75294270  1
  Ta  Ta124  1  0.72463720  0.66270071  0.24773584  1
  Ta  Ta125  1  0.61879384  0.66507417  0.74685102  1
  Ta  Ta126  1  -0.05046763  -0.00826233  0.00131489  1
  Ta  Ta127  1  -0.04337137  0.00081643  0.50069557  1
  Ta  Ta128  1  0.02642615  0.35446095  -0.01113281  1
  Ta  Ta129  1  -0.01927813  0.32434461  0.50496091  1
  Ta  Ta130  1  0.00584435  0.62039228  -0.00469891  1
  Ta  Ta131  1  0.03929333  0.67031771  0.50411331  1
  Ta  Ta132  1  0.32978830  -0.05027950  0.00991953  1
  Ta  Ta133  1  0.33022902  0.05451284  0.49754866  1
  Ta  Ta134  1  0.28566661  0.33842670  -0.00476089  1
  Ta  Ta135  1  0.33064033  0.30008207  0.50312357  1
  Ta  Ta136  1  0.33258679  0.71281406  0.01434123  1
  Ta  Ta137  1  0.28914984  0.67396291  0.49667807  1
  Ta  Ta138  1  0.68778734  0.01081054  0.00673937  1
  Ta  Ta139  1  0.67329162  -0.02698459  0.50184143  1
  Ta  Ta140  1  0.65932719  0.29239339  0.00534036  1
  Ta  Ta141  1  0.65872293  0.37155728  0.50149006  1
  Ta  Ta142  1  0.64273024  0.64674900  0.00158262  1
  Ta  Ta143  1  0.66013309  0.62260257  0.50241391  1
  N  N144  1  -0.00727296  0.00247686  0.62608818  1
  N  N145  1  0.33851113  -0.00251562  0.12540175  1
  N  N146  1  0.83297604  0.82751041  0.37491815  1
  N  N147  1  0.34132512  0.02226907  0.37416458  1
  N  N148  1  0.49053024  0.83701108  0.62262121  1
  N  N149  1  0.50049474  0.84001308  0.38337715  1
  N  N150  1  -0.00120490  0.66754753  0.62654390  1
  N  N151  1  0.00382265  0.33262459  0.62432714  1
  N  N152  1  0.33129347  0.67267362  0.13217819  1
  N  N153  1  0.33197154  0.67502869  0.37463493  1
  N  N154  1  0.16925972  0.51102023  0.62284658  1
  N  N155  1  0.83942867  0.16081755  0.87960517  1
  N  N156  1  0.49224908  0.83332099  0.87406530  1
  N  N157  1  0.49710490  0.83570779  0.13009157  1
  N  N158  1  0.68421524  0.32810468  0.12930360  1
  N  N159  1  0.17343752  0.50194001  0.87141321  1
  N  N160  1  0.16757306  0.84715677  0.62550856  1
  N  N161  1  0.83679454  0.16207751  0.61867017  1
  N  N162  1  0.32854142  0.67246443  0.62387950  1
  N  N163  1  0.66550150  0.33567774  0.62145679  1
  N  N164  1  0.49660350  0.16347653  0.11739883  1
  N  N165  1  0.00194408  0.33011454  0.87016774  1
  N  N166  1  0.67348676  0.31768840  0.87653816  1
  N  N167  1  0.85395214  0.15737944  0.13449857  1
  N  N168  1  0.16614040  0.83555457  0.12744773  1
  N  N169  1  0.66536366  -0.00422963  0.12908496  1
  N  N170  1  0.16832844  0.16259561  0.87195420  1
  N  N171  1  0.16592822  0.84126018  0.37511006  1
  N  N172  1  0.32114510  0.34462934  0.11733305  1
  N  N173  1  0.50386930  0.50242038  0.87717026  1
  N  N174  1  0.83814694  0.83133373  0.62718010  1
  N  N175  1  0.65333031  0.65131785  0.62735691  1
  N  N176  1  0.84606936  0.48630884  0.87465653  1
  O  O177  1  0.48588591  0.17467162  0.38098637  1
  O  O178  1  0.00219385  0.00421115  0.37681516  1
  O  O179  1  0.81357568  0.49060658  0.62609747  1
  O  O180  1  0.83467966  0.83339882  0.12182177  1
  O  O181  1  0.31934674  -0.00888645  0.88048360  1
  O  O182  1  0.00661992  0.32387687  0.12391625  1
  O  O183  1  0.67764290  0.65657538  0.12327508  1
  O  O184  1  0.17046620  0.85087355  0.87518880  1
  O  O185  1  0.68626771  0.65128291  0.37060656  1
  O  O186  1  0.33339612  0.33669080  0.36564414  1
  O  O187  1  0.17411449  0.49802709  0.12920707  1
  O  O188  1  0.66362665  -0.01053787  0.63059902  1
  O  O189  1  0.01427020  0.65215789  0.87008630  1
  O  O190  1  0.00530209  0.31657058  0.37862549  1
  O  O191  1  0.66324806  -0.00014925  0.37732623  1
  O  O192  1  0.82780531  0.15728310  0.36179160  1
  O  O193  1  0.33710416  0.34650848  0.63018038  1
  O  O194  1  0.85200580  0.51714925  0.11666949  1
  O  O195  1  0.17237334  0.17572885  0.36640537  1
  O  O196  1  0.81823154  0.51120809  0.37699053  1
  O  O197  1  0.51487889  0.14988387  0.88058575  1
  O  O198  1  0.15331731  0.17655260  0.12121466  1
  O  O199  1  0.48643444  0.17079856  0.63320850  1
  O  O200  1  -0.00997920  -0.00612544  0.87855557  1
  O  O201  1  0.48749492  0.50076788  0.12167972  1
  O  O202  1  0.31850926  0.01296963  0.62548051  1
  O  O203  1  -0.00712995  0.64602659  0.12020760  1
  O  O204  1  0.64644305  0.33771444  0.35741777  1
  O  O205  1  -0.00389776  0.66548824  0.37907432  1
  O  O206  1  0.50230489  0.49146089  0.37116584  1
  O  O207  1  0.50755109  0.49485427  0.62519834  1
  O  O208  1  0.18580026  0.50070385  0.38282864  1
  O  O209  1  0.82695010  0.85041758  0.87103556  1
  O  O210  1  0.33871924  0.36418311  0.87901150  1
  O  O211  1  0.32860825  0.67268532  0.87495914  1
  O  O212  1  -0.00722808  0.00354229  0.12343121  1
  O  O213  1  0.17966389  0.15623802  0.63166391  1
  O  O214  1  0.65413685  -0.01330920  0.87753764  1
  O  O215  1  0.65021153  0.66194629  0.87209641  1
