# generated using pymatgen
data_Sr24Ta24N11O13
_symmetry_space_group_name_H-M   'P 1'
_cell_length_a   16.98848552
_cell_length_b   16.67028563
_cell_length_c   15.70815106
_cell_angle_alpha   89.65219028
_cell_angle_beta   90.05991657
_cell_angle_gamma   89.91595101
_symmetry_Int_Tables_number   1
_chemical_formula_structural   Sr24Ta24N11O13
_chemical_formula_sum   'Sr72 Ta72 N33 O39'
_cell_volume   4448.50480325
_cell_formula_units_Z   3
loop_
 _symmetry_equiv_pos_site_id
 _symmetry_equiv_pos_as_xyz
  1  'x, y, z'
loop_
 _atom_site_type_symbol
 _atom_site_label
 _atom_site_symmetry_multiplicity
 _atom_site_fract_x
 _atom_site_fract_y
 _atom_site_fract_z
 _atom_site_occupancy
  Sr  Sr0  1  -0.00177727  0.16538029  0.12201748  1
  Sr  Sr1  1  0.04486675  0.16678906  0.64046390  1
  Sr  Sr2  1  0.02389552  0.50620809  0.14390068  1
  Sr  Sr3  1  0.00975449  0.48844934  0.63869231  1
  Sr  Sr4  1  0.02928786  0.83266747  0.09981023  1
  Sr  Sr5  1  0.00489071  0.84405393  0.60822430  1
  Sr  Sr6  1  0.34797270  0.17089369  0.13024576  1
  Sr  Sr7  1  0.35382909  0.16139010  0.59898618  1
  Sr  Sr8  1  0.32771138  0.50809916  0.08846793  1
  Sr  Sr9  1  0.34813407  0.48440747  0.63922009  1
  Sr  Sr10  1  0.33798534  0.82211022  0.16155682  1
  Sr  Sr11  1  0.35088474  0.83419524  0.62015420  1
  Sr  Sr12  1  0.67811716  0.17023590  0.15356092  1
  Sr  Sr13  1  0.67271635  0.15389610  0.61566856  1
  Sr  Sr14  1  0.64382301  0.50023804  0.13875666  1
  Sr  Sr15  1  0.67535882  0.52365139  0.57453702  1
  Sr  Sr16  1  0.66243485  0.84449414  0.10354285  1
  Sr  Sr17  1  0.67787684  0.81855525  0.67593590  1
  Sr  Sr18  1  0.14666175  0.01150012  0.08864025  1
  Sr  Sr19  1  0.16258930  -0.01704479  0.64815642  1
  Sr  Sr20  1  0.15295356  0.32728095  0.16528730  1
  Sr  Sr21  1  0.18008426  0.33497810  0.61110670  1
  Sr  Sr22  1  0.16733685  0.66155644  0.12686197  1
  Sr  Sr23  1  0.12282225  0.67263604  0.60379693  1
  Sr  Sr24  1  0.47562272  -0.00752501  0.12452774  1
  Sr  Sr25  1  0.49790890  0.01366826  0.58629514  1
  Sr  Sr26  1  0.49078902  0.34532611  0.11082681  1
  Sr  Sr27  1  0.51115973  0.32403747  0.66912497  1
  Sr  Sr28  1  0.47563896  0.67211826  0.14690969  1
  Sr  Sr29  1  0.49732524  0.66237454  0.61664839  1
  Sr  Sr30  1  0.81505476  0.00366477  0.15692819  1
  Sr  Sr31  1  0.81559814  -0.00350970  0.62009559  1
  Sr  Sr32  1  0.84190712  0.33043468  0.08415036  1
  Sr  Sr33  1  0.80902614  0.33068772  0.62989466  1
  Sr  Sr34  1  0.79386082  0.66347849  0.12555108  1
  Sr  Sr35  1  0.82371246  0.66784784  0.63528565  1
  Sr  Sr36  1  0.01721271  0.17029618  0.35360703  1
  Sr  Sr37  1  0.02322561  0.16020390  0.88516183  1
  Sr  Sr38  1  0.02225171  0.49314194  0.36453569  1
  Sr  Sr39  1  0.00385075  0.50682687  0.85453667  1
  Sr  Sr40  1  0.00725397  0.82874034  0.40029430  1
  Sr  Sr41  1  0.02595462  0.84228858  0.88947855  1
  Sr  Sr42  1  0.34875895  0.17039585  0.36482615  1
  Sr  Sr43  1  0.35647606  0.15478368  0.91395762  1
  Sr  Sr44  1  0.33817638  0.49469828  0.41609805  1
  Sr  Sr45  1  0.33548779  0.49665459  0.86624138  1
  Sr  Sr46  1  0.34161419  0.82255608  0.37251729  1
  Sr  Sr47  1  0.33437162  0.83601125  0.83829284  1
  Sr  Sr48  1  0.67640504  0.15115776  0.38791971  1
  Sr  Sr49  1  0.67332016  0.18433101  0.83410111  1
  Sr  Sr50  1  0.65017688  0.50560729  0.36052393  1
  Sr  Sr51  1  0.68963262  0.50003500  0.93209552  1
  Sr  Sr52  1  0.71013225  0.83767540  0.32639272  1
  Sr  Sr53  1  0.65564819  0.84266663  0.88810116  1
  Sr  Sr54  1  0.14204486  -0.00942398  0.38953333  1
  Sr  Sr55  1  0.17027604  -0.00087060  0.86915632  1
  Sr  Sr56  1  0.17460949  0.32968212  0.38914612  1
  Sr  Sr57  1  0.15302429  0.34239998  0.82608902  1
  Sr  Sr58  1  0.14624352  0.67264180  0.35797910  1
  Sr  Sr59  1  0.14574073  0.65540170  0.90907928  1
  Sr  Sr60  1  0.47294027  -0.00414209  0.37827583  1
  Sr  Sr61  1  0.49642446  0.00104038  0.91173906  1
  Sr  Sr62  1  0.51769196  0.32728139  0.32721700  1
  Sr  Sr63  1  0.49304432  0.34020250  0.88464686  1
  Sr  Sr64  1  0.48353499  0.65597717  0.39452116  1
  Sr  Sr65  1  0.48247889  0.68566524  0.83384294  1
  Sr  Sr66  1  0.83318347  0.00549766  0.37518951  1
  Sr  Sr67  1  0.79976275  -0.00205139  0.85089710  1
  Sr  Sr68  1  0.80835503  0.33247962  0.41444875  1
  Sr  Sr69  1  0.82960667  0.33557638  0.87529553  1
  Sr  Sr70  1  0.81451525  0.64883841  0.36158708  1
  Sr  Sr71  1  0.81392705  0.67514985  0.87756739  1
  Ta  Ta72  1  0.17771238  0.21563268  -0.00698372  1
  Ta  Ta73  1  0.18561968  0.13757769  0.50014471  1
  Ta  Ta74  1  0.16028603  0.45714324  -0.00939494  1
  Ta  Ta75  1  0.17360346  0.52260351  0.50653387  1
  Ta  Ta76  1  0.21459984  0.82714043  -0.00431038  1
  Ta  Ta77  1  0.19359385  0.82912466  0.50186391  1
  Ta  Ta78  1  0.54728053  0.17435657  -0.00242720  1
  Ta  Ta79  1  0.51585453  0.21191914  0.50072744  1
  Ta  Ta80  1  0.49668624  0.54125228  -0.00263180  1
  Ta  Ta81  1  0.50371836  0.45228907  0.49920240  1
  Ta  Ta82  1  0.47160815  0.81460626  -0.00188190  1
  Ta  Ta83  1  0.53626889  0.83050124  0.50423673  1
  Ta  Ta84  1  0.81671639  0.14550403  -0.00157725  1
  Ta  Ta85  1  0.88242629  0.16979336  0.50470679  1
  Ta  Ta86  1  0.87863070  0.51132280  0.00140645  1
  Ta  Ta87  1  0.86819165  0.49704378  0.50237017  1
  Ta  Ta88  1  0.85141078  0.84805306  0.00193619  1
  Ta  Ta89  1  0.81374333  0.82402781  0.50488183  1
  Ta  Ta90  1  0.18150504  0.13676911  0.24405910  1
  Ta  Ta91  1  0.22723684  0.16282128  0.75881987  1
  Ta  Ta92  1  0.21411453  0.49895585  0.26057492  1
  Ta  Ta93  1  0.17865389  0.53775714  0.74263240  1
  Ta  Ta94  1  0.15846605  0.85793394  0.25174442  1
  Ta  Ta95  1  0.16331569  0.79144052  0.74852778  1
  Ta  Ta96  1  0.52119705  0.14149795  0.25277100  1
  Ta  Ta97  1  0.49023432  0.13891284  0.75235430  1
  Ta  Ta98  1  0.45542894  0.50365962  0.25131585  1
  Ta  Ta99  1  0.53442598  0.50447660  0.74649394  1
  Ta  Ta100  1  0.52576013  0.83713092  0.25108540  1
  Ta  Ta101  1  0.50195915  0.88219134  0.74875762  1
  Ta  Ta102  1  0.84063397  0.21373841  0.25277808  1
  Ta  Ta103  1  0.87195422  0.16342874  0.74901248  1
  Ta  Ta104  1  0.84109365  0.46103728  0.24803737  1
  Ta  Ta105  1  0.81118381  0.50272983  0.75770659  1
  Ta  Ta106  1  0.88749245  0.82904250  0.24547532  1
  Ta  Ta107  1  0.87473961  0.83785664  0.75106583  1
  Ta  Ta108  1  0.00386885  -0.02539467  0.24621064  1
  Ta  Ta109  1  -0.02939784  -0.00047559  0.75340748  1
  Ta  Ta110  1  -0.04262884  0.33501137  0.24884459  1
  Ta  Ta111  1  -0.02797238  0.31230990  0.74348118  1
  Ta  Ta112  1  -0.02553436  0.68898316  0.24003501  1
  Ta  Ta113  1  -0.00866048  0.69251573  0.75867068  1
  Ta  Ta114  1  0.28315844  0.00114726  0.24733009  1
  Ta  Ta115  1  0.35602341  0.01878674  0.74998627  1
  Ta  Ta116  1  0.33160681  0.36899395  0.24700267  1
  Ta  Ta117  1  0.33469390  0.29307467  0.75179103  1
  Ta  Ta118  1  0.32107746  0.62584640  0.26377000  1
  Ta  Ta119  1  0.28880821  0.66434871  0.73619717  1
  Ta  Ta120  1  0.62892026  -0.00374932  0.25200733  1
  Ta  Ta121  1  0.61963746  0.00262126  0.75125732  1
  Ta  Ta122  1  0.71282182  0.33695239  0.24422903  1
  Ta  Ta123  1  0.66988658  0.41078381  0.75165515  1
  Ta  Ta124  1  0.62916907  0.68706401  0.24808927  1
  Ta  Ta125  1  0.66298172  0.60958276  0.75419458  1
  Ta  Ta126  1  -0.05912740  -0.00063865  0.00506715  1
  Ta  Ta127  1  -0.01138705  0.03067050  0.49743765  1
  Ta  Ta128  1  0.02585936  0.34708378  0.00142587  1
  Ta  Ta129  1  -0.01885341  0.32533370  0.50879483  1
  Ta  Ta130  1  -0.03657923  0.66396324  0.01084651  1
  Ta  Ta131  1  -0.03343320  0.64241798  0.49143023  1
  Ta  Ta132  1  0.32198376  -0.04586606  0.00557238  1
  Ta  Ta133  1  0.29905208  -0.00545128  0.49302035  1
  Ta  Ta134  1  0.29106704  0.33300497  0.00022541  1
  Ta  Ta135  1  0.38069786  0.32722304  0.50206846  1
  Ta  Ta136  1  0.33963498  0.69164549  -0.00742629  1
  Ta  Ta137  1  0.29018360  0.66570637  0.50719597  1
  Ta  Ta138  1  0.67115772  0.04326463  -0.00297821  1
  Ta  Ta139  1  0.66524190  -0.06855979  0.49944166  1
  Ta  Ta140  1  0.66397435  0.30336388  0.00268893  1
  Ta  Ta141  1  0.62689908  0.33978505  0.50194576  1
  Ta  Ta142  1  0.60718204  0.67029896  -0.00127988  1
  Ta  Ta143  1  0.66952881  0.72847806  0.49821165  1
  N  N144  1  0.50596329  0.49662370  0.62310479  1
  N  N145  1  0.51282862  0.16989103  0.62186232  1
  N  N146  1  0.16387548  0.83065632  0.62557386  1
  N  N147  1  0.50494394  0.83806332  0.62979617  1
  N  N148  1  -0.00944318  0.67586703  0.88023048  1
  N  N149  1  0.32393798  0.66204311  0.38831686  1
  N  N150  1  0.16553239  0.49768588  0.87231709  1
  N  N151  1  0.51377537  0.16676071  0.37311122  1
  N  N152  1  0.49651059  0.83661126  0.13024495  1
  N  N153  1  0.51153332  0.17075670  0.87280502  1
  N  N154  1  0.49665039  0.49156862  0.36907116  1
  N  N155  1  0.83857120  0.83429624  0.62826155  1
  N  N156  1  0.32197905  -0.00690313  0.37197181  1
  N  N157  1  0.48607291  0.50918318  0.11855056  1
  N  N158  1  -0.00002242  0.33580342  0.12302039  1
  N  N159  1  0.18476419  0.16449328  0.87982281  1
  N  N160  1  0.67407333  0.33725008  0.12165149  1
  N  N161  1  -0.01176986  0.00410927  0.37673907  1
  N  N162  1  0.01835312  0.67000148  0.12090235  1
  N  N163  1  -0.01765441  0.00401100  0.12408521  1
  N  N164  1  0.32159224  -0.00920679  0.12331574  1
  N  N165  1  0.17815738  0.82421010  0.87437274  1
  N  N166  1  0.83978071  0.49973124  0.88046218  1
  N  N167  1  0.16467871  0.83105510  0.37152859  1
  N  N168  1  0.63941583  0.67346041  0.12406245  1
  N  N169  1  0.65249122  0.01157543  0.87723583  1
  N  N170  1  -0.01553883  0.66165781  0.36942999  1
  N  N171  1  0.34953987  0.32167869  0.62869046  1
  N  N172  1  0.17607993  0.49251666  0.38104203  1
  N  N173  1  0.01741772  0.32967330  0.62772927  1
  N  N174  1  0.16573532  0.48732169  0.63180913  1
  N  N175  1  0.49485297  0.84303022  0.87597707  1
  N  N176  1  0.32348114  0.34171151  0.12478327  1
  O  O177  1  -0.02492667  0.66836226  0.62115930  1
  O  O178  1  0.83601966  0.83933345  0.87630825  1
  O  O179  1  0.17573754  0.16659872  0.12038432  1
  O  O180  1  0.85433416  0.16145172  0.62686873  1
  O  O181  1  0.65410683  0.00437878  0.12382654  1
  O  O182  1  0.66380115  0.37138774  0.62720863  1
  O  O183  1  0.65398173  0.65047117  0.87545165  1
  O  O184  1  -0.02041285  0.00531275  0.88048138  1
  O  O185  1  0.83644684  0.15796555  0.87502379  1
  O  O186  1  0.66679583  0.34448928  0.36629156  1
  O  O187  1  0.83927791  0.84095160  0.12660517  1
  O  O188  1  0.66863567  0.66657108  0.63149965  1
  O  O189  1  0.84416683  0.49648686  0.62610281  1
  O  O190  1  0.66305089  0.68925522  0.37565428  1
  O  O191  1  0.84815003  0.48392254  0.37174906  1
  O  O192  1  0.85686983  0.18031347  0.37829138  1
  O  O193  1  0.17435635  0.50142239  0.11530631  1
  O  O194  1  0.33866883  0.00236417  0.62338579  1
  O  O195  1  0.32428642  0.66682246  0.12015726  1
  O  O196  1  0.32782114  0.67492612  0.86583173  1
  O  O197  1  0.48851130  0.50116607  0.87455282  1
  O  O198  1  0.19631813  0.15111178  0.62627715  1
  O  O199  1  -0.01050677  0.00265288  0.62864240  1
  O  O200  1  0.51337586  0.16732921  0.12441239  1
  O  O201  1  0.66194405  -0.02331510  0.62177059  1
  O  O202  1  0.65455639  -0.02012239  0.37795427  1
  O  O203  1  0.33862710  0.33667198  0.87415013  1
  O  O204  1  0.49350525  0.83624857  0.38156686  1
  O  O205  1  -0.00590329  0.33266907  0.37676489  1
  O  O206  1  0.85146117  0.83271020  0.37404261  1
  O  O207  1  0.17799940  0.81873703  0.12729087  1
  O  O208  1  0.84324701  0.48510969  0.12051824  1
  O  O209  1  0.34754066  0.66944963  0.62648210  1
  O  O210  1  0.83061157  0.17155379  0.12382206  1
  O  O211  1  0.67511917  0.35603736  0.88338180  1
  O  O212  1  -0.00351021  0.33092698  0.86796868  1
  O  O213  1  0.34074557  0.33058282  0.37767126  1
  O  O214  1  0.33892630  -0.00338496  0.87603552  1
  O  O215  1  0.17404700  0.15384981  0.37464384  1
