# generated using pymatgen
data_Sr24Ta24N11O13
_symmetry_space_group_name_H-M   'P 1'
_cell_length_a   16.83653377
_cell_length_b   16.77467165
_cell_length_c   15.70538265
_cell_angle_alpha   90.20570954
_cell_angle_beta   89.69707843
_cell_angle_gamma   90.00743194
_symmetry_Int_Tables_number   1
_chemical_formula_structural   Sr24Ta24N11O13
_chemical_formula_sum   'Sr72 Ta72 N33 O39'
_cell_volume   4435.53861402
_cell_formula_units_Z   3
loop_
 _symmetry_equiv_pos_site_id
 _symmetry_equiv_pos_as_xyz
  1  'x, y, z'
loop_
 _atom_site_type_symbol
 _atom_site_label
 _atom_site_symmetry_multiplicity
 _atom_site_fract_x
 _atom_site_fract_y
 _atom_site_fract_z
 _atom_site_occupancy
  Sr  Sr0  1  0.00361220  0.15997264  0.13677691  1
  Sr  Sr1  1  -0.00622476  0.14620037  0.58290534  1
  Sr  Sr2  1  -0.00674684  0.49517646  0.16556788  1
  Sr  Sr3  1  0.00504881  0.49903621  0.61679732  1
  Sr  Sr4  1  -0.01272570  0.81666898  0.10477829  1
  Sr  Sr5  1  -0.01047764  0.84083821  0.66510836  1
  Sr  Sr6  1  0.33750218  0.16860755  0.08077276  1
  Sr  Sr7  1  0.32346828  0.18436617  0.64362098  1
  Sr  Sr8  1  0.31359486  0.48620561  0.13519572  1
  Sr  Sr9  1  0.33288372  0.51939017  0.58478278  1
  Sr  Sr10  1  0.33506825  0.83905073  0.11690573  1
  Sr  Sr11  1  0.32364061  0.82971138  0.66281715  1
  Sr  Sr12  1  0.63596127  0.17098694  0.16473843  1
  Sr  Sr13  1  0.66472872  0.19952191  0.63225270  1
  Sr  Sr14  1  0.68234423  0.49167141  0.11383289  1
  Sr  Sr15  1  0.63437870  0.52363321  0.65146676  1
  Sr  Sr16  1  0.65697402  0.86826634  0.11080345  1
  Sr  Sr17  1  0.65815846  0.83967508  0.61575574  1
  Sr  Sr18  1  0.16808927  0.00012016  0.16049265  1
  Sr  Sr19  1  0.17428778  0.01541124  0.61269068  1
  Sr  Sr20  1  0.16487130  0.31468043  0.11296692  1
  Sr  Sr21  1  0.16244504  0.33512838  0.66628135  1
  Sr  Sr22  1  0.19534842  0.67468383  0.12215555  1
  Sr  Sr23  1  0.17906706  0.64783555  0.58935602  1
  Sr  Sr24  1  0.49228037  0.00315314  0.12781500  1
  Sr  Sr25  1  0.49150954  0.00937317  0.58426355  1
  Sr  Sr26  1  0.51370513  0.34424214  0.14183671  1
  Sr  Sr27  1  0.48789662  0.33144834  0.63035626  1
  Sr  Sr28  1  0.53779332  0.64647224  0.10818849  1
  Sr  Sr29  1  0.49229871  0.68372809  0.63079554  1
  Sr  Sr30  1  0.85414971  -0.00412972  0.10102470  1
  Sr  Sr31  1  0.82906592  -0.01555679  0.63595423  1
  Sr  Sr32  1  0.83375080  0.32288392  0.09273730  1
  Sr  Sr33  1  0.84563626  0.33673460  0.62771543  1
  Sr  Sr34  1  0.84386704  0.65993291  0.13652118  1
  Sr  Sr35  1  0.86424046  0.65514035  0.63706205  1
  Sr  Sr36  1  0.00981065  0.15028521  0.36444991  1
  Sr  Sr37  1  -0.01772797  0.16937459  0.92692945  1
  Sr  Sr38  1  -0.00447919  0.50764196  0.39306304  1
  Sr  Sr39  1  -0.00360141  0.47485238  0.82986506  1
  Sr  Sr40  1  -0.02270212  0.82283082  0.35470781  1
  Sr  Sr41  1  -0.00049590  0.82982849  0.87964664  1
  Sr  Sr42  1  0.33772403  0.13843870  0.42831032  1
  Sr  Sr43  1  0.32627131  0.17317039  0.86541633  1
  Sr  Sr44  1  0.32382499  0.49153447  0.36791002  1
  Sr  Sr45  1  0.29008630  0.50441066  0.91461722  1
  Sr  Sr46  1  0.31773485  0.83957126  0.32411972  1
  Sr  Sr47  1  0.33367871  0.82770247  0.87616577  1
  Sr  Sr48  1  0.65654615  0.18808304  0.36882404  1
  Sr  Sr49  1  0.67190134  0.17792231  0.83938961  1
  Sr  Sr50  1  0.65961314  0.51662821  0.34133683  1
  Sr  Sr51  1  0.65770271  0.50284675  0.90229490  1
  Sr  Sr52  1  0.66514565  0.85647795  0.39826930  1
  Sr  Sr53  1  0.65337571  0.86889221  0.88054181  1
  Sr  Sr54  1  0.16666383  0.01036057  0.38153779  1
  Sr  Sr55  1  0.17883776  -0.01935845  0.82654510  1
  Sr  Sr56  1  0.14404681  0.33458190  0.32545396  1
  Sr  Sr57  1  0.16827774  0.31668709  0.88678320  1
  Sr  Sr58  1  0.18795618  0.66323432  0.37932879  1
  Sr  Sr59  1  0.18126024  0.67326134  0.91471287  1
  Sr  Sr60  1  0.50892151  0.00303663  0.35973747  1
  Sr  Sr61  1  0.48284226  0.00110623  0.91485931  1
  Sr  Sr62  1  0.49918031  0.33764270  0.36567075  1
  Sr  Sr63  1  0.50694493  0.32356372  0.84932032  1
  Sr  Sr64  1  0.51877168  0.66622040  0.40593055  1
  Sr  Sr65  1  0.51205021  0.67380995  0.84378919  1
  Sr  Sr66  1  0.84555734  -0.00579231  0.38939453  1
  Sr  Sr67  1  0.83580809  -0.00513324  0.87556229  1
  Sr  Sr68  1  0.83586258  0.32307274  0.41357101  1
  Sr  Sr69  1  0.83714615  0.32983143  0.87778777  1
  Sr  Sr70  1  0.85095787  0.65632874  0.35765792  1
  Sr  Sr71  1  0.86844249  0.65453026  0.87027291  1
  Ta  Ta72  1  0.16363233  0.11574449  -0.00608940  1
  Ta  Ta73  1  0.16764780  0.22255298  0.49446501  1
  Ta  Ta74  1  0.10979394  0.49050553  0.00348725  1
  Ta  Ta75  1  0.16391832  0.44413738  0.49781576  1
  Ta  Ta76  1  0.16462373  0.86777022  -0.00093207  1
  Ta  Ta77  1  0.16306173  0.83334942  0.50066344  1
  Ta  Ta78  1  0.52194573  0.18260335  -0.00165118  1
  Ta  Ta79  1  0.51785709  0.17877844  0.49919369  1
  Ta  Ta80  1  0.46775859  0.49398678  -0.01043124  1
  Ta  Ta81  1  0.51639470  0.48943774  0.50112993  1
  Ta  Ta82  1  0.49864989  0.80356146  -0.00920314  1
  Ta  Ta83  1  0.46592077  0.83810296  0.49934358  1
  Ta  Ta84  1  0.78508802  0.15907454  0.00435203  1
  Ta  Ta85  1  0.80943987  0.14843566  0.50326855  1
  Ta  Ta86  1  0.88011324  0.49823778  -0.00069994  1
  Ta  Ta87  1  0.78685232  0.51016631  0.50172737  1
  Ta  Ta88  1  0.81238987  0.80928371  -0.00984954  1
  Ta  Ta89  1  0.84728674  0.81025962  0.50937215  1
  Ta  Ta90  1  0.22706516  0.17013316  0.25539417  1
  Ta  Ta91  1  0.11743506  0.15887732  0.75572243  1
  Ta  Ta92  1  0.15367269  0.51895516  0.25422140  1
  Ta  Ta93  1  0.18289030  0.51960064  0.74337880  1
  Ta  Ta94  1  0.13359315  0.82709377  0.24318164  1
  Ta  Ta95  1  0.16163245  0.78100426  0.75466050  1
  Ta  Ta96  1  0.44519987  0.17323287  0.25006703  1
  Ta  Ta97  1  0.49546404  0.13013814  0.74917488  1
  Ta  Ta98  1  0.48039657  0.52701280  0.24741882  1
  Ta  Ta99  1  0.44310921  0.50354131  0.75728331  1
  Ta  Ta100  1  0.51350101  0.79625738  0.24987532  1
  Ta  Ta101  1  0.49969600  0.88024067  0.74583198  1
  Ta  Ta102  1  0.82445496  0.17529545  0.24257844  1
  Ta  Ta103  1  0.86743165  0.16158310  0.75738977  1
  Ta  Ta104  1  0.83190478  0.45452656  0.25363128  1
  Ta  Ta105  1  0.80041789  0.49726221  0.75986945  1
  Ta  Ta106  1  0.80861094  0.84716714  0.24230557  1
  Ta  Ta107  1  0.80289614  0.81141963  0.76111872  1
  Ta  Ta108  1  -0.00417758  -0.02907611  0.24772660  1
  Ta  Ta109  1  0.00002599  0.03676521  0.75047873  1
  Ta  Ta110  1  -0.04905256  0.32571050  0.24842477  1
  Ta  Ta111  1  -0.00310093  0.27740589  0.75752205  1
  Ta  Ta112  1  0.04050835  0.66740284  0.25168633  1
  Ta  Ta113  1  0.05189911  0.65833485  0.75111339  1
  Ta  Ta114  1  0.33527738  0.02979829  0.24842210  1
  Ta  Ta115  1  0.36750086  0.00358479  0.74900579  1
  Ta  Ta116  1  0.33376275  0.30110829  0.24772233  1
  Ta  Ta117  1  0.33030529  0.38734639  0.75808489  1
  Ta  Ta118  1  0.38077571  0.66283519  0.24917621  1
  Ta  Ta119  1  0.31499965  0.63893924  0.75524005  1
  Ta  Ta120  1  0.70806722  0.00802092  0.25345343  1
  Ta  Ta121  1  0.62353505  0.01024587  0.74383758  1
  Ta  Ta122  1  0.71172749  0.33750083  0.25096293  1
  Ta  Ta123  1  0.68432357  0.36476764  0.75387910  1
  Ta  Ta124  1  0.67098055  0.71153230  0.25061303  1
  Ta  Ta125  1  0.70208365  0.67801685  0.75987229  1
  Ta  Ta126  1  0.04626575  -0.00677937  -0.00115233  1
  Ta  Ta127  1  0.00715197  -0.04677941  0.50275607  1
  Ta  Ta128  1  0.00117123  0.36212832  0.00432436  1
  Ta  Ta129  1  0.02777623  0.32578258  0.50095807  1
  Ta  Ta130  1  0.00934483  0.62414397  0.00913118  1
  Ta  Ta131  1  0.01019829  0.70785006  0.49910688  1
  Ta  Ta132  1  0.29406336  -0.00371379  -0.00274166  1
  Ta  Ta133  1  0.32826667  -0.06321551  0.49120803  1
  Ta  Ta134  1  0.37234362  0.34694925  -0.01044839  1
  Ta  Ta135  1  0.30350737  0.33370796  0.49991305  1
  Ta  Ta136  1  0.38073924  0.66210565  -0.00531589  1
  Ta  Ta137  1  0.33872560  0.73168273  0.49492717  1
  Ta  Ta138  1  0.66149101  0.05233423  0.00103246  1
  Ta  Ta139  1  0.67394187  0.04421479  0.49789917  1
  Ta  Ta140  1  0.65955337  0.29562868  0.00589507  1
  Ta  Ta141  1  0.65520293  0.37514653  0.49524475  1
  Ta  Ta142  1  0.68914364  0.70193249  -0.00871108  1
  Ta  Ta143  1  0.70474553  0.66166625  0.50266770  1
  N  N144  1  0.00114069  -0.00460961  0.62568467  1
  N  N145  1  0.33720708  0.66280422  0.87709921  1
  N  N146  1  0.15787335  0.15540426  0.87572075  1
  N  N147  1  0.16149881  0.49190052  0.37571035  1
  N  N148  1  0.33055659  0.00093091  0.12211865  1
  N  N149  1  0.67251848  0.01412097  0.37089968  1
  N  N150  1  0.00547560  -0.01079771  0.38081071  1
  N  N151  1  0.33122921  -0.00130414  0.86802726  1
  N  N152  1  0.67189185  0.33089225  0.12463973  1
  N  N153  1  -0.00076976  0.32082743  0.87613133  1
  N  N154  1  0.83556177  0.49902785  0.88080736  1
  N  N155  1  0.48580812  0.17023754  0.12504702  1
  N  N156  1  0.16991792  0.82479712  0.87056136  1
  N  N157  1  0.84869229  0.83949707  0.87251772  1
  N  N158  1  0.32791066  0.33489676  0.87117786  1
  N  N159  1  -0.00418781  0.32516282  0.13366920  1
  N  N160  1  0.16584359  0.83092147  0.12400921  1
  N  N161  1  0.82936293  0.16299143  0.87625731  1
  N  N162  1  0.01240808  0.66676909  0.38501317  1
  N  N163  1  0.82663652  0.83438053  0.12058303  1
  N  N164  1  0.49233475  0.17384856  0.62412075  1
  N  N165  1  0.49715124  0.84153669  0.62592887  1
  N  N166  1  0.49739522  0.16620513  0.87249526  1
  N  N167  1  0.48718909  0.17047127  0.37554369  1
  N  N168  1  0.83139631  0.82435351  0.63118918  1
  N  N169  1  0.83810522  0.16179974  0.11967238  1
  N  N170  1  0.67074922  0.34760358  0.37541309  1
  N  N171  1  0.49930323  0.83609967  0.87279284  1
  N  N172  1  0.16689755  0.49046672  0.62233374  1
  N  N173  1  0.00431853  0.65827730  0.13029983  1
  N  N174  1  0.33270270  -0.01412826  0.37553755  1
  N  N175  1  0.00873536  -0.00499676  0.12329503  1
  N  N176  1  0.17912803  0.17733235  0.37542416  1
  O  O177  1  0.82264980  0.83420292  0.38046693  1
  O  O178  1  0.66940313  0.35847674  0.62986630  1
  O  O179  1  0.81546911  0.49985837  0.37589815  1
  O  O180  1  0.15622225  0.49127563  0.12618700  1
  O  O181  1  0.51261009  0.82191553  0.37397319  1
  O  O182  1  0.47275340  0.50187491  0.12321743  1
  O  O183  1  0.34406026  0.32786484  0.11407901  1
  O  O184  1  0.64998129  0.00355605  0.61782867  1
  O  O185  1  0.32777614  0.33079678  0.37634507  1
  O  O186  1  0.35789956  0.66358520  0.12496798  1
  O  O187  1  0.02746727  0.65912009  0.61942468  1
  O  O188  1  -0.00046789  -0.00944025  0.87140960  1
  O  O189  1  0.16350061  0.17592323  0.61734974  1
  O  O190  1  0.50214662  0.50598761  0.86709499  1
  O  O191  1  0.67084324  0.34117810  0.87974805  1
  O  O192  1  0.48436512  0.49533342  0.62603792  1
  O  O193  1  0.50775289  0.81089283  0.12596173  1
  O  O194  1  0.68195680  0.68299021  0.37547767  1
  O  O195  1  0.83755618  0.49411057  0.12388360  1
  O  O196  1  0.16653007  0.82204889  0.62862539  1
  O  O197  1  0.66540267  0.02098841  0.13295903  1
  O  O198  1  0.18359203  0.16009371  0.13081949  1
  O  O199  1  0.32575573  -0.02223898  0.61719469  1
  O  O200  1  0.14605881  0.49406373  0.87638265  1
  O  O201  1  0.16290939  0.83503741  0.37356096  1
  O  O202  1  0.02702457  0.64989325  0.87564615  1
  O  O203  1  0.83017280  0.15793593  0.62945271  1
  O  O204  1  0.82631394  0.16399983  0.38021134  1
  O  O205  1  -0.00443320  0.32473328  0.37494647  1
  O  O206  1  0.80292680  0.50503275  0.62478333  1
  O  O207  1  0.35505843  0.68586106  0.37379965  1
  O  O208  1  0.67861317  0.70475003  0.12519573  1
  O  O209  1  0.66704846  0.65696583  0.87939600  1
  O  O210  1  0.69846593  0.66992845  0.62714199  1
  O  O211  1  0.33339054  0.68150134  0.61658398  1
  O  O212  1  0.00641229  0.32034148  0.62864151  1
  O  O213  1  0.50460680  0.51064591  0.37655476  1
  O  O214  1  0.32164737  0.34387309  0.62967882  1
  O  O215  1  0.64632554  0.02522913  0.86882752  1
