# generated using pymatgen
data_Sr24Ta24N11O13
_symmetry_space_group_name_H-M   'P 1'
_cell_length_a   16.77840176
_cell_length_b   16.80654684
_cell_length_c   15.70179480
_cell_angle_alpha   90.46983181
_cell_angle_beta   90.16441204
_cell_angle_gamma   90.09465901
_symmetry_Int_Tables_number   1
_chemical_formula_structural   Sr24Ta24N11O13
_chemical_formula_sum   'Sr72 Ta72 N33 O39'
_cell_volume   4427.52862428
_cell_formula_units_Z   3
loop_
 _symmetry_equiv_pos_site_id
 _symmetry_equiv_pos_as_xyz
  1  'x, y, z'
loop_
 _atom_site_type_symbol
 _atom_site_label
 _atom_site_symmetry_multiplicity
 _atom_site_fract_x
 _atom_site_fract_y
 _atom_site_fract_z
 _atom_site_occupancy
  Sr  Sr0  1  0.01793173  0.15127377  0.11059549  1
  Sr  Sr1  1  0.01369873  0.16882745  0.62900891  1
  Sr  Sr2  1  -0.01080153  0.48730331  0.12999089  1
  Sr  Sr3  1  0.00918403  0.49404769  0.66202274  1
  Sr  Sr4  1  0.02369482  0.82641254  0.10840229  1
  Sr  Sr5  1  -0.00222428  0.82563598  0.62189359  1
  Sr  Sr6  1  0.34221603  0.14631661  0.10249217  1
  Sr  Sr7  1  0.34857802  0.18231832  0.65060835  1
  Sr  Sr8  1  0.33918961  0.50745089  0.13357375  1
  Sr  Sr9  1  0.31189137  0.50418857  0.56866771  1
  Sr  Sr10  1  0.33350984  0.82977125  0.15319598  1
  Sr  Sr11  1  0.35052540  0.84137487  0.63134167  1
  Sr  Sr12  1  0.68383450  0.17457267  0.15029644  1
  Sr  Sr13  1  0.67975356  0.14936512  0.59582255  1
  Sr  Sr14  1  0.66696415  0.49489696  0.08536484  1
  Sr  Sr15  1  0.64904469  0.50451762  0.63783192  1
  Sr  Sr16  1  0.66245717  0.83440838  0.11672434  1
  Sr  Sr17  1  0.67692319  0.83080350  0.65887169  1
  Sr  Sr18  1  0.17501636  -0.00497678  0.13805937  1
  Sr  Sr19  1  0.13816215  -0.00537581  0.59088429  1
  Sr  Sr20  1  0.15929867  0.36575660  0.17281599  1
  Sr  Sr21  1  0.17159891  0.32130426  0.61302535  1
  Sr  Sr22  1  0.16826117  0.65462459  0.08376748  1
  Sr  Sr23  1  0.14591249  0.68154465  0.64325802  1
  Sr  Sr24  1  0.50950106  -0.00051656  0.07818997  1
  Sr  Sr25  1  0.48300619  0.01866644  0.62259180  1
  Sr  Sr26  1  0.48007233  0.35628767  0.11281404  1
  Sr  Sr27  1  0.49657300  0.33837092  0.65883866  1
  Sr  Sr28  1  0.48804736  0.68427044  0.16906341  1
  Sr  Sr29  1  0.50344268  0.65962484  0.61574573  1
  Sr  Sr30  1  0.80514446  0.00390606  0.16486245  1
  Sr  Sr31  1  0.81925562  0.00344623  0.63834320  1
  Sr  Sr32  1  0.83872589  0.32934318  0.12422787  1
  Sr  Sr33  1  0.81401014  0.34143045  0.60182692  1
  Sr  Sr34  1  0.83180253  0.67464333  0.14140141  1
  Sr  Sr35  1  0.83299141  0.66895114  0.58859678  1
  Sr  Sr36  1  0.03552268  0.15837167  0.39634989  1
  Sr  Sr37  1  0.00255829  0.16067209  0.88001569  1
  Sr  Sr38  1  -0.01291298  0.48310389  0.33094526  1
  Sr  Sr39  1  0.00207136  0.48606104  0.86876821  1
  Sr  Sr40  1  0.01384946  0.82272069  0.39854674  1
  Sr  Sr41  1  0.01023908  0.82601949  0.88326195  1
  Sr  Sr42  1  0.34611475  0.15768733  0.36867701  1
  Sr  Sr43  1  0.33651158  0.17013908  0.87720242  1
  Sr  Sr44  1  0.33803736  0.48635847  0.35687704  1
  Sr  Sr45  1  0.32425489  0.50836033  0.91286818  1
  Sr  Sr46  1  0.34865057  0.83990932  0.36978584  1
  Sr  Sr47  1  0.33734481  0.81354970  0.83841192  1
  Sr  Sr48  1  0.66998725  0.16725576  0.37484034  1
  Sr  Sr49  1  0.68973787  0.15692328  0.87835334  1
  Sr  Sr50  1  0.67861904  0.51919229  0.42377987  1
  Sr  Sr51  1  0.65260462  0.49759776  0.86605611  1
  Sr  Sr52  1  0.68210079  0.82575123  0.33148116  1
  Sr  Sr53  1  0.66645063  0.84136427  0.88438724  1
  Sr  Sr54  1  0.16399705  -0.01375922  0.35508671  1
  Sr  Sr55  1  0.15183489  0.00670150  0.92454503  1
  Sr  Sr56  1  0.17250372  0.33447355  0.38843890  1
  Sr  Sr57  1  0.15570070  0.31432185  0.82769454  1
  Sr  Sr58  1  0.16312456  0.66294371  0.41949806  1
  Sr  Sr59  1  0.15170012  0.66791003  0.86456613  1
  Sr  Sr60  1  0.49794542  0.01604437  0.41532715  1
  Sr  Sr61  1  0.48370003  0.01561466  0.87261363  1
  Sr  Sr62  1  0.49491970  0.32565226  0.33135749  1
  Sr  Sr63  1  0.47820284  0.35481562  0.88526953  1
  Sr  Sr64  1  0.49719266  0.65377859  0.38562942  1
  Sr  Sr65  1  0.51735259  0.67647022  0.83351057  1
  Sr  Sr66  1  0.80747612  0.00512548  0.37134648  1
  Sr  Sr67  1  0.83437279  0.00584809  0.84037818  1
  Sr  Sr68  1  0.82654748  0.33103035  0.37213033  1
  Sr  Sr69  1  0.83065410  0.33787907  0.90381453  1
  Sr  Sr70  1  0.84257681  0.66817074  0.36642513  1
  Sr  Sr71  1  0.82040040  0.70408869  0.93044802  1
  Ta  Ta72  1  0.17292063  0.20198088  0.00605523  1
  Ta  Ta73  1  0.20973280  0.14997877  0.49756678  1
  Ta  Ta74  1  0.15045236  0.46797372  -0.00267176  1
  Ta  Ta75  1  0.11194816  0.49383958  0.49234207  1
  Ta  Ta76  1  0.21166731  0.82603221  -0.00919028  1
  Ta  Ta77  1  0.20263070  0.83559273  0.50397375  1
  Ta  Ta78  1  0.53486720  0.18890147  0.00026744  1
  Ta  Ta79  1  0.50244435  0.20837522  0.49866130  1
  Ta  Ta80  1  0.49523309  0.56183227  0.00622611  1
  Ta  Ta81  1  0.49622249  0.45774248  0.49456669  1
  Ta  Ta82  1  0.47810948  0.80712116  0.00200889  1
  Ta  Ta83  1  0.53080945  0.82925647  0.49456743  1
  Ta  Ta84  1  0.83926019  0.12820382  0.01008449  1
  Ta  Ta85  1  0.86361066  0.15745908  0.49911565  1
  Ta  Ta86  1  0.84384044  0.52105543  0.00159104  1
  Ta  Ta87  1  0.87859001  0.49711881  0.49374578  1
  Ta  Ta88  1  0.83683261  0.88934200  0.00534589  1
  Ta  Ta89  1  0.81841047  0.84942356  0.50351016  1
  Ta  Ta90  1  0.17945615  0.18262838  0.24313964  1
  Ta  Ta91  1  0.16971629  0.11729157  0.75678469  1
  Ta  Ta92  1  0.16461682  0.54783629  0.25913431  1
  Ta  Ta93  1  0.20397868  0.50251703  0.74272006  1
  Ta  Ta94  1  0.16574509  0.78246228  0.25814374  1
  Ta  Ta95  1  0.16531520  0.87624402  0.75176448  1
  Ta  Ta96  1  0.50023609  0.13747855  0.24966662  1
  Ta  Ta97  1  0.54438428  0.17281867  0.74588675  1
  Ta  Ta98  1  0.54448001  0.50432439  0.25210336  1
  Ta  Ta99  1  0.44289244  0.50700594  0.73849006  1
  Ta  Ta100  1  0.50452480  0.87852577  0.24542973  1
  Ta  Ta101  1  0.51393897  0.86263296  0.74951030  1
  Ta  Ta102  1  0.88189116  0.16383920  0.25410360  1
  Ta  Ta103  1  0.83876341  0.20038924  0.74621151  1
  Ta  Ta104  1  0.79072288  0.49890747  0.25050576  1
  Ta  Ta105  1  0.82637508  0.51900741  0.75039098  1
  Ta  Ta106  1  0.87479452  0.84359226  0.24899414  1
  Ta  Ta107  1  0.84234938  0.80726904  0.75296280  1
  Ta  Ta108  1  -0.02050354  -0.00768176  0.24270129  1
  Ta  Ta109  1  0.02378423  -0.00634882  0.75905274  1
  Ta  Ta110  1  0.00175344  0.28782040  0.25440085  1
  Ta  Ta111  1  -0.04041478  0.31921075  0.75231572  1
  Ta  Ta112  1  0.03092702  0.67054940  0.25406842  1
  Ta  Ta113  1  -0.06506978  0.66025351  0.76232361  1
  Ta  Ta114  1  0.38222464  0.00225784  0.24122998  1
  Ta  Ta115  1  0.29026109  -0.00123328  0.75831485  1
  Ta  Ta116  1  0.31961527  0.30303509  0.24351687  1
  Ta  Ta117  1  0.32379864  0.38422483  0.73966233  1
  Ta  Ta118  1  0.28727130  0.66435571  0.25667905  1
  Ta  Ta119  1  0.32441067  0.62307909  0.74529609  1
  Ta  Ta120  1  0.61796458  0.00281611  0.25236031  1
  Ta  Ta121  1  0.63683732  0.00538490  0.75018149  1
  Ta  Ta122  1  0.66531409  0.38482470  0.25269806  1
  Ta  Ta123  1  0.67598046  0.30275895  0.74892480  1
  Ta  Ta124  1  0.66524323  0.62885529  0.25317007  1
  Ta  Ta125  1  0.72618521  0.66353873  0.76062853  1
  Ta  Ta126  1  -0.04083793  -0.00591804  0.00953053  1
  Ta  Ta127  1  -0.03991365  0.00125983  0.50091016  1
  Ta  Ta128  1  0.05016999  0.33155317  0.00274371  1
  Ta  Ta129  1  -0.00830738  0.35560000  0.49609349  1
  Ta  Ta130  1  -0.01565838  0.63327983  -0.00373285  1
  Ta  Ta131  1  -0.00296070  0.61765096  0.49721517  1
  Ta  Ta132  1  0.33186856  -0.04776130  -0.00459143  1
  Ta  Ta133  1  0.31029115  0.00110975  0.50072883  1
  Ta  Ta134  1  0.26612222  0.34071673  0.00079633  1
  Ta  Ta135  1  0.36137462  0.32087498  0.49526591  1
  Ta  Ta136  1  0.35759994  0.69071367  -0.00014504  1
  Ta  Ta137  1  0.33078656  0.69413788  0.50422501  1
  Ta  Ta138  1  0.69662998  0.00921836  0.00254682  1
  Ta  Ta139  1  0.66436113  -0.04894799  0.49975050  1
  Ta  Ta140  1  0.64981202  0.31154651  0.00316954  1
  Ta  Ta141  1  0.62015702  0.33574698  0.49705280  1
  Ta  Ta142  1  0.63283104  0.66888388  0.00006775  1
  Ta  Ta143  1  0.66658842  0.71911460  0.49504996  1
  N  N144  1  0.00060893  0.65584608  0.37282820  1
  N  N145  1  0.66603233  0.00005582  0.87213036  1
  N  N146  1  0.51187775  0.17398911  0.62531338  1
  N  N147  1  0.83305004  0.50086496  0.37762497  1
  N  N148  1  0.17002611  0.16185613  0.87338472  1
  N  N149  1  0.84354619  0.16365417  0.13073660  1
  N  N150  1  -0.00644058  0.65867719  0.87023113  1
  N  N151  1  0.32800645  0.34375810  0.61841748  1
  N  N152  1  0.84064983  0.17308580  0.61867511  1
  N  N153  1  0.50132829  0.83698957  0.12137989  1
  N  N154  1  0.49877627  0.51767489  0.12115056  1
  N  N155  1  0.50825957  0.16902447  0.37176486  1
  N  N156  1  0.00448685  0.32630133  0.37382601  1
  N  N157  1  0.34593269  -0.00970914  0.12234855  1
  N  N158  1  -0.00281269  -0.00245892  0.87926289  1
  N  N159  1  0.65758489  0.00367234  0.12100031  1
  N  N160  1  0.33384326  0.32680950  0.36467072  1
  N  N161  1  0.67377699  0.66903551  0.87716217  1
  N  N162  1  0.17192264  0.82619968  0.87374081  1
  N  N163  1  0.17820482  0.14914478  0.11762818  1
  N  N164  1  0.82781875  0.50319606  0.12185261  1
  N  N165  1  0.66049154  -0.00725902  0.61643602  1
  N  N166  1  0.16989041  0.83809325  0.62969436  1
  N  N167  1  0.17296756  0.82416597  0.37696903  1
  N  N168  1  0.18690737  0.15815739  0.37501398  1
  N  N169  1  0.83746897  0.83461264  0.62682722  1
  N  N170  1  0.01562768  -0.00765851  0.12470069  1
  N  N171  1  0.65432369  -0.00547811  0.37441105  1
  N  N172  1  0.48135520  0.50011527  0.61761915  1
  N  N173  1  0.50137683  0.49646610  0.36987842  1
  N  N174  1  0.67055051  0.67165314  0.37633345  1
  N  N175  1  0.32816689  -0.00110086  0.87891437  1
  N  N176  1  0.15648487  0.49588826  0.37148079  1
  O  O177  1  0.51677376  0.17349688  0.12273277  1
  O  O178  1  0.32548670  -0.00296274  0.62702719  1
  O  O179  1  0.65732065  0.33788879  0.12770244  1
  O  O180  1  0.33946326  -0.00418386  0.37475596  1
  O  O181  1  0.66336920  0.34303001  0.37552221  1
  O  O182  1  0.31694071  0.35194767  0.12263859  1
  O  O183  1  0.51649799  0.17816173  0.87468483  1
  O  O184  1  0.15949567  0.49673851  0.61941992  1
  O  O185  1  0.82153751  0.49240790  0.87234160  1
  O  O186  1  -0.01612254  0.64652233  0.63928633  1
  O  O187  1  -0.01688826  -0.00490036  0.62768702  1
  O  O188  1  0.17905778  0.16055853  0.62571672  1
  O  O189  1  0.85214531  0.83692428  0.37235780  1
  O  O190  1  0.50377663  0.84038525  0.87350862  1
  O  O191  1  0.33581371  0.67803279  0.62865364  1
  O  O192  1  0.68522301  0.68031654  0.61847518  1
  O  O193  1  0.85067083  0.83692509  0.12475729  1
  O  O194  1  0.67405070  0.32016824  0.87416535  1
  O  O195  1  0.17767439  0.80700926  0.11663482  1
  O  O196  1  0.16356395  0.48863432  0.86490986  1
  O  O197  1  -0.02654637  0.33791096  0.62939567  1
  O  O198  1  0.32550764  0.66857979  0.13122484  1
  O  O199  1  0.66528626  0.67026034  0.12709315  1
  O  O200  1  0.83439509  0.85034512  0.87706804  1
  O  O201  1  0.50951448  0.83333707  0.37027500  1
  O  O202  1  0.01190372  0.32729408  0.12645300  1
  O  O203  1  0.47653084  0.51280400  0.88444335  1
  O  O204  1  0.66222682  0.32888151  0.62391258  1
  O  O205  1  0.30617764  0.35206310  0.87856292  1
  O  O206  1  0.00828526  0.65093746  0.12082760  1
  O  O207  1  0.33298646  0.65958676  0.87129251  1
  O  O208  1  0.82759934  0.16917298  0.36949415  1
  O  O209  1  0.51070409  0.84179673  0.62468752  1
  O  O210  1  0.83801604  0.50059492  0.62340843  1
  O  O211  1  0.84158718  0.16306672  0.88169371  1
  O  O212  1  -0.01715917  -0.00495075  0.37873241  1
  O  O213  1  -0.00207625  0.32455079  0.87732014  1
  O  O214  1  0.15494814  0.50717132  0.12774313  1
  O  O215  1  0.33477205  0.67875722  0.37836817  1
