# generated using pymatgen
data_Sr24Ta24N11O13
_symmetry_space_group_name_H-M   'P 1'
_cell_length_a   17.74217685
_cell_length_b   16.51035879
_cell_length_c   15.11740135
_cell_angle_alpha   90.21749097
_cell_angle_beta   89.04489590
_cell_angle_gamma   89.41362616
_symmetry_Int_Tables_number   1
_chemical_formula_structural   Sr24Ta24N11O13
_chemical_formula_sum   'Sr72 Ta72 N33 O39'
_cell_volume   4427.45395357
_cell_formula_units_Z   3
loop_
 _symmetry_equiv_pos_site_id
 _symmetry_equiv_pos_as_xyz
  1  'x, y, z'
loop_
 _atom_site_type_symbol
 _atom_site_label
 _atom_site_symmetry_multiplicity
 _atom_site_fract_x
 _atom_site_fract_y
 _atom_site_fract_z
 _atom_site_occupancy
  Sr  Sr0  1  -0.04033468  0.16413255  0.14016502  1
  Sr  Sr1  1  0.00270960  0.17640008  0.62627745  1
  Sr  Sr2  1  -0.00944213  0.49350920  0.11676288  1
  Sr  Sr3  1  -0.05332380  0.50297336  0.67914387  1
  Sr  Sr4  1  -0.04330436  0.82915674  0.13423394  1
  Sr  Sr5  1  -0.00835764  0.81839228  0.60122789  1
  Sr  Sr6  1  0.33286046  0.16617509  0.14826209  1
  Sr  Sr7  1  0.32636353  0.15978703  0.58295513  1
  Sr  Sr8  1  0.30715851  0.48459038  0.16317441  1
  Sr  Sr9  1  0.33304303  0.49178140  0.62407451  1
  Sr  Sr10  1  0.33821364  0.81839602  0.09841490  1
  Sr  Sr11  1  0.31689436  0.83876960  0.65090304  1
  Sr  Sr12  1  0.65864246  0.16731349  0.10762456  1
  Sr  Sr13  1  0.62374375  0.16211755  0.64234099  1
  Sr  Sr14  1  0.64229080  0.51180734  0.13172783  1
  Sr  Sr15  1  0.65469317  0.49278859  0.60695454  1
  Sr  Sr16  1  0.61726125  0.84083944  0.16266357  1
  Sr  Sr17  1  0.63745216  0.83388050  0.61869989  1
  Sr  Sr18  1  0.21960686  -0.00442411  0.10503333  1
  Sr  Sr19  1  0.17277216  0.00303248  0.65998023  1
  Sr  Sr20  1  0.18259602  0.33228323  0.12219868  1
  Sr  Sr21  1  0.20846019  0.33158715  0.59771249  1
  Sr  Sr22  1  0.21020766  0.67078856  0.16896431  1
  Sr  Sr23  1  0.19313428  0.67812320  0.61956612  1
  Sr  Sr24  1  0.52425855  0.02234522  0.15359743  1
  Sr  Sr25  1  0.48344783  -0.00178617  0.60995839  1
  Sr  Sr26  1  0.53738537  0.33873221  0.11438809  1
  Sr  Sr27  1  0.51292127  0.34891963  0.63821841  1
  Sr  Sr28  1  0.49884697  0.66421821  0.12564257  1
  Sr  Sr29  1  0.52969767  0.66392725  0.57252585  1
  Sr  Sr30  1  0.82994880  0.01510969  0.10744358  1
  Sr  Sr31  1  0.88269179  0.01123584  0.60532966  1
  Sr  Sr32  1  0.86160055  0.34226725  0.13209163  1
  Sr  Sr33  1  0.84380312  0.33949745  0.61172284  1
  Sr  Sr34  1  0.85306851  0.65354219  0.09130253  1
  Sr  Sr35  1  0.83649833  0.67964016  0.66014934  1
  Sr  Sr36  1  -0.01944329  0.17410815  0.38721471  1
  Sr  Sr37  1  -0.00163116  0.15037116  0.84966491  1
  Sr  Sr38  1  -0.02821709  0.49409768  0.36043703  1
  Sr  Sr39  1  0.00041175  0.50334528  0.89511792  1
  Sr  Sr40  1  -0.00950535  0.83456436  0.37856819  1
  Sr  Sr41  1  -0.03462905  0.81532643  0.90718304  1
  Sr  Sr42  1  0.32183972  0.15866742  0.36638123  1
  Sr  Sr43  1  0.29492156  0.16315590  0.93241620  1
  Sr  Sr44  1  0.27775132  0.49340676  0.39549200  1
  Sr  Sr45  1  0.31725292  0.48044122  0.84634225  1
  Sr  Sr46  1  0.27743499  0.81189052  0.34327896  1
  Sr  Sr47  1  0.34308256  0.84607546  0.87520860  1
  Sr  Sr48  1  0.64809514  0.15149333  0.37799577  1
  Sr  Sr49  1  0.65366246  0.15760215  0.87890290  1
  Sr  Sr50  1  0.67385559  0.50763176  0.38331987  1
  Sr  Sr51  1  0.62410296  0.50715609  0.90735107  1
  Sr  Sr52  1  0.65083436  0.84457778  0.38896937  1
  Sr  Sr53  1  0.65549697  0.82771610  0.83602283  1
  Sr  Sr54  1  0.18950437  -0.00153503  0.33087452  1
  Sr  Sr55  1  0.17167259  -0.00581327  0.88026061  1
  Sr  Sr56  1  0.17088068  0.31031648  0.37819046  1
  Sr  Sr57  1  0.17887862  0.33978471  0.89636255  1
  Sr  Sr58  1  0.15410182  0.67013899  0.40671067  1
  Sr  Sr59  1  0.20169929  0.68291480  0.86340236  1
  Sr  Sr60  1  0.50996906  -0.00518812  0.39014819  1
  Sr  Sr61  1  0.52665305  -0.00620651  0.83157982  1
  Sr  Sr62  1  0.55649113  0.35348113  0.36783886  1
  Sr  Sr63  1  0.50476307  0.34107366  0.86343385  1
  Sr  Sr64  1  0.55149123  0.66764382  0.35106041  1
  Sr  Sr65  1  0.49885291  0.67158738  0.90945250  1
  Sr  Sr66  1  0.86278370  0.00643838  0.36331292  1
  Sr  Sr67  1  0.84586614  0.01470310  0.89414054  1
  Sr  Sr68  1  0.85338596  0.33688184  0.38384426  1
  Sr  Sr69  1  0.88856491  0.33033392  0.82729950  1
  Sr  Sr70  1  0.86295561  0.67946575  0.35337856  1
  Sr  Sr71  1  0.81311591  0.66706111  0.87136171  1
  Ta  Ta72  1  0.11729406  0.15932632  0.01397014  1
  Ta  Ta73  1  0.15532217  0.12643808  0.49036199  1
  Ta  Ta74  1  0.17469441  0.53169118  0.00366486  1
  Ta  Ta75  1  0.10547300  0.50090971  0.53599972  1
  Ta  Ta76  1  0.13091871  0.82779639  0.02762342  1
  Ta  Ta77  1  0.16001280  0.87979010  0.49823171  1
  Ta  Ta78  1  0.47547817  0.16826755  0.00117136  1
  Ta  Ta79  1  0.48813802  0.20531455  0.48578831  1
  Ta  Ta80  1  0.44689995  0.49223331  0.01221127  1
  Ta  Ta81  1  0.46148420  0.50235466  0.46516254  1
  Ta  Ta82  1  0.51339332  0.85895066  -0.00800582  1
  Ta  Ta83  1  0.43072198  0.82000276  0.47357275  1
  Ta  Ta84  1  0.82749515  0.20586150  -0.01612362  1
  Ta  Ta85  1  0.79418616  0.16464924  0.51080614  1
  Ta  Ta86  1  0.80871231  0.47475071  -0.03172765  1
  Ta  Ta87  1  0.82973464  0.53307050  0.50366725  1
  Ta  Ta88  1  0.76759729  0.83645771  0.00156691  1
  Ta  Ta89  1  0.80476664  0.84009482  0.50606392  1
  Ta  Ta90  1  0.12993303  0.15922399  0.21682595  1
  Ta  Ta91  1  0.18859758  0.18405881  0.75664392  1
  Ta  Ta92  1  0.12792820  0.50142316  0.26116309  1
  Ta  Ta93  1  0.13513005  0.51043914  0.73414072  1
  Ta  Ta94  1  0.11921235  0.83381159  0.22288707  1
  Ta  Ta95  1  0.11802491  0.82973594  0.75738787  1
  Ta  Ta96  1  0.48914845  0.19876793  0.26446140  1
  Ta  Ta97  1  0.45242884  0.16974371  0.74799702  1
  Ta  Ta98  1  0.46415193  0.49688114  0.26341731  1
  Ta  Ta99  1  0.49451661  0.53989387  0.74081207  1
  Ta  Ta100  1  0.45037051  0.82086866  0.27096536  1
  Ta  Ta101  1  0.48610984  0.78311587  0.73925968  1
  Ta  Ta102  1  0.79506117  0.17669213  0.25118038  1
  Ta  Ta103  1  0.80210356  0.16402793  0.73171625  1
  Ta  Ta104  1  0.80584979  0.50635152  0.24231787  1
  Ta  Ta105  1  0.77160113  0.48794121  0.77337170  1
  Ta  Ta106  1  0.78948086  0.84335668  0.24008507  1
  Ta  Ta107  1  0.83226348  0.87190137  0.75586003  1
  Ta  Ta108  1  0.03787056  -0.00064738  0.22192503  1
  Ta  Ta109  1  0.00278664  -0.04192053  0.76389225  1
  Ta  Ta110  1  0.03289563  0.32983248  0.25229057  1
  Ta  Ta111  1  0.06199758  0.34793085  0.73490240  1
  Ta  Ta112  1  0.03711521  0.66196904  0.24963339  1
  Ta  Ta113  1  0.03474901  0.66941538  0.75422015  1
  Ta  Ta114  1  0.36908252  -0.03320184  0.25278574  1
  Ta  Ta115  1  0.33634459  0.04995619  0.75383598  1
  Ta  Ta116  1  0.38789968  0.33658190  0.28022422  1
  Ta  Ta117  1  0.33368998  0.28221414  0.75241051  1
  Ta  Ta118  1  0.37492594  0.65457354  0.28281053  1
  Ta  Ta119  1  0.37818569  0.65825095  0.74230224  1
  Ta  Ta120  1  0.70015532  0.00114442  0.24817824  1
  Ta  Ta121  1  0.71428102  0.00187440  0.73469122  1
  Ta  Ta122  1  0.70895865  0.33680502  0.24344058  1
  Ta  Ta123  1  0.70278493  0.33377102  0.76318594  1
  Ta  Ta124  1  0.71354531  0.68008631  0.23212338  1
  Ta  Ta125  1  0.63880860  0.64469465  0.75177427  1
  Ta  Ta126  1  0.03232558  -0.00337139  0.02177894  1
  Ta  Ta127  1  0.04826781  0.00322929  0.49408676  1
  Ta  Ta128  1  0.01178566  0.30455145  -0.00514037  1
  Ta  Ta129  1  0.02268710  0.36065044  0.52022772  1
  Ta  Ta130  1  0.06565161  0.66789533  0.02537590  1
  Ta  Ta131  1  -0.01185208  0.62905392  0.51207695  1
  Ta  Ta132  1  0.40238489  0.00552023  0.00018527  1
  Ta  Ta133  1  0.30871733  -0.03007492  0.50031389  1
  Ta  Ta134  1  0.36540211  0.33915873  0.01305291  1
  Ta  Ta135  1  0.38602053  0.33854784  0.47652534  1
  Ta  Ta136  1  0.33174424  0.61695308  0.00746571  1
  Ta  Ta137  1  0.36211166  0.66611318  0.47711075  1
  Ta  Ta138  1  0.66004984  -0.03028454  -0.00699041  1
  Ta  Ta139  1  0.71061967  0.00188438  0.52402594  1
  Ta  Ta140  1  0.71957464  0.33814102  -0.02674766  1
  Ta  Ta141  1  0.68658443  0.30631521  0.51239283  1
  Ta  Ta142  1  0.66788646  0.70325637  0.01027512  1
  Ta  Ta143  1  0.72019436  0.67666819  0.50456220  1
  N  N144  1  0.19923093  0.83396166  0.13231031  1
  N  N145  1  0.53336317  0.51251055  0.36632886  1
  N  N146  1  0.63971182  0.67353686  0.14101253  1
  N  N147  1  0.86087302  0.49745958  0.85196711  1
  N  N148  1  0.49666986  0.82844812  0.86711184  1
  N  N149  1  0.82561206  0.16489596  0.37815941  1
  N  N150  1  0.36517707  -0.00478104  0.12478208  1
  N  N151  1  0.01102722  0.33308784  0.39055599  1
  N  N152  1  0.67014433  0.00587437  0.12167451  1
  N  N153  1  0.15765715  0.16372789  0.87819120  1
  N  N154  1  0.00706812  0.66470304  0.38068488  1
  N  N155  1  0.81770107  0.17682374  0.11405498  1
  N  N156  1  -0.01798526  0.33648822  0.64868422  1
  N  N157  1  0.49268858  0.49965826  0.13114437  1
  N  N158  1  0.49603885  0.17895848  0.12658463  1
  N  N159  1  -0.03515423  -0.01011414  0.12801895  1
  N  N160  1  0.86004917  0.17282778  0.61498175  1
  N  N161  1  0.82535027  0.50977137  0.36939779  1
  N  N162  1  -0.01521045  0.66763368  0.64023968  1
  N  N163  1  0.66547931  0.33102527  0.64046666  1
  N  N164  1  0.48044744  0.17108333  0.61672458  1
  N  N165  1  0.67438165  0.67014100  0.62275985  1
  N  N166  1  0.32832404  0.00372252  0.62629404  1
  N  N167  1  0.48473802  0.13871487  0.37811668  1
  N  N168  1  0.65385465  0.66821799  0.88264055  1
  N  N169  1  0.19377320  0.16655398  0.10856214  1
  N  N170  1  0.84001821  0.16844987  0.85305837  1
  N  N171  1  0.03109392  0.33747025  0.86283062  1
  N  N172  1  0.67891348  -0.00021072  0.85772392  1
  N  N173  1  0.29420151  0.65161249  0.37494173  1
  N  N174  1  0.00527731  -0.01364644  0.89130575  1
  N  N175  1  0.01018718  0.33827502  0.12151391  1
  N  N176  1  0.81644728  0.83131937  0.87434891  1
  O  O177  1  0.48549176  0.51614804  0.60602033  1
  O  O178  1  0.34486771  0.64199614  0.14085561  1
  O  O179  1  0.04432791  0.66581390  0.89604999  1
  O  O180  1  -0.01413083  0.65611104  0.13079782  1
  O  O181  1  0.15566394  0.14786026  0.35684704  1
  O  O182  1  0.84707060  0.83421296  0.62409207  1
  O  O183  1  0.02371510  -0.00308197  0.36079312  1
  O  O184  1  0.35139590  0.00458717  0.87731626  1
  O  O185  1  0.69801417  0.00050038  0.39113244  1
  O  O186  1  0.48320137  0.50848193  0.87232753  1
  O  O187  1  0.33614080  0.65066703  0.61701587  1
  O  O188  1  0.13320151  0.50606434  0.39410008  1
  O  O189  1  0.46585286  0.81992624  0.61099956  1
  O  O190  1  0.48236731  0.81932250  0.12174449  1
  O  O191  1  0.69028038  0.33996723  0.11320532  1
  O  O192  1  0.33797544  0.00890629  0.37704282  1
  O  O193  1  0.63987328  0.32003072  0.88243802  1
  O  O194  1  0.82382464  0.49899863  0.10007085  1
  O  O195  1  0.34961305  0.33045652  0.62606363  1
  O  O196  1  0.19529485  0.51730210  0.61705659  1
  O  O197  1  0.35307181  0.33355387  0.14360090  1
  O  O198  1  0.16685715  0.52125929  0.86928596  1
  O  O199  1  0.80267746  0.84358335  0.37128429  1
  O  O200  1  0.14204367  0.84661492  0.36547372  1
  O  O201  1  0.50737560  0.18190169  0.86701378  1
  O  O202  1  0.17210264  0.15446839  0.61773436  1
  O  O203  1  0.63511128  -0.00682362  0.63018883  1
  O  O204  1  0.34275837  0.32613208  0.87974027  1
  O  O205  1  0.13562409  0.83140368  0.88701297  1
  O  O206  1  0.14343417  0.83328694  0.62197393  1
  O  O207  1  0.02266360  -0.00215217  0.63559205  1
  O  O208  1  0.16236920  0.49662111  0.12879759  1
  O  O209  1  0.34090004  0.63707706  0.87441078  1
  O  O210  1  0.51584825  0.82622038  0.38286969  1
  O  O211  1  0.30875517  0.32119619  0.37706278  1
  O  O212  1  0.69329314  0.67697939  0.36935385  1
  O  O213  1  0.69889113  0.33825264  0.37748167  1
  O  O214  1  0.80547856  0.50482681  0.63405628  1
  O  O215  1  0.82462818  0.85283302  0.11027086  1
