# generated using pymatgen
data_Sr24Ta24N11O13
_symmetry_space_group_name_H-M   'P 1'
_cell_length_a   17.27217960
_cell_length_b   17.29027443
_cell_length_c   14.75689432
_cell_angle_alpha   91.59841937
_cell_angle_beta   91.64196463
_cell_angle_gamma   91.32720264
_symmetry_Int_Tables_number   1
_chemical_formula_structural   Sr24Ta24N11O13
_chemical_formula_sum   'Sr72 Ta72 N33 O39'
_cell_volume   4402.21964108
_cell_formula_units_Z   3
loop_
 _symmetry_equiv_pos_site_id
 _symmetry_equiv_pos_as_xyz
  1  'x, y, z'
loop_
 _atom_site_type_symbol
 _atom_site_label
 _atom_site_symmetry_multiplicity
 _atom_site_fract_x
 _atom_site_fract_y
 _atom_site_fract_z
 _atom_site_occupancy
  Sr  Sr0  1  -0.02147983  0.17953901  0.08865092  1
  Sr  Sr1  1  -0.00808160  0.18870399  0.64141582  1
  Sr  Sr2  1  -0.00908445  0.49624729  0.15071652  1
  Sr  Sr3  1  -0.03316243  0.51484076  0.61103969  1
  Sr  Sr4  1  -0.00066996  0.88836842  0.18611698  1
  Sr  Sr5  1  -0.01191819  0.81069857  0.60952279  1
  Sr  Sr6  1  0.32637094  0.16484423  0.14354559  1
  Sr  Sr7  1  0.26225501  0.21044333  0.60204775  1
  Sr  Sr8  1  0.31309103  0.56822570  0.16473336  1
  Sr  Sr9  1  0.33079027  0.50824317  0.61374214  1
  Sr  Sr10  1  0.31415806  0.84532371  0.11552058  1
  Sr  Sr11  1  0.31992997  0.83266280  0.64287270  1
  Sr  Sr12  1  0.65607401  0.19180123  0.12620419  1
  Sr  Sr13  1  0.67127703  0.17224803  0.59842022  1
  Sr  Sr14  1  0.64411080  0.49347147  0.09720564  1
  Sr  Sr15  1  0.66323278  0.51824398  0.65726956  1
  Sr  Sr16  1  0.67333779  0.87260627  0.12817063  1
  Sr  Sr17  1  0.62748209  0.82801702  0.57505187  1
  Sr  Sr18  1  0.19312426  -0.01060424  0.15014453  1
  Sr  Sr19  1  0.16948783  -0.03785108  0.57455728  1
  Sr  Sr20  1  0.17171948  0.28405916  0.08806241  1
  Sr  Sr21  1  0.17153559  0.37190782  0.65986266  1
  Sr  Sr22  1  0.14952329  0.66414130  0.09557311  1
  Sr  Sr23  1  0.19526808  0.65775092  0.65167655  1
  Sr  Sr24  1  0.50763343  -0.02355946  0.10210593  1
  Sr  Sr25  1  0.49771737  -0.03658113  0.63440289  1
  Sr  Sr26  1  0.48542434  0.29742412  0.12111319  1
  Sr  Sr27  1  0.55370665  0.33455783  0.68271323  1
  Sr  Sr28  1  0.53477806  0.67967391  0.17108109  1
  Sr  Sr29  1  0.51426296  0.64168799  0.59702756  1
  Sr  Sr30  1  0.84233048  0.00695879  0.10183080  1
  Sr  Sr31  1  0.87631006  -0.01377260  0.63766841  1
  Sr  Sr32  1  0.85396722  0.31901528  0.14368739  1
  Sr  Sr33  1  0.84952512  0.31986740  0.60933450  1
  Sr  Sr34  1  0.83274815  0.60970232  0.08040108  1
  Sr  Sr35  1  0.83116920  0.66268571  0.63382802  1
  Sr  Sr36  1  -0.04078071  0.21948272  0.38061863  1
  Sr  Sr37  1  0.00858602  0.14649563  0.86649600  1
  Sr  Sr38  1  -0.01325683  0.49023042  0.36864379  1
  Sr  Sr39  1  -0.00790331  0.56168539  0.94058068  1
  Sr  Sr40  1  -0.00240211  0.83598350  0.39417744  1
  Sr  Sr41  1  -0.03357756  0.84298235  0.85293449  1
  Sr  Sr42  1  0.33997667  0.18393753  0.36979421  1
  Sr  Sr43  1  0.32302749  0.19511874  0.88993134  1
  Sr  Sr44  1  0.33053086  0.48251254  0.39111436  1
  Sr  Sr45  1  0.29892445  0.51549766  0.85972679  1
  Sr  Sr46  1  0.30923483  0.90185614  0.42323567  1
  Sr  Sr47  1  0.34688044  0.84399261  0.87505139  1
  Sr  Sr48  1  0.66005941  0.19288040  0.38106178  1
  Sr  Sr49  1  0.61679130  0.17183262  0.81805616  1
  Sr  Sr50  1  0.62922644  0.50432028  0.35592602  1
  Sr  Sr51  1  0.66904962  0.51785419  0.88087010  1
  Sr  Sr52  1  0.65426276  0.82331359  0.34395798  1
  Sr  Sr53  1  0.65319327  0.86376053  0.88688386  1
  Sr  Sr54  1  0.15330904  -0.00386363  0.35463575  1
  Sr  Sr55  1  0.19147574  -0.03552860  0.87898392  1
  Sr  Sr56  1  0.20461000  0.32949786  0.40897402  1
  Sr  Sr57  1  0.17313986  0.30844793  0.86187529  1
  Sr  Sr58  1  0.17173204  0.61446298  0.32362046  1
  Sr  Sr59  1  0.20034354  0.68891616  0.88829053  1
  Sr  Sr60  1  0.53538594  0.00520103  0.42803856  1
  Sr  Sr61  1  0.49543283  -0.00977266  0.84919258  1
  Sr  Sr62  1  0.50138707  0.31413074  0.35720679  1
  Sr  Sr63  1  0.50180476  0.33660121  0.90453536  1
  Sr  Sr64  1  0.48887821  0.62850167  0.37277048  1
  Sr  Sr65  1  0.52781617  0.64842711  0.88759157  1
  Sr  Sr66  1  0.83422667  -0.04371509  0.32945212  1
  Sr  Sr67  1  0.84153847  -0.01058207  0.87835127  1
  Sr  Sr68  1  0.82208887  0.33657137  0.38281347  1
  Sr  Sr69  1  0.88448398  0.28574055  0.85786181  1
  Sr  Sr70  1  0.87481036  0.65588703  0.39420267  1
  Sr  Sr71  1  0.83120963  0.67040408  0.85869941  1
  Ta  Ta72  1  0.16897135  0.11185413  0.00276391  1
  Ta  Ta73  1  0.10815164  0.15406997  0.46613180  1
  Ta  Ta74  1  0.16483387  0.46993051  0.01657228  1
  Ta  Ta75  1  0.14215630  0.50681988  0.50652081  1
  Ta  Ta76  1  0.11117884  0.83954007  0.02141401  1
  Ta  Ta77  1  0.17326353  0.77191151  0.47906867  1
  Ta  Ta78  1  0.49030783  0.13754655  -0.01884491  1
  Ta  Ta79  1  0.48405392  0.18209336  0.53079277  1
  Ta  Ta80  1  0.45252217  0.50947931  0.01290382  1
  Ta  Ta81  1  0.50668668  0.45382063  0.51218038  1
  Ta  Ta82  1  0.50105312  0.80040143  0.01263584  1
  Ta  Ta83  1  0.45033540  0.79659536  0.47227309  1
  Ta  Ta84  1  0.78645803  0.16534262  -0.02909881  1
  Ta  Ta85  1  0.83362229  0.11910800  0.48941253  1
  Ta  Ta86  1  0.84029489  0.43581528  -0.02793923  1
  Ta  Ta87  1  0.78394668  0.50440574  0.49220866  1
  Ta  Ta88  1  0.82653627  0.81254336  0.01118208  1
  Ta  Ta89  1  0.80468985  0.82418811  0.48706053  1
  Ta  Ta90  1  0.12496067  0.17415441  0.26660120  1
  Ta  Ta91  1  0.15957581  0.10589027  0.73299533  1
  Ta  Ta92  1  0.17581274  0.43921013  0.22654653  1
  Ta  Ta93  1  0.11299130  0.52073746  0.78816233  1
  Ta  Ta94  1  0.17168045  0.79978211  0.27326967  1
  Ta  Ta95  1  0.13434344  0.82728518  0.74151365  1
  Ta  Ta96  1  0.50845019  0.11749981  0.25641954  1
  Ta  Ta97  1  0.43466874  0.16955519  0.71759835  1
  Ta  Ta98  1  0.46714784  0.46562182  0.23244919  1
  Ta  Ta99  1  0.47107129  0.49777166  0.76663775  1
  Ta  Ta100  1  0.46337330  0.85312064  0.28196664  1
  Ta  Ta101  1  0.49909598  0.78763676  0.73867866  1
  Ta  Ta102  1  0.81404161  0.13917396  0.25774803  1
  Ta  Ta103  1  0.80097499  0.14441426  0.74922409  1
  Ta  Ta104  1  0.79733000  0.49634011  0.25688873  1
  Ta  Ta105  1  0.84416778  0.47378859  0.77775826  1
  Ta  Ta106  1  0.83792229  0.77398774  0.22226083  1
  Ta  Ta107  1  0.78260032  0.83765783  0.74019641  1
  Ta  Ta108  1  -0.00898171  0.06954834  0.26502069  1
  Ta  Ta109  1  0.04523814  -0.01228066  0.73343030  1
  Ta  Ta110  1  0.05341071  0.32472350  0.24138786  1
  Ta  Ta111  1  0.00338170  0.39999742  0.78047836  1
  Ta  Ta112  1  -0.00523167  0.69209592  0.22315742  1
  Ta  Ta113  1  0.02599352  0.66964870  0.75995210  1
  Ta  Ta114  1  0.38431323  0.00830331  0.26553953  1
  Ta  Ta115  1  0.31863730  0.03630089  0.73181934  1
  Ta  Ta116  1  0.32118644  0.38381225  0.19088342  1
  Ta  Ta117  1  0.36615491  0.34457328  0.74704945  1
  Ta  Ta118  1  0.33875965  0.73829163  0.29735375  1
  Ta  Ta119  1  0.37954599  0.66561735  0.74923451  1
  Ta  Ta120  1  0.66143838  0.03367931  0.24988762  1
  Ta  Ta121  1  0.69353702  -0.00676502  0.71783747  1
  Ta  Ta122  1  0.67692315  0.35963119  0.24341470  1
  Ta  Ta123  1  0.72836803  0.34109009  0.76954713  1
  Ta  Ta124  1  0.71650817  0.65177518  0.25840377  1
  Ta  Ta125  1  0.66127980  0.70929480  0.74243539  1
  Ta  Ta126  1  0.03390632  -0.00316581  0.01024103  1
  Ta  Ta127  1  -0.01178658  0.03191766  0.46273759  1
  Ta  Ta128  1  0.01656083  0.37169049  -0.01241115  1
  Ta  Ta129  1  0.03625725  0.35136982  0.51839006  1
  Ta  Ta130  1  -0.02497510  0.73898359  0.03353665  1
  Ta  Ta131  1  0.05649404  0.64912120  0.48673444  1
  Ta  Ta132  1  0.34526788  0.02897972  -0.01015881  1
  Ta  Ta133  1  0.36377938  0.06479410  0.54341878  1
  Ta  Ta134  1  0.32727016  0.38878437  0.00305443  1
  Ta  Ta135  1  0.40087697  0.32694432  0.55157080  1
  Ta  Ta136  1  0.38115673  0.68211947  0.01798106  1
  Ta  Ta137  1  0.31829187  0.68476202  0.47776362  1
  Ta  Ta138  1  0.66048051  0.04908124  -0.02950600  1
  Ta  Ta139  1  0.72013196  -0.01326408  0.51023642  1
  Ta  Ta140  1  0.71225470  0.32379834  -0.03125304  1
  Ta  Ta141  1  0.66447552  0.37042574  0.50848713  1
  Ta  Ta142  1  0.67976906  0.70690394  0.00658849  1
  Ta  Ta143  1  0.69209710  0.66055683  0.47780790  1
  N  N144  1  0.47214032  0.16209477  0.85309229  1
  N  N145  1  0.63707720  0.00122362  0.59539549  1
  N  N146  1  0.00910715  0.33139575  0.10921688  1
  N  N147  1  0.00864615  0.35681924  0.64543882  1
  N  N148  1  0.85762916  0.13860884  0.87440784  1
  N  N149  1  0.50764944  0.49733946  0.63994229  1
  N  N150  1  0.66930394  0.67129666  0.61294759  1
  N  N151  1  0.83319851  0.81012669  0.36083947  1
  N  N152  1  0.15982478  0.81250514  0.61522534  1
  N  N153  1  -0.00349816  0.02809200  0.12914148  1
  N  N154  1  0.80996584  0.18243095  0.38327636  1
  N  N155  1  0.33317238  -0.02528389  0.61336979  1
  N  N156  1  0.47993483  0.47155871  0.36500664  1
  N  N157  1  0.83908268  0.15560093  0.62578536  1
  N  N158  1  0.15968126  0.83847082  0.15098511  1
  N  N159  1  0.52185994  0.85839368  0.40046508  1
  N  N160  1  0.84111582  0.49337421  0.38144356  1
  N  N161  1  0.48024797  0.80831197  0.60575507  1
  N  N162  1  0.15451971  0.85721253  0.39645061  1
  N  N163  1  0.31126770  0.35668486  0.63044613  1
  N  N164  1  0.33925546  -0.00064774  0.86036988  1
  N  N165  1  0.65045567  0.01081512  0.84334420  1
  N  N166  1  0.32780212  0.34921447  0.88016115  1
  N  N167  1  0.67547897  0.67617243  0.87978629  1
  N  N168  1  0.50947757  0.49604833  0.90310949  1
  N  N169  1  0.81452514  0.83451695  0.87822522  1
  N  N170  1  0.63852149  0.66455858  0.35109346  1
  N  N171  1  0.82938498  0.52911097  0.89650172  1
  N  N172  1  -0.00538069  0.63993307  0.10313423  1
  N  N173  1  -0.00389022  -0.02401730  0.34341322  1
  N  N174  1  0.69674452  0.33867820  0.64041415  1
  N  N175  1  0.15683390  0.54197592  0.91818277  1
  N  N176  1  0.66414218  0.33994409  0.37054607  1
  O  O177  1  0.33316510  0.29599742  0.08807710  1
  O  O178  1  0.50055080  0.16631473  0.38686866  1
  O  O179  1  0.36951655  0.03383124  0.40130529  1
  O  O180  1  0.17467062  0.47540659  0.37568496  1
  O  O181  1  0.50459335  0.15065099  0.12620827  1
  O  O182  1  0.67606729  -0.00724437  0.37323632  1
  O  O183  1  0.84174153  0.81700611  0.62719893  1
  O  O184  1  0.82037200  0.86969059  0.15043409  1
  O  O185  1  0.03451845  0.65970468  0.62621906  1
  O  O186  1  0.35825030  0.67270407  0.88111834  1
  O  O187  1  0.19820352  0.18140518  0.37680043  1
  O  O188  1  0.02929832  0.30781482  0.86093857  1
  O  O189  1  0.35555638  0.00397442  0.13085924  1
  O  O190  1  0.17159790  0.14126746  0.13758828  1
  O  O191  1  0.13763654  0.82575054  0.88815005  1
  O  O192  1  0.01792995  -0.01096858  0.59711242  1
  O  O193  1  0.02131152  0.64265173  0.34958667  1
  O  O194  1  0.51145469  0.53761231  0.14030786  1
  O  O195  1  0.50057084  0.82902758  0.14816118  1
  O  O196  1  0.36036065  0.70312716  0.15150447  1
  O  O197  1  0.65776132  0.02789355  0.11273818  1
  O  O198  1  0.54016986  0.18079208  0.66090151  1
  O  O199  1  0.63674322  0.33236268  0.85305609  1
  O  O200  1  -0.01255909  0.69881816  0.88560958  1
  O  O201  1  0.16103372  0.53219242  0.14745991  1
  O  O202  1  0.50040579  0.81687382  0.88028549  1
  O  O203  1  0.02978568  0.34954520  0.37422550  1
  O  O204  1  0.68983323  0.33831734  0.10137109  1
  O  O205  1  0.16616240  0.12578907  0.87026781  1
  O  O206  1  0.84155117  0.47010091  0.12582271  1
  O  O207  1  0.13464460  0.13348122  0.59610419  1
  O  O208  1  0.14321854  0.51555929  0.64570050  1
  O  O209  1  0.67245892  0.64074190  0.11932208  1
  O  O210  1  0.81969953  0.51186672  0.62994605  1
  O  O211  1  0.80971914  0.16025618  0.11809791  1
  O  O212  1  0.32332922  0.62749824  0.34928860  1
  O  O213  1  0.34507354  0.66028024  0.61429157  1
  O  O214  1  0.01759291  -0.00834519  0.86559321  1
  O  O215  1  0.34524842  0.32080006  0.43596458  1
