# generated using pymatgen
data_Sr24Ta24N11O13
_symmetry_space_group_name_H-M   'P 1'
_cell_length_a   16.70573706
_cell_length_b   16.89812257
_cell_length_c   15.72150041
_cell_angle_alpha   90.15267134
_cell_angle_beta   89.93822898
_cell_angle_gamma   90.04830183
_symmetry_Int_Tables_number   1
_chemical_formula_structural   Sr24Ta24N11O13
_chemical_formula_sum   'Sr72 Ta72 N33 O39'
_cell_volume   4438.09036811
_cell_formula_units_Z   3
loop_
 _symmetry_equiv_pos_site_id
 _symmetry_equiv_pos_as_xyz
  1  'x, y, z'
loop_
 _atom_site_type_symbol
 _atom_site_label
 _atom_site_symmetry_multiplicity
 _atom_site_fract_x
 _atom_site_fract_y
 _atom_site_fract_z
 _atom_site_occupancy
  Sr  Sr0  1  -0.01442410  0.15285715  0.13828162  1
  Sr  Sr1  1  -0.00957970  0.13717799  0.62069699  1
  Sr  Sr2  1  0.00452231  0.47407611  0.09733707  1
  Sr  Sr3  1  -0.00186788  0.48539311  0.65202604  1
  Sr  Sr4  1  0.01499087  0.82573790  0.13594653  1
  Sr  Sr5  1  -0.01103176  0.81424121  0.59300424  1
  Sr  Sr6  1  0.33694993  0.16479952  0.11417046  1
  Sr  Sr7  1  0.32011706  0.14654612  0.63921724  1
  Sr  Sr8  1  0.33726156  0.51340056  0.16954922  1
  Sr  Sr9  1  0.33509498  0.48967069  0.61297057  1
  Sr  Sr10  1  0.34172696  0.79779891  0.08001262  1
  Sr  Sr11  1  0.33781567  0.83244014  0.62446690  1
  Sr  Sr12  1  0.66670216  0.16590671  0.16028115  1
  Sr  Sr13  1  0.65483184  0.15570335  0.62321483  1
  Sr  Sr14  1  0.68126970  0.47947431  0.11961296  1
  Sr  Sr15  1  0.67126197  0.49675729  0.59075984  1
  Sr  Sr16  1  0.66610245  0.83576246  0.11942245  1
  Sr  Sr17  1  0.67055342  0.81315291  0.66188173  1
  Sr  Sr18  1  0.17803541  0.02102136  0.13403796  1
  Sr  Sr19  1  0.16984459  0.00245329  0.65600839  1
  Sr  Sr20  1  0.17951308  0.33868739  0.09444658  1
  Sr  Sr21  1  0.16413101  0.34590286  0.62432880  1
  Sr  Sr22  1  0.16607750  0.66638171  0.13017482  1
  Sr  Sr23  1  0.16904751  0.69633323  0.58498432  1
  Sr  Sr24  1  0.50238452  0.02774912  0.15120311  1
  Sr  Sr25  1  0.48885686  0.00817867  0.59394876  1
  Sr  Sr26  1  0.48837792  0.35057252  0.10466671  1
  Sr  Sr27  1  0.50511596  0.35249792  0.62615400  1
  Sr  Sr28  1  0.52174362  0.67277031  0.11353836  1
  Sr  Sr29  1  0.48629220  0.68387669  0.65865242  1
  Sr  Sr30  1  0.83894737  -0.00904729  0.07973720  1
  Sr  Sr31  1  0.81589010  0.01225248  0.63453569  1
  Sr  Sr32  1  0.83798063  0.32447510  0.13239067  1
  Sr  Sr33  1  0.83476488  0.35333178  0.63103797  1
  Sr  Sr34  1  0.84086605  0.69705400  0.16930121  1
  Sr  Sr35  1  0.83727991  0.67303075  0.62319251  1
  Sr  Sr36  1  0.00027135  0.15641301  0.37091789  1
  Sr  Sr37  1  -0.02273503  0.13294569  0.86733653  1
  Sr  Sr38  1  -0.00142274  0.46676343  0.37955502  1
  Sr  Sr39  1  -0.00343374  0.49993797  0.87069472  1
  Sr  Sr40  1  -0.00058953  0.82030331  0.36898492  1
  Sr  Sr41  1  0.00513630  0.82216587  0.89495308  1
  Sr  Sr42  1  0.33297216  0.13861120  0.34656950  1
  Sr  Sr43  1  0.32504023  0.17215268  0.90072295  1
  Sr  Sr44  1  0.32835939  0.49921029  0.37738457  1
  Sr  Sr45  1  0.35684257  0.50108884  0.81796449  1
  Sr  Sr46  1  0.34752079  0.83026178  0.41341001  1
  Sr  Sr47  1  0.33358554  0.82301902  0.86654404  1
  Sr  Sr48  1  0.65494331  0.14682239  0.38536840  1
  Sr  Sr49  1  0.66044776  0.17010548  0.84095275  1
  Sr  Sr50  1  0.68062364  0.49069831  0.38698462  1
  Sr  Sr51  1  0.65508851  0.49344927  0.91717833  1
  Sr  Sr52  1  0.65933102  0.81456350  0.33511227  1
  Sr  Sr53  1  0.66968599  0.83060147  0.88296944  1
  Sr  Sr54  1  0.15866020  0.00945380  0.33456785  1
  Sr  Sr55  1  0.17964343  0.01210587  0.86252450  1
  Sr  Sr56  1  0.16717637  0.33906939  0.40565043  1
  Sr  Sr57  1  0.16701204  0.35581911  0.86626184  1
  Sr  Sr58  1  0.16977739  0.67022640  0.36389928  1
  Sr  Sr59  1  0.16035573  0.68659092  0.91508580  1
  Sr  Sr60  1  0.49730881  -0.00326934  0.37607871  1
  Sr  Sr61  1  0.49156724  0.03270061  0.87952837  1
  Sr  Sr62  1  0.48989215  0.36627218  0.40503281  1
  Sr  Sr63  1  0.49914805  0.34425727  0.87684653  1
  Sr  Sr64  1  0.50467934  0.67405096  0.35182660  1
  Sr  Sr65  1  0.50134076  0.68834279  0.88162673  1
  Sr  Sr66  1  0.85067372  0.00575910  0.42518268  1
  Sr  Sr67  1  0.81457185  0.00934555  0.86656138  1
  Sr  Sr68  1  0.83269770  0.32793403  0.34678758  1
  Sr  Sr69  1  0.83648652  0.35230870  0.89439703  1
  Sr  Sr70  1  0.83478725  0.67858123  0.38451046  1
  Sr  Sr71  1  0.85056267  0.67315898  0.83572776  1
  Ta  Ta72  1  0.12838300  0.16598954  0.00167050  1
  Ta  Ta73  1  0.17379754  0.14769799  0.49537317  1
  Ta  Ta74  1  0.20243199  0.50967660  -0.00400456  1
  Ta  Ta75  1  0.15212346  0.52139793  0.50006307  1
  Ta  Ta76  1  0.17463926  0.87436654  0.00255553  1
  Ta  Ta77  1  0.16782294  0.87294610  0.49088844  1
  Ta  Ta78  1  0.53412837  0.17766165  0.00546955  1
  Ta  Ta79  1  0.47396524  0.19099482  0.49937064  1
  Ta  Ta80  1  0.46265757  0.51268952  -0.00139607  1
  Ta  Ta81  1  0.50193733  0.55025962  0.50301308  1
  Ta  Ta82  1  0.50103650  0.88493496  -0.00400454  1
  Ta  Ta83  1  0.53487786  0.82177652  0.50312188  1
  Ta  Ta84  1  0.79799075  0.17394006  0.00036592  1
  Ta  Ta85  1  0.82639267  0.19955144  0.50410867  1
  Ta  Ta86  1  0.83617087  0.54858988  0.00036102  1
  Ta  Ta87  1  0.85658810  0.50736566  0.50341218  1
  Ta  Ta88  1  0.83932736  0.79950014  0.00407727  1
  Ta  Ta89  1  0.78809298  0.83538515  0.49836834  1
  Ta  Ta90  1  0.16890904  0.21262928  0.24203562  1
  Ta  Ta91  1  0.15067647  0.19062770  0.75166288  1
  Ta  Ta92  1  0.14729695  0.47954409  0.25207483  1
  Ta  Ta93  1  0.16722431  0.55364397  0.74668968  1
  Ta  Ta94  1  0.21318747  0.83580764  0.24074781  1
  Ta  Ta95  1  0.15143867  0.82155690  0.75332000  1
  Ta  Ta96  1  0.49185257  0.22479748  0.24949552  1
  Ta  Ta97  1  0.47396801  0.18477109  0.75597528  1
  Ta  Ta98  1  0.52861684  0.49740210  0.25486909  1
  Ta  Ta99  1  0.55208477  0.50890424  0.74539776  1
  Ta  Ta100  1  0.46711324  0.83775811  0.24801150  1
  Ta  Ta101  1  0.50059027  0.87605365  0.75089740  1
  Ta  Ta102  1  0.83010056  0.11439892  0.25070297  1
  Ta  Ta103  1  0.83353147  0.20317239  0.74852670  1
  Ta  Ta104  1  0.84542071  0.51900080  0.24547402  1
  Ta  Ta105  1  0.78264724  0.50421446  0.75991697  1
  Ta  Ta106  1  0.83385869  0.88073693  0.25486383  1
  Ta  Ta107  1  0.85970578  0.85333884  0.74523257  1
  Ta  Ta108  1  -0.03794750  -0.00941217  0.25415561  1
  Ta  Ta109  1  -0.00310215  -0.04516605  0.74682383  1
  Ta  Ta110  1  0.03969282  0.32532665  0.24903594  1
  Ta  Ta111  1  0.00062503  0.29219115  0.74841048  1
  Ta  Ta112  1  0.00067723  0.61206560  0.24899080  1
  Ta  Ta113  1  0.04025895  0.67168644  0.74792273  1
  Ta  Ta114  1  0.33685382  -0.04900344  0.24732822  1
  Ta  Ta115  1  0.35789419  -0.00924407  0.74936712  1
  Ta  Ta116  1  0.32377592  0.32220383  0.24746923  1
  Ta  Ta117  1  0.33334648  0.30695269  0.75552024  1
  Ta  Ta118  1  0.33690048  0.70475587  0.25360150  1
  Ta  Ta119  1  0.28559274  0.66981161  0.74715544  1
  Ta  Ta120  1  0.71124387  -0.00634960  0.25450786  1
  Ta  Ta121  1  0.63397334  -0.01270886  0.74391248  1
  Ta  Ta122  1  0.62734749  0.33780572  0.25699802  1
  Ta  Ta123  1  0.67350186  0.35911315  0.74928725  1
  Ta  Ta124  1  0.67690993  0.62487907  0.24892280  1
  Ta  Ta125  1  0.66947102  0.63048249  0.75633980  1
  Ta  Ta126  1  0.03173677  -0.00687225  0.00310838  1
  Ta  Ta127  1  0.04812307  -0.00872832  0.49415459  1
  Ta  Ta128  1  0.00485009  0.28868644  -0.00039175  1
  Ta  Ta129  1  -0.02434849  0.30982676  0.49670792  1
  Ta  Ta130  1  -0.03474568  0.65906749  0.00026948  1
  Ta  Ta131  1  0.00086130  0.62034239  0.50592335  1
  Ta  Ta132  1  0.33804344  -0.02109625  -0.00003225  1
  Ta  Ta133  1  0.29285558  0.00403215  0.49580289  1
  Ta  Ta134  1  0.33344164  0.40317932  -0.01001153  1
  Ta  Ta135  1  0.33269463  0.28402107  0.50083167  1
  Ta  Ta136  1  0.33413729  0.61423742  -0.01225634  1
  Ta  Ta137  1  0.35347361  0.65291534  0.50059569  1
  Ta  Ta138  1  0.64902529  0.02788766  0.00212653  1
  Ta  Ta139  1  0.66345139  -0.05037184  0.50071531  1
  Ta  Ta140  1  0.66541200  0.29667831  0.00311168  1
  Ta  Ta141  1  0.68329243  0.31049551  0.50444186  1
  Ta  Ta142  1  0.71545140  0.66663877  0.00651510  1
  Ta  Ta143  1  0.65411257  0.68073705  0.49660280  1
  N  N144  1  0.17705092  0.82733773  0.11766159  1
  N  N145  1  0.50615228  0.51409178  0.37536591  1
  N  N146  1  0.16665058  0.49982335  0.37698000  1
  N  N147  1  0.00213558  -0.00912750  0.37618285  1
  N  N148  1  0.65892667  -0.00856033  0.62419269  1
  N  N149  1  0.50075375  0.83731037  0.62164513  1
  N  N150  1  0.82967626  0.83656177  0.62634814  1
  N  N151  1  0.83892838  0.84114699  0.12020478  1
  N  N152  1  0.49585400  0.18655918  0.87834441  1
  N  N153  1  0.33261171  0.00026647  0.87869655  1
  N  N154  1  0.32518211  0.66911885  0.62403174  1
  N  N155  1  0.32950920  0.65953487  0.87078628  1
  N  N156  1  0.82566225  0.15233875  0.12629619  1
  N  N157  1  0.32934597  0.34761762  0.87071659  1
  N  N158  1  0.82873593  0.83896316  0.37950019  1
  N  N159  1  0.00215229  0.66054943  0.87973619  1
  N  N160  1  0.50040417  0.83681215  0.36974483  1
  N  N161  1  0.67978257  0.66555606  0.13080438  1
  N  N162  1  0.67428538  0.66034540  0.37692607  1
  N  N163  1  0.33247095  0.66786258  0.36988761  1
  N  N164  1  0.32739421  -0.00627656  0.62377749  1
  N  N165  1  0.32916314  -0.01335230  0.37338774  1
  N  N166  1  0.82627555  0.51039678  0.87836340  1
  N  N167  1  0.82261604  0.17066476  0.87241913  1
  N  N168  1  0.00084378  0.31369661  0.37527848  1
  N  N169  1  0.16924553  0.84101240  0.87316919  1
  N  N170  1  0.66385426  0.33287074  0.62640271  1
  N  N171  1  0.00138291  0.65726595  0.62860239  1
  N  N172  1  0.16751991  0.17428879  0.12278867  1
  N  N173  1  0.49616566  0.18513571  0.12936825  1
  N  N174  1  0.50538764  0.84528148  0.88092502  1
  N  N175  1  0.82289836  0.16822048  0.62523195  1
  N  N176  1  0.50992510  0.51309161  0.62656222  1
  O  O177  1  0.84130300  0.49121476  0.12245223  1
  O  O178  1  0.67034490  0.00846428  0.12686500  1
  O  O179  1  0.00296460  0.63621387  0.37111852  1
  O  O180  1  0.49350695  0.50823297  0.12635331  1
  O  O181  1  0.66877187  0.65452552  0.88598209  1
  O  O182  1  0.01299453  -0.01925683  0.87653877  1
  O  O183  1  0.33951316  0.01118044  0.13412909  1
  O  O184  1  -0.00605274  0.30078834  0.87782508  1
  O  O185  1  0.16349931  0.17754286  0.87573275  1
  O  O186  1  0.16754325  0.85032411  0.36251065  1
  O  O187  1  0.82925311  0.15697995  0.37406942  1
  O  O188  1  0.66411453  -0.01090976  0.37491879  1
  O  O189  1  0.50743912  0.50704678  0.86927198  1
  O  O190  1  0.18085966  0.50037964  0.12865407  1
  O  O191  1  0.67339364  0.65669113  0.63019401  1
  O  O192  1  0.15925110  0.16555281  0.62584412  1
  O  O193  1  0.17133563  0.16760410  0.36988848  1
  O  O194  1  0.00999105  0.63202810  0.12255969  1
  O  O195  1  0.66638170  0.32488128  0.87921829  1
  O  O196  1  0.65636946  0.32377051  0.13326569  1
  O  O197  1  0.64625866  0.33584184  0.38600629  1
  O  O198  1  0.32571502  0.65715850  0.12970314  1
  O  O199  1  0.82885962  0.50829449  0.62902546  1
  O  O200  1  0.65756726  0.01515094  0.87505589  1
  O  O201  1  0.00561544  -0.00698335  0.12741294  1
  O  O202  1  0.31932578  0.30654681  0.62213245  1
  O  O203  1  0.83613720  0.82755094  0.87245127  1
  O  O204  1  0.16728134  0.84882943  0.61929967  1
  O  O205  1  0.17258253  0.50094842  0.62725325  1
  O  O206  1  0.17149853  0.51483229  0.87077696  1
  O  O207  1  0.50598099  0.84331830  0.11869999  1
  O  O208  1  0.01108741  -0.02585407  0.62130897  1
  O  O209  1  0.84181435  0.50651015  0.37728354  1
  O  O210  1  0.32501121  0.31028167  0.37260438  1
  O  O211  1  0.33111350  0.35949559  0.12518807  1
  O  O212  1  0.00593445  0.31637386  0.62377136  1
  O  O213  1  -0.00100867  0.31736363  0.12674812  1
  O  O214  1  0.49276707  0.18188036  0.62246937  1
  O  O215  1  0.48981135  0.18241085  0.37152297  1
