# generated using pymatgen
data_Sr24Ta24N11O13
_symmetry_space_group_name_H-M   'P 1'
_cell_length_a   16.90872258
_cell_length_b   16.81468818
_cell_length_c   15.69985318
_cell_angle_alpha   89.96090663
_cell_angle_beta   89.96332088
_cell_angle_gamma   89.77184081
_symmetry_Int_Tables_number   1
_chemical_formula_structural   Sr24Ta24N11O13
_chemical_formula_sum   'Sr72 Ta72 N33 O39'
_cell_volume   4463.66481482
_cell_formula_units_Z   3
loop_
 _symmetry_equiv_pos_site_id
 _symmetry_equiv_pos_as_xyz
  1  'x, y, z'
loop_
 _atom_site_type_symbol
 _atom_site_label
 _atom_site_symmetry_multiplicity
 _atom_site_fract_x
 _atom_site_fract_y
 _atom_site_fract_z
 _atom_site_occupancy
  Sr  Sr0  1  -0.04682739  0.14563543  0.14284694  1
  Sr  Sr1  1  -0.01054843  0.15066652  0.60695028  1
  Sr  Sr2  1  0.00125452  0.48899518  0.12120926  1
  Sr  Sr3  1  -0.01290612  0.46544987  0.64052021  1
  Sr  Sr4  1  -0.02297328  0.82684103  0.12011879  1
  Sr  Sr5  1  -0.00145197  0.81041550  0.63810883  1
  Sr  Sr6  1  0.32868765  0.17688059  0.11888874  1
  Sr  Sr7  1  0.31935817  0.15991864  0.66817358  1
  Sr  Sr8  1  0.31359341  0.48748707  0.12536757  1
  Sr  Sr9  1  0.33090402  0.50987886  0.62765373  1
  Sr  Sr10  1  0.33435048  0.81411443  0.12144602  1
  Sr  Sr11  1  0.32653304  0.84693876  0.58174684  1
  Sr  Sr12  1  0.65488344  0.16145654  0.10376873  1
  Sr  Sr13  1  0.64055481  0.15924022  0.61921962  1
  Sr  Sr14  1  0.66195539  0.50203242  0.12800788  1
  Sr  Sr15  1  0.67185745  0.49368180  0.62001108  1
  Sr  Sr16  1  0.65300318  0.84361589  0.16085196  1
  Sr  Sr17  1  0.66449766  0.83678335  0.61374177  1
  Sr  Sr18  1  0.20731254  0.01736435  0.10307402  1
  Sr  Sr19  1  0.17510673  0.01950113  0.61657427  1
  Sr  Sr20  1  0.17231204  0.33828368  0.11289005  1
  Sr  Sr21  1  0.19233182  0.34211003  0.65264076  1
  Sr  Sr22  1  0.16237070  0.69339349  0.15314753  1
  Sr  Sr23  1  0.17541750  0.67352540  0.61220180  1
  Sr  Sr24  1  0.51251386  0.01949704  0.16280308  1
  Sr  Sr25  1  0.51051649  -0.01233832  0.61497123  1
  Sr  Sr26  1  0.52318989  0.34500606  0.11222892  1
  Sr  Sr27  1  0.51004039  0.34526670  0.58876431  1
  Sr  Sr28  1  0.49529296  0.66713851  0.11580597  1
  Sr  Sr29  1  0.51285293  0.65388850  0.67339843  1
  Sr  Sr30  1  0.83065524  -0.01436174  0.11715662  1
  Sr  Sr31  1  0.86535789  -0.00611201  0.64501351  1
  Sr  Sr32  1  0.83599687  0.34489912  0.17456580  1
  Sr  Sr33  1  0.84019632  0.32579466  0.62402042  1
  Sr  Sr34  1  0.84544894  0.65250705  0.08990389  1
  Sr  Sr35  1  0.83666392  0.67848594  0.60854068  1
  Sr  Sr36  1  -0.00280152  0.15004880  0.39278935  1
  Sr  Sr37  1  -0.03470730  0.14806721  0.87546203  1
  Sr  Sr38  1  0.00138999  0.47578614  0.34894631  1
  Sr  Sr39  1  -0.00610880  0.48109134  0.88688162  1
  Sr  Sr40  1  -0.00150103  0.81196212  0.36127628  1
  Sr  Sr41  1  -0.01062307  0.83254544  0.86716337  1
  Sr  Sr42  1  0.31830202  0.16340585  0.33326690  1
  Sr  Sr43  1  0.30663890  0.17982682  0.88626114  1
  Sr  Sr44  1  0.32371845  0.48911022  0.40631764  1
  Sr  Sr45  1  0.31652799  0.51155640  0.84140757  1
  Sr  Sr46  1  0.31913249  0.81155902  0.37573279  1
  Sr  Sr47  1  0.32690708  0.82991251  0.91476844  1
  Sr  Sr48  1  0.62238039  0.15935439  0.39864291  1
  Sr  Sr49  1  0.66069429  0.16024906  0.88442552  1
  Sr  Sr50  1  0.66658298  0.49162737  0.37165399  1
  Sr  Sr51  1  0.66093949  0.51006834  0.88412842  1
  Sr  Sr52  1  0.67196147  0.83565403  0.38196420  1
  Sr  Sr53  1  0.64132955  0.84041364  0.84241984  1
  Sr  Sr54  1  0.17705736  0.02065072  0.38793591  1
  Sr  Sr55  1  0.19287935  0.01145013  0.88736301  1
  Sr  Sr56  1  0.18805099  0.34143379  0.35050806  1
  Sr  Sr57  1  0.16696449  0.34364774  0.88471524  1
  Sr  Sr58  1  0.15997768  0.67121202  0.38587945  1
  Sr  Sr59  1  0.16726166  0.68939237  0.85050008  1
  Sr  Sr60  1  0.50855484  -0.01260182  0.39143182  1
  Sr  Sr61  1  0.51078639  0.01604265  0.83839966  1
  Sr  Sr62  1  0.50895773  0.35338816  0.38962150  1
  Sr  Sr63  1  0.53215042  0.33053377  0.90867377  1
  Sr  Sr64  1  0.51735521  0.66351136  0.33509758  1
  Sr  Sr65  1  0.49438671  0.67303424  0.88472152  1
  Sr  Sr66  1  0.86803079  -0.01069673  0.33798159  1
  Sr  Sr67  1  0.84692998  -0.01027518  0.88937394  1
  Sr  Sr68  1  0.85924475  0.32667316  0.38098259  1
  Sr  Sr69  1  0.82873638  0.34318319  0.83494562  1
  Sr  Sr70  1  0.83054397  0.67284700  0.40681374  1
  Sr  Sr71  1  0.85328655  0.67198782  0.88674333  1
  Ta  Ta72  1  0.10959942  0.17030038  0.00712872  1
  Ta  Ta73  1  0.18717468  0.19574009  0.49557183  1
  Ta  Ta74  1  0.16771833  0.54106890  -0.00174267  1
  Ta  Ta75  1  0.13445708  0.48853847  0.50571103  1
  Ta  Ta76  1  0.13936723  0.83981007  -0.00194514  1
  Ta  Ta77  1  0.14057701  0.85909454  0.49804636  1
  Ta  Ta78  1  0.48101829  0.14814491  0.00040315  1
  Ta  Ta79  1  0.44699763  0.16858945  0.50111915  1
  Ta  Ta80  1  0.45553069  0.50200472  -0.00905100  1
  Ta  Ta81  1  0.50280292  0.54275697  0.50229469  1
  Ta  Ta82  1  0.51398916  0.86532367  0.00190592  1
  Ta  Ta83  1  0.50043370  0.78073032  0.50695791  1
  Ta  Ta84  1  0.82333560  0.21668113  0.00488271  1
  Ta  Ta85  1  0.80353488  0.15340116  0.48398778  1
  Ta  Ta86  1  0.83055877  0.45613619  0.00706878  1
  Ta  Ta87  1  0.85097781  0.49622805  0.49763069  1
  Ta  Ta88  1  0.78160683  0.82831381  -0.00186685  1
  Ta  Ta89  1  0.84767673  0.86485819  0.49597668  1
  Ta  Ta90  1  0.13258346  0.16534530  0.24419553  1
  Ta  Ta91  1  0.12687813  0.16980119  0.76128428  1
  Ta  Ta92  1  0.17711966  0.52252470  0.25787145  1
  Ta  Ta93  1  0.13569915  0.51911062  0.74068527  1
  Ta  Ta94  1  0.17400246  0.87754580  0.24391822  1
  Ta  Ta95  1  0.19438759  0.86136468  0.75215041  1
  Ta  Ta96  1  0.49716150  0.20548149  0.24622832  1
  Ta  Ta97  1  0.49835496  0.21745747  0.75066201  1
  Ta  Ta98  1  0.46341918  0.49341915  0.25363976  1
  Ta  Ta99  1  0.50232832  0.45906147  0.74776361  1
  Ta  Ta100  1  0.47201034  0.84404200  0.25684743  1
  Ta  Ta101  1  0.45469025  0.83561390  0.74365551  1
  Ta  Ta102  1  0.78327335  0.16429405  0.26652440  1
  Ta  Ta103  1  0.80391358  0.15860698  0.74451173  1
  Ta  Ta104  1  0.82945726  0.53653489  0.25291025  1
  Ta  Ta105  1  0.83040504  0.53179337  0.74695823  1
  Ta  Ta106  1  0.82587513  0.79034205  0.24606356  1
  Ta  Ta107  1  0.81103329  0.82540812  0.75023318  1
  Ta  Ta108  1  0.04858856  -0.00512429  0.23191268  1
  Ta  Ta109  1  0.04000038  0.00276247  0.76120613  1
  Ta  Ta110  1  0.02620947  0.29555969  0.25019305  1
  Ta  Ta111  1  0.01621846  0.29551071  0.75111268  1
  Ta  Ta112  1  -0.02777172  0.64993691  0.25153526  1
  Ta  Ta113  1  -0.00383688  0.63206088  0.74219458  1
  Ta  Ta114  1  0.33917125  -0.03014780  0.24941592  1
  Ta  Ta115  1  0.33511577  -0.04523800  0.75182064  1
  Ta  Ta116  1  0.37136995  0.33927513  0.24534046  1
  Ta  Ta117  1  0.38075920  0.33627584  0.75861970  1
  Ta  Ta118  1  0.33151792  0.63398775  0.25214076  1
  Ta  Ta119  1  0.33301426  0.71977205  0.74281158  1
  Ta  Ta120  1  0.68807113  0.02592181  0.26071969  1
  Ta  Ta121  1  0.70179180  0.00835461  0.74618249  1
  Ta  Ta122  1  0.66032648  0.30003525  0.25597423  1
  Ta  Ta123  1  0.64318511  0.32396957  0.74229590  1
  Ta  Ta124  1  0.70415961  0.66701902  0.24936702  1
  Ta  Ta125  1  0.70239504  0.66748016  0.74916941  1
  Ta  Ta126  1  0.03270670  -0.00377549  0.00956104  1
  Ta  Ta127  1  0.00970735  -0.03630448  0.49665439  1
  Ta  Ta128  1  -0.03495541  0.30829593  0.00367598  1
  Ta  Ta129  1  0.04539997  0.32974246  0.49695681  1
  Ta  Ta130  1  0.03907211  0.66375674  0.00289114  1
  Ta  Ta131  1  0.00044607  0.61435561  0.49826756  1
  Ta  Ta132  1  0.39090896  0.00134877  0.00459885  1
  Ta  Ta133  1  0.34125564  0.03985780  0.50070907  1
  Ta  Ta134  1  0.35814201  0.35493320  -0.01736975  1
  Ta  Ta135  1  0.33140173  0.29327857  0.50155696  1
  Ta  Ta136  1  0.31191339  0.63847257  0.00155849  1
  Ta  Ta137  1  0.38065444  0.66307218  0.50686499  1
  Ta  Ta138  1  0.64975219  -0.02463992  0.00662055  1
  Ta  Ta139  1  0.72259912  0.00639179  0.48691295  1
  Ta  Ta140  1  0.71075923  0.33726403  0.00898119  1
  Ta  Ta141  1  0.69779663  0.31528415  0.49414633  1
  Ta  Ta142  1  0.66799536  0.70424657  -0.00178001  1
  Ta  Ta143  1  0.63561036  0.66258079  0.50597141  1
  N  N144  1  0.00436241  0.66058961  0.12233783  1
  N  N145  1  0.66350829  -0.00810369  0.38022062  1
  N  N146  1  0.16576905  0.17220401  0.37191228  1
  N  N147  1  0.49202720  0.50806628  0.37290562  1
  N  N148  1  0.17643806  0.50180990  0.62665900  1
  N  N149  1  0.14734384  0.17405307  0.89290513  1
  N  N150  1  0.66075174  0.33679802  0.37892144  1
  N  N151  1  0.17090574  0.84341896  0.87706320  1
  N  N152  1  0.82956043  0.49551372  0.37006017  1
  N  N153  1  0.32022138  0.33834855  0.86669407  1
  N  N154  1  0.81961175  0.82699074  0.12561079  1
  N  N155  1  0.00010298  0.65253594  0.37576579  1
  N  N156  1  0.83786330  0.82926725  0.37352514  1
  N  N157  1  0.00782911  -0.00663117  0.87855302  1
  N  N158  1  0.16734473  0.50311331  0.37799523  1
  N  N159  1  0.83789735  0.83666571  0.62270487  1
  N  N160  1  0.83330863  0.49496138  0.12416380  1
  N  N161  1  0.82691812  0.83512329  0.87885598  1
  N  N162  1  0.32939364  0.65713761  0.12531050  1
  N  N163  1  0.67629309  0.33372874  0.13183115  1
  N  N164  1  0.82974216  0.49886017  0.62930243  1
  N  N165  1  0.67006896  0.32886762  0.62123168  1
  N  N166  1  0.49456988  0.82944332  0.62138051  1
  N  N167  1  0.50074910  0.49789352  0.63111013  1
  N  N168  1  0.84913144  0.16461156  0.36828182  1
  N  N169  1  0.66832757  0.66918667  0.62833117  1
  N  N170  1  -0.01414624  -0.01048732  0.12887649  1
  N  N171  1  0.49695067  0.17816308  0.12198466  1
  N  N172  1  0.35416084  -0.00541486  0.12680234  1
  N  N173  1  0.33685854  0.67180610  0.63000734  1
  N  N174  1  0.66728915  -0.00060974  0.12756748  1
  N  N175  1  0.01735905  0.31751763  0.37641390  1
  N  N176  1  -0.00173405  0.65523230  0.62139214  1
  O  O177  1  0.01741873  -0.01181133  0.36488812  1
  O  O178  1  0.00580419  0.65646898  0.87812510  1
  O  O179  1  0.33718257  0.00802852  0.62589693  1
  O  O180  1  0.82476943  0.16212344  0.62059086  1
  O  O181  1  0.16513805  0.85577371  0.36966240  1
  O  O182  1  0.47515515  0.17613392  0.63026487  1
  O  O183  1  0.49421772  0.84893924  0.87621639  1
  O  O184  1  0.34037813  0.31461180  0.62926784  1
  O  O185  1  0.33705603  0.01450420  0.37559527  1
  O  O186  1  0.48121732  0.51588441  0.86616974  1
  O  O187  1  0.67314632  0.66681212  0.37518231  1
  O  O188  1  0.67752378  0.33498751  0.86888153  1
  O  O189  1  0.69070095  0.00105614  0.61940987  1
  O  O190  1  0.65467662  0.68395996  0.87268960  1
  O  O191  1  0.32504230  0.67903569  0.87554182  1
  O  O192  1  0.16238036  0.51770162  0.86860009  1
  O  O193  1  0.16575816  0.17090492  0.62293703  1
  O  O194  1  0.01284925  0.30489104  0.62252511  1
  O  O195  1  0.01799940  -0.00763690  0.63021435  1
  O  O196  1  0.34234761  0.66018867  0.37882300  1
  O  O197  1  0.35926539  0.33684006  0.11696757  1
  O  O198  1  0.17571345  0.17661837  0.11769130  1
  O  O199  1  0.49558804  0.84438516  0.13238938  1
  O  O200  1  0.47140329  0.17203654  0.37211323  1
  O  O201  1  0.81199114  0.18908938  0.13371626  1
  O  O202  1  0.18362839  0.85269611  0.11665727  1
  O  O203  1  0.48088110  0.82635022  0.38157087  1
  O  O204  1  0.35177795  -0.01721220  0.88039555  1
  O  O205  1  0.34420636  0.32076415  0.37454454  1
  O  O206  1  0.15997339  0.51657311  0.12308850  1
  O  O207  1  -0.01425938  0.32044625  0.12949991  1
  O  O208  1  0.81323427  0.18775057  0.86949050  1
  O  O209  1  0.47418999  0.50585053  0.11654849  1
  O  O210  1  0.83693611  0.49344826  0.87760035  1
  O  O211  1  0.16490526  0.85575596  0.62103835  1
  O  O212  1  0.67662956  0.67508729  0.12045979  1
  O  O213  1  -0.01556638  0.31608148  0.87177241  1
  O  O214  1  0.50584726  0.17358021  0.87443415  1
  O  O215  1  0.67249214  -0.00193658  0.87135871  1
