# generated using pymatgen
data_Sr24Ta24N11O13
_symmetry_space_group_name_H-M   'P 1'
_cell_length_a   16.94246808
_cell_length_b   16.66082528
_cell_length_c   15.65229857
_cell_angle_alpha   89.86742876
_cell_angle_beta   90.18913509
_cell_angle_gamma   89.84460453
_symmetry_Int_Tables_number   1
_chemical_formula_structural   Sr24Ta24N11O13
_chemical_formula_sum   'Sr72 Ta72 N33 O39'
_cell_volume   4418.20817224
_cell_formula_units_Z   3
loop_
 _symmetry_equiv_pos_site_id
 _symmetry_equiv_pos_as_xyz
  1  'x, y, z'
loop_
 _atom_site_type_symbol
 _atom_site_label
 _atom_site_symmetry_multiplicity
 _atom_site_fract_x
 _atom_site_fract_y
 _atom_site_fract_z
 _atom_site_occupancy
  Sr  Sr0  1  -0.03886295  0.16896179  0.09115940  1
  Sr  Sr1  1  0.00187064  0.15632784  0.63865963  1
  Sr  Sr2  1  0.00610512  0.49517108  0.11974161  1
  Sr  Sr3  1  -0.03459574  0.50351785  0.67014121  1
  Sr  Sr4  1  -0.01297416  0.84086864  0.13988168  1
  Sr  Sr5  1  -0.00411516  0.82228811  0.57746344  1
  Sr  Sr6  1  0.31604009  0.17203722  0.13098671  1
  Sr  Sr7  1  0.33197410  0.15203688  0.57529324  1
  Sr  Sr8  1  0.32322354  0.51054077  0.15044214  1
  Sr  Sr9  1  0.33625464  0.51485171  0.61618716  1
  Sr  Sr10  1  0.32301670  0.82055239  0.12999085  1
  Sr  Sr11  1  0.31988029  0.85197370  0.66991627  1
  Sr  Sr12  1  0.66316458  0.15138398  0.16354402  1
  Sr  Sr13  1  0.64369448  0.15451829  0.62891580  1
  Sr  Sr14  1  0.64754919  0.51165349  0.13785196  1
  Sr  Sr15  1  0.65927324  0.49841424  0.58501262  1
  Sr  Sr16  1  0.64232703  0.84112643  0.08194943  1
  Sr  Sr17  1  0.66296203  0.82691224  0.64039764  1
  Sr  Sr18  1  0.19339494  0.00143694  0.15192030  1
  Sr  Sr19  1  0.17810242  0.00756232  0.63924323  1
  Sr  Sr20  1  0.17499127  0.34352931  0.14555778  1
  Sr  Sr21  1  0.21099342  0.33087130  0.59634684  1
  Sr  Sr22  1  0.14711887  0.67876109  0.07319685  1
  Sr  Sr23  1  0.17369425  0.66338647  0.64144489  1
  Sr  Sr24  1  0.50389855  0.00017491  0.09668947  1
  Sr  Sr25  1  0.51296722  -0.01148702  0.63384435  1
  Sr  Sr26  1  0.51633076  0.33312129  0.11473698  1
  Sr  Sr27  1  0.50436701  0.34088838  0.65571385  1
  Sr  Sr28  1  0.49623806  0.66598508  0.13547963  1
  Sr  Sr29  1  0.51076691  0.65469461  0.58775750  1
  Sr  Sr30  1  0.82938487  -0.00075402  0.13211073  1
  Sr  Sr31  1  0.86916084  -0.00308621  0.58760644  1
  Sr  Sr32  1  0.84854701  0.34283406  0.08201617  1
  Sr  Sr33  1  0.84165542  0.32889309  0.63313587  1
  Sr  Sr34  1  0.83624334  0.65015070  0.17524016  1
  Sr  Sr35  1  0.83565128  0.67855575  0.63365479  1
  Sr  Sr36  1  -0.02898837  0.17233269  0.40071619  1
  Sr  Sr37  1  -0.00308407  0.15519949  0.86140337  1
  Sr  Sr38  1  -0.00599611  0.49237178  0.35533617  1
  Sr  Sr39  1  0.00547502  0.50571719  0.88701735  1
  Sr  Sr40  1  -0.00431954  0.84574210  0.36622113  1
  Sr  Sr41  1  -0.00691496  0.83785558  0.91424199  1
  Sr  Sr42  1  0.31442943  0.16323661  0.36580372  1
  Sr  Sr43  1  0.35599408  0.16696606  0.92949475  1
  Sr  Sr44  1  0.30949423  0.51697761  0.39596242  1
  Sr  Sr45  1  0.33228564  0.48629665  0.82960005  1
  Sr  Sr46  1  0.32909055  0.83106024  0.34108906  1
  Sr  Sr47  1  0.30126242  0.82182110  0.86791756  1
  Sr  Sr48  1  0.65815694  0.15042040  0.36391002  1
  Sr  Sr49  1  0.65902573  0.17580086  0.83053037  1
  Sr  Sr50  1  0.66816764  0.51554281  0.36282463  1
  Sr  Sr51  1  0.65068479  0.48790770  0.91540076  1
  Sr  Sr52  1  0.61998879  0.83771215  0.41476853  1
  Sr  Sr53  1  0.67555465  0.83439141  0.86674071  1
  Sr  Sr54  1  0.18696074  -0.00647977  0.35622884  1
  Sr  Sr55  1  0.17482182  0.01001597  0.85679166  1
  Sr  Sr56  1  0.17274129  0.34478217  0.36598071  1
  Sr  Sr57  1  0.19750156  0.32329805  0.88286089  1
  Sr  Sr58  1  0.15839489  0.67175122  0.42166357  1
  Sr  Sr59  1  0.16984007  0.65071224  0.86003943  1
  Sr  Sr60  1  0.50770784  0.01490113  0.40428122  1
  Sr  Sr61  1  0.50397596  -0.01421327  0.86352745  1
  Sr  Sr62  1  0.54296974  0.32768000  0.33813977  1
  Sr  Sr63  1  0.50245362  0.33649759  0.87524974  1
  Sr  Sr64  1  0.48459803  0.66538390  0.36734000  1
  Sr  Sr65  1  0.53323923  0.65942747  0.90908624  1
  Sr  Sr66  1  0.83953192  0.00853674  0.35637959  1
  Sr  Sr67  1  0.85260311  -0.01034518  0.90755159  1
  Sr  Sr68  1  0.84383715  0.33955105  0.41358457  1
  Sr  Sr69  1  0.84932735  0.32997721  0.86239460  1
  Sr  Sr70  1  0.86164199  0.67417527  0.37020750  1
  Sr  Sr71  1  0.82776572  0.67729512  0.84229030  1
  Ta  Ta72  1  0.14456427  0.16229734  0.00441019  1
  Ta  Ta73  1  0.14049177  0.16294973  0.49690853  1
  Ta  Ta74  1  0.19921687  0.48705477  -0.00873055  1
  Ta  Ta75  1  0.11814337  0.49188451  0.52052736  1
  Ta  Ta76  1  0.16557642  0.87348222  0.00890718  1
  Ta  Ta77  1  0.19189857  0.85056017  0.49970069  1
  Ta  Ta78  1  0.55608893  0.16644422  -0.00379518  1
  Ta  Ta79  1  0.50439178  0.21155340  0.49085708  1
  Ta  Ta80  1  0.45198968  0.50093644  -0.00607749  1
  Ta  Ta81  1  0.49248675  0.45950146  0.49047448  1
  Ta  Ta82  1  0.45704875  0.82263800  -0.01198937  1
  Ta  Ta83  1  0.44629627  0.83364529  0.50845356  1
  Ta  Ta84  1  0.77969183  0.16230616  -0.00033551  1
  Ta  Ta85  1  0.79302248  0.16248069  0.49812079  1
  Ta  Ta86  1  0.82869494  0.53716168  -0.00041262  1
  Ta  Ta87  1  0.84067612  0.52442535  0.50071728  1
  Ta  Ta88  1  0.82569630  0.79216293  0.01483506  1
  Ta  Ta89  1  0.80169649  0.83259820  0.48888236  1
  Ta  Ta90  1  0.10724042  0.17328324  0.24479712  1
  Ta  Ta91  1  0.19272057  0.18544674  0.74365057  1
  Ta  Ta92  1  0.15799119  0.54197188  0.25247823  1
  Ta  Ta93  1  0.14906832  0.46885082  0.73952374  1
  Ta  Ta94  1  0.15489863  0.79622034  0.25175685  1
  Ta  Ta95  1  0.11313745  0.83830702  0.75049177  1
  Ta  Ta96  1  0.47550129  0.15906317  0.24704983  1
  Ta  Ta97  1  0.46914366  0.16415077  0.74666305  1
  Ta  Ta98  1  0.47086153  0.48107988  0.26644232  1
  Ta  Ta99  1  0.52190845  0.52139823  0.74683596  1
  Ta  Ta100  1  0.50749771  0.85059848  0.23996869  1
  Ta  Ta101  1  0.49395783  0.79213799  0.76227139  1
  Ta  Ta102  1  0.83655619  0.20672870  0.24741282  1
  Ta  Ta103  1  0.82780503  0.12989829  0.74647346  1
  Ta  Ta104  1  0.83315351  0.45494253  0.25166962  1
  Ta  Ta105  1  0.77738441  0.50286723  0.74657115  1
  Ta  Ta106  1  0.78099989  0.83436404  0.26313527  1
  Ta  Ta107  1  0.86238341  0.85757123  0.73847553  1
  Ta  Ta108  1  0.01433843  0.03646001  0.24019365  1
  Ta  Ta109  1  -0.00408312  -0.03804897  0.74377233  1
  Ta  Ta110  1  -0.01574481  0.31460628  0.24284439  1
  Ta  Ta111  1  0.05552580  0.32947331  0.74312362  1
  Ta  Ta112  1  0.04315428  0.66552227  0.24806967  1
  Ta  Ta113  1  0.00072809  0.71207109  0.75303807  1
  Ta  Ta114  1  0.37988093  0.00314385  0.24651628  1
  Ta  Ta115  1  0.33996550  0.06320983  0.75656890  1
  Ta  Ta116  1  0.36603345  0.33656552  0.25734026  1
  Ta  Ta117  1  0.34046199  0.26725665  0.74711938  1
  Ta  Ta118  1  0.26737460  0.66569999  0.24977006  1
  Ta  Ta119  1  0.38340005  0.66686816  0.75606021  1
  Ta  Ta120  1  0.65239887  -0.03935098  0.25178602  1
  Ta  Ta121  1  0.72578553  -0.00378930  0.73821019  1
  Ta  Ta122  1  0.71531326  0.33716207  0.24496144  1
  Ta  Ta123  1  0.67396316  0.37212495  0.75229337  1
  Ta  Ta124  1  0.65961991  0.71844945  0.25144018  1
  Ta  Ta125  1  0.65217319  0.63992190  0.74191286  1
  Ta  Ta126  1  0.04586114  0.01093270  0.01570089  1
  Ta  Ta127  1  0.04784347  0.00646173  0.49591390  1
  Ta  Ta128  1  0.04217486  0.32265546  -0.00233228  1
  Ta  Ta129  1  0.02562972  0.34467798  0.50991160  1
  Ta  Ta130  1  -0.05371327  0.66644064  0.01030316  1
  Ta  Ta131  1  -0.00485724  0.62291684  0.51521308  1
  Ta  Ta132  1  0.32710304  -0.02502602  -0.00252457  1
  Ta  Ta133  1  0.33419980  -0.03897049  0.49533182  1
  Ta  Ta134  1  0.34217090  0.37215303  0.00387830  1
  Ta  Ta135  1  0.38628460  0.33312188  0.48701496  1
  Ta  Ta136  1  0.34133044  0.64654475  -0.01269487  1
  Ta  Ta137  1  0.33026892  0.71667411  0.51440390  1
  Ta  Ta138  1  0.67196486  0.03143386  -0.00335186  1
  Ta  Ta139  1  0.69802375  -0.00187419  0.50214636  1
  Ta  Ta140  1  0.67370615  0.29472936  -0.00412139  1
  Ta  Ta141  1  0.65959517  0.31111768  0.50179062  1
  Ta  Ta142  1  0.71416207  0.66738388  0.01275040  1
  Ta  Ta143  1  0.69985832  0.67567718  0.49325553  1
  N  N144  1  -0.00270285  0.66608131  0.63411951  1
  N  N145  1  0.81430365  0.17215368  0.12751218  1
  N  N146  1  0.33760299  0.67641085  0.63319408  1
  N  N147  1  0.81870182  0.17232256  0.37736758  1
  N  N148  1  0.48942387  0.82893838  0.11724700  1
  N  N149  1  -0.00374817  0.66756639  0.12554489  1
  N  N150  1  0.66896219  -0.00988784  0.62962454  1
  N  N151  1  0.66491509  -0.00711274  0.37349461  1
  N  N152  1  0.33621036  0.01406119  0.87115634  1
  N  N153  1  0.49890663  0.17136872  0.36836027  1
  N  N154  1  0.66684812  -0.00276841  0.11883075  1
  N  N155  1  0.50048741  0.49543620  0.62014798  1
  N  N156  1  0.18346719  0.50275193  0.62357443  1
  N  N157  1  0.34385931  -0.00000107  0.12290395  1
  N  N158  1  0.32172949  0.65646935  0.86484681  1
  N  N159  1  0.83994303  0.83803915  0.61728147  1
  N  N160  1  0.16592062  0.83270437  0.37963139  1
  N  N161  1  0.66823980  0.67406983  0.13263317  1
  N  N162  1  0.01887516  -0.00762828  0.61608464  1
  N  N163  1  0.34361456  -0.00606584  0.37385909  1
  N  N164  1  -0.01392794  0.00134472  0.12042721  1
  N  N165  1  0.83670932  0.49585125  0.36983951  1
  N  N166  1  0.66883684  0.33330350  0.87119547  1
  N  N167  1  0.00646717  0.33204071  0.11861076  1
  N  N168  1  0.15637025  0.83748584  0.12608382  1
  N  N169  1  0.66924881  0.66629905  0.61544607  1
  N  N170  1  0.52137586  0.82493227  0.88547301  1
  N  N171  1  0.84183373  0.83669839  0.36824064  1
  N  N172  1  0.17523615  0.49127272  0.87073750  1
  N  N173  1  0.17502432  0.17004207  0.61541536  1
  N  N174  1  0.49331175  0.49810483  0.87530389  1
  N  N175  1  0.51413892  0.51026174  0.37872954  1
  N  N176  1  0.81733337  0.50138753  0.62533082  1
  O  O177  1  -0.00002394  0.31816545  0.63197030  1
  O  O178  1  0.31077975  0.66238841  0.12589651  1
  O  O179  1  0.83760009  0.83329842  0.88946382  1
  O  O180  1  0.16417834  0.16551936  0.87926404  1
  O  O181  1  0.33100083  0.00852533  0.63320415  1
  O  O182  1  0.50640634  0.16665596  0.87749063  1
  O  O183  1  0.83579754  0.50106483  0.12509463  1
  O  O184  1  0.47643957  0.82750936  0.37312580  1
  O  O185  1  0.16465935  0.18180011  0.13341507  1
  O  O186  1  0.01010016  0.65161723  0.38698722  1
  O  O187  1  0.15198640  0.50236054  0.37929821  1
  O  O188  1  0.16964402  0.49906648  0.12853494  1
  O  O189  1  0.14218760  0.18717427  0.36535577  1
  O  O190  1  0.49035301  0.17018777  0.61311781  1
  O  O191  1  0.01306916  0.00330672  0.36625228  1
  O  O192  1  0.32579162  0.32628960  0.37596946  1
  O  O193  1  0.68449604  0.33640713  0.11988448  1
  O  O194  1  -0.02037598  0.68367781  0.87963064  1
  O  O195  1  0.51308485  0.17119523  0.11951756  1
  O  O196  1  0.66015683  0.32375950  0.62885378  1
  O  O197  1  0.01916394  0.31596757  0.87089422  1
  O  O198  1  0.30753540  0.67509161  0.37492555  1
  O  O199  1  0.00475311  -0.00181498  0.88979088  1
  O  O200  1  0.35753198  0.33340784  0.12775654  1
  O  O201  1  0.16208941  0.83945374  0.63228873  1
  O  O202  1  0.01216360  0.33769035  0.38212899  1
  O  O203  1  0.82382025  0.83696721  0.13458329  1
  O  O204  1  0.81787721  0.52062513  0.87347565  1
  O  O205  1  0.48387346  0.50659243  0.13875908  1
  O  O206  1  0.47620460  0.83548078  0.64182415  1
  O  O207  1  0.83675498  0.16280233  0.62376117  1
  O  O208  1  0.67843779  0.67385036  0.86986975  1
  O  O209  1  0.35514913  0.30618581  0.62144042  1
  O  O210  1  0.69531866  -0.01038118  0.86985651  1
  O  O211  1  0.34666005  0.31792982  0.88239964  1
  O  O212  1  0.64189466  0.67493347  0.37660690  1
  O  O213  1  0.82511179  0.14719499  0.87291879  1
  O  O214  1  0.14997734  0.84939515  0.87667542  1
  O  O215  1  0.68854237  0.32841005  0.37893028  1
