# generated using pymatgen
data_Sr24Ta24N11O13
_symmetry_space_group_name_H-M   'P 1'
_cell_length_a   16.79314055
_cell_length_b   18.74609396
_cell_length_c   14.25953133
_cell_angle_alpha   86.96679882
_cell_angle_beta   90.59104000
_cell_angle_gamma   87.90719664
_symmetry_Int_Tables_number   1
_chemical_formula_structural   Sr24Ta24N11O13
_chemical_formula_sum   'Sr72 Ta72 N33 O39'
_cell_volume   4479.36673738
_cell_formula_units_Z   3
loop_
 _symmetry_equiv_pos_site_id
 _symmetry_equiv_pos_as_xyz
  1  'x, y, z'
loop_
 _atom_site_type_symbol
 _atom_site_label
 _atom_site_symmetry_multiplicity
 _atom_site_fract_x
 _atom_site_fract_y
 _atom_site_fract_z
 _atom_site_occupancy
  Sr  Sr0  1  0.00159981  0.18098786  0.10904802  1
  Sr  Sr1  1  0.00523970  0.18549624  0.62002826  1
  Sr  Sr2  1  0.03009212  0.55446103  0.15336233  1
  Sr  Sr3  1  0.00102476  0.52143226  0.63286781  1
  Sr  Sr4  1  0.00593880  0.85023301  0.10518863  1
  Sr  Sr5  1  -0.00368620  0.89330971  0.57738414  1
  Sr  Sr6  1  0.32698923  0.16552583  0.11501636  1
  Sr  Sr7  1  0.33440651  0.21724835  0.60915815  1
  Sr  Sr8  1  0.33460103  0.55235821  0.12971596  1
  Sr  Sr9  1  0.35892858  0.52186039  0.65558772  1
  Sr  Sr10  1  0.36427493  0.86183551  0.11395259  1
  Sr  Sr11  1  0.33584372  0.85700364  0.59180465  1
  Sr  Sr12  1  0.67899245  0.21530724  0.09811407  1
  Sr  Sr13  1  0.67001412  0.18448857  0.61769985  1
  Sr  Sr14  1  0.65907434  0.49038787  0.13075668  1
  Sr  Sr15  1  0.65813444  0.54567292  0.62753748  1
  Sr  Sr16  1  0.65509145  0.86849308  0.08920439  1
  Sr  Sr17  1  0.68350414  0.84874088  0.58946120  1
  Sr  Sr18  1  0.15049694  -0.02813603  0.13744974  1
  Sr  Sr19  1  0.16046741  -0.01440260  0.63097650  1
  Sr  Sr20  1  0.16596273  0.27737064  0.16032475  1
  Sr  Sr21  1  0.15518165  0.30597909  0.64496869  1
  Sr  Sr22  1  0.17031309  0.67156855  0.10998706  1
  Sr  Sr23  1  0.17919070  0.61600302  0.63066037  1
  Sr  Sr24  1  0.49170802  -0.00304110  0.13746849  1
  Sr  Sr25  1  0.51085185  -0.04879804  0.64903058  1
  Sr  Sr26  1  0.47929426  0.28898893  0.13368061  1
  Sr  Sr27  1  0.50565951  0.31071641  0.67352633  1
  Sr  Sr28  1  0.51109699  0.65055059  0.11631055  1
  Sr  Sr29  1  0.49432514  0.65680083  0.60586839  1
  Sr  Sr30  1  0.84427783  -0.02432196  0.13417243  1
  Sr  Sr31  1  0.83188243  -0.00927981  0.63559286  1
  Sr  Sr32  1  0.83959797  0.30598375  0.15301717  1
  Sr  Sr33  1  0.83645117  0.27589083  0.67832595  1
  Sr  Sr34  1  0.78754888  0.62529514  0.11900836  1
  Sr  Sr35  1  0.82494247  0.65051261  0.61117077  1
  Sr  Sr36  1  -0.01521423  0.22220828  0.35225992  1
  Sr  Sr37  1  0.00184588  0.19996579  0.86444747  1
  Sr  Sr38  1  0.01069409  0.50352394  0.39520260  1
  Sr  Sr39  1  0.02232243  0.54675582  0.89273063  1
  Sr  Sr40  1  -0.00144431  0.85889004  0.33601344  1
  Sr  Sr41  1  0.01008067  0.82461322  0.86318986  1
  Sr  Sr42  1  0.34424406  0.19008209  0.34750104  1
  Sr  Sr43  1  0.33065466  0.17153161  0.87326226  1
  Sr  Sr44  1  0.33285164  0.53828966  0.37142273  1
  Sr  Sr45  1  0.30656773  0.52657320  0.89559895  1
  Sr  Sr46  1  0.35349629  0.86052036  0.36360395  1
  Sr  Sr47  1  0.33841645  0.87964640  0.82855143  1
  Sr  Sr48  1  0.68128623  0.19570497  0.37958149  1
  Sr  Sr49  1  0.66139263  0.21847330  0.84452808  1
  Sr  Sr50  1  0.66241322  0.49486712  0.37447556  1
  Sr  Sr51  1  0.69633434  0.52905625  0.88849369  1
  Sr  Sr52  1  0.66882507  0.89002300  0.33877608  1
  Sr  Sr53  1  0.66580709  0.86835473  0.83194381  1
  Sr  Sr54  1  0.16472134  -0.05109549  0.40706345  1
  Sr  Sr55  1  0.15760247  -0.03671758  0.86181295  1
  Sr  Sr56  1  0.15898010  0.31133532  0.40204236  1
  Sr  Sr57  1  0.16816195  0.30413009  0.91836029  1
  Sr  Sr58  1  0.14801844  0.64621124  0.35101943  1
  Sr  Sr59  1  0.15856690  0.67465650  0.87350075  1
  Sr  Sr60  1  0.49306741  -0.00716341  0.38168528  1
  Sr  Sr61  1  0.49455509  -0.01620208  0.89232002  1
  Sr  Sr62  1  0.50203767  0.28561743  0.42530533  1
  Sr  Sr63  1  0.45374145  0.30127066  0.90268359  1
  Sr  Sr64  1  0.50970863  0.62479418  0.36414000  1
  Sr  Sr65  1  0.49680508  0.62227958  0.87138068  1
  Sr  Sr66  1  0.83462867  -0.01863810  0.39055371  1
  Sr  Sr67  1  0.83779288  -0.05161831  0.89080231  1
  Sr  Sr68  1  0.81615115  0.35080946  0.37898170  1
  Sr  Sr69  1  0.84262830  0.30817195  0.92350638  1
  Sr  Sr70  1  0.82428010  0.59302105  0.38165926  1
  Sr  Sr71  1  0.84875514  0.65914117  0.85295555  1
  Ta  Ta72  1  0.15854591  0.11203243  -0.01051424  1
  Ta  Ta73  1  0.17106299  0.12774862  0.47919788  1
  Ta  Ta74  1  0.16466677  0.45672819  0.05090554  1
  Ta  Ta75  1  0.19249790  0.46303955  0.49292652  1
  Ta  Ta76  1  0.20884856  0.82185404  -0.01735974  1
  Ta  Ta77  1  0.14717014  0.77617550  0.51213905  1
  Ta  Ta78  1  0.52691429  0.13666075  -0.01141857  1
  Ta  Ta79  1  0.49579016  0.11622867  0.52768816  1
  Ta  Ta80  1  0.48180196  0.45513646  0.01771619  1
  Ta  Ta81  1  0.49963215  0.45210444  0.51646783  1
  Ta  Ta82  1  0.50194128  0.79710297  -0.04413343  1
  Ta  Ta83  1  0.51886579  0.79794123  0.46535575  1
  Ta  Ta84  1  0.83493731  0.12517093  -0.01508314  1
  Ta  Ta85  1  0.84530156  0.13798291  0.49936037  1
  Ta  Ta86  1  0.87113343  0.46827706  -0.00721178  1
  Ta  Ta87  1  0.81930373  0.43871349  0.58355601  1
  Ta  Ta88  1  0.82267845  0.78846079  -0.00447043  1
  Ta  Ta89  1  0.82994709  0.77690531  0.42555982  1
  Ta  Ta90  1  0.15847302  0.11198034  0.26854717  1
  Ta  Ta91  1  0.16915607  0.12768496  0.75611171  1
  Ta  Ta92  1  0.18560373  0.45317918  0.25595558  1
  Ta  Ta93  1  0.16113936  0.45319068  0.76681223  1
  Ta  Ta94  1  0.20267332  0.80692479  0.24940497  1
  Ta  Ta95  1  0.17019457  0.80211977  0.71179558  1
  Ta  Ta96  1  0.53292561  0.14207175  0.24100210  1
  Ta  Ta97  1  0.50089943  0.12623027  0.74084560  1
  Ta  Ta98  1  0.48245050  0.44121364  0.25080912  1
  Ta  Ta99  1  0.52683505  0.44975335  0.80369310  1
  Ta  Ta100  1  0.51637979  0.79216189  0.25413578  1
  Ta  Ta101  1  0.49859618  0.78326776  0.75048187  1
  Ta  Ta102  1  0.83359907  0.13161931  0.23557120  1
  Ta  Ta103  1  0.83276207  0.11277639  0.77868470  1
  Ta  Ta104  1  0.87338145  0.47033764  0.19701671  1
  Ta  Ta105  1  0.85452484  0.45399600  0.77426140  1
  Ta  Ta106  1  0.82092973  0.78773351  0.21516197  1
  Ta  Ta107  1  0.85778688  0.80105529  0.70749049  1
  Ta  Ta108  1  -0.00280195  0.04400165  0.27301563  1
  Ta  Ta109  1  -0.00238869  0.04074486  0.76024205  1
  Ta  Ta110  1  0.01158939  0.38282905  0.24350784  1
  Ta  Ta111  1  -0.00066735  0.37540272  0.78763946  1
  Ta  Ta112  1  -0.05034623  0.69899307  0.26609146  1
  Ta  Ta113  1  0.01721679  0.72716316  0.66645887  1
  Ta  Ta114  1  0.30562864  0.02606687  0.27414817  1
  Ta  Ta115  1  0.33729511  0.05267559  0.72225046  1
  Ta  Ta116  1  0.33337986  0.37425679  0.26987319  1
  Ta  Ta117  1  0.30636352  0.37166123  0.77313337  1
  Ta  Ta118  1  0.33877809  0.71429814  0.24641367  1
  Ta  Ta119  1  0.33325722  0.71016357  0.74594845  1
  Ta  Ta120  1  0.67809739  0.05822783  0.23009625  1
  Ta  Ta121  1  0.66503402  0.04750707  0.78370492  1
  Ta  Ta122  1  0.62360039  0.34562285  0.25998551  1
  Ta  Ta123  1  0.69225773  0.38843879  0.74331439  1
  Ta  Ta124  1  0.67159111  0.71770309  0.25936299  1
  Ta  Ta125  1  0.65576244  0.70988366  0.74456373  1
  Ta  Ta126  1  -0.00566760  0.03536167  -0.02311926  1
  Ta  Ta127  1  0.00681436  0.06024544  0.48009732  1
  Ta  Ta128  1  0.00567524  0.38183935  0.03604879  1
  Ta  Ta129  1  -0.03108371  0.36165262  0.52537149  1
  Ta  Ta130  1  -0.04384085  0.69632745  0.05783306  1
  Ta  Ta131  1  -0.01631175  0.71158043  0.47336895  1
  Ta  Ta132  1  0.30634215  0.01460139  -0.00818500  1
  Ta  Ta133  1  0.32480042  0.05069780  0.50808205  1
  Ta  Ta134  1  0.31727470  0.37800806  0.06289828  1
  Ta  Ta135  1  0.34027561  0.38535585  0.49467023  1
  Ta  Ta136  1  0.34398325  0.72125638  -0.02583057  1
  Ta  Ta137  1  0.31403590  0.70416294  0.49545710  1
  Ta  Ta138  1  0.67348312  0.05660511  -0.00568352  1
  Ta  Ta139  1  0.65947823  0.03490852  0.51503356  1
  Ta  Ta140  1  0.61986090  0.37226578  -0.03040099  1
  Ta  Ta141  1  0.66653279  0.36353932  0.53663637  1
  Ta  Ta142  1  0.65955304  0.71639728  -0.03617639  1
  Ta  Ta143  1  0.66432123  0.70803307  0.46642860  1
  N  N144  1  0.03107341  0.70548607  0.17002422  1
  N  N145  1  0.51269638  0.86428639  0.34889214  1
  N  N146  1  0.00361901  0.02563627  0.62649651  1
  N  N147  1  0.82985329  0.19173921  0.85971713  1
  N  N148  1  0.15837698  0.13822499  0.12171869  1
  N  N149  1  0.18062990  0.52900928  0.14327868  1
  N  N150  1  0.33657973  0.01437823  0.86289622  1
  N  N151  1  0.45208512  0.49392778  0.88776186  1
  N  N152  1  0.83400320  0.14377446  0.63191324  1
  N  N153  1  0.66740770  0.30901107  0.66787130  1
  N  N154  1  0.35254409  0.68975480  0.11599495  1
  N  N155  1  0.83973055  0.17574500  0.10135301  1
  N  N156  1  0.50021224  0.86118095  0.83945241  1
  N  N157  1  0.32496052  0.30318087  0.16670009  1
  N  N158  1  0.16230189  0.17885420  0.86910315  1
  N  N159  1  0.32570784  0.65780463  0.86703724  1
  N  N160  1  0.49289557  0.17609012  0.85524822  1
  N  N161  1  0.66895477  -0.01596886  0.89986970  1
  N  N162  1  0.48122643  0.14775994  0.11719775  1
  N  N163  1  -0.00795323  0.35769853  0.39204857  1
  N  N164  1  0.33575485  0.66011429  0.61745280  1
  N  N165  1  0.69089384  0.65609019  0.86029764  1
  N  N166  1  -0.00323303  -0.01845202  0.39235251  1
  N  N167  1  0.50049555  0.19101019  0.61382495  1
  N  N168  1  0.82054113  0.85410439  0.09712738  1
  N  N169  1  0.66826847  0.68664419  0.60290255  1
  N  N170  1  0.65709521  0.34418755  0.39459831  1
  N  N171  1  0.16652720  0.51158041  0.36951291  1
  N  N172  1  0.01129539  0.32927618  0.91271514  1
  N  N173  1  0.33205559  -0.01423863  0.40637134  1
  N  N174  1  0.16568846  0.86052375  0.58247782  1
  N  N175  1  -0.00027616  0.30914309  0.15253971  1
  N  N176  1  0.16747883  0.82520601  0.84993249  1
  O  O177  1  0.50868019  0.80888640  0.10991204  1
  O  O178  1  0.16136600  0.16689581  0.60971200  1
  O  O179  1  -0.00249022  0.02289994  0.12500249  1
  O  O180  1  0.70324076  0.33933369  0.88121715  1
  O  O181  1  0.50261008  0.48488707  0.37661424  1
  O  O182  1  0.15031666  0.81578211  0.37174242  1
  O  O183  1  -0.00194174  -0.03743781  0.87587519  1
  O  O184  1  0.18596528  0.19273769  0.35012209  1
  O  O185  1  -0.00299397  0.63220767  0.38160238  1
  O  O186  1  0.49480950  0.81580592  0.60066557  1
  O  O187  1  0.02862390  0.66862229  0.96114128  1
  O  O188  1  0.83569831  0.86110385  0.33020960  1
  O  O189  1  0.86882073  0.53166306  0.87206085  1
  O  O190  1  0.67018037  0.00012667  0.64864763  1
  O  O191  1  0.00435759  0.32145598  0.65740416  1
  O  O192  1  0.49828799  0.14631661  0.37951401  1
  O  O193  1  0.33438476  0.35680904  0.64225697  1
  O  O194  1  0.15885671  0.82329392  0.11068956  1
  O  O195  1  0.68484474  -0.00715490  0.12420872  1
  O  O196  1  0.79576859  0.43961501  0.09678659  1
  O  O197  1  0.33223375  0.00590286  0.14042347  1
  O  O198  1  0.49998112  0.45766718  0.65477701  1
  O  O199  1  0.65633113  0.69809601  0.11085315  1
  O  O200  1  0.32810075  0.30890445  0.40327115  1
  O  O201  1  0.82764711  0.80456151  0.57322763  1
  O  O202  1  0.15352541  0.47485305  0.62363608  1
  O  O203  1  0.85062520  0.80171787  0.84795568  1
  O  O204  1  0.50045688  0.51395519  0.13164960  1
  O  O205  1  0.15975616  0.47249466  0.90278533  1
  O  O206  1  -0.02424203  0.64372665  0.58529605  1
  O  O207  1  0.66987645  0.63362774  0.35519618  1
  O  O208  1  0.67572303  0.03247414  0.37756621  1
  O  O209  1  0.31511555  -0.02152735  0.63188516  1
  O  O210  1  0.64881978  0.35096118  0.11852920  1
  O  O211  1  0.83190671  0.18103874  0.35638463  1
  O  O212  1  0.36633643  0.66271686  0.38234589  1
  O  O213  1  0.79438133  0.48333847  0.29557014  1
  O  O214  1  0.85153585  0.52690520  0.66318852  1
  O  O215  1  0.31439832  0.36632628  0.91386580  1
