# generated using pymatgen
data_Sr24Ta24N11O13
_symmetry_space_group_name_H-M   'P 1'
_cell_length_a   16.79418670
_cell_length_b   16.77155846
_cell_length_c   15.73795554
_cell_angle_alpha   89.75138614
_cell_angle_beta   89.63110919
_cell_angle_gamma   90.00706099
_symmetry_Int_Tables_number   1
_chemical_formula_structural   Sr24Ta24N11O13
_chemical_formula_sum   'Sr72 Ta72 N33 O39'
_cell_volume   4432.69261795
_cell_formula_units_Z   3
loop_
 _symmetry_equiv_pos_site_id
 _symmetry_equiv_pos_as_xyz
  1  'x, y, z'
loop_
 _atom_site_type_symbol
 _atom_site_label
 _atom_site_symmetry_multiplicity
 _atom_site_fract_x
 _atom_site_fract_y
 _atom_site_fract_z
 _atom_site_occupancy
  Sr  Sr0  1  -0.00614106  0.16353151  0.11664741  1
  Sr  Sr1  1  -0.00015401  0.14400428  0.67028499  1
  Sr  Sr2  1  0.00286720  0.50458361  0.09544482  1
  Sr  Sr3  1  -0.00904544  0.50064915  0.63367840  1
  Sr  Sr4  1  -0.00663673  0.83134914  0.12568932  1
  Sr  Sr5  1  -0.00335486  0.84841720  0.58330768  1
  Sr  Sr6  1  0.34334525  0.17841827  0.07920265  1
  Sr  Sr7  1  0.32257211  0.15657517  0.62890753  1
  Sr  Sr8  1  0.31941416  0.48624357  0.17027379  1
  Sr  Sr9  1  0.33843479  0.51205713  0.61494240  1
  Sr  Sr10  1  0.32704395  0.83314447  0.11961716  1
  Sr  Sr11  1  0.31164332  0.83551617  0.65834862  1
  Sr  Sr12  1  0.64232803  0.16588368  0.17850040  1
  Sr  Sr13  1  0.67705263  0.16436337  0.61721067  1
  Sr  Sr14  1  0.66680294  0.49681611  0.12290714  1
  Sr  Sr15  1  0.65683671  0.49597205  0.59362774  1
  Sr  Sr16  1  0.66721376  0.84604774  0.12239739  1
  Sr  Sr17  1  0.67340159  0.81829437  0.66384042  1
  Sr  Sr18  1  0.15411853  -0.00405362  0.16125948  1
  Sr  Sr19  1  0.17348552  -0.00078303  0.61664718  1
  Sr  Sr20  1  0.16386956  0.33084046  0.13172964  1
  Sr  Sr21  1  0.17494410  0.34540448  0.58343248  1
  Sr  Sr22  1  0.17122454  0.66986100  0.10625580  1
  Sr  Sr23  1  0.18381602  0.66010164  0.65527800  1
  Sr  Sr24  1  0.49126030  -0.00632786  0.13318131  1
  Sr  Sr25  1  0.49744696  0.02153889  0.57922238  1
  Sr  Sr26  1  0.50074618  0.33601260  0.12136797  1
  Sr  Sr27  1  0.49355535  0.31899513  0.67053558  1
  Sr  Sr28  1  0.51671294  0.65252138  0.08684535  1
  Sr  Sr29  1  0.51396903  0.67205122  0.62470850  1
  Sr  Sr30  1  0.84579056  -0.01322072  0.07468513  1
  Sr  Sr31  1  0.81922345  0.00870301  0.63948943  1
  Sr  Sr32  1  0.83781662  0.31719168  0.12786090  1
  Sr  Sr33  1  0.82941368  0.35070866  0.59549534  1
  Sr  Sr34  1  0.82520266  0.67690911  0.16912260  1
  Sr  Sr35  1  0.85523046  0.67450477  0.62653077  1
  Sr  Sr36  1  0.01768175  0.18021213  0.32830507  1
  Sr  Sr37  1  -0.01417616  0.16160841  0.88158514  1
  Sr  Sr38  1  -0.01233868  0.49620392  0.40819518  1
  Sr  Sr39  1  0.00535757  0.51404178  0.86560134  1
  Sr  Sr40  1  -0.00131570  0.83635015  0.37432019  1
  Sr  Sr41  1  -0.00202929  0.83618299  0.91093059  1
  Sr  Sr42  1  0.32088135  0.14729552  0.42095104  1
  Sr  Sr43  1  0.33409065  0.16805243  0.86859738  1
  Sr  Sr44  1  0.33067853  0.49555781  0.38394670  1
  Sr  Sr45  1  0.33929660  0.49793518  0.83459784  1
  Sr  Sr46  1  0.32975767  0.84041447  0.33574588  1
  Sr  Sr47  1  0.32388590  0.83064204  0.88123522  1
  Sr  Sr48  1  0.68236700  0.15217522  0.39564670  1
  Sr  Sr49  1  0.66554063  0.17285193  0.83350962  1
  Sr  Sr50  1  0.66927888  0.50253624  0.37229522  1
  Sr  Sr51  1  0.65298335  0.48118690  0.91066698  1
  Sr  Sr52  1  0.65748392  0.82954989  0.35760935  1
  Sr  Sr53  1  0.67459269  0.84881506  0.87954897  1
  Sr  Sr54  1  0.16449701  -0.01089741  0.37935537  1
  Sr  Sr55  1  0.17782985  0.01360379  0.83010456  1
  Sr  Sr56  1  0.17016537  0.33724505  0.37136400  1
  Sr  Sr57  1  0.16105800  0.32569265  0.90692133  1
  Sr  Sr58  1  0.19866265  0.66304481  0.35258194  1
  Sr  Sr59  1  0.16422543  0.66793806  0.88014303  1
  Sr  Sr60  1  0.50454064  0.00148793  0.36087533  1
  Sr  Sr61  1  0.48128897  0.00021865  0.91826201  1
  Sr  Sr62  1  0.50316549  0.33889544  0.33194778  1
  Sr  Sr63  1  0.49710053  0.32510546  0.88055868  1
  Sr  Sr64  1  0.50657116  0.63918107  0.42130905  1
  Sr  Sr65  1  0.51722249  0.67060806  0.87279198  1
  Sr  Sr66  1  0.84218177  -0.00374422  0.41387694  1
  Sr  Sr67  1  0.83042084  0.00668648  0.86476420  1
  Sr  Sr68  1  0.83458810  0.32598774  0.38239854  1
  Sr  Sr69  1  0.83619614  0.36011416  0.89885103  1
  Sr  Sr70  1  0.85727072  0.67908449  0.37295796  1
  Sr  Sr71  1  0.83449026  0.66865889  0.83549888  1
  Ta  Ta72  1  0.16248808  0.13678370  -0.00206362  1
  Ta  Ta73  1  0.12424233  0.16760821  0.50424316  1
  Ta  Ta74  1  0.20133741  0.49711700  -0.00289490  1
  Ta  Ta75  1  0.15824581  0.53196786  0.50307601  1
  Ta  Ta76  1  0.16474768  0.87334319  -0.00427439  1
  Ta  Ta77  1  0.18382146  0.81019661  0.49874415  1
  Ta  Ta78  1  0.53918872  0.16631693  0.00759455  1
  Ta  Ta79  1  0.49819955  0.21298276  0.49588092  1
  Ta  Ta80  1  0.45508665  0.49177285  0.00348722  1
  Ta  Ta81  1  0.49571780  0.44273194  0.50374949  1
  Ta  Ta82  1  0.50035683  0.82524122  0.00148446  1
  Ta  Ta83  1  0.47823900  0.83555951  0.49666702  1
  Ta  Ta84  1  0.79686945  0.17091717  -0.00388833  1
  Ta  Ta85  1  0.88347689  0.16815666  0.50661899  1
  Ta  Ta86  1  0.82591544  0.55960273  0.00080484  1
  Ta  Ta87  1  0.81760266  0.53376431  0.49994134  1
  Ta  Ta88  1  0.82671138  0.79066273  -0.00229787  1
  Ta  Ta89  1  0.79932435  0.82868045  0.50819931  1
  Ta  Ta90  1  0.21746162  0.16359795  0.24939867  1
  Ta  Ta91  1  0.16290513  0.21570322  0.74311639  1
  Ta  Ta92  1  0.12779809  0.50388751  0.24828236  1
  Ta  Ta93  1  0.16491422  0.45854056  0.74969123  1
  Ta  Ta94  1  0.14658065  0.81308415  0.24610027  1
  Ta  Ta95  1  0.12688955  0.83564019  0.74975904  1
  Ta  Ta96  1  0.44348568  0.16432229  0.24947584  1
  Ta  Ta97  1  0.49490838  0.12530958  0.75065936  1
  Ta  Ta98  1  0.50534541  0.53164688  0.24709440  1
  Ta  Ta99  1  0.52788540  0.50346693  0.74550176  1
  Ta  Ta100  1  0.50214788  0.76996349  0.25058966  1
  Ta  Ta101  1  0.49114541  0.86324497  0.74758403  1
  Ta  Ta102  1  0.83280548  0.12864463  0.25009683  1
  Ta  Ta103  1  0.83856260  0.22546059  0.74319500  1
  Ta  Ta104  1  0.84458841  0.48567043  0.25274692  1
  Ta  Ta105  1  0.79325930  0.49327328  0.74433092  1
  Ta  Ta106  1  0.83214813  0.87215252  0.24622197  1
  Ta  Ta107  1  0.87208711  0.84141748  0.75327428  1
  Ta  Ta108  1  -0.04047058  0.00049164  0.24144368  1
  Ta  Ta109  1  -0.00123973  -0.04041746  0.75500349  1
  Ta  Ta110  1  -0.00579838  0.37303968  0.25847816  1
  Ta  Ta111  1  0.01604837  0.32767975  0.73884380  1
  Ta  Ta112  1  0.02450561  0.65011933  0.25363873  1
  Ta  Ta113  1  0.00820866  0.71539089  0.75186713  1
  Ta  Ta114  1  0.32888616  0.03713028  0.24609545  1
  Ta  Ta115  1  0.37467028  -0.00020440  0.74909679  1
  Ta  Ta116  1  0.32974005  0.28981031  0.25521780  1
  Ta  Ta117  1  0.29546566  0.33026823  0.74732810  1
  Ta  Ta118  1  0.38144075  0.65970739  0.25470755  1
  Ta  Ta119  1  0.36436844  0.67222784  0.74854928  1
  Ta  Ta120  1  0.72200209  0.00112858  0.25094408  1
  Ta  Ta121  1  0.60892082  -0.00001299  0.74810434  1
  Ta  Ta122  1  0.68806693  0.34629690  0.25154367  1
  Ta  Ta123  1  0.68426222  0.35623332  0.74413788  1
  Ta  Ta124  1  0.63325249  0.66185833  0.25176215  1
  Ta  Ta125  1  0.66927836  0.61825004  0.74625914  1
  Ta  Ta126  1  0.04170888  0.00539365  -0.00584326  1
  Ta  Ta127  1  0.00493782  0.04898006  0.49806844  1
  Ta  Ta128  1  -0.00106865  0.32855003  0.00114033  1
  Ta  Ta129  1  0.00258586  0.28990506  0.50409032  1
  Ta  Ta130  1  -0.04059974  0.66840582  -0.00285843  1
  Ta  Ta131  1  0.04841189  0.66792623  0.49829715  1
  Ta  Ta132  1  0.29107812  0.00287846  0.00008681  1
  Ta  Ta133  1  0.33654326  -0.04842227  0.49718954  1
  Ta  Ta134  1  0.32868281  0.37913727  0.00100916  1
  Ta  Ta135  1  0.37181040  0.32738082  0.49693619  1
  Ta  Ta136  1  0.34073062  0.61973559  0.00343899  1
  Ta  Ta137  1  0.33470782  0.70598818  0.49936838  1
  Ta  Ta138  1  0.66715599  0.04874690  0.00014304  1
  Ta  Ta139  1  0.66645471  -0.04484540  0.50839965  1
  Ta  Ta140  1  0.66801748  0.28012159  0.00237283  1
  Ta  Ta141  1  0.62292991  0.32747092  0.50234282  1
  Ta  Ta142  1  0.69997832  0.67265749  -0.00380664  1
  Ta  Ta143  1  0.69678850  0.67922658  0.50508360  1
  N  N144  1  0.16647821  0.50082266  0.62360722  1
  N  N145  1  0.67560832  0.66296151  0.62835684  1
  N  N146  1  0.16589132  0.83300413  0.36926751  1
  N  N147  1  0.83971439  0.17925225  0.63152721  1
  N  N148  1  0.33277854  0.32650900  0.37679185  1
  N  N149  1  0.83155605  0.50094491  0.37398848  1
  N  N150  1  0.35256290  0.66797320  0.37910796  1
  N  N151  1  0.16908185  0.49369415  0.87258815  1
  N  N152  1  0.33402858  -0.00506184  0.37933949  1
  N  N153  1  0.33735008  -0.00483048  0.61789966  1
  N  N154  1  0.00254806  0.00316096  0.87321499  1
  N  N155  1  0.33021165  0.00413762  0.11661414  1
  N  N156  1  0.15945548  0.83515118  0.62107260  1
  N  N157  1  -0.00394569  0.00209646  0.12327480  1
  N  N158  1  0.82891222  0.83345654  0.12824842  1
  N  N159  1  0.49296550  0.49479189  0.12996960  1
  N  N160  1  0.16243617  0.17181789  0.62720346  1
  N  N161  1  0.49825940  0.48471417  0.62878885  1
  N  N162  1  0.65846086  0.32951310  0.62690489  1
  N  N163  1  0.01185359  0.66903795  0.37502498  1
  N  N164  1  0.34924983  0.67347624  0.62765704  1
  N  N165  1  -0.00313066  0.67522593  0.87306440  1
  N  N166  1  0.00233958  0.34424747  0.61559269  1
  N  N167  1  0.82867708  0.50447822  0.62464665  1
  N  N168  1  0.49292173  0.16360852  0.12512787  1
  N  N169  1  0.65055301  -0.01055109  0.62647028  1
  N  N170  1  0.16535500  0.83571137  0.12224142  1
  N  N171  1  0.33143787  0.00244513  0.86829044  1
  N  N172  1  -0.00150084  0.33715007  0.37617968  1
  N  N173  1  0.83292369  0.83745877  0.62790753  1
  N  N174  1  0.16676061  0.83899006  0.87222239  1
  N  N175  1  0.16115867  0.49819088  0.12817409  1
  N  N176  1  0.83268656  0.83467659  0.88033818  1
  O  O177  1  0.81483112  0.51094050  0.88096182  1
  O  O178  1  0.49091655  0.84102230  0.62640140  1
  O  O179  1  0.01349367  0.68781656  0.61986587  1
  O  O180  1  0.49829205  0.81712762  0.37461547  1
  O  O181  1  0.67690617  0.66313521  0.86768316  1
  O  O182  1  0.50130398  0.16165640  0.87737313  1
  O  O183  1  0.82654278  0.52208096  0.12515751  1
  O  O184  1  0.32654563  0.32460926  0.62426491  1
  O  O185  1  0.84441182  0.15137730  0.37586925  1
  O  O186  1  0.49896594  0.84131933  0.87824991  1
  O  O187  1  0.34957813  0.64833028  0.87982095  1
  O  O188  1  0.68938063  -0.00839281  0.38528929  1
  O  O189  1  -0.00575920  0.66334955  0.12211245  1
  O  O190  1  -0.00588266  0.01395921  0.37337082  1
  O  O191  1  0.49867967  0.48684812  0.87497025  1
  O  O192  1  0.47996931  0.16808097  0.37772031  1
  O  O193  1  -0.00402709  0.34275223  0.12639529  1
  O  O194  1  0.66730809  0.66718568  0.12804746  1
  O  O195  1  0.49734721  0.48708601  0.37505921  1
  O  O196  1  0.17147064  0.16798285  0.37136393  1
  O  O197  1  0.31784213  0.33951139  0.87556609  1
  O  O198  1  0.82263620  0.15502216  0.12036651  1
  O  O199  1  0.32809042  0.33601996  0.12363474  1
  O  O200  1  0.33813571  0.63948420  0.12851775  1
  O  O201  1  0.00333027  0.00064565  0.62009272  1
  O  O202  1  0.82044551  0.18512662  0.86635899  1
  O  O203  1  0.17046711  0.49667545  0.37691836  1
  O  O204  1  0.65167782  0.02172064  0.87461828  1
  O  O205  1  0.50554575  0.81095725  0.12589592  1
  O  O206  1  0.65615312  0.66733161  0.37789511  1
  O  O207  1  0.66502531  0.32515124  0.87973131  1
  O  O208  1  0.49648748  0.17036206  0.62189530  1
  O  O209  1  0.00359658  0.33189227  0.87719961  1
  O  O210  1  0.16396135  0.16805534  0.87197869  1
  O  O211  1  0.66512637  0.34105128  0.37416325  1
  O  O212  1  0.83660741  0.83982855  0.38124388  1
  O  O213  1  0.17352636  0.15600718  0.12410433  1
  O  O214  1  0.69003440  0.02063007  0.12105069  1
  O  O215  1  0.67950149  0.32798803  0.12647350  1
