# generated using pymatgen
data_Sr24Ta24N11O13
_symmetry_space_group_name_H-M   'P 1'
_cell_length_a   16.93271779
_cell_length_b   16.83797334
_cell_length_c   15.45299871
_cell_angle_alpha   89.74290584
_cell_angle_beta   90.56512019
_cell_angle_gamma   90.10091790
_symmetry_Int_Tables_number   1
_chemical_formula_structural   Sr24Ta24N11O13
_chemical_formula_sum   'Sr72 Ta72 N33 O39'
_cell_volume   4405.58026982
_cell_formula_units_Z   3
loop_
 _symmetry_equiv_pos_site_id
 _symmetry_equiv_pos_as_xyz
  1  'x, y, z'
loop_
 _atom_site_type_symbol
 _atom_site_label
 _atom_site_symmetry_multiplicity
 _atom_site_fract_x
 _atom_site_fract_y
 _atom_site_fract_z
 _atom_site_occupancy
  Sr  Sr0  1  0.01556831  0.17953363  0.13095676  1
  Sr  Sr1  1  -0.07807521  0.13545332  0.70440417  1
  Sr  Sr2  1  -0.05030827  0.49673380  0.09307177  1
  Sr  Sr3  1  0.02484729  0.49756340  0.64540651  1
  Sr  Sr4  1  0.00137071  0.81600383  0.14833106  1
  Sr  Sr5  1  0.01096160  0.86170624  0.59247923  1
  Sr  Sr6  1  0.32643999  0.15753302  0.13507449  1
  Sr  Sr7  1  0.34612596  0.17947434  0.61665370  1
  Sr  Sr8  1  0.36405287  0.48554996  0.12699637  1
  Sr  Sr9  1  0.33456081  0.52183950  0.56505828  1
  Sr  Sr10  1  0.32836199  0.84005259  0.11328724  1
  Sr  Sr11  1  0.33694177  0.82808758  0.68379175  1
  Sr  Sr12  1  0.62228343  0.14115592  0.10258811  1
  Sr  Sr13  1  0.62517350  0.17789822  0.58774422  1
  Sr  Sr14  1  0.68984415  0.49351896  0.16204090  1
  Sr  Sr15  1  0.65017673  0.49763547  0.59969006  1
  Sr  Sr16  1  0.61756495  0.82323877  0.08967079  1
  Sr  Sr17  1  0.65759661  0.84411105  0.64329928  1
  Sr  Sr18  1  0.16002115  -0.01684157  0.07592679  1
  Sr  Sr19  1  0.19944808  -0.00042362  0.66040191  1
  Sr  Sr20  1  0.18809245  0.34799573  0.15747166  1
  Sr  Sr21  1  0.17981147  0.34201895  0.60648346  1
  Sr  Sr22  1  0.18826908  0.63379235  0.18065022  1
  Sr  Sr23  1  0.16163699  0.67181629  0.61422440  1
  Sr  Sr24  1  0.47286001  -0.01498602  0.13934891  1
  Sr  Sr25  1  0.49424127  0.02993858  0.59568475  1
  Sr  Sr26  1  0.49951245  0.31664274  0.07936994  1
  Sr  Sr27  1  0.49589935  0.32245078  0.63396267  1
  Sr  Sr28  1  0.46424334  0.68701361  0.06031149  1
  Sr  Sr29  1  0.50663587  0.69066566  0.64464259  1
  Sr  Sr30  1  0.90011418  -0.01594323  0.21864141  1
  Sr  Sr31  1  0.82019267  -0.01505365  0.64210198  1
  Sr  Sr32  1  0.83499391  0.31450491  0.10877023  1
  Sr  Sr33  1  0.83095707  0.35163108  0.60608905  1
  Sr  Sr34  1  0.82776580  0.65697699  0.13581601  1
  Sr  Sr35  1  0.91897077  0.69129344  0.58555125  1
  Sr  Sr36  1  -0.02915026  0.16440633  0.33948292  1
  Sr  Sr37  1  -0.02844527  0.17064915  0.90461273  1
  Sr  Sr38  1  -0.01263149  0.39222176  0.46284384  1
  Sr  Sr39  1  -0.01054782  0.50082749  0.86771692  1
  Sr  Sr40  1  0.01265445  0.84235887  0.38104997  1
  Sr  Sr41  1  -0.00628283  0.83138633  0.92126192  1
  Sr  Sr42  1  0.32948323  0.14736489  0.39335727  1
  Sr  Sr43  1  0.29968196  0.18383765  0.82386289  1
  Sr  Sr44  1  0.32645982  0.50186968  0.34729224  1
  Sr  Sr45  1  0.35264533  0.48943506  0.91385297  1
  Sr  Sr46  1  0.34538543  0.84368804  0.34126684  1
  Sr  Sr47  1  0.30127689  0.80498290  0.87893040  1
  Sr  Sr48  1  0.64525716  0.14717822  0.38090012  1
  Sr  Sr49  1  0.69038270  0.20406005  0.92324860  1
  Sr  Sr50  1  0.70057655  0.51372468  0.36954445  1
  Sr  Sr51  1  0.64998655  0.50816786  0.81241545  1
  Sr  Sr52  1  0.64165789  0.83257664  0.39102097  1
  Sr  Sr53  1  0.68332569  0.81956415  0.87128567  1
  Sr  Sr54  1  0.17077291  0.00398076  0.43011164  1
  Sr  Sr55  1  0.14372711  0.01265312  0.87665231  1
  Sr  Sr56  1  0.16293982  0.31011486  0.37717916  1
  Sr  Sr57  1  0.17589811  0.34696065  0.84836669  1
  Sr  Sr58  1  0.17470765  0.69565022  0.37798480  1
  Sr  Sr59  1  0.15391640  0.65284492  0.83597009  1
  Sr  Sr60  1  0.48665172  0.00565416  0.36356934  1
  Sr  Sr61  1  0.60862367  0.00613788  0.94792748  1
  Sr  Sr62  1  0.53060092  0.40953400  0.26303490  1
  Sr  Sr63  1  0.50006730  0.32152535  0.86044621  1
  Sr  Sr64  1  0.52867263  0.65205322  0.43638179  1
  Sr  Sr65  1  0.52092207  0.68302772  0.85365541  1
  Sr  Sr66  1  0.84517932  -0.01458256  0.40151653  1
  Sr  Sr67  1  0.82334612  0.00207702  0.87136899  1
  Sr  Sr68  1  0.81956595  0.31834350  0.36130436  1
  Sr  Sr69  1  0.83919493  0.34789013  0.85405598  1
  Sr  Sr70  1  0.84787441  0.69736189  0.34982668  1
  Sr  Sr71  1  0.84692621  0.67594931  0.91806859  1
  Ta  Ta72  1  0.16897594  0.19750491  -0.00448577  1
  Ta  Ta73  1  0.14300215  0.16272902  0.53409093  1
  Ta  Ta74  1  0.15803790  0.50392248  0.00602970  1
  Ta  Ta75  1  0.14629880  0.51306731  0.46740529  1
  Ta  Ta76  1  0.16153012  0.78296427  0.01110573  1
  Ta  Ta77  1  0.21344475  0.83916237  0.51699605  1
  Ta  Ta78  1  0.45036556  0.14168310  -0.02556284  1
  Ta  Ta79  1  0.48987727  0.27227502  0.41587335  1
  Ta  Ta80  1  0.55016309  0.51047180  0.00077401  1
  Ta  Ta81  1  0.49730000  0.44850390  0.46923590  1
  Ta  Ta82  1  0.45658482  0.89891717  -0.06772665  1
  Ta  Ta83  1  0.46648491  0.84351088  0.51645925  1
  Ta  Ta84  1  0.83681526  0.11519862  0.06408556  1
  Ta  Ta85  1  0.83182004  0.15254242  0.49973435  1
  Ta  Ta86  1  0.77505100  0.50233003  -0.03241307  1
  Ta  Ta87  1  0.84787408  0.53812359  0.50685493  1
  Ta  Ta88  1  0.82923002  0.85606376  0.02550453  1
  Ta  Ta89  1  0.80341264  0.82889812  0.50832842  1
  Ta  Ta90  1  0.17327541  0.13617222  0.25886321  1
  Ta  Ta91  1  0.11306308  0.17182890  0.72788542  1
  Ta  Ta92  1  0.08672205  0.49580224  0.27949197  1
  Ta  Ta93  1  0.22159000  0.50127743  0.73711669  1
  Ta  Ta94  1  0.17151282  0.87333614  0.26064328  1
  Ta  Ta95  1  0.11808642  0.83692145  0.76056291  1
  Ta  Ta96  1  0.49571167  0.19483728  0.25022205  1
  Ta  Ta97  1  0.50706320  0.11823503  0.79413833  1
  Ta  Ta98  1  0.51537005  0.59025376  0.23745829  1
  Ta  Ta99  1  0.45758102  0.50079991  0.73642898  1
  Ta  Ta100  1  0.50701887  0.76162314  0.26351484  1
  Ta  Ta101  1  0.50979281  0.90700780  0.75761370  1
  Ta  Ta102  1  0.78035037  0.13684024  0.23741803  1
  Ta  Ta103  1  0.74702504  0.17432800  0.74084589  1
  Ta  Ta104  1  0.90223342  0.50411182  0.31263630  1
  Ta  Ta105  1  0.83617069  0.55373791  0.73185607  1
  Ta  Ta106  1  0.77435722  0.84512867  0.22813933  1
  Ta  Ta107  1  0.85855988  0.81419364  0.75618145  1
  Ta  Ta108  1  0.07433229  0.01034642  0.25915198  1
  Ta  Ta109  1  -0.00396402  -0.03039952  0.76375927  1
  Ta  Ta110  1  -0.00309206  0.37054472  0.23930114  1
  Ta  Ta111  1  0.01268342  0.30901565  0.73462287  1
  Ta  Ta112  1  0.00846266  0.63497894  0.24335259  1
  Ta  Ta113  1  -0.02120697  0.69160204  0.77590869  1
  Ta  Ta114  1  0.27695335  0.00398785  0.24445167  1
  Ta  Ta115  1  0.38048263  0.00326348  0.78979398  1
  Ta  Ta116  1  0.36537875  0.31113484  0.25982259  1
  Ta  Ta117  1  0.33766259  0.38217171  0.73452498  1
  Ta  Ta118  1  0.37146762  0.67309062  0.25302085  1
  Ta  Ta119  1  0.33687155  0.61745108  0.74903104  1
  Ta  Ta120  1  0.67185052  -0.01089445  0.23805085  1
  Ta  Ta121  1  0.64622272  0.03279112  0.74309766  1
  Ta  Ta122  1  0.66331454  0.28699648  0.23038394  1
  Ta  Ta123  1  0.67072727  0.32061789  0.73617154  1
  Ta  Ta124  1  0.65525659  0.68578625  0.25284465  1
  Ta  Ta125  1  0.73400316  0.67550198  0.71838679  1
  Ta  Ta126  1  -0.04390251  -0.00084290  0.02895981  1
  Ta  Ta127  1  -0.00164002  0.05487395  0.51139420  1
  Ta  Ta128  1  0.05057894  0.33919639  -0.00252371  1
  Ta  Ta129  1  0.00136854  0.22467743  0.56315714  1
  Ta  Ta130  1  0.05484072  0.65057433  0.01699346  1
  Ta  Ta131  1  0.00981222  0.59250319  0.42578721  1
  Ta  Ta132  1  0.33525565  0.01451373  -0.01758261  1
  Ta  Ta133  1  0.33977933  -0.05066223  0.51432824  1
  Ta  Ta134  1  0.31796806  0.30284316  -0.00576097  1
  Ta  Ta135  1  0.35509925  0.34041735  0.47429544  1
  Ta  Ta136  1  0.26676020  0.64836511  0.00529330  1
  Ta  Ta137  1  0.33963595  0.72637968  0.50656235  1
  Ta  Ta138  1  0.75791491  -0.01479355  0.09108776  1
  Ta  Ta139  1  0.68270447  -0.01083189  0.49970749  1
  Ta  Ta140  1  0.66539280  0.38620147  -0.01071900  1
  Ta  Ta141  1  0.63242325  0.34202690  0.45385474  1
  Ta  Ta142  1  0.66991978  0.62799118  -0.00983396  1
  Ta  Ta143  1  0.72115828  0.67562879  0.51077815  1
  N  N144  1  0.17221269  0.83726082  0.64878820  1
  N  N145  1  0.68355859  0.67408723  0.38971369  1
  N  N146  1  -0.01731922  0.65240006  0.11211030  1
  N  N147  1  0.33778041  0.34359313  0.61231443  1
  N  N148  1  0.65983350  0.34779758  0.85803034  1
  N  N149  1  0.84491809  0.83730924  0.62860476  1
  N  N150  1  0.66036102  0.33926388  0.11984645  1
  N  N151  1  0.15317019  0.82400117  0.88661085  1
  N  N152  1  0.34406001  0.32672318  0.12506501  1
  N  N153  1  0.51791563  0.52916040  0.12423602  1
  N  N154  1  0.00446772  0.34018609  0.11353587  1
  N  N155  1  0.84998497  0.80640528  0.14780408  1
  N  N156  1  0.00014708  0.65898525  0.89689637  1
  N  N157  1  0.02192847  0.00306623  0.13405566  1
  N  N158  1  0.65050600  0.01393668  0.61500275  1
  N  N159  1  0.87552235  0.16412830  0.17936571  1
  N  N160  1  0.01216954  0.01652601  0.39216952  1
  N  N161  1  0.48909467  0.15635920  0.36993175  1
  N  N162  1  0.87368867  0.50114576  0.62285681  1
  N  N163  1  0.33492250  0.33779754  0.87316749  1
  N  N164  1  0.50100570  0.85149776  0.63991428  1
  N  N165  1  0.17561716  0.84643289  0.38571478  1
  N  N166  1  0.67190951  0.36121175  0.33418383  1
  N  N167  1  0.83621053  0.83528587  0.89710838  1
  N  N168  1  0.20268545  0.17100931  0.64888953  1
  N  N169  1  0.52831706  0.83494718  0.85765152  1
  N  N170  1  0.82674968  0.50542627  0.84837329  1
  N  N171  1  0.31287451  0.00094638  0.10964716  1
  N  N172  1  0.54504650  0.16475863  0.91141612  1
  N  N173  1  0.84419360  0.45473006  0.41929556  1
  N  N174  1  0.01710260  0.69515056  0.35332919  1
  N  N175  1  0.00028524  0.33977130  0.61439907  1
  N  N176  1  0.30212896  0.34390117  0.35721472  1
  O  O177  1  0.17219687  0.83129309  0.13086411  1
  O  O178  1  0.46892840  0.84554560  0.04420986  1
  O  O179  1  0.32600545  0.65694890  0.12510447  1
  O  O180  1  0.64843394  0.33621010  0.60309896  1
  O  O181  1  0.28348044  0.03159125  0.85852156  1
  O  O182  1  -0.01557383  -0.00926747  0.89274021  1
  O  O183  1  0.82982285  0.16701522  0.82817807  1
  O  O184  1  0.15126038  0.49256108  0.13464187  1
  O  O185  1  0.47648267  0.15886499  0.10889013  1
  O  O186  1  0.34606615  0.67198965  0.62771669  1
  O  O187  1  0.03643622  0.64136135  0.68287698  1
  O  O188  1  0.17917360  0.51110808  0.59747781  1
  O  O189  1  0.18055794  0.49815369  0.86476292  1
  O  O190  1  0.17165846  0.17053617  0.12193715  1
  O  O191  1  0.18474299  0.46927039  0.35484346  1
  O  O192  1  0.67369774  0.67131918  0.11091431  1
  O  O193  1  0.48928963  0.17325648  0.68241687  1
  O  O194  1  0.62337132  -0.01377293  0.11574489  1
  O  O195  1  0.30571702  0.64346151  0.88285178  1
  O  O196  1  0.01687174  0.33946869  0.87000943  1
  O  O197  1  0.79701383  0.84107491  0.36202756  1
  O  O198  1  0.32833735  -0.00735200  0.37637310  1
  O  O199  1  0.49753754  0.80676737  0.38759180  1
  O  O200  1  -0.01838660  0.00133796  0.63648622  1
  O  O201  1  0.15055110  0.17129556  0.86700680  1
  O  O202  1  0.17380082  0.15685551  0.39472527  1
  O  O203  1  0.50443730  0.52141313  0.36011659  1
  O  O204  1  0.81990836  0.52450995  0.22873416  1
  O  O205  1  0.69363119  -0.04066053  0.82480384  1
  O  O206  1  0.79336182  0.16270607  0.61774097  1
  O  O207  1  0.81776093  0.14348645  0.37038533  1
  O  O208  1  0.49284001  0.47641279  0.59884164  1
  O  O209  1  0.65121311  0.65808589  0.62395185  1
  O  O210  1  0.33620588  0.68883421  0.38124392  1
  O  O211  1  0.50268693  0.50678558  0.86044048  1
  O  O212  1  0.01337234  0.29877410  0.33402075  1
  O  O213  1  0.34862783  -0.00806779  0.64141757  1
  O  O214  1  0.67617786  0.66734999  0.85947722  1
  O  O215  1  0.66656793  -0.00913842  0.36744642  1
