# generated using pymatgen
data_Sr24Ta24N11O13
_symmetry_space_group_name_H-M   'P 1'
_cell_length_a   16.78770730
_cell_length_b   16.79251587
_cell_length_c   15.72373031
_cell_angle_alpha   90.40004400
_cell_angle_beta   89.75905321
_cell_angle_gamma   90.14981402
_symmetry_Int_Tables_number   1
_chemical_formula_structural   Sr24Ta24N11O13
_chemical_formula_sum   'Sr72 Ta72 N33 O39'
_cell_volume   4432.48081442
_cell_formula_units_Z   3
loop_
 _symmetry_equiv_pos_site_id
 _symmetry_equiv_pos_as_xyz
  1  'x, y, z'
loop_
 _atom_site_type_symbol
 _atom_site_label
 _atom_site_symmetry_multiplicity
 _atom_site_fract_x
 _atom_site_fract_y
 _atom_site_fract_z
 _atom_site_occupancy
  Sr  Sr0  1  0.00118886  0.15976376  0.12063390  1
  Sr  Sr1  1  -0.00700995  0.17859037  0.66787837  1
  Sr  Sr2  1  0.00345853  0.51220278  0.13587369  1
  Sr  Sr3  1  -0.00939988  0.48470649  0.57798585  1
  Sr  Sr4  1  0.00197763  0.83750400  0.09067402  1
  Sr  Sr5  1  -0.01023148  0.81585248  0.64010635  1
  Sr  Sr6  1  0.34020043  0.18486071  0.10497561  1
  Sr  Sr7  1  0.31939694  0.17052862  0.61953546  1
  Sr  Sr8  1  0.35312887  0.51093323  0.10172903  1
  Sr  Sr9  1  0.33417818  0.51513710  0.64103374  1
  Sr  Sr10  1  0.31310951  0.85304231  0.15475295  1
  Sr  Sr11  1  0.33136469  0.84252598  0.61810618  1
  Sr  Sr12  1  0.66643767  0.18589056  0.09412383  1
  Sr  Sr13  1  0.66225534  0.17260847  0.61796837  1
  Sr  Sr14  1  0.67211965  0.50128275  0.15488940  1
  Sr  Sr15  1  0.67521145  0.50670111  0.64922316  1
  Sr  Sr16  1  0.68278915  0.83650727  0.13857395  1
  Sr  Sr17  1  0.64841845  0.83170699  0.60661902  1
  Sr  Sr18  1  0.16741615  0.00884123  0.12955451  1
  Sr  Sr19  1  0.17723171  -0.00629389  0.58057945  1
  Sr  Sr20  1  0.12759196  0.33185471  0.16375300  1
  Sr  Sr21  1  0.15606434  0.33301516  0.61895021  1
  Sr  Sr22  1  0.18080610  0.65118776  0.12803868  1
  Sr  Sr23  1  0.17098748  0.68702994  0.67495089  1
  Sr  Sr24  1  0.52693076  -0.01614223  0.11499326  1
  Sr  Sr25  1  0.48979173  0.00896240  0.66933705  1
  Sr  Sr26  1  0.50809892  0.34497509  0.13971346  1
  Sr  Sr27  1  0.49173997  0.31150625  0.57853262  1
  Sr  Sr28  1  0.49937881  0.67170579  0.08913147  1
  Sr  Sr29  1  0.51182712  0.64513830  0.63681807  1
  Sr  Sr30  1  0.83676446  -0.00030229  0.16224485  1
  Sr  Sr31  1  0.84197860  -0.01910940  0.60778715  1
  Sr  Sr32  1  0.83957304  0.31443614  0.07397329  1
  Sr  Sr33  1  0.81720513  0.32461426  0.63645175  1
  Sr  Sr34  1  0.84084019  0.66559050  0.12485787  1
  Sr  Sr35  1  0.84937776  0.65548414  0.62976680  1
  Sr  Sr36  1  0.01274083  0.15577884  0.32699743  1
  Sr  Sr37  1  -0.00186117  0.17111044  0.87785075  1
  Sr  Sr38  1  0.00800244  0.50528255  0.36315053  1
  Sr  Sr39  1  -0.01688045  0.50017239  0.91840699  1
  Sr  Sr40  1  -0.00377543  0.85519777  0.42616895  1
  Sr  Sr41  1  -0.00042895  0.81983462  0.85980491  1
  Sr  Sr42  1  0.34087633  0.18762690  0.39737357  1
  Sr  Sr43  1  0.32534847  0.16697569  0.87348951  1
  Sr  Sr44  1  0.35376200  0.51496454  0.38826426  1
  Sr  Sr45  1  0.33421269  0.50752038  0.87432520  1
  Sr  Sr46  1  0.32427829  0.83875693  0.37383638  1
  Sr  Sr47  1  0.32208726  0.85026094  0.86372541  1
  Sr  Sr48  1  0.66639951  0.18731179  0.39746861  1
  Sr  Sr49  1  0.65764121  0.17504217  0.87548124  1
  Sr  Sr50  1  0.66962683  0.50519913  0.35647170  1
  Sr  Sr51  1  0.67763277  0.50367510  0.84265578  1
  Sr  Sr52  1  0.66633702  0.83536599  0.36664937  1
  Sr  Sr53  1  0.65152440  0.82692759  0.90718907  1
  Sr  Sr54  1  0.17592677  0.00557173  0.36707118  1
  Sr  Sr55  1  0.16798506  0.01021158  0.92300545  1
  Sr  Sr56  1  0.14599500  0.33869882  0.38408659  1
  Sr  Sr57  1  0.17096683  0.31634429  0.82781401  1
  Sr  Sr58  1  0.17842997  0.66078347  0.33726108  1
  Sr  Sr59  1  0.17996245  0.64112106  0.87964371  1
  Sr  Sr60  1  0.50484821  -0.02321527  0.32619305  1
  Sr  Sr61  1  0.51708866  -0.00639093  0.87200129  1
  Sr  Sr62  1  0.50906924  0.34364503  0.35587297  1
  Sr  Sr63  1  0.48041006  0.33038757  0.92020603  1
  Sr  Sr64  1  0.48430694  0.68612530  0.43105298  1
  Sr  Sr65  1  0.50546833  0.64936563  0.87175167  1
  Sr  Sr66  1  0.82864109  -0.00011602  0.37939488  1
  Sr  Sr67  1  0.86292805  -0.01835069  0.83756067  1
  Sr  Sr68  1  0.82728447  0.32819855  0.40984227  1
  Sr  Sr69  1  0.82386552  0.32324984  0.86233052  1
  Sr  Sr70  1  0.84335607  0.64731305  0.35958850  1
  Sr  Sr71  1  0.84475121  0.67032068  0.88330424  1
  Ta  Ta72  1  0.16506162  0.20537211  0.00079637  1
  Ta  Ta73  1  0.13519912  0.17162290  0.49979530  1
  Ta  Ta74  1  0.16350460  0.45829430  -0.00621558  1
  Ta  Ta75  1  0.18174754  0.52163972  0.49912262  1
  Ta  Ta76  1  0.17267485  0.81230017  0.00297701  1
  Ta  Ta77  1  0.16619005  0.79397199  0.50016009  1
  Ta  Ta78  1  0.49120009  0.14382011  -0.00381054  1
  Ta  Ta79  1  0.50180740  0.10335032  0.49539411  1
  Ta  Ta80  1  0.54835869  0.50125393  0.00180519  1
  Ta  Ta81  1  0.53204731  0.49195977  0.50569592  1
  Ta  Ta82  1  0.45881593  0.83778095  0.00412697  1
  Ta  Ta83  1  0.49444375  0.89055244  0.49558252  1
  Ta  Ta84  1  0.83618186  0.11830018  -0.00234674  1
  Ta  Ta85  1  0.86636434  0.15932774  0.50232107  1
  Ta  Ta86  1  0.79612406  0.50084321  -0.00250375  1
  Ta  Ta87  1  0.80200444  0.50128088  0.50086908  1
  Ta  Ta88  1  0.83474790  0.86507752  -0.00370400  1
  Ta  Ta89  1  0.81287544  0.79888060  0.50280447  1
  Ta  Ta90  1  0.20555903  0.17647357  0.25043222  1
  Ta  Ta91  1  0.16504557  0.12162723  0.74995591  1
  Ta  Ta92  1  0.20710647  0.48389409  0.25161797  1
  Ta  Ta93  1  0.11929684  0.49255400  0.75082392  1
  Ta  Ta94  1  0.11861056  0.83504824  0.24932464  1
  Ta  Ta95  1  0.16550044  0.88944116  0.75134260  1
  Ta  Ta96  1  0.50876277  0.14994899  0.24700369  1
  Ta  Ta97  1  0.48879388  0.20691088  0.74699289  1
  Ta  Ta98  1  0.49805015  0.54641434  0.24833562  1
  Ta  Ta99  1  0.49700327  0.44992255  0.74839704  1
  Ta  Ta100  1  0.49200669  0.79059019  0.25586891  1
  Ta  Ta101  1  0.49512984  0.81647677  0.74923203  1
  Ta  Ta102  1  0.81721986  0.18682459  0.24231148  1
  Ta  Ta103  1  0.80871307  0.13467443  0.74603449  1
  Ta  Ta104  1  0.84074328  0.45413029  0.24921455  1
  Ta  Ta105  1  0.86926630  0.49443373  0.74984741  1
  Ta  Ta106  1  0.88684282  0.82695543  0.25388958  1
  Ta  Ta107  1  0.79106643  0.82393904  0.74926252  1
  Ta  Ta108  1  0.00477758  -0.03664549  0.25299667  1
  Ta  Ta109  1  0.04141741  0.00039828  0.74713995  1
  Ta  Ta110  1  -0.06037619  0.32570905  0.24695061  1
  Ta  Ta111  1  -0.00728558  0.37429716  0.75252407  1
  Ta  Ta112  1  0.00620793  0.70645035  0.24900539  1
  Ta  Ta113  1  0.00455081  0.61657790  0.75114050  1
  Ta  Ta114  1  0.34667410  0.04964065  0.23972958  1
  Ta  Ta115  1  0.29741650  0.00462937  0.75350755  1
  Ta  Ta116  1  0.30894671  0.34459758  0.24738384  1
  Ta  Ta117  1  0.37340527  0.33312860  0.74998149  1
  Ta  Ta118  1  0.36810450  0.66839258  0.25082039  1
  Ta  Ta119  1  0.35713286  0.69390555  0.75695711  1
  Ta  Ta120  1  0.66711879  0.05505906  0.24288255  1
  Ta  Ta121  1  0.68777005  -0.01124896  0.74858333  1
  Ta  Ta122  1  0.71018404  0.32461025  0.24124091  1
  Ta  Ta123  1  0.61563482  0.32981366  0.74997320  1
  Ta  Ta124  1  0.61226257  0.67215456  0.25462611  1
  Ta  Ta125  1  0.67534933  0.69774159  0.74897952  1
  Ta  Ta126  1  -0.03119625  -0.00049869  0.00432571  1
  Ta  Ta127  1  0.00350806  0.05344955  0.49625125  1
  Ta  Ta128  1  0.03621444  0.33151423  -0.00924092  1
  Ta  Ta129  1  -0.00751476  0.27296118  0.49821068  1
  Ta  Ta130  1  0.02895491  0.67735785  -0.00057885  1
  Ta  Ta131  1  0.05522058  0.66496154  0.50511021  1
  Ta  Ta132  1  0.36341835  0.00078653  0.00110181  1
  Ta  Ta133  1  0.36990651  0.00484018  0.49289184  1
  Ta  Ta134  1  0.27537727  0.33980090  -0.00066923  1
  Ta  Ta135  1  0.31550233  0.36367853  0.50212812  1
  Ta  Ta136  1  0.33036991  0.70982189  0.00254613  1
  Ta  Ta137  1  0.28517628  0.67261220  0.50124800  1
  Ta  Ta138  1  0.71384797  0.00149168  0.00105857  1
  Ta  Ta139  1  0.63678995  0.00218614  0.49494309  1
  Ta  Ta140  1  0.66361944  0.37284283  -0.00605802  1
  Ta  Ta141  1  0.66056979  0.37347380  0.50718392  1
  Ta  Ta142  1  0.67361221  0.63388580  0.00371466  1
  Ta  Ta143  1  0.68577537  0.65255195  0.50307666  1
  N  N144  1  0.83564458  0.48894801  0.37324590  1
  N  N145  1  0.33843716  0.66989299  0.87625316  1
  N  N146  1  0.16399023  0.16336049  0.87694529  1
  N  N147  1  0.65774061  0.33382559  0.62371628  1
  N  N148  1  0.83486322  0.16185929  0.12065072  1
  N  N149  1  0.82619091  0.83357377  0.87698235  1
  N  N150  1  0.16318750  0.48527061  0.87154614  1
  N  N151  1  0.00800694  0.65650690  0.87627575  1
  N  N152  1  0.32901882  0.00971854  0.12509089  1
  N  N153  1  0.51037351  0.50816318  0.12663139  1
  N  N154  1  0.32901722  0.67501337  0.38414557  1
  N  N155  1  0.17166170  0.16982042  0.37419784  1
  N  N156  1  -0.00295129  0.33210840  0.87286281  1
  N  N157  1  0.00357282  0.00650229  0.38079526  1
  N  N158  1  0.33682447  0.67713855  0.12780936  1
  N  N159  1  0.82764187  0.15408831  0.62647524  1
  N  N160  1  -0.00225990  -0.00058862  0.12453501  1
  N  N161  1  0.17608751  0.50278458  0.37301590  1
  N  N162  1  0.00466347  0.66775861  0.12849056  1
  N  N163  1  0.82898355  0.49626296  0.87729874  1
  N  N164  1  0.83011408  0.82357641  0.62172468  1
  N  N165  1  0.83653412  0.49196948  0.62175922  1
  N  N166  1  0.67951768  0.01280296  0.12623354  1
  N  N167  1  0.33233681  0.00794938  0.87403515  1
  N  N168  1  0.15974201  0.83415857  0.12380341  1
  N  N169  1  0.49452778  0.83445938  0.38253678  1
  N  N170  1  0.66956045  0.66406484  0.62828186  1
  N  N171  1  0.16676353  0.17477451  0.12855133  1
  N  N172  1  0.16293671  0.16141171  0.62825460  1
  N  N173  1  0.01909025  0.65410381  0.62444355  1
  N  N174  1  0.50326809  0.48808403  0.62677960  1
  N  N175  1  0.67313316  0.33833379  0.12539115  1
  N  N176  1  0.65473648  0.33335430  0.87495218  1
  O  O177  1  0.82391116  0.16453967  0.38097487  1
  O  O178  1  0.48969998  0.83421327  0.87465886  1
  O  O179  1  0.02044739  0.66062087  0.37572433  1
  O  O180  1  0.66152912  0.01499903  0.36979401  1
  O  O181  1  0.32036068  0.34666457  0.37898790  1
  O  O182  1  0.31926505  0.34135132  0.12002636  1
  O  O183  1  0.32682872  0.33533644  0.87239780  1
  O  O184  1  0.47539963  0.83225985  0.13010199  1
  O  O185  1  0.65898906  0.65871124  0.12976149  1
  O  O186  1  0.50892455  0.50140888  0.37052350  1
  O  O187  1  0.32251863  0.67857967  0.63234664  1
  O  O188  1  0.33768672  0.00430184  0.62660951  1
  O  O189  1  0.01257432  -0.00058811  0.87716937  1
  O  O190  1  0.84638085  0.81933916  0.37848672  1
  O  O191  1  0.50476764  0.16577428  0.11781316  1
  O  O192  1  0.66236509  -0.00640520  0.62552199  1
  O  O193  1  0.66814107  0.34047219  0.36935379  1
  O  O194  1  0.83414108  0.15512135  0.87166468  1
  O  O195  1  0.65048019  0.66729353  0.37591588  1
  O  O196  1  0.83122497  0.49863854  0.12623431  1
  O  O197  1  0.15957457  0.49206228  0.62501238  1
  O  O198  1  0.84117607  0.83116851  0.13066189  1
  O  O199  1  0.16831113  0.84171330  0.62849714  1
  O  O200  1  0.67421151  0.66312097  0.87950583  1
  O  O201  1  0.49548592  0.15803903  0.62610320  1
  O  O202  1  0.34926780  0.00689837  0.36010899  1
  O  O203  1  0.49282274  0.15897786  0.86799386  1
  O  O204  1  0.15680408  0.83029147  0.37703397  1
  O  O205  1  0.16119596  0.48970350  0.13361404  1
  O  O206  1  0.16418980  0.85338067  0.87540829  1
  O  O207  1  0.49279298  0.84962660  0.62552644  1
  O  O208  1  0.32848173  0.35159607  0.62783681  1
  O  O209  1  -0.01446240  0.32399614  0.11496088  1
  O  O210  1  -0.00550505  0.32578861  0.61875156  1
  O  O211  1  0.02079212  0.01045656  0.62083975  1
  O  O212  1  0.50771473  0.14652638  0.37430197  1
  O  O213  1  0.67691560  -0.01251193  0.87477388  1
  O  O214  1  -0.02220397  0.30636765  0.37321323  1
  O  O215  1  0.50032635  0.49318974  0.88224558  1
