# generated using pymatgen
data_Sr24Ta24N11O13
_symmetry_space_group_name_H-M   'P 1'
_cell_length_a   16.64918428
_cell_length_b   17.13922097
_cell_length_c   15.57547839
_cell_angle_alpha   89.50499992
_cell_angle_beta   89.62833215
_cell_angle_gamma   90.02194808
_symmetry_Int_Tables_number   1
_chemical_formula_structural   Sr24Ta24N11O13
_chemical_formula_sum   'Sr72 Ta72 N33 O39'
_cell_volume   4444.26601157
_cell_formula_units_Z   3
loop_
 _symmetry_equiv_pos_site_id
 _symmetry_equiv_pos_as_xyz
  1  'x, y, z'
loop_
 _atom_site_type_symbol
 _atom_site_label
 _atom_site_symmetry_multiplicity
 _atom_site_fract_x
 _atom_site_fract_y
 _atom_site_fract_z
 _atom_site_occupancy
  Sr  Sr0  1  0.03201301  0.17456152  0.12214418  1
  Sr  Sr1  1  -0.02524232  0.17445514  0.66506794  1
  Sr  Sr2  1  -0.00570122  0.43510369  0.17566383  1
  Sr  Sr3  1  -0.01004040  0.49054582  0.55840135  1
  Sr  Sr4  1  0.01847810  0.86760274  0.11136780  1
  Sr  Sr5  1  0.00575693  0.75532055  0.69920606  1
  Sr  Sr6  1  0.30221062  0.14728357  0.15413266  1
  Sr  Sr7  1  0.31270256  0.17778562  0.60179226  1
  Sr  Sr8  1  0.35324319  0.46429913  0.09389031  1
  Sr  Sr9  1  0.32474907  0.50551170  0.65425909  1
  Sr  Sr10  1  0.33504107  0.87319589  0.08087713  1
  Sr  Sr11  1  0.32281130  0.80907466  0.64159681  1
  Sr  Sr12  1  0.65109095  0.15590752  0.13072266  1
  Sr  Sr13  1  0.67063376  0.16457685  0.57667630  1
  Sr  Sr14  1  0.67557311  0.47833964  0.16946030  1
  Sr  Sr15  1  0.67398578  0.48961730  0.61822167  1
  Sr  Sr16  1  0.67492732  0.80929094  0.13782138  1
  Sr  Sr17  1  0.67570941  0.84946494  0.64121751  1
  Sr  Sr18  1  0.17157434  0.00508874  0.11934240  1
  Sr  Sr19  1  0.16469010  0.02594840  0.58434563  1
  Sr  Sr20  1  0.18759779  0.32269395  0.14379417  1
  Sr  Sr21  1  0.15585621  0.38775914  0.58244285  1
  Sr  Sr22  1  0.17364640  0.74088082  0.09933578  1
  Sr  Sr23  1  0.17555134  0.64116372  0.61060830  1
  Sr  Sr24  1  0.49035917  0.00697262  0.11757584  1
  Sr  Sr25  1  0.48201786  -0.01299437  0.67573780  1
  Sr  Sr26  1  0.50477410  0.31285471  0.06711552  1
  Sr  Sr27  1  0.49724243  0.34319723  0.62990323  1
  Sr  Sr28  1  0.51283084  0.65636046  0.14150729  1
  Sr  Sr29  1  0.52129913  0.67697212  0.58005813  1
  Sr  Sr30  1  0.88852505  0.03722846  0.07151716  1
  Sr  Sr31  1  0.82409885  0.01703329  0.62694997  1
  Sr  Sr32  1  0.78701089  0.30780373  0.20958865  1
  Sr  Sr33  1  0.83650152  0.34112916  0.62633241  1
  Sr  Sr34  1  0.85408562  0.70443172  0.09833467  1
  Sr  Sr35  1  0.81745474  0.66195341  0.68355483  1
  Sr  Sr36  1  -0.02431797  0.09318728  0.46377467  1
  Sr  Sr37  1  -0.00585330  0.18526375  0.89183599  1
  Sr  Sr38  1  0.03990420  0.50960278  0.37092470  1
  Sr  Sr39  1  -0.00380411  0.48792571  0.92784027  1
  Sr  Sr40  1  0.01127614  0.83197193  0.33953122  1
  Sr  Sr41  1  0.02107299  0.75504428  0.91955902  1
  Sr  Sr42  1  0.31263326  0.15246614  0.37523432  1
  Sr  Sr43  1  0.36625301  0.16645136  0.79381698  1
  Sr  Sr44  1  0.35442445  0.55812522  0.28756893  1
  Sr  Sr45  1  0.33966079  0.49668306  0.87898665  1
  Sr  Sr46  1  0.32676716  0.81962579  0.43807166  1
  Sr  Sr47  1  0.34814336  0.82226432  0.87385711  1
  Sr  Sr48  1  0.66134225  0.15613873  0.36102288  1
  Sr  Sr49  1  0.63937017  0.17184605  0.92168594  1
  Sr  Sr50  1  0.63449930  0.50758018  0.39293125  1
  Sr  Sr51  1  0.69421869  0.48041937  0.84172530  1
  Sr  Sr52  1  0.66705851  0.83462916  0.37068807  1
  Sr  Sr53  1  0.68946925  0.79855412  0.86986907  1
  Sr  Sr54  1  0.15565150  -0.01649843  0.38033141  1
  Sr  Sr55  1  0.13542145  0.07809591  0.79000930  1
  Sr  Sr56  1  0.17235422  0.35601467  0.34764234  1
  Sr  Sr57  1  0.13198978  0.34603821  0.93836270  1
  Sr  Sr58  1  0.16695831  0.67308912  0.38938295  1
  Sr  Sr59  1  0.19674711  0.66143869  0.83586218  1
  Sr  Sr60  1  0.50516309  0.00788088  0.33299871  1
  Sr  Sr61  1  0.50857468  -0.00435560  0.88327374  1
  Sr  Sr62  1  0.49031398  0.29630907  0.42053485  1
  Sr  Sr63  1  0.50017801  0.34146779  0.85691101  1
  Sr  Sr64  1  0.51723504  0.68544855  0.36857566  1
  Sr  Sr65  1  0.50660207  0.66683425  0.92352245  1
  Sr  Sr66  1  0.81214613  -0.02096471  0.42081085  1
  Sr  Sr67  1  0.83304029  0.04305383  0.86157716  1
  Sr  Sr68  1  0.84631839  0.40443637  0.38384829  1
  Sr  Sr69  1  0.84315897  0.33198147  0.85438439  1
  Sr  Sr70  1  0.84830189  0.72310751  0.35660807  1
  Sr  Sr71  1  0.84229329  0.63989920  0.88966155  1
  Ta  Ta72  1  0.22923435  0.17207363  -0.05282686  1
  Ta  Ta73  1  0.13774494  0.21035717  0.51458071  1
  Ta  Ta74  1  0.17967388  0.54122867  0.01700821  1
  Ta  Ta75  1  0.24864245  0.50625606  0.44540599  1
  Ta  Ta76  1  0.16763252  0.91307332  -0.08565425  1
  Ta  Ta77  1  0.12785017  0.82827334  0.53060718  1
  Ta  Ta78  1  0.42707323  0.15335081  -0.01072894  1
  Ta  Ta79  1  0.49264379  0.10992146  0.50372576  1
  Ta  Ta80  1  0.55960475  0.49169006  -0.00476968  1
  Ta  Ta81  1  0.43581950  0.49046034  0.48678895  1
  Ta  Ta82  1  0.53544956  0.84396790  -0.00098205  1
  Ta  Ta83  1  0.50387143  0.87623391  0.50110114  1
  Ta  Ta84  1  0.81148611  0.20191113  0.02024083  1
  Ta  Ta85  1  0.83425747  0.21393655  0.46827871  1
  Ta  Ta86  1  0.81571860  0.47384771  0.03058596  1
  Ta  Ta87  1  0.83312698  0.57413188  0.49752257  1
  Ta  Ta88  1  0.84655921  0.87306057  -0.03094665  1
  Ta  Ta89  1  0.85993522  0.80825091  0.55885493  1
  Ta  Ta90  1  0.10294679  0.17137868  0.32570955  1
  Ta  Ta91  1  0.15081185  0.26348140  0.74496629  1
  Ta  Ta92  1  0.16618242  0.55368254  0.20667716  1
  Ta  Ta93  1  0.15342201  0.46081863  0.77743273  1
  Ta  Ta94  1  0.20317120  0.83043263  0.28165960  1
  Ta  Ta95  1  0.14817359  0.86888510  0.73519026  1
  Ta  Ta96  1  0.48085382  0.18694840  0.23694963  1
  Ta  Ta97  1  0.55836130  0.16734266  0.74212894  1
  Ta  Ta98  1  0.49584370  0.44330384  0.24345036  1
  Ta  Ta99  1  0.50576009  0.53310266  0.74449576  1
  Ta  Ta100  1  0.47198336  0.83997122  0.25464795  1
  Ta  Ta101  1  0.50981281  0.78986355  0.75308913  1
  Ta  Ta102  1  0.84031741  0.11857518  0.26037885  1
  Ta  Ta103  1  0.76257458  0.17964130  0.74945823  1
  Ta  Ta104  1  0.85316256  0.55812692  0.24116784  1
  Ta  Ta105  1  0.88447872  0.49313555  0.74658507  1
  Ta  Ta106  1  0.83755058  0.92058786  0.22157882  1
  Ta  Ta107  1  0.86870916  0.85999828  0.78152177  1
  Ta  Ta108  1  -0.01893206  0.02661327  0.27068489  1
  Ta  Ta109  1  -0.00007750  -0.04310469  0.70483493  1
  Ta  Ta110  1  -0.03647001  0.25696511  0.30572822  1
  Ta  Ta111  1  0.01558795  0.38593593  0.73238073  1
  Ta  Ta112  1  0.01229588  0.65808687  0.25151727  1
  Ta  Ta113  1  0.02429671  0.56797168  0.72936516  1
  Ta  Ta114  1  0.32963731  -0.05802854  0.28140737  1
  Ta  Ta115  1  0.28910340  -0.02284283  0.74646468  1
  Ta  Ta116  1  0.38111009  0.31957760  0.23920044  1
  Ta  Ta117  1  0.28784632  0.34358955  0.75153193  1
  Ta  Ta118  1  0.33348376  0.74495418  0.24623608  1
  Ta  Ta119  1  0.39816174  0.66060551  0.75118066  1
  Ta  Ta120  1  0.69388025  -0.00618810  0.24311578  1
  Ta  Ta121  1  0.66444751  0.03846001  0.74611855  1
  Ta  Ta122  1  0.59195539  0.31506824  0.24423330  1
  Ta  Ta123  1  0.66371181  0.30136299  0.74639342  1
  Ta  Ta124  1  0.70236260  0.64598193  0.25310643  1
  Ta  Ta125  1  0.62292444  0.65153633  0.75837209  1
  Ta  Ta126  1  0.00335945  -0.05063843  -0.11941617  1
  Ta  Ta127  1  -0.01506195  -0.10020990  0.53184720  1
  Ta  Ta128  1  -0.09384009  0.32142140  0.04862885  1
  Ta  Ta129  1  -0.00178008  0.29753137  0.47645128  1
  Ta  Ta130  1  0.03095080  0.61263842  0.08219971  1
  Ta  Ta131  1  -0.01598265  0.69194727  0.50834916  1
  Ta  Ta132  1  0.30408187  0.02835500  -0.07276501  1
  Ta  Ta133  1  0.36730312  -0.00412104  0.50729258  1
  Ta  Ta134  1  0.32704237  0.29096543  -0.01318729  1
  Ta  Ta135  1  0.32476051  0.36105962  0.48859353  1
  Ta  Ta136  1  0.32451054  0.65433394  0.00663984  1
  Ta  Ta137  1  0.35091581  0.63383813  0.49673170  1
  Ta  Ta138  1  0.68191248  -0.03712300  -0.00133716  1
  Ta  Ta139  1  0.62055010  -0.00462403  0.49949927  1
  Ta  Ta140  1  0.69512769  0.34717562  0.00527692  1
  Ta  Ta141  1  0.68503844  0.32832000  0.48918070  1
  Ta  Ta142  1  0.67906178  0.60936854  0.00782852  1
  Ta  Ta143  1  0.71203468  0.67893890  0.50181634  1
  N  N144  1  0.66256464  0.00382334  0.62571628  1
  N  N145  1  0.67740936  0.67598082  0.37918872  1
  N  N146  1  0.00889436  0.67768752  0.38570547  1
  N  N147  1  0.81322498  0.16104463  0.14175459  1
  N  N148  1  0.82302229  0.81024857  0.68395108  1
  N  N149  1  0.66168938  -0.00413794  0.36507829  1
  N  N150  1  0.01824172  0.62768886  0.61526221  1
  N  N151  1  0.14598299  0.18676479  0.63626095  1
  N  N152  1  -0.00248348  0.35811384  0.36458555  1
  N  N153  1  0.46834050  0.15652831  0.10632758  1
  N  N154  1  0.67324873  0.64374564  0.87294635  1
  N  N155  1  0.83638586  0.47598750  0.15598356  1
  N  N156  1  0.16759733  0.82563979  0.40950127  1
  N  N157  1  0.37400908  0.01189660  0.81827025  1
  N  N158  1  0.16957756  0.49507912  0.90576550  1
  N  N159  1  0.01755201  0.71842299  0.14231571  1
  N  N160  1  0.16514750  0.78804406  0.64983062  1
  N  N161  1  0.33910490  0.31382046  0.11705857  1
  N  N162  1  0.67563894  0.65422872  0.12465815  1
  N  N163  1  0.51236934  0.82723170  0.87736541  1
  N  N164  1  0.85713661  0.78676697  0.89046191  1
  N  N165  1  0.35576105  0.65915646  0.62059949  1
  N  N166  1  0.20278669  0.52143143  0.31932521  1
  N  N167  1  0.50211699  0.83843680  0.38095824  1
  N  N168  1  0.35006494  0.66191834  0.88382432  1
  N  N169  1  0.14544999  0.20959806  0.85775714  1
  N  N170  1  0.31379592  -0.00307951  0.39059939  1
  N  N171  1  -0.01483392  0.04062395  0.79632488  1
  N  N172  1  0.81404973  0.12996385  0.39296608  1
  N  N173  1  0.31696919  0.01024983  0.62424822  1
  N  N174  1  0.67096027  0.33014531  0.88239841  1
  N  N175  1  0.64820699  0.32011193  0.13191995  1
  N  N176  1  0.66345369  0.33364350  0.61160890  1
  O  O177  1  0.82442669  0.85906936  0.32256139  1
  O  O178  1  0.35661573  0.68657660  0.37323497  1
  O  O179  1  -0.01032237  0.34757308  0.59689589  1
  O  O180  1  0.84072782  0.52047637  0.61681503  1
  O  O181  1  -0.05491969  0.29683017  0.17456985  1
  O  O182  1  -0.00718744  -0.03124233  0.38930918  1
  O  O183  1  0.82334520  0.18797678  0.60352640  1
  O  O184  1  0.34476700  0.34632312  0.86559805  1
  O  O185  1  0.51093122  0.47069689  0.11062044  1
  O  O186  1  0.33182627  0.71977137  0.11342507  1
  O  O187  1  0.51024417  0.83050534  0.62948902  1
  O  O188  1  0.47984861  0.49391947  0.62234403  1
  O  O189  1  0.17021805  0.80791339  0.85764354  1
  O  O190  1  0.15940940  0.18929422  0.21754399  1
  O  O191  1  0.51742702  0.49246505  0.86922830  1
  O  O192  1  0.14245108  0.51618255  0.50333028  1
  O  O193  1  0.49667956  0.15811727  0.87171000  1
  O  O194  1  0.02607824  0.02071239  0.15338790  1
  O  O195  1  0.66918566  0.66556679  0.62881951  1
  O  O196  1  0.48034459  0.47294751  0.36957771  1
  O  O197  1  -0.03902922  0.63229381  0.98413476  1
  O  O198  1  0.86248152  0.54725920  0.37645381  1
  O  O199  1  0.48444145  0.15117034  0.37762932  1
  O  O200  1  0.16174303  0.87763883  0.03500475  1
  O  O201  1  -0.02020058  0.01680057  0.59469279  1
  O  O202  1  -0.01683313  0.32817748  0.95720416  1
  O  O203  1  0.32050190  0.00050779  0.17343099  1
  O  O204  1  0.86650256  0.88422472  0.10023401  1
  O  O205  1  0.33668798  0.32220811  0.36832834  1
  O  O206  1  0.84841673  0.48446269  0.87653433  1
  O  O207  1  0.63547421  0.31603000  0.37283859  1
  O  O208  1  0.20320366  0.46787031  0.12599295  1
  O  O209  1  0.31430329  0.35416204  0.62103791  1
  O  O210  1  0.67275398  0.00249693  0.88002739  1
  O  O211  1  0.79577072  0.18487712  0.87826328  1
  O  O212  1  0.50552160  0.84654596  0.12500950  1
  O  O213  1  0.65324988  0.00419828  0.11326729  1
  O  O214  1  0.16126338  0.11824160  0.43299331  1
  O  O215  1  0.51483847  0.15585785  0.62160568  1
