# generated using pymatgen
data_Sr24Ta24N11O13
_symmetry_space_group_name_H-M   'P 1'
_cell_length_a   16.95419553
_cell_length_b   16.70539416
_cell_length_c   15.69098136
_cell_angle_alpha   89.97246264
_cell_angle_beta   89.87082665
_cell_angle_gamma   90.31773713
_symmetry_Int_Tables_number   1
_chemical_formula_structural   Sr24Ta24N11O13
_chemical_formula_sum   'Sr72 Ta72 N33 O39'
_cell_volume   4444.02186040
_cell_formula_units_Z   3
loop_
 _symmetry_equiv_pos_site_id
 _symmetry_equiv_pos_as_xyz
  1  'x, y, z'
loop_
 _atom_site_type_symbol
 _atom_site_label
 _atom_site_symmetry_multiplicity
 _atom_site_fract_x
 _atom_site_fract_y
 _atom_site_fract_z
 _atom_site_occupancy
  Sr  Sr0  1  0.00923964  0.17496065  0.08158290  1
  Sr  Sr1  1  -0.01363201  0.18940902  0.62457257  1
  Sr  Sr2  1  -0.02482248  0.49376395  0.16160289  1
  Sr  Sr3  1  0.00166470  0.50914710  0.60325021  1
  Sr  Sr4  1  -0.01191000  0.83516172  0.12728430  1
  Sr  Sr5  1  -0.00165689  0.84028263  0.66370182  1
  Sr  Sr6  1  0.30011173  0.16011175  0.16719163  1
  Sr  Sr7  1  0.34058807  0.16782542  0.61767295  1
  Sr  Sr8  1  0.32995618  0.48206462  0.11537456  1
  Sr  Sr9  1  0.32028362  0.51198334  0.66093395  1
  Sr  Sr10  1  0.32804564  0.83929936  0.12840428  1
  Sr  Sr11  1  0.30491461  0.83251798  0.58408366  1
  Sr  Sr12  1  0.66373674  0.16542678  0.12238127  1
  Sr  Sr13  1  0.66235687  0.18536774  0.64812714  1
  Sr  Sr14  1  0.65269832  0.51731933  0.11685309  1
  Sr  Sr15  1  0.63789364  0.50543590  0.60968546  1
  Sr  Sr16  1  0.65602412  0.82309915  0.10883554  1
  Sr  Sr17  1  0.66460117  0.84949228  0.62245534  1
  Sr  Sr18  1  0.15954301  -0.01279967  0.12346437  1
  Sr  Sr19  1  0.17965936  0.01264504  0.60725434  1
  Sr  Sr20  1  0.15924667  0.33919675  0.11410503  1
  Sr  Sr21  1  0.19669216  0.34008237  0.66660577  1
  Sr  Sr22  1  0.20115289  0.65196935  0.08877924  1
  Sr  Sr23  1  0.17805491  0.65822583  0.62143261  1
  Sr  Sr24  1  0.52367577  -0.00295686  0.09586710  1
  Sr  Sr25  1  0.51284767  0.01318979  0.65431958  1
  Sr  Sr26  1  0.51953431  0.32692019  0.11396668  1
  Sr  Sr27  1  0.50547161  0.32846532  0.59237483  1
  Sr  Sr28  1  0.49970859  0.66637158  0.17014865  1
  Sr  Sr29  1  0.51712005  0.68216976  0.61205071  1
  Sr  Sr30  1  0.83939833  -0.00571342  0.16301764  1
  Sr  Sr31  1  0.83865134  -0.01649202  0.61101353  1
  Sr  Sr32  1  0.83473884  0.31303680  0.14215662  1
  Sr  Sr33  1  0.84400124  0.34396586  0.62620990  1
  Sr  Sr34  1  0.84135589  0.66257535  0.12137368  1
  Sr  Sr35  1  0.86343368  0.65077540  0.63340345  1
  Sr  Sr36  1  0.00050999  0.14607451  0.42389719  1
  Sr  Sr37  1  -0.00556831  0.18098061  0.87917742  1
  Sr  Sr38  1  0.00304780  0.49731647  0.37949766  1
  Sr  Sr39  1  -0.04679104  0.51591355  0.85670375  1
  Sr  Sr40  1  -0.00956278  0.84355913  0.33335690  1
  Sr  Sr41  1  -0.00489399  0.83232558  0.87305525  1
  Sr  Sr42  1  0.33392470  0.16693907  0.38920159  1
  Sr  Sr43  1  0.32007432  0.15279511  0.83011247  1
  Sr  Sr44  1  0.32429446  0.49888328  0.35044486  1
  Sr  Sr45  1  0.32144513  0.48402886  0.88767335  1
  Sr  Sr46  1  0.32189602  0.83134917  0.36891194  1
  Sr  Sr47  1  0.31720183  0.84895311  0.91650176  1
  Sr  Sr48  1  0.66765284  0.17567715  0.33613948  1
  Sr  Sr49  1  0.65656079  0.17625977  0.89134145  1
  Sr  Sr50  1  0.62975645  0.50525872  0.39506650  1
  Sr  Sr51  1  0.65222048  0.50867727  0.88838237  1
  Sr  Sr52  1  0.65598318  0.83281472  0.40272988  1
  Sr  Sr53  1  0.64819019  0.83843928  0.86561191  1
  Sr  Sr54  1  0.17601344  -0.00749684  0.36618011  1
  Sr  Sr55  1  0.15795479  -0.00703042  0.88428361  1
  Sr  Sr56  1  0.18607234  0.34387631  0.33091042  1
  Sr  Sr57  1  0.17636643  0.33011347  0.88499131  1
  Sr  Sr58  1  0.17522642  0.65691867  0.41085815  1
  Sr  Sr59  1  0.19675424  0.65885088  0.87455203  1
  Sr  Sr60  1  0.52492248  0.00861106  0.36886698  1
  Sr  Sr61  1  0.50115311  0.00375465  0.87570503  1
  Sr  Sr62  1  0.51164162  0.32093638  0.38599144  1
  Sr  Sr63  1  0.50890308  0.34163511  0.91276438  1
  Sr  Sr64  1  0.50189320  0.67197092  0.37721331  1
  Sr  Sr65  1  0.50404469  0.65287229  0.82554741  1
  Sr  Sr66  1  0.83586296  -0.00386405  0.38176899  1
  Sr  Sr67  1  0.84754189  -0.02562414  0.84005039  1
  Sr  Sr68  1  0.85100563  0.33436413  0.37626486  1
  Sr  Sr69  1  0.82922734  0.31752210  0.85482526  1
  Sr  Sr70  1  0.87336591  0.66036072  0.35422473  1
  Sr  Sr71  1  0.81622595  0.66662552  0.90883469  1
  Ta  Ta72  1  0.19621107  0.15987339  0.00029953  1
  Ta  Ta73  1  0.16963917  0.22036755  0.49867295  1
  Ta  Ta74  1  0.10733492  0.50325036  -0.00897026  1
  Ta  Ta75  1  0.17935020  0.46440045  0.49779907  1
  Ta  Ta76  1  0.13617228  0.80925746  0.00356395  1
  Ta  Ta77  1  0.12456555  0.83417566  0.49194425  1
  Ta  Ta78  1  0.45650369  0.16328657  0.00662066  1
  Ta  Ta79  1  0.51985912  0.14624401  0.49870048  1
  Ta  Ta80  1  0.48965240  0.53983737  0.00482138  1
  Ta  Ta81  1  0.44829249  0.50072884  0.49711934  1
  Ta  Ta82  1  0.49131910  0.79306269  -0.00079891  1
  Ta  Ta83  1  0.47892744  0.85952976  0.50123393  1
  Ta  Ta84  1  0.83306425  0.12385788  0.00278089  1
  Ta  Ta85  1  0.79438688  0.16821544  0.49687365  1
  Ta  Ta86  1  0.82471278  0.47027410  0.00859811  1
  Ta  Ta87  1  0.80300360  0.50592066  0.48477771  1
  Ta  Ta88  1  0.82674366  0.86605827  0.00248110  1
  Ta  Ta89  1  0.85684306  0.80918568  0.50318814  1
  Ta  Ta90  1  0.11763339  0.16724755  0.24832051  1
  Ta  Ta91  1  0.13864112  0.16199704  0.75241950  1
  Ta  Ta92  1  0.16071446  0.53565763  0.24739771  1
  Ta  Ta93  1  0.12560566  0.50214760  0.76566400  1
  Ta  Ta94  1  0.16476230  0.78834075  0.24601378  1
  Ta  Ta95  1  0.18719883  0.82818476  0.75427186  1
  Ta  Ta96  1  0.47871256  0.16380729  0.24331676  1
  Ta  Ta97  1  0.50066348  0.20596721  0.75278821  1
  Ta  Ta98  1  0.49532223  0.46871599  0.24907974  1
  Ta  Ta99  1  0.49692420  0.46066687  0.75118878  1
  Ta  Ta100  1  0.50018590  0.86165132  0.24481037  1
  Ta  Ta101  1  0.45440217  0.84113605  0.75168737  1
  Ta  Ta102  1  0.89513727  0.16233726  0.25480199  1
  Ta  Ta103  1  0.82955631  0.13846210  0.74724889  1
  Ta  Ta104  1  0.78545542  0.50404529  0.26541074  1
  Ta  Ta105  1  0.78344201  0.50268165  0.74674381  1
  Ta  Ta106  1  0.79258182  0.82120477  0.25460562  1
  Ta  Ta107  1  0.81200692  0.79727308  0.74742821  1
  Ta  Ta108  1  0.00813464  0.03754990  0.24802527  1
  Ta  Ta109  1  0.01074513  0.03054708  0.74827928  1
  Ta  Ta110  1  0.00488510  0.29464256  0.24927568  1
  Ta  Ta111  1  0.02143978  0.35327816  0.75403399  1
  Ta  Ta112  1  0.05345285  0.66539956  0.24486259  1
  Ta  Ta113  1  0.03388540  0.66184392  0.75094955  1
  Ta  Ta114  1  0.37636268  0.00009802  0.24637816  1
  Ta  Ta115  1  0.33000405  -0.03899535  0.74784392  1
  Ta  Ta116  1  0.37235220  0.32463976  0.24674387  1
  Ta  Ta117  1  0.38023538  0.33210505  0.75467223  1
  Ta  Ta118  1  0.30502650  0.66602982  0.25288048  1
  Ta  Ta119  1  0.33740485  0.71971480  0.74478108  1
  Ta  Ta120  1  0.66798789  -0.03536664  0.24665871  1
  Ta  Ta121  1  0.69143192  0.02228596  0.74948513  1
  Ta  Ta122  1  0.66717671  0.36856023  0.24991835  1
  Ta  Ta123  1  0.64306580  0.35504895  0.75702133  1
  Ta  Ta124  1  0.69226280  0.67018661  0.26572978  1
  Ta  Ta125  1  0.69392103  0.66267462  0.74804806  1
  Ta  Ta126  1  -0.03512005  -0.00489854  0.00000792  1
  Ta  Ta127  1  0.00394739  -0.04819811  0.49519525  1
  Ta  Ta128  1  -0.02009389  0.37238781  0.00429451  1
  Ta  Ta129  1  0.05782712  0.33887421  0.49724714  1
  Ta  Ta130  1  0.02204917  0.65977811  0.00283922  1
  Ta  Ta131  1  0.00547650  0.71498082  0.50193006  1
  Ta  Ta132  1  0.33255149  0.04182151  -0.00405276  1
  Ta  Ta133  1  0.37917480  -0.00158591  0.50512189  1
  Ta  Ta134  1  0.33739371  0.27786716  -0.00417154  1
  Ta  Ta135  1  0.31978640  0.35294622  0.50513051  1
  Ta  Ta136  1  0.38030849  0.66657841  -0.00335075  1
  Ta  Ta137  1  0.35206647  0.64489911  0.50185256  1
  Ta  Ta138  1  0.71845471  -0.00291294  0.00163941  1
  Ta  Ta139  1  0.67094213  0.04391761  0.50258074  1
  Ta  Ta140  1  0.69925025  0.34959873  0.00583620  1
  Ta  Ta141  1  0.69154363  0.31856093  0.49397468  1
  Ta  Ta142  1  0.61297253  0.67222793  -0.00643331  1
  Ta  Ta143  1  0.71840449  0.66409378  0.49008456  1
  N  N144  1  0.66919850  0.33106276  0.37424094  1
  N  N145  1  0.16321985  0.82979401  0.87652159  1
  N  N146  1  0.00070696  0.00204486  0.11904444  1
  N  N147  1  0.34081343  0.00153534  0.62624686  1
  N  N148  1  -0.00257525  0.33595170  0.12216000  1
  N  N149  1  0.67699784  -0.00523998  0.12769977  1
  N  N150  1  0.16797173  0.82832878  0.12158904  1
  N  N151  1  0.84730406  0.49519830  0.36902424  1
  N  N152  1  0.01793047  0.67727478  0.62831270  1
  N  N153  1  0.49567674  0.83104264  0.12547661  1
  N  N154  1  0.83524492  0.82449307  0.62893881  1
  N  N155  1  0.65570864  0.67350533  0.38394768  1
  N  N156  1  0.34373786  0.33614867  0.62483367  1
  N  N157  1  0.50464422  0.16506298  0.37405705  1
  N  N158  1  0.15535763  0.16695384  0.12235234  1
  N  N159  1  0.47983162  0.49662204  0.37635067  1
  N  N160  1  0.33803647  0.67919195  0.62539771  1
  N  N161  1  0.51006995  0.16296052  0.11748261  1
  N  N162  1  0.66473954  0.33836318  0.87867713  1
  N  N163  1  0.50365113  0.17516109  0.63123275  1
  N  N164  1  0.16587806  0.49892217  0.37366832  1
  N  N165  1  0.65773494  0.66930881  0.86960995  1
  N  N166  1  -0.00191946  0.00579218  0.86846376  1
  N  N167  1  0.33244495  0.00104451  0.87656605  1
  N  N168  1  0.67203138  0.00881466  0.62651799  1
  N  N169  1  0.15875229  0.82977802  0.37063272  1
  N  N170  1  0.33763661  0.32203314  0.87955950  1
  N  N171  1  0.16715815  0.50019195  0.88418932  1
  N  N172  1  0.15927600  0.16769654  0.87311034  1
  N  N173  1  0.48872591  0.50634882  0.12611668  1
  N  N174  1  0.00302254  -0.00527168  0.37866010  1
  N  N175  1  0.67103631  0.32861682  0.12754455  1
  N  N176  1  0.33123793  0.66901373  0.37374605  1
  O  O177  1  0.35855338  0.00739343  0.37250017  1
  O  O178  1  0.34928588  0.32417464  0.12126484  1
  O  O179  1  0.83520064  0.14568690  0.87285168  1
  O  O180  1  0.00399912  0.67036264  0.87958496  1
  O  O181  1  0.64992850  0.67016210  0.12193185  1
  O  O182  1  0.67708926  0.00320317  0.37520439  1
  O  O183  1  0.49137243  0.83736542  0.37638397  1
  O  O184  1  0.02592543  0.33768430  0.36923367  1
  O  O185  1  0.47658799  0.84212498  0.87975293  1
  O  O186  1  -0.01346191  0.34283516  0.87474328  1
  O  O187  1  0.82216587  0.82310001  0.87778902  1
  O  O188  1  0.34834790  -0.00070264  0.12237413  1
  O  O189  1  0.66485001  0.34047983  0.62166339  1
  O  O190  1  0.67809701  0.66550346  0.61037899  1
  O  O191  1  0.50239431  0.16418163  0.87688319  1
  O  O192  1  0.03068507  0.34435433  0.62830642  1
  O  O193  1  0.48608544  0.84075769  0.62500711  1
  O  O194  1  0.82375168  0.50164980  0.13564964  1
  O  O195  1  0.79646611  0.49592288  0.62131010  1
  O  O196  1  0.15744392  0.83391425  0.62731022  1
  O  O197  1  0.84993831  0.14962514  0.12767537  1
  O  O198  1  0.16218653  0.19180616  0.37299864  1
  O  O199  1  0.34871405  0.66689226  0.12946999  1
  O  O200  1  0.82362487  0.83397957  0.37683981  1
  O  O201  1  0.48694735  0.48254368  0.62471058  1
  O  O202  1  0.16338382  0.49560670  0.62576853  1
  O  O203  1  0.35435536  0.67300986  0.86685877  1
  O  O204  1  0.84801740  0.15944553  0.37755290  1
  O  O205  1  0.67647375  0.00038890  0.87774839  1
  O  O206  1  0.81369827  0.82098960  0.12375370  1
  O  O207  1  0.34685880  0.32628821  0.37278245  1
  O  O208  1  0.14669406  0.50065231  0.12085595  1
  O  O209  1  0.80721650  0.49069140  0.87310609  1
  O  O210  1  -0.00371696  0.65868443  0.12995245  1
  O  O211  1  0.16563576  0.19236724  0.62356022  1
  O  O212  1  0.01900778  0.67386145  0.37514131  1
  O  O213  1  -0.00097871  -0.00643403  0.62114012  1
  O  O214  1  0.83298407  0.16150678  0.62076093  1
  O  O215  1  0.49617364  0.49502681  0.87583422  1
