# generated using pymatgen
data_Sr24Ta24N11O13
_symmetry_space_group_name_H-M   'P 1'
_cell_length_a   16.89034494
_cell_length_b   16.69219630
_cell_length_c   15.61277304
_cell_angle_alpha   89.77648599
_cell_angle_beta   89.44570789
_cell_angle_gamma   89.72771047
_symmetry_Int_Tables_number   1
_chemical_formula_structural   Sr24Ta24N11O13
_chemical_formula_sum   'Sr72 Ta72 N33 O39'
_cell_volume   4401.52926497
_cell_formula_units_Z   3
loop_
 _symmetry_equiv_pos_site_id
 _symmetry_equiv_pos_as_xyz
  1  'x, y, z'
loop_
 _atom_site_type_symbol
 _atom_site_label
 _atom_site_symmetry_multiplicity
 _atom_site_fract_x
 _atom_site_fract_y
 _atom_site_fract_z
 _atom_site_occupancy
  Sr  Sr0  1  -0.00732378  0.15514656  0.13257053  1
  Sr  Sr1  1  0.01165928  0.18391423  0.57563995  1
  Sr  Sr2  1  0.00910432  0.51535927  0.12848872  1
  Sr  Sr3  1  0.01441724  0.48322521  0.66172042  1
  Sr  Sr4  1  0.05116272  0.82811035  0.06411548  1
  Sr  Sr5  1  -0.00716519  0.83729046  0.63107080  1
  Sr  Sr6  1  0.35272776  0.15912272  0.10428989  1
  Sr  Sr7  1  0.32048587  0.16945682  0.67288072  1
  Sr  Sr8  1  0.35828939  0.49486043  0.11384720  1
  Sr  Sr9  1  0.34730285  0.50013056  0.61040269  1
  Sr  Sr10  1  0.32816987  0.82096279  0.16088697  1
  Sr  Sr11  1  0.35050592  0.84483865  0.60834985  1
  Sr  Sr12  1  0.66798197  0.16793671  0.16241213  1
  Sr  Sr13  1  0.65791221  0.17142678  0.61574930  1
  Sr  Sr14  1  0.68485548  0.49103041  0.11252154  1
  Sr  Sr15  1  0.67810127  0.51036866  0.64098032  1
  Sr  Sr16  1  0.66627781  0.82811370  0.13180922  1
  Sr  Sr17  1  0.68169066  0.82895475  0.59118105  1
  Sr  Sr18  1  0.17773780  -0.00168213  0.12768194  1
  Sr  Sr19  1  0.14820539  -0.01010762  0.61203709  1
  Sr  Sr20  1  0.13003014  0.33834451  0.16671646  1
  Sr  Sr21  1  0.17264114  0.33963049  0.61949490  1
  Sr  Sr22  1  0.16689210  0.65622892  0.11081512  1
  Sr  Sr23  1  0.12637739  0.66555601  0.65943828  1
  Sr  Sr24  1  0.49785871  -0.00808891  0.07855384  1
  Sr  Sr25  1  0.48726893  0.01192246  0.64267158  1
  Sr  Sr26  1  0.51018773  0.32376466  0.14442659  1
  Sr  Sr27  1  0.48275991  0.33903886  0.59827279  1
  Sr  Sr28  1  0.48182346  0.68490753  0.15961624  1
  Sr  Sr29  1  0.48935884  0.65912681  0.63534445  1
  Sr  Sr30  1  0.81794639  0.00004708  0.12630521  1
  Sr  Sr31  1  0.83294524  -0.00128707  0.65955011  1
  Sr  Sr32  1  0.83878473  0.33644426  0.08011739  1
  Sr  Sr33  1  0.81650168  0.34571708  0.63743656  1
  Sr  Sr34  1  0.81383093  0.66006923  0.14135584  1
  Sr  Sr35  1  0.82023571  0.68218810  0.58312053  1
  Sr  Sr36  1  0.00592376  0.16875122  0.36196399  1
  Sr  Sr37  1  -0.01676387  0.17192192  0.91932419  1
  Sr  Sr38  1  0.01715496  0.50681431  0.33822667  1
  Sr  Sr39  1  0.01443298  0.49579716  0.86568062  1
  Sr  Sr40  1  0.00339844  0.81923052  0.41342787  1
  Sr  Sr41  1  0.00665621  0.84951479  0.84589743  1
  Sr  Sr42  1  0.34495667  0.16467150  0.33894872  1
  Sr  Sr43  1  0.32996846  0.16371544  0.88639624  1
  Sr  Sr44  1  0.33665654  0.47736063  0.39975589  1
  Sr  Sr45  1  0.34376883  0.51206397  0.89644682  1
  Sr  Sr46  1  0.32776495  0.84485937  0.38072061  1
  Sr  Sr47  1  0.38228645  0.82909258  0.83071253  1
  Sr  Sr48  1  0.65929346  0.17313458  0.38395279  1
  Sr  Sr49  1  0.67430032  0.15969375  0.83188700  1
  Sr  Sr50  1  0.70450809  0.49980774  0.38900608  1
  Sr  Sr51  1  0.67538595  0.49655688  0.87744410  1
  Sr  Sr52  1  0.68858646  0.82422701  0.35830190  1
  Sr  Sr53  1  0.67480669  0.84230804  0.91764686  1
  Sr  Sr54  1  0.16062704  -0.00679488  0.37586013  1
  Sr  Sr55  1  0.15079161  0.01411849  0.90229995  1
  Sr  Sr56  1  0.15766738  0.33560729  0.38641378  1
  Sr  Sr57  1  0.16644045  0.33349500  0.83716659  1
  Sr  Sr58  1  0.14992744  0.66138977  0.35252930  1
  Sr  Sr59  1  0.15302198  0.65576669  0.89139508  1
  Sr  Sr60  1  0.50837383  -0.00431802  0.42003633  1
  Sr  Sr61  1  0.49220779  0.01874167  0.86117908  1
  Sr  Sr62  1  0.49397640  0.32453886  0.36322076  1
  Sr  Sr63  1  0.47874771  0.34630068  0.92900105  1
  Sr  Sr64  1  0.45798346  0.66589376  0.38704560  1
  Sr  Sr65  1  0.49548617  0.65655872  0.84615556  1
  Sr  Sr66  1  0.83158255  0.01537801  0.32753275  1
  Sr  Sr67  1  0.82492878  -0.00364580  0.86971702  1
  Sr  Sr68  1  0.82983956  0.32119075  0.41920292  1
  Sr  Sr69  1  0.83404417  0.34777278  0.86350387  1
  Sr  Sr70  1  0.84093220  0.66025127  0.36473037  1
  Sr  Sr71  1  0.79268904  0.67617183  0.90823528  1
  Ta  Ta72  1  0.16225452  0.21422528  -0.00042696  1
  Ta  Ta73  1  0.20602960  0.16266615  0.49971856  1
  Ta  Ta74  1  0.17105453  0.45875872  -0.00077198  1
  Ta  Ta75  1  0.14831952  0.52071944  0.50374879  1
  Ta  Ta76  1  0.22969024  0.82676807  -0.02209994  1
  Ta  Ta77  1  0.17477403  0.79778423  0.50458001  1
  Ta  Ta78  1  0.54443708  0.17027865  -0.00031457  1
  Ta  Ta79  1  0.45905093  0.16808667  0.50778874  1
  Ta  Ta80  1  0.51844119  0.53453339  0.00432744  1
  Ta  Ta81  1  0.53704499  0.50366441  0.50430031  1
  Ta  Ta82  1  0.48302787  0.81110105  0.00372643  1
  Ta  Ta83  1  0.52148021  0.81450120  0.49520491  1
  Ta  Ta84  1  0.79573588  0.16032988  0.00315322  1
  Ta  Ta85  1  0.83302041  0.12310337  0.49291914  1
  Ta  Ta86  1  0.86515662  0.51799295  -0.00301269  1
  Ta  Ta87  1  0.88554118  0.50293167  0.49914307  1
  Ta  Ta88  1  0.86718868  0.83808248  -0.00173124  1
  Ta  Ta89  1  0.83882102  0.88645922  0.49771200  1
  Ta  Ta90  1  0.18847370  0.17431402  0.24034942  1
  Ta  Ta91  1  0.13077515  0.15584650  0.75626559  1
  Ta  Ta92  1  0.20794319  0.49284936  0.25273970  1
  Ta  Ta93  1  0.21028975  0.50617512  0.75059866  1
  Ta  Ta94  1  0.13901132  0.82942484  0.25183094  1
  Ta  Ta95  1  0.20330092  0.83025931  0.76065103  1
  Ta  Ta96  1  0.50173492  0.10891006  0.24384599  1
  Ta  Ta97  1  0.49366127  0.22484870  0.76363188  1
  Ta  Ta98  1  0.52227648  0.50905634  0.25991606  1
  Ta  Ta99  1  0.50039783  0.46288419  0.75572593  1
  Ta  Ta100  1  0.50087494  0.88130886  0.24792918  1
  Ta  Ta101  1  0.56089044  0.83405568  0.74815367  1
  Ta  Ta102  1  0.83334039  0.21036714  0.24837637  1
  Ta  Ta103  1  0.86651292  0.17419041  0.74368697  1
  Ta  Ta104  1  0.84195711  0.46145503  0.24849135  1
  Ta  Ta105  1  0.84138302  0.55113283  0.75376516  1
  Ta  Ta106  1  0.87285654  0.83034499  0.24012531  1
  Ta  Ta107  1  0.81269136  0.81238640  0.75084710  1
  Ta  Ta108  1  0.00337764  -0.06683745  0.24264887  1
  Ta  Ta109  1  -0.00326059  0.06421468  0.74685354  1
  Ta  Ta110  1  -0.04759678  0.33314204  0.24945034  1
  Ta  Ta111  1  -0.00333941  0.28334745  0.75162086  1
  Ta  Ta112  1  -0.00389609  0.72226560  0.23131628  1
  Ta  Ta113  1  -0.05685338  0.67513598  0.75616789  1
  Ta  Ta114  1  0.36587469  -0.00141960  0.24661560  1
  Ta  Ta115  1  0.29105333  -0.01505741  0.75750441  1
  Ta  Ta116  1  0.30723897  0.33527486  0.24371454  1
  Ta  Ta117  1  0.35279655  0.35311273  0.76246434  1
  Ta  Ta118  1  0.31485760  0.63123335  0.24668332  1
  Ta  Ta119  1  0.30120849  0.66746265  0.75086065  1
  Ta  Ta120  1  0.62781330  -0.00450226  0.24476940  1
  Ta  Ta121  1  0.66113272  -0.04175996  0.74838669  1
  Ta  Ta122  1  0.70532555  0.34169973  0.24753067  1
  Ta  Ta123  1  0.62031415  0.33798046  0.75470849  1
  Ta  Ta124  1  0.63847836  0.64164866  0.26451195  1
  Ta  Ta125  1  0.67535441  0.69140343  0.74276747  1
  Ta  Ta126  1  -0.03033048  -0.01215284  0.00005268  1
  Ta  Ta127  1  -0.03769849  0.00336346  0.49225897  1
  Ta  Ta128  1  0.02621180  0.34480777  -0.00099960  1
  Ta  Ta129  1  -0.00023493  0.37568205  0.49395228  1
  Ta  Ta130  1  -0.03734369  0.67081108  -0.00858865  1
  Ta  Ta131  1  0.00426444  0.63146760  0.50242643  1
  Ta  Ta132  1  0.33064257  -0.05070453  -0.01429663  1
  Ta  Ta133  1  0.32659931  0.04334650  0.50906107  1
  Ta  Ta134  1  0.28570393  0.33449062  0.00726704  1
  Ta  Ta135  1  0.32705275  0.28281689  0.49481893  1
  Ta  Ta136  1  0.34619002  0.69612698  -0.00396488  1
  Ta  Ta137  1  0.27890384  0.66605126  0.50807376  1
  Ta  Ta138  1  0.66795721  0.04038017  0.00154216  1
  Ta  Ta139  1  0.70301753  -0.00104786  0.49404987  1
  Ta  Ta140  1  0.66545020  0.29348832  -0.00029964  1
  Ta  Ta141  1  0.64539127  0.35309071  0.50592951  1
  Ta  Ta142  1  0.61659156  0.66292747  0.01471606  1
  Ta  Ta143  1  0.63090223  0.66047807  0.48819178  1
  N  N144  1  0.32719729  0.65718720  0.12549754  1
  N  N145  1  0.17563697  0.49485564  0.37849023  1
  N  N146  1  0.67294091  0.32977543  0.12346617  1
  N  N147  1  0.33744395  0.66689726  0.86903566  1
  N  N148  1  0.83327028  0.50475335  0.86999229  1
  N  N149  1  0.83233424  0.16807767  0.37724347  1
  N  N150  1  0.68948174  0.66621579  0.38022037  1
  N  N151  1  -0.00322997  0.32749458  0.86706286  1
  N  N152  1  0.84534188  0.50002563  0.12274849  1
  N  N153  1  0.65377153  0.66720874  0.13766473  1
  N  N154  1  -0.01184562  0.33137924  0.11753316  1
  N  N155  1  0.50586659  0.15709550  0.12709862  1
  N  N156  1  0.16350175  0.82477965  0.37851748  1
  N  N157  1  0.17196120  0.49801010  0.63157811  1
  N  N158  1  0.49676110  0.17703888  0.87792444  1
  N  N159  1  0.15759960  0.17251791  0.88123994  1
  N  N160  1  0.65797383  0.33406144  0.62710624  1
  N  N161  1  0.17392857  0.49482900  0.87849462  1
  N  N162  1  0.32036254  0.00773693  0.63124766  1
  N  N163  1  0.83658963  0.84442410  0.61906140  1
  N  N164  1  -0.00290733  0.33588099  0.37750428  1
  N  N165  1  0.33033308  0.32155047  0.36707036  1
  N  N166  1  0.50673061  0.50009960  0.62795713  1
  N  N167  1  0.83106681  0.16840059  0.12121656  1
  N  N168  1  0.50443891  0.50321640  0.88349435  1
  N  N169  1  0.32819399  0.33779105  0.88692049  1
  N  N170  1  0.83322829  0.83798553  0.87545209  1
  N  N171  1  0.66356501  0.66994818  0.62078083  1
  N  N172  1  0.66312372  -0.00354267  0.11850139  1
  N  N173  1  0.33684319  0.00624838  0.87493811  1
  N  N174  1  0.00120975  0.68058022  0.10880416  1
  N  N175  1  0.85563599  0.49824057  0.37596745  1
  N  N176  1  0.49671618  0.83915281  0.12820772  1
  O  O177  1  0.84476329  0.50516337  0.63235761  1
  O  O178  1  0.16528095  0.49694147  0.12936173  1
  O  O179  1  0.34135362  -0.01735036  0.11868777  1
  O  O180  1  0.17157278  0.16248908  0.62544815  1
  O  O181  1  0.32829347  0.32610266  0.61901939  1
  O  O182  1  0.17195906  0.15540233  0.11726744  1
  O  O183  1  0.47522020  0.17853367  0.63651818  1
  O  O184  1  -0.01171708  -0.02120251  0.36741996  1
  O  O185  1  -0.00173704  -0.01735772  0.12323677  1
  O  O186  1  0.18763145  0.16246739  0.36543528  1
  O  O187  1  0.48981583  0.49166452  0.37978300  1
  O  O188  1  -0.00211353  0.67049752  0.37490390  1
  O  O189  1  0.51557691  0.49323286  0.13389430  1
  O  O190  1  0.64737594  0.67590876  0.88433077  1
  O  O191  1  0.66971295  0.33688990  0.37439621  1
  O  O192  1  0.17064685  0.82807048  0.63422319  1
  O  O193  1  0.52172937  0.82479302  0.62190553  1
  O  O194  1  0.49109513  0.14818977  0.38171007  1
  O  O195  1  0.67153975  0.33372870  0.87433785  1
  O  O196  1  -0.01864777  0.01649230  0.87524648  1
  O  O197  1  -0.02217334  0.67720680  0.62102020  1
  O  O198  1  0.00424588  0.69098814  0.86484173  1
  O  O199  1  0.84808971  0.17086784  0.61537425  1
  O  O200  1  0.00957526  0.33110934  0.62356274  1
  O  O201  1  0.67646553  0.00039254  0.36881914  1
  O  O202  1  0.49839699  0.83414965  0.37340930  1
  O  O203  1  0.30737882  0.65438782  0.38178599  1
  O  O204  1  0.83139330  0.16728656  0.86880385  1
  O  O205  1  0.67985308  -0.01124932  0.62060092  1
  O  O206  1  0.66688402  -0.00565240  0.87568178  1
  O  O207  1  0.33686242  0.66510279  0.61909383  1
  O  O208  1  0.82190102  0.83519356  0.12181117  1
  O  O209  1  0.34438826  0.00558276  0.37569205  1
  O  O210  1  0.15045566  0.81705772  0.87835327  1
  O  O211  1  0.18582921  0.83466285  0.12257883  1
  O  O212  1  -0.01307161  0.02678804  0.61864500  1
  O  O213  1  0.35309127  0.33068558  0.12310499  1
  O  O214  1  0.84366981  0.84239215  0.37017004  1
  O  O215  1  0.52386128  0.82690145  0.87862960  1
