# generated using pymatgen
data_Sr24Ta24N11O13
_symmetry_space_group_name_H-M   'P 1'
_cell_length_a   16.72838021
_cell_length_b   16.78212790
_cell_length_c   15.71661010
_cell_angle_alpha   89.74050822
_cell_angle_beta   89.84378348
_cell_angle_gamma   89.94758984
_symmetry_Int_Tables_number   1
_chemical_formula_structural   Sr24Ta24N11O13
_chemical_formula_sum   'Sr72 Ta72 N33 O39'
_cell_volume   4412.18335207
_cell_formula_units_Z   3
loop_
 _symmetry_equiv_pos_site_id
 _symmetry_equiv_pos_as_xyz
  1  'x, y, z'
loop_
 _atom_site_type_symbol
 _atom_site_label
 _atom_site_symmetry_multiplicity
 _atom_site_fract_x
 _atom_site_fract_y
 _atom_site_fract_z
 _atom_site_occupancy
  Sr  Sr0  1  -0.00369665  0.16959799  0.09837131  1
  Sr  Sr1  1  -0.00736661  0.16505399  0.63031410  1
  Sr  Sr2  1  0.00445523  0.51811623  0.07869939  1
  Sr  Sr3  1  -0.00589927  0.50316906  0.62831705  1
  Sr  Sr4  1  0.01264983  0.82771881  0.18023014  1
  Sr  Sr5  1  -0.00119723  0.83307828  0.62456578  1
  Sr  Sr6  1  0.33354170  0.18116646  0.12656036  1
  Sr  Sr7  1  0.34351565  0.17491575  0.66485075  1
  Sr  Sr8  1  0.30719392  0.50859017  0.17496493  1
  Sr  Sr9  1  0.34188100  0.50529855  0.60190657  1
  Sr  Sr10  1  0.32963985  0.83435098  0.08748812  1
  Sr  Sr11  1  0.33036292  0.84670335  0.63037733  1
  Sr  Sr12  1  0.67183076  0.17839946  0.11737853  1
  Sr  Sr13  1  0.65283702  0.17465955  0.58261603  1
  Sr  Sr14  1  0.65323677  0.51878761  0.10410411  1
  Sr  Sr15  1  0.66989176  0.48360215  0.67050867  1
  Sr  Sr16  1  0.64847557  0.86280875  0.15760865  1
  Sr  Sr17  1  0.66195029  0.83720661  0.62290371  1
  Sr  Sr18  1  0.16438789  -0.01343375  0.13078826  1
  Sr  Sr19  1  0.15394954  -0.01348707  0.58138274  1
  Sr  Sr20  1  0.16476271  0.32549105  0.11861698  1
  Sr  Sr21  1  0.18315795  0.29666560  0.65498825  1
  Sr  Sr22  1  0.16347582  0.66353628  0.13198912  1
  Sr  Sr23  1  0.18263148  0.64597856  0.64632813  1
  Sr  Sr24  1  0.49153281  0.00443970  0.15305228  1
  Sr  Sr25  1  0.50059684  -0.01306350  0.61642662  1
  Sr  Sr26  1  0.50353903  0.31778585  0.07357423  1
  Sr  Sr27  1  0.49843082  0.33642489  0.62549078  1
  Sr  Sr28  1  0.50168642  0.67360909  0.12532812  1
  Sr  Sr29  1  0.52024400  0.65060938  0.62873746  1
  Sr  Sr30  1  0.82090404  -0.00382878  0.11191906  1
  Sr  Sr31  1  0.84027564  -0.01300767  0.67129778  1
  Sr  Sr32  1  0.80480406  0.34206079  0.17269341  1
  Sr  Sr33  1  0.84990490  0.32303182  0.60653805  1
  Sr  Sr34  1  0.83827668  0.64535995  0.12604635  1
  Sr  Sr35  1  0.83896172  0.67585149  0.58989192  1
  Sr  Sr36  1  -0.00031502  0.17153597  0.39584663  1
  Sr  Sr37  1  -0.00987446  0.16879077  0.86759360  1
  Sr  Sr38  1  -0.01330946  0.49284415  0.42325159  1
  Sr  Sr39  1  0.00534713  0.50627551  0.87218827  1
  Sr  Sr40  1  0.00532574  0.83550079  0.38392723  1
  Sr  Sr41  1  -0.00207990  0.83014406  0.84363704  1
  Sr  Sr42  1  0.32725714  0.16394035  0.33553090  1
  Sr  Sr43  1  0.34350443  0.19216548  0.87567644  1
  Sr  Sr44  1  0.35528152  0.49553421  0.38929984  1
  Sr  Sr45  1  0.31772547  0.52109832  0.84709485  1
  Sr  Sr46  1  0.32958445  0.86942535  0.41908653  1
  Sr  Sr47  1  0.32335492  0.83177624  0.87875837  1
  Sr  Sr48  1  0.67716367  0.19324065  0.37452303  1
  Sr  Sr49  1  0.66800296  0.16781932  0.90869445  1
  Sr  Sr50  1  0.69151773  0.50061587  0.32110492  1
  Sr  Sr51  1  0.65696004  0.50945810  0.88180422  1
  Sr  Sr52  1  0.65220869  0.83840774  0.38587912  1
  Sr  Sr53  1  0.66790842  0.86178868  0.84343599  1
  Sr  Sr54  1  0.15304122  -0.01338739  0.37294543  1
  Sr  Sr55  1  0.16009947  -0.01268330  0.91094414  1
  Sr  Sr56  1  0.19385923  0.33027832  0.33553476  1
  Sr  Sr57  1  0.16053423  0.32044041  0.89297987  1
  Sr  Sr58  1  0.18011160  0.63787278  0.36738146  1
  Sr  Sr59  1  0.15771186  0.66979290  0.86576759  1
  Sr  Sr60  1  0.50979952  -0.00064201  0.38493750  1
  Sr  Sr61  1  0.48159549  -0.00852581  0.84313006  1
  Sr  Sr62  1  0.49984349  0.33041121  0.41145580  1
  Sr  Sr63  1  0.50854784  0.33587252  0.86957980  1
  Sr  Sr64  1  0.51163511  0.65159841  0.35348058  1
  Sr  Sr65  1  0.51506115  0.66309473  0.88992871  1
  Sr  Sr66  1  0.83034013  -0.01734306  0.34285390  1
  Sr  Sr67  1  0.83047652  0.00165526  0.88500764  1
  Sr  Sr68  1  0.85173280  0.32420533  0.38970592  1
  Sr  Sr69  1  0.83933080  0.35154290  0.81924018  1
  Sr  Sr70  1  0.84670289  0.66110115  0.38103890  1
  Sr  Sr71  1  0.82887425  0.64688949  0.91883947  1
  Ta  Ta72  1  0.18590407  0.14785951  0.00187357  1
  Ta  Ta73  1  0.19014935  0.17381634  0.49600514  1
  Ta  Ta74  1  0.19890854  0.50356559  -0.00198640  1
  Ta  Ta75  1  0.16725461  0.46037503  0.49911125  1
  Ta  Ta76  1  0.13489793  0.82109252  0.00782741  1
  Ta  Ta77  1  0.16947094  0.78687790  0.49944229  1
  Ta  Ta78  1  0.49295622  0.12594627  -0.00308311  1
  Ta  Ta79  1  0.45818991  0.16339130  0.50008115  1
  Ta  Ta80  1  0.44522751  0.50650486  0.00202227  1
  Ta  Ta81  1  0.56177947  0.50250196  0.49655217  1
  Ta  Ta82  1  0.52055920  0.84794658  -0.00035966  1
  Ta  Ta83  1  0.48723448  0.79335254  0.49874424  1
  Ta  Ta84  1  0.83270418  0.23780367  -0.00475001  1
  Ta  Ta85  1  0.83184381  0.12344803  0.50082954  1
  Ta  Ta86  1  0.83303137  0.44860349  -0.00644513  1
  Ta  Ta87  1  0.78881223  0.49859778  0.49662538  1
  Ta  Ta88  1  0.84409477  0.82686318  -0.00439758  1
  Ta  Ta89  1  0.83092228  0.86543101  0.50824131  1
  Ta  Ta90  1  0.13113398  0.15111808  0.24528561  1
  Ta  Ta91  1  0.16010852  0.11185846  0.75104281  1
  Ta  Ta92  1  0.09647568  0.48942707  0.25088529  1
  Ta  Ta93  1  0.16498973  0.46589456  0.75072815  1
  Ta  Ta94  1  0.21287551  0.82226039  0.25644957  1
  Ta  Ta95  1  0.16702708  0.86573287  0.75232885  1
  Ta  Ta96  1  0.51132843  0.18956608  0.24320792  1
  Ta  Ta97  1  0.53546441  0.16695609  0.75390963  1
  Ta  Ta98  1  0.50117903  0.46588493  0.24171497  1
  Ta  Ta99  1  0.47846937  0.50153765  0.75619854  1
  Ta  Ta100  1  0.45043791  0.83156770  0.25952784  1
  Ta  Ta101  1  0.48869853  0.80450908  0.74451484  1
  Ta  Ta102  1  0.84665951  0.15387800  0.25111635  1
  Ta  Ta103  1  0.79324532  0.17034171  0.74256528  1
  Ta  Ta104  1  0.89477059  0.49509686  0.25586417  1
  Ta  Ta105  1  0.83651186  0.54711939  0.75387747  1
  Ta  Ta106  1  0.81558657  0.80761300  0.25204060  1
  Ta  Ta107  1  0.83002990  0.78727242  0.75586002  1
  Ta  Ta108  1  -0.00583205  0.03093400  0.25153336  1
  Ta  Ta109  1  0.03497340  -0.00155768  0.74717017  1
  Ta  Ta110  1  0.00566555  0.34630197  0.25415005  1
  Ta  Ta111  1  0.02452794  0.34747039  0.74321301  1
  Ta  Ta112  1  0.00164486  0.63229159  0.25105777  1
  Ta  Ta113  1  -0.04010228  0.66367733  0.75652339  1
  Ta  Ta114  1  0.32676118  -0.03023597  0.24897908  1
  Ta  Ta115  1  0.28758609  0.00158208  0.74668893  1
  Ta  Ta116  1  0.39058330  0.33868620  0.24575853  1
  Ta  Ta117  1  0.33851103  0.36609734  0.74807541  1
  Ta  Ta118  1  0.33732094  0.70675305  0.25939473  1
  Ta  Ta119  1  0.36701835  0.67708170  0.74603369  1
  Ta  Ta120  1  0.66868959  0.03993256  0.24919779  1
  Ta  Ta121  1  0.66119661  0.04745157  0.74842827  1
  Ta  Ta122  1  0.60492524  0.33658656  0.24071208  1
  Ta  Ta123  1  0.66556136  0.29093586  0.74765887  1
  Ta  Ta124  1  0.68951086  0.69212554  0.24542182  1
  Ta  Ta125  1  0.69864237  0.67476574  0.75775278  1
  Ta  Ta126  1  -0.00768211  -0.06656196  0.00863381  1
  Ta  Ta127  1  -0.04247975  -0.00158934  0.50059856  1
  Ta  Ta128  1  -0.03325664  0.33934968  -0.00717449  1
  Ta  Ta129  1  0.06104113  0.32760639  0.50195699  1
  Ta  Ta130  1  -0.00367659  0.72231452  0.00996850  1
  Ta  Ta131  1  0.03181966  0.67330304  0.50484541  1
  Ta  Ta132  1  0.34106968  0.02382331  0.00204554  1
  Ta  Ta133  1  0.32929274  0.05323228  0.50562072  1
  Ta  Ta134  1  0.32892233  0.38176784  0.00697641  1
  Ta  Ta135  1  0.31680501  0.30583580  0.49690676  1
  Ta  Ta136  1  0.32931824  0.63852616  0.00436389  1
  Ta  Ta137  1  0.34063639  0.68941154  0.50103893  1
  Ta  Ta138  1  0.62908621  -0.00725937  -0.00254957  1
  Ta  Ta139  1  0.70897515  0.00154910  0.50758606  1
  Ta  Ta140  1  0.70160882  0.34520473  -0.01293133  1
  Ta  Ta141  1  0.67332067  0.37530536  0.49534783  1
  Ta  Ta142  1  0.67008039  0.73633163  -0.00326254  1
  Ta  Ta143  1  0.66827566  0.63466389  0.49799439  1
  N  N144  1  0.50339422  0.82661878  0.62383245  1
  N  N145  1  0.66936013  0.33883140  0.86169794  1
  N  N146  1  0.83486087  0.83150832  0.62767180  1
  N  N147  1  0.34077229  0.66374006  0.62331151  1
  N  N148  1  0.00785955  0.32571251  0.61396389  1
  N  N149  1  0.67290955  0.68612443  0.88155761  1
  N  N150  1  0.17018266  0.82481385  0.38150585  1
  N  N151  1  0.17348340  0.82490676  0.12956024  1
  N  N152  1  0.49503251  0.83190157  0.37547147  1
  N  N153  1  0.33785317  0.33667581  0.62788762  1
  N  N154  1  0.16355913  0.83343696  0.87281878  1
  N  N155  1  0.32762581  -0.00312342  0.12452358  1
  N  N156  1  0.82831002  0.16577225  0.62418231  1
  N  N157  1  0.16462135  0.49313841  0.87709091  1
  N  N158  1  0.00065796  -0.00554540  0.62617920  1
  N  N159  1  0.66185076  0.01601601  0.12810030  1
  N  N160  1  -0.00020341  0.33296244  0.86716936  1
  N  N161  1  0.66886970  0.00414315  0.62497609  1
  N  N162  1  0.01305594  0.32835832  0.37864768  1
  N  N163  1  -0.00215234  0.67324136  0.12809818  1
  N  N164  1  0.32338198  0.00858315  0.62341490  1
  N  N165  1  0.49977655  0.16503646  0.87401813  1
  N  N166  1  0.16179318  0.16314074  0.12285809  1
  N  N167  1  0.66059717  0.01114946  0.87719125  1
  N  N168  1  0.34728322  0.33230532  0.37784248  1
  N  N169  1  0.50044559  0.16578144  0.12186911  1
  N  N170  1  0.83999329  0.49541797  0.37347703  1
  N  N171  1  -0.00813077  -0.00257636  0.37183920  1
  N  N172  1  0.83035727  0.49814682  0.86891130  1
  N  N173  1  0.33991628  0.34425176  0.13158025  1
  N  N174  1  0.48954454  0.50338913  0.87930978  1
  N  N175  1  0.83518695  0.16373869  0.37303861  1
  N  N176  1  0.83340068  0.84043056  0.86883199  1
  O  O177  1  -0.00141991  0.66792935  0.62679436  1
  O  O178  1  0.49142056  0.17107016  0.62473688  1
  O  O179  1  0.14623544  0.48281612  0.37162999  1
  O  O180  1  0.50332767  0.83501452  0.87433570  1
  O  O181  1  0.33314044  0.34801984  0.88196531  1
  O  O182  1  0.67022172  0.69468622  0.11666913  1
  O  O183  1  0.49509691  0.51465445  0.12123933  1
  O  O184  1  0.51998386  0.49595065  0.62292256  1
  O  O185  1  -0.01068418  -0.02208216  0.12801571  1
  O  O186  1  0.32551428  -0.00857468  0.87556944  1
  O  O187  1  0.32551589  0.01280039  0.37340205  1
  O  O188  1  -0.01340857  0.67632070  0.88815329  1
  O  O189  1  0.83171671  0.19251980  0.87349360  1
  O  O190  1  0.82689860  0.83049880  0.13132073  1
  O  O191  1  0.34024085  0.64846178  0.37158721  1
  O  O192  1  0.67052251  0.01222262  0.37685143  1
  O  O193  1  0.65102106  0.34646717  0.36276267  1
  O  O194  1  0.17232951  0.16743928  0.36450241  1
  O  O195  1  0.15788861  0.14843321  0.87581239  1
  O  O196  1  0.33529657  0.67097214  0.88004329  1
  O  O197  1  0.65268919  0.33936593  0.11906125  1
  O  O198  1  0.67633745  0.66022484  0.36715910  1
  O  O199  1  0.16912027  0.83102162  0.62440649  1
  O  O200  1  0.48158539  0.16980448  0.37524373  1
  O  O201  1  0.33407776  0.66444548  0.12999689  1
  O  O202  1  0.17031242  0.14798707  0.61986162  1
  O  O203  1  0.82696969  0.82364902  0.37973185  1
  O  O204  1  0.81906822  0.51676011  0.62363209  1
  O  O205  1  0.67881293  0.65517953  0.62234930  1
  O  O206  1  0.66595828  0.33365774  0.62041049  1
  O  O207  1  0.18074849  0.48392416  0.62040931  1
  O  O208  1  0.14982397  0.49938907  0.12013235  1
  O  O209  1  0.01950354  0.66533691  0.37883147  1
  O  O210  1  0.85667181  0.48515824  0.13155963  1
  O  O211  1  0.83682685  0.19716812  0.12168978  1
  O  O212  1  0.00582960  0.32718913  0.11513219  1
  O  O213  1  0.00185303  -0.02259895  0.88700828  1
  O  O214  1  0.49330708  0.83610725  0.12551324  1
  O  O215  1  0.51523623  0.49749200  0.37552724  1
