# generated using pymatgen
data_Sr24Ta24N11O13
_symmetry_space_group_name_H-M   'P 1'
_cell_length_a   16.82492086
_cell_length_b   16.81046919
_cell_length_c   15.73645151
_cell_angle_alpha   90.07500330
_cell_angle_beta   90.05741898
_cell_angle_gamma   90.04992260
_symmetry_Int_Tables_number   1
_chemical_formula_structural   Sr24Ta24N11O13
_chemical_formula_sum   'Sr72 Ta72 N33 O39'
_cell_volume   4450.80858933
_cell_formula_units_Z   3
loop_
 _symmetry_equiv_pos_site_id
 _symmetry_equiv_pos_as_xyz
  1  'x, y, z'
loop_
 _atom_site_type_symbol
 _atom_site_label
 _atom_site_symmetry_multiplicity
 _atom_site_fract_x
 _atom_site_fract_y
 _atom_site_fract_z
 _atom_site_occupancy
  Sr  Sr0  1  -0.00003106  0.15676935  0.11444534  1
  Sr  Sr1  1  0.00351409  0.16287669  0.63050048  1
  Sr  Sr2  1  -0.00292157  0.49262684  0.13581392  1
  Sr  Sr3  1  -0.00164524  0.50096383  0.66120827  1
  Sr  Sr4  1  0.00630637  0.82708906  0.08628477  1
  Sr  Sr5  1  -0.01318112  0.82166102  0.62013564  1
  Sr  Sr6  1  0.32940473  0.16957106  0.13428044  1
  Sr  Sr7  1  0.33958020  0.16103168  0.58588537  1
  Sr  Sr8  1  0.34181534  0.49797841  0.11795866  1
  Sr  Sr9  1  0.31108282  0.48901480  0.59760001  1
  Sr  Sr10  1  0.33138856  0.82064393  0.13606048  1
  Sr  Sr11  1  0.32866951  0.84199965  0.65748292  1
  Sr  Sr12  1  0.67718603  0.17098526  0.15235907  1
  Sr  Sr13  1  0.65584441  0.16076889  0.63429167  1
  Sr  Sr14  1  0.66981962  0.48483509  0.07314413  1
  Sr  Sr15  1  0.66828496  0.51165391  0.63537285  1
  Sr  Sr16  1  0.66588838  0.83191756  0.13241773  1
  Sr  Sr17  1  0.64016444  0.84482619  0.58070962  1
  Sr  Sr18  1  0.15636870  0.01989227  0.11903928  1
  Sr  Sr19  1  0.17768918  -0.00248749  0.65829108  1
  Sr  Sr20  1  0.14942321  0.35236980  0.15644315  1
  Sr  Sr21  1  0.15716065  0.31999472  0.61813770  1
  Sr  Sr22  1  0.16292154  0.66304406  0.11524060  1
  Sr  Sr23  1  0.16783485  0.67977550  0.60094171  1
  Sr  Sr24  1  0.50452819  -0.01154167  0.08289019  1
  Sr  Sr25  1  0.49835899  0.01049871  0.62844993  1
  Sr  Sr26  1  0.48657248  0.34554902  0.10925774  1
  Sr  Sr27  1  0.52254704  0.33108186  0.66971148  1
  Sr  Sr28  1  0.49722948  0.67870544  0.16968585  1
  Sr  Sr29  1  0.50865806  0.65558516  0.61120313  1
  Sr  Sr30  1  0.81925099  0.00499223  0.16386654  1
  Sr  Sr31  1  0.85421185  -0.00497469  0.62150799  1
  Sr  Sr32  1  0.83972438  0.33543810  0.12467279  1
  Sr  Sr33  1  0.81931258  0.32789006  0.58257268  1
  Sr  Sr34  1  0.82189668  0.67652833  0.11912702  1
  Sr  Sr35  1  0.84599862  0.66059715  0.65385337  1
  Sr  Sr36  1  -0.00210118  0.16344239  0.40041973  1
  Sr  Sr37  1  0.00374919  0.16544836  0.86818509  1
  Sr  Sr38  1  -0.00762694  0.50193509  0.33675301  1
  Sr  Sr39  1  0.00454601  0.49395387  0.86674436  1
  Sr  Sr40  1  0.00164898  0.82192010  0.41214848  1
  Sr  Sr41  1  -0.02024032  0.82330434  0.87675746  1
  Sr  Sr42  1  0.33480796  0.16335510  0.37063595  1
  Sr  Sr43  1  0.34050269  0.16340631  0.92201825  1
  Sr  Sr44  1  0.35943759  0.50223055  0.37918976  1
  Sr  Sr45  1  0.32550505  0.49009954  0.88879940  1
  Sr  Sr46  1  0.31729233  0.83349101  0.34675344  1
  Sr  Sr47  1  0.34314901  0.82658728  0.86143093  1
  Sr  Sr48  1  0.66978887  0.17529968  0.36277211  1
  Sr  Sr49  1  0.65840492  0.15120325  0.84419218  1
  Sr  Sr50  1  0.68523452  0.49713176  0.41658907  1
  Sr  Sr51  1  0.65647446  0.50261440  0.85947773  1
  Sr  Sr52  1  0.66840818  0.82508668  0.35683570  1
  Sr  Sr53  1  0.66070300  0.84298994  0.91693005  1
  Sr  Sr54  1  0.18246569  0.00400447  0.33960571  1
  Sr  Sr55  1  0.15582083  0.02136576  0.88746643  1
  Sr  Sr56  1  0.16380849  0.33795736  0.39671957  1
  Sr  Sr57  1  0.14929770  0.34647074  0.83203664  1
  Sr  Sr58  1  0.16115569  0.66986933  0.38536567  1
  Sr  Sr59  1  0.17907471  0.67003550  0.90357206  1
  Sr  Sr60  1  0.50072723  0.01012846  0.41778871  1
  Sr  Sr61  1  0.50347891  -0.00195663  0.87514742  1
  Sr  Sr62  1  0.49900949  0.31672846  0.32327716  1
  Sr  Sr63  1  0.49932714  0.34882521  0.88541606  1
  Sr  Sr64  1  0.50758442  0.65606805  0.38541872  1
  Sr  Sr65  1  0.49656172  0.67201120  0.83480507  1
  Sr  Sr66  1  0.85577455  -0.00708997  0.38277835  1
  Sr  Sr67  1  0.83401174  0.01921162  0.83751902  1
  Sr  Sr68  1  0.83206099  0.33817050  0.37297584  1
  Sr  Sr69  1  0.84136239  0.32733586  0.91841223  1
  Sr  Sr70  1  0.84230590  0.66185468  0.35978070  1
  Sr  Sr71  1  0.82392659  0.68209287  0.87920638  1
  Ta  Ta72  1  0.16400251  0.21422072  0.00375603  1
  Ta  Ta73  1  0.16924895  0.12581402  0.50613523  1
  Ta  Ta74  1  0.15644107  0.47792823  0.00184970  1
  Ta  Ta75  1  0.11108829  0.50530042  0.50167687  1
  Ta  Ta76  1  0.19002433  0.85435849  -0.00339881  1
  Ta  Ta77  1  0.18336632  0.86050022  0.50594098  1
  Ta  Ta78  1  0.53479172  0.17216446  0.00127122  1
  Ta  Ta79  1  0.50943784  0.20840907  0.49281326  1
  Ta  Ta80  1  0.49669816  0.54953998  -0.00578366  1
  Ta  Ta81  1  0.51140817  0.44584346  0.49589100  1
  Ta  Ta82  1  0.48759969  0.79702928  0.00235153  1
  Ta  Ta83  1  0.45573412  0.83073874  0.49923978  1
  Ta  Ta84  1  0.81846724  0.14273839  0.00542789  1
  Ta  Ta85  1  0.80993777  0.14821035  0.50157289  1
  Ta  Ta86  1  0.85406692  0.51738445  -0.00340153  1
  Ta  Ta87  1  0.87121019  0.51107494  0.50357793  1
  Ta  Ta88  1  0.83031609  0.88495818  -0.00280321  1
  Ta  Ta89  1  0.81392841  0.81493360  0.50461946  1
  Ta  Ta90  1  0.15761265  0.19321638  0.25199571  1
  Ta  Ta91  1  0.22432853  0.17063456  0.74913004  1
  Ta  Ta92  1  0.19280238  0.51128572  0.25328841  1
  Ta  Ta93  1  0.17713098  0.53938461  0.75305768  1
  Ta  Ta94  1  0.13189294  0.82750692  0.24825585  1
  Ta  Ta95  1  0.14192102  0.82360346  0.75117213  1
  Ta  Ta96  1  0.50125550  0.12034555  0.25084630  1
  Ta  Ta97  1  0.44579902  0.17088457  0.75564661  1
  Ta  Ta98  1  0.55315363  0.49555597  0.25168454  1
  Ta  Ta99  1  0.45985146  0.50358273  0.74625444  1
  Ta  Ta100  1  0.49688939  0.87572052  0.24882353  1
  Ta  Ta101  1  0.53004526  0.84148324  0.75358341  1
  Ta  Ta102  1  0.86004418  0.17820825  0.25532248  1
  Ta  Ta103  1  0.83181582  0.20865372  0.74626053  1
  Ta  Ta104  1  0.79213086  0.50029778  0.23984535  1
  Ta  Ta105  1  0.82914256  0.44524303  0.75116493  1
  Ta  Ta106  1  0.87657045  0.83071494  0.24781624  1
  Ta  Ta107  1  0.79331114  0.84014136  0.74967745  1
  Ta  Ta108  1  0.00467832  -0.03958892  0.24938934  1
  Ta  Ta109  1  0.01432954  -0.02891571  0.75225532  1
  Ta  Ta110  1  -0.00300873  0.30323772  0.25436274  1
  Ta  Ta111  1  -0.04448067  0.32853156  0.74725061  1
  Ta  Ta112  1  0.00594773  0.70129788  0.25133102  1
  Ta  Ta113  1  0.03880779  0.67305687  0.75261567  1
  Ta  Ta114  1  0.37616099  0.00039449  0.25274638  1
  Ta  Ta115  1  0.34077501  0.03481369  0.75088498  1
  Ta  Ta116  1  0.30726487  0.34072262  0.25500729  1
  Ta  Ta117  1  0.33691232  0.30749442  0.75061400  1
  Ta  Ta118  1  0.31080418  0.64752352  0.25632490  1
  Ta  Ta119  1  0.32115885  0.63942473  0.74391652  1
  Ta  Ta120  1  0.62567839  -0.00059511  0.24684256  1
  Ta  Ta121  1  0.66461836  -0.04474907  0.75146968  1
  Ta  Ta122  1  0.67192379  0.37514538  0.24434280  1
  Ta  Ta123  1  0.70893831  0.32989794  0.75713159  1
  Ta  Ta124  1  0.67032963  0.61620273  0.24709596  1
  Ta  Ta125  1  0.66445135  0.73266147  0.74798612  1
  Ta  Ta126  1  -0.04022610  0.00112199  0.00096882  1
  Ta  Ta127  1  0.04728559  -0.00555643  0.50154057  1
  Ta  Ta128  1  0.02973657  0.33430949  0.00006789  1
  Ta  Ta129  1  -0.00670833  0.37312961  0.50214523  1
  Ta  Ta130  1  -0.01064510  0.63771656  -0.00421022  1
  Ta  Ta131  1  -0.00907772  0.63044479  0.50368900  1
  Ta  Ta132  1  0.31818861  -0.03012914  0.00222886  1
  Ta  Ta133  1  0.31490156  -0.02342353  0.50082969  1
  Ta  Ta134  1  0.27084523  0.33588421  0.00111880  1
  Ta  Ta135  1  0.39057473  0.32925749  0.49984880  1
  Ta  Ta136  1  0.37223355  0.66749940  0.00011794  1
  Ta  Ta137  1  0.33898438  0.70785545  0.49763104  1
  Ta  Ta138  1  0.69009093  0.02209131  -0.00021293  1
  Ta  Ta139  1  0.69048572  0.01287453  0.49670091  1
  Ta  Ta140  1  0.66165094  0.28879089  -0.00588680  1
  Ta  Ta141  1  0.62841906  0.32332910  0.49738803  1
  Ta  Ta142  1  0.62237871  0.66727438  -0.00273897  1
  Ta  Ta143  1  0.70150144  0.67721243  0.50307998  1
  N  N144  1  0.16986841  0.83378720  0.62826044  1
  N  N145  1  0.82912692  0.50040370  0.11736301  1
  N  N146  1  0.83049628  0.17134278  0.62586187  1
  N  N147  1  0.18394812  0.16178157  0.62572697  1
  N  N148  1  0.33714012  0.67179411  0.37527616  1
  N  N149  1  0.00157479  0.66380580  0.87639222  1
  N  N150  1  0.48985506  0.50935856  0.86678672  1
  N  N151  1  0.34060950  -0.00069728  0.37454398  1
  N  N152  1  0.16800035  0.50993865  0.87443674  1
  N  N153  1  0.50099356  0.16502727  0.37047917  1
  N  N154  1  0.66674497  -0.00350613  0.87104166  1
  N  N155  1  0.16752771  0.17768727  0.13141057  1
  N  N156  1  0.00382657  0.66355745  0.62700852  1
  N  N157  1  0.49993760  0.83416508  0.87706939  1
  N  N158  1  0.83040322  0.17280359  0.37745622  1
  N  N159  1  -0.00447397  0.33036836  0.87359489  1
  N  N160  1  0.82468382  0.84840805  0.88058056  1
  N  N161  1  -0.00549281  -0.00019477  0.87530129  1
  N  N162  1  -0.00467518  0.33131520  0.12264173  1
  N  N163  1  -0.00356578  -0.00577005  0.12473328  1
  N  N164  1  0.00119915  0.66664518  0.37067280  1
  N  N165  1  0.33949349  0.00273818  0.62819681  1
  N  N166  1  0.49761887  0.83351207  0.12963864  1
  N  N167  1  0.00933066  -0.00785782  0.62588279  1
  N  N168  1  -0.00245673  0.33653156  0.37561948  1
  N  N169  1  0.16982478  0.50766819  0.13010401  1
  N  N170  1  0.66550722  0.33197453  0.87829120  1
  N  N171  1  0.01479882  -0.01037537  0.37611113  1
  N  N172  1  0.83111587  0.16555868  0.12687944  1
  N  N173  1  0.83056141  0.83316285  0.62407388  1
  N  N174  1  0.66087203  0.00089501  0.12575732  1
  N  N175  1  0.51827041  0.48490624  0.37372202  1
  N  N176  1  -0.00562166  0.33353941  0.62244012  1
  O  O177  1  0.83471008  0.50458990  0.36601118  1
  O  O178  1  0.18504370  0.17491048  0.87210440  1
  O  O179  1  0.66723850  0.32268618  0.62302976  1
  O  O180  1  0.68657712  0.65222806  0.37962452  1
  O  O181  1  0.34865869  0.32482704  0.62134084  1
  O  O182  1  0.15703964  0.83168310  0.37429864  1
  O  O183  1  0.84874023  0.82471731  0.37234167  1
  O  O184  1  0.51331515  0.50235929  0.11378058  1
  O  O185  1  0.31243122  0.33887025  0.12792951  1
  O  O186  1  0.34476559  0.66218522  0.13312624  1
  O  O187  1  0.47580183  0.83870510  0.37496255  1
  O  O188  1  0.32553511  0.66185575  0.61783017  1
  O  O189  1  0.66847601  0.00583730  0.37385487  1
  O  O190  1  0.64940997  0.65442889  0.12118686  1
  O  O191  1  0.33940552  0.33539760  0.37651192  1
  O  O192  1  0.51887631  0.15884364  0.12465032  1
  O  O193  1  0.17152431  0.16148459  0.38201743  1
  O  O194  1  0.31462333  0.32972583  0.87296148  1
  O  O195  1  0.16050715  0.83744098  0.12004666  1
  O  O196  1  0.50852623  0.48601848  0.63006052  1
  O  O197  1  0.33546174  -0.01793249  0.12595209  1
  O  O198  1  0.49277595  0.17424995  0.63540663  1
  O  O199  1  0.33916869  0.65963574  0.86916953  1
  O  O200  1  0.00280827  0.66603644  0.12319337  1
  O  O201  1  0.66820980  0.34088913  0.36995067  1
  O  O202  1  0.48520204  0.83754146  0.62469849  1
  O  O203  1  0.33148622  -0.00634320  0.87773526  1
  O  O204  1  0.66973620  0.33592851  0.12046886  1
  O  O205  1  0.49396350  0.17134287  0.87795047  1
  O  O206  1  0.85122783  0.83663286  0.12174627  1
  O  O207  1  0.18498362  0.83998878  0.87292836  1
  O  O208  1  0.15769556  0.50748984  0.62375699  1
  O  O209  1  0.67055487  0.68586193  0.62758629  1
  O  O210  1  0.83396642  0.17148303  0.87518174  1
  O  O211  1  0.64918435  0.68588186  0.87217148  1
  O  O212  1  0.83155404  0.48205920  0.87690731  1
  O  O213  1  0.14892636  0.50692487  0.37858603  1
  O  O214  1  0.83485145  0.49123300  0.62775100  1
  O  O215  1  0.67232213  -0.00255792  0.62262984  1
