# generated using pymatgen
data_Sr24Ta24N11O13
_symmetry_space_group_name_H-M   'P 1'
_cell_length_a   16.72766853
_cell_length_b   16.82586402
_cell_length_c   15.64226730
_cell_angle_alpha   89.97195411
_cell_angle_beta   90.22321821
_cell_angle_gamma   89.99089104
_symmetry_Int_Tables_number   1
_chemical_formula_structural   Sr24Ta24N11O13
_chemical_formula_sum   'Sr72 Ta72 N33 O39'
_cell_volume   4402.59907731
_cell_formula_units_Z   3
loop_
 _symmetry_equiv_pos_site_id
 _symmetry_equiv_pos_as_xyz
  1  'x, y, z'
loop_
 _atom_site_type_symbol
 _atom_site_label
 _atom_site_symmetry_multiplicity
 _atom_site_fract_x
 _atom_site_fract_y
 _atom_site_fract_z
 _atom_site_occupancy
  Sr  Sr0  1  0.00759721  0.15699467  0.17131066  1
  Sr  Sr1  1  -0.00223895  0.17687700  0.62006746  1
  Sr  Sr2  1  0.00242387  0.49275115  0.11468720  1
  Sr  Sr3  1  0.01100495  0.53900471  0.67488821  1
  Sr  Sr4  1  -0.01391678  0.82829706  0.13241285  1
  Sr  Sr5  1  0.01831996  0.83025577  0.58666091  1
  Sr  Sr6  1  0.31265059  0.16570791  0.07416766  1
  Sr  Sr7  1  0.33033349  0.15000367  0.64217409  1
  Sr  Sr8  1  0.34412633  0.46848968  0.19196416  1
  Sr  Sr9  1  0.32512383  0.49811800  0.61600367  1
  Sr  Sr10  1  0.34823055  0.81634804  0.11624539  1
  Sr  Sr11  1  0.31915303  0.82133572  0.66137577  1
  Sr  Sr12  1  0.65395494  0.14493035  0.14568438  1
  Sr  Sr13  1  0.66785520  0.17243842  0.59292971  1
  Sr  Sr14  1  0.66648973  0.52552604  0.15298449  1
  Sr  Sr15  1  0.67773465  0.48796819  0.61994094  1
  Sr  Sr16  1  0.66693856  0.83293854  0.08298033  1
  Sr  Sr17  1  0.68493557  0.85836539  0.64551092  1
  Sr  Sr18  1  0.16876034  0.00309232  0.11944632  1
  Sr  Sr19  1  0.15463914  0.01677692  0.62158070  1
  Sr  Sr20  1  0.15554869  0.33179041  0.13721171  1
  Sr  Sr21  1  0.18112613  0.34433005  0.58675654  1
  Sr  Sr22  1  0.15190202  0.68648211  0.07027544  1
  Sr  Sr23  1  0.18410798  0.66207593  0.63223243  1
  Sr  Sr24  1  0.48858534  -0.00964851  0.14758267  1
  Sr  Sr25  1  0.51512269  0.01863932  0.60837266  1
  Sr  Sr26  1  0.49672517  0.30408298  0.10963293  1
  Sr  Sr27  1  0.48608850  0.33001233  0.67066663  1
  Sr  Sr28  1  0.51477249  0.67395494  0.11226957  1
  Sr  Sr29  1  0.49082599  0.59633773  0.51405424  1
  Sr  Sr30  1  0.82110446  -0.00764713  0.10827410  1
  Sr  Sr31  1  0.84568664  0.01333506  0.67028800  1
  Sr  Sr32  1  0.81844662  0.33465945  0.08696156  1
  Sr  Sr33  1  0.84103614  0.32252038  0.63352042  1
  Sr  Sr34  1  0.85088502  0.64567636  0.18657767  1
  Sr  Sr35  1  0.83083109  0.68007395  0.61533618  1
  Sr  Sr36  1  -0.00163986  0.17388844  0.37954592  1
  Sr  Sr37  1  -0.01757932  0.15103446  0.82975643  1
  Sr  Sr38  1  -0.00568118  0.50293534  0.33045251  1
  Sr  Sr39  1  0.00749043  0.49925209  0.89408118  1
  Sr  Sr40  1  -0.00361157  0.82575798  0.37411305  1
  Sr  Sr41  1  0.01502918  0.83854387  0.92527403  1
  Sr  Sr42  1  0.32471334  0.13648973  0.42142898  1
  Sr  Sr43  1  0.33363018  0.17782433  0.86728883  1
  Sr  Sr44  1  0.31833157  0.51907491  0.40070704  1
  Sr  Sr45  1  0.34389774  0.52550515  0.84245701  1
  Sr  Sr46  1  0.35035436  0.84699180  0.32727072  1
  Sr  Sr47  1  0.34482837  0.78530575  0.87212221  1
  Sr  Sr48  1  0.65448352  0.15732933  0.36643539  1
  Sr  Sr49  1  0.67673947  0.19636708  0.93740590  1
  Sr  Sr50  1  0.67948277  0.52342834  0.39607439  1
  Sr  Sr51  1  0.65886621  0.51937453  0.85313441  1
  Sr  Sr52  1  0.66267430  0.85394487  0.41153486  1
  Sr  Sr53  1  0.66734000  0.82263183  0.86355332  1
  Sr  Sr54  1  0.15425962  0.00509896  0.38441865  1
  Sr  Sr55  1  0.15877161  0.03319105  0.86579126  1
  Sr  Sr56  1  0.16057735  0.34478018  0.35830101  1
  Sr  Sr57  1  0.16974210  0.33365722  0.91845312  1
  Sr  Sr58  1  0.16803001  0.67630019  0.40760289  1
  Sr  Sr59  1  0.17154133  0.65119351  0.86233977  1
  Sr  Sr60  1  0.50262415  0.00113823  0.38610355  1
  Sr  Sr61  1  0.48780520  -0.01195382  0.82769824  1
  Sr  Sr62  1  0.50621655  0.31437053  0.32496935  1
  Sr  Sr63  1  0.49359066  0.32849977  0.88039628  1
  Sr  Sr64  1  0.47471274  0.67266235  0.32835901  1
  Sr  Sr65  1  0.51225769  0.66721041  0.89381636  1
  Sr  Sr66  1  0.83296433  0.02589726  0.32617424  1
  Sr  Sr67  1  0.82387421  -0.01366341  0.88954298  1
  Sr  Sr68  1  0.81810070  0.32751557  0.42364632  1
  Sr  Sr69  1  0.83691686  0.33425180  0.87614854  1
  Sr  Sr70  1  0.83197010  0.68339796  0.39385486  1
  Sr  Sr71  1  0.80969610  0.66110579  0.83284542  1
  Ta  Ta72  1  0.11282503  0.16838102  0.00125571  1
  Ta  Ta73  1  0.15483064  0.18519264  0.49973167  1
  Ta  Ta74  1  0.20505758  0.49753082  0.01178288  1
  Ta  Ta75  1  0.10746509  0.50523353  0.49535095  1
  Ta  Ta76  1  0.20012391  0.86719986  -0.02227356  1
  Ta  Ta77  1  0.20159770  0.84130205  0.49671179  1
  Ta  Ta78  1  0.49808029  0.11101985  -0.00713906  1
  Ta  Ta79  1  0.49364664  0.21469901  0.49633074  1
  Ta  Ta80  1  0.49128197  0.48809827  0.00893698  1
  Ta  Ta81  1  0.49456092  0.41720970  0.49089272  1
  Ta  Ta82  1  0.49621726  0.86792865  -0.01253196  1
  Ta  Ta83  1  0.48719247  0.81519799  0.50474946  1
  Ta  Ta84  1  0.87997059  0.16337219  0.00695099  1
  Ta  Ta85  1  0.83640935  0.13325769  0.49705301  1
  Ta  Ta86  1  0.82204146  0.51902125  0.01071299  1
  Ta  Ta87  1  0.89734428  0.50251801  0.50108704  1
  Ta  Ta88  1  0.83624113  0.79342841  0.00256063  1
  Ta  Ta89  1  0.83976232  0.88265478  0.50378008  1
  Ta  Ta90  1  0.20054537  0.16238030  0.24976212  1
  Ta  Ta91  1  0.16122634  0.22420645  0.75224322  1
  Ta  Ta92  1  0.16679341  0.54165484  0.25153402  1
  Ta  Ta93  1  0.16659704  0.44783963  0.75517951  1
  Ta  Ta94  1  0.16468145  0.82039133  0.23782744  1
  Ta  Ta95  1  0.14960165  0.84488660  0.76323094  1
  Ta  Ta96  1  0.44220774  0.15187988  0.25339355  1
  Ta  Ta97  1  0.56066180  0.16747295  0.76041681  1
  Ta  Ta98  1  0.51909484  0.48642597  0.27050905  1
  Ta  Ta99  1  0.50241468  0.53076523  0.72280038  1
  Ta  Ta100  1  0.54070686  0.83507419  0.24652534  1
  Ta  Ta101  1  0.50510763  0.80968977  0.73099002  1
  Ta  Ta102  1  0.82456003  0.21918187  0.25389248  1
  Ta  Ta103  1  0.77429164  0.17460378  0.76228799  1
  Ta  Ta104  1  0.82355956  0.44628341  0.25539902  1
  Ta  Ta105  1  0.84574387  0.48220667  0.75226828  1
  Ta  Ta106  1  0.80408531  0.83879311  0.24819359  1
  Ta  Ta107  1  0.87707667  0.83346242  0.75136855  1
  Ta  Ta108  1  0.00878770  -0.02243668  0.25060720  1
  Ta  Ta109  1  0.00936594  -0.05465767  0.75798903  1
  Ta  Ta110  1  -0.04737729  0.33029399  0.25289065  1
  Ta  Ta111  1  0.02364161  0.34583388  0.75278732  1
  Ta  Ta112  1  0.04723604  0.67276108  0.24468108  1
  Ta  Ta113  1  0.00131617  0.72493746  0.75786634  1
  Ta  Ta114  1  0.32318714  0.03183800  0.24285774  1
  Ta  Ta115  1  0.30483572  -0.02876829  0.76825754  1
  Ta  Ta116  1  0.32824209  0.27499130  0.24767941  1
  Ta  Ta117  1  0.29893704  0.34303599  0.75755832  1
  Ta  Ta118  1  0.28280019  0.66636876  0.24272030  1
  Ta  Ta119  1  0.42204649  0.67198463  0.67485591  1
  Ta  Ta120  1  0.66416191  -0.04384796  0.24085445  1
  Ta  Ta121  1  0.66794672  0.03951819  0.76083379  1
  Ta  Ta122  1  0.68783787  0.34396551  0.24940770  1
  Ta  Ta123  1  0.67038466  0.31066060  0.75995479  1
  Ta  Ta124  1  0.66895356  0.72168768  0.25475032  1
  Ta  Ta125  1  0.59602222  0.66696163  0.68888198  1
  Ta  Ta126  1  -0.00425997  0.03293938  -0.00260602  1
  Ta  Ta127  1  -0.04485230  0.00769134  0.49686119  1
  Ta  Ta128  1  -0.00557392  0.28835453  0.00273122  1
  Ta  Ta129  1  0.00422560  0.36532525  0.49620760  1
  Ta  Ta130  1  -0.05579766  0.66282163  0.00423138  1
  Ta  Ta131  1  -0.00006699  0.63698230  0.49150700  1
  Ta  Ta132  1  0.34574386  -0.01830880  -0.01069196  1
  Ta  Ta133  1  0.32938063  -0.05780974  0.50733927  1
  Ta  Ta134  1  0.34029077  0.39283745  0.00144599  1
  Ta  Ta135  1  0.35714437  0.31866861  0.49607707  1
  Ta  Ta136  1  0.34080087  0.59457239  0.03993372  1
  Ta  Ta137  1  0.34119374  0.72618500  0.48867699  1
  Ta  Ta138  1  0.62668636  0.00283603  -0.01319941  1
  Ta  Ta139  1  0.72141309  0.00975450  0.50606352  1
  Ta  Ta140  1  0.64915929  0.39490723  -0.00180239  1
  Ta  Ta141  1  0.62708168  0.32920920  0.49946686  1
  Ta  Ta142  1  0.73222960  0.65930686  0.02033296  1
  Ta  Ta143  1  0.64114727  0.69921910  0.51185944  1
  N  N144  1  0.50551378  0.83332147  0.10955534  1
  N  N145  1  0.50399075  0.82680785  0.85943828  1
  N  N146  1  0.66524626  0.35013683  0.88513450  1
  N  N147  1  0.16739747  0.17874514  0.62725144  1
  N  N148  1  0.32158117  0.02818311  0.87229997  1
  N  N149  1  0.66772267  -0.02015132  0.86960175  1
  N  N150  1  0.33702615  0.35343429  0.88127773  1
  N  N151  1  -0.00413800  0.66318715  0.11749732  1
  N  N152  1  0.00132345  0.66887036  0.36107491  1
  N  N153  1  -0.00480365  -0.00480564  0.87453417  1
  N  N154  1  0.16407293  0.16808064  0.37050273  1
  N  N155  1  0.68354809  0.67577245  0.13958678  1
  N  N156  1  0.48343038  0.16560487  0.37959050  1
  N  N157  1  0.17801455  0.80145680  0.88112793  1
  N  N158  1  -0.00816003  0.00013959  0.36938774  1
  N  N159  1  0.50498453  0.83336417  0.38152975  1
  N  N160  1  0.33776635  0.64718125  0.57952040  1
  N  N161  1  0.68250003  0.01251628  0.62568811  1
  N  N162  1  0.15799899  0.16992736  0.11971203  1
  N  N163  1  0.49312076  0.49784966  0.38940806  1
  N  N164  1  0.35832342  0.65580484  0.14722043  1
  N  N165  1  0.15696243  0.50784916  0.37832839  1
  N  N166  1  0.49561951  0.47302394  0.61352674  1
  N  N167  1  -0.00970189  0.33585941  0.37496747  1
  N  N168  1  0.83307766  0.49048885  0.13489370  1
  N  N169  1  0.82398933  0.17652922  0.37428760  1
  N  N170  1  0.83183371  0.83192821  0.12785735  1
  N  N171  1  0.32790044  0.00258884  0.12099101  1
  N  N172  1  0.84606411  0.84496694  0.62651802  1
  N  N173  1  0.32420359  0.68185808  0.36410928  1
  N  N174  1  0.15163697  0.18414595  0.86991003  1
  N  N175  1  0.66142632  -0.00734196  0.12104638  1
  N  N176  1  0.68395286  0.63815786  0.60353578  1
  O  O177  1  0.52756336  0.87381607  0.62509882  1
  O  O178  1  0.17129429  0.83309668  0.62640108  1
  O  O179  1  0.00067116  0.33495564  0.62939127  1
  O  O180  1  0.00453689  0.68415220  0.63082103  1
  O  O181  1  0.33088553  0.31330506  0.36963006  1
  O  O182  1  0.00204838  0.33824110  0.88107373  1
  O  O183  1  0.33804586  0.32891072  0.12574415  1
  O  O184  1  0.82638653  0.17330548  0.88221342  1
  O  O185  1  0.50264315  0.48439590  0.14080868  1
  O  O186  1  0.18113118  0.49381355  0.87738501  1
  O  O187  1  0.16886299  0.48387878  0.13635546  1
  O  O188  1  0.67329089  0.69193575  0.38684525  1
  O  O189  1  0.00003213  -0.01610556  0.63217506  1
  O  O190  1  0.35343572  0.65313732  0.93396422  1
  O  O191  1  0.66367173  0.32238573  0.37221154  1
  O  O192  1  0.49890079  0.51500286  0.86055237  1
  O  O193  1  0.17784033  0.83943976  0.10840454  1
  O  O194  1  0.83779292  0.49545101  0.87654014  1
  O  O195  1  0.66439714  0.66507329  0.92104595  1
  O  O196  1  0.48392865  0.14585271  0.11778753  1
  O  O197  1  0.84097885  0.48323786  0.38413327  1
  O  O198  1  0.33109856  -0.01190615  0.38328971  1
  O  O199  1  0.50589248  0.16842703  0.87741315  1
  O  O200  1  0.33460283  0.33111250  0.62514413  1
  O  O201  1  0.15135913  0.49026237  0.63118153  1
  O  O202  1  0.67953675  0.00242257  0.36684446  1
  O  O203  1  -0.00646096  -0.01013939  0.12021856  1
  O  O204  1  0.86374320  0.49147336  0.62795296  1
  O  O205  1  0.66625120  0.35683754  0.11987968  1
  O  O206  1  0.82916672  0.83020081  0.87491096  1
  O  O207  1  0.51914453  0.17627771  0.63459032  1
  O  O208  1  -0.00649336  0.68180683  0.87811060  1
  O  O209  1  0.64828309  0.33236090  0.63240066  1
  O  O210  1  0.81932358  0.17033413  0.63774000  1
  O  O211  1  0.17820541  0.83500882  0.36209304  1
  O  O212  1  -0.00571540  0.32883536  0.12619554  1
  O  O213  1  0.83651637  0.83790642  0.38168830  1
  O  O214  1  0.83849130  0.17476603  0.12809808  1
  O  O215  1  0.31750240  -0.02304313  0.63299372  1
