# generated using pymatgen
data_Sr24Ta24N11O13
_symmetry_space_group_name_H-M   'P 1'
_cell_length_a   16.62291940
_cell_length_b   17.25782757
_cell_length_c   15.64251269
_cell_angle_alpha   89.81005400
_cell_angle_beta   90.09190386
_cell_angle_gamma   89.73481798
_symmetry_Int_Tables_number   1
_chemical_formula_structural   Sr24Ta24N11O13
_chemical_formula_sum   'Sr72 Ta72 N33 O39'
_cell_volume   4487.37467752
_cell_formula_units_Z   3
loop_
 _symmetry_equiv_pos_site_id
 _symmetry_equiv_pos_as_xyz
  1  'x, y, z'
loop_
 _atom_site_type_symbol
 _atom_site_label
 _atom_site_symmetry_multiplicity
 _atom_site_fract_x
 _atom_site_fract_y
 _atom_site_fract_z
 _atom_site_occupancy
  Sr  Sr0  1  -0.00762612  0.15419105  0.11329661  1
  Sr  Sr1  1  0.00055062  0.13194034  0.65932632  1
  Sr  Sr2  1  -0.00311635  0.48170215  0.14919099  1
  Sr  Sr3  1  0.00157660  0.47554285  0.62232743  1
  Sr  Sr4  1  0.01008637  0.81519321  0.10585921  1
  Sr  Sr5  1  -0.01105762  0.82072698  0.60483392  1
  Sr  Sr6  1  0.33105539  0.16250495  0.13332065  1
  Sr  Sr7  1  0.31597222  0.15469667  0.60025833  1
  Sr  Sr8  1  0.32813480  0.48757093  0.09183509  1
  Sr  Sr9  1  0.33719604  0.47532684  0.64590086  1
  Sr  Sr10  1  0.32484891  0.81628239  0.15521409  1
  Sr  Sr11  1  0.33185724  0.81894847  0.62854008  1
  Sr  Sr12  1  0.66502188  0.14925169  0.13866322  1
  Sr  Sr13  1  0.68075973  0.16323046  0.61945761  1
  Sr  Sr14  1  0.66106731  0.46678120  0.13350255  1
  Sr  Sr15  1  0.66210204  0.49023967  0.60142424  1
  Sr  Sr16  1  0.66956318  0.84267897  0.12190838  1
  Sr  Sr17  1  0.66240323  0.78766412  0.64942882  1
  Sr  Sr18  1  0.16630583  0.02736701  0.11940371  1
  Sr  Sr19  1  0.17816262  0.00816407  0.65602281  1
  Sr  Sr20  1  0.16573339  0.35765218  0.12220585  1
  Sr  Sr21  1  0.17838066  0.33867900  0.61419577  1
  Sr  Sr22  1  0.16511735  0.66949047  0.12731321  1
  Sr  Sr23  1  0.16734307  0.69968922  0.59530133  1
  Sr  Sr24  1  0.50860037  0.01061389  0.09647746  1
  Sr  Sr25  1  0.51085083  0.03200312  0.61516698  1
  Sr  Sr26  1  0.48792910  0.34483863  0.11858484  1
  Sr  Sr27  1  0.50718496  0.33893720  0.67208499  1
  Sr  Sr28  1  0.51186733  0.70357083  0.15301411  1
  Sr  Sr29  1  0.49526317  0.66304005  0.61470464  1
  Sr  Sr30  1  0.83066554  0.02004099  0.16219450  1
  Sr  Sr31  1  0.83724218  0.01359129  0.61159184  1
  Sr  Sr32  1  0.83704883  0.34112259  0.11705339  1
  Sr  Sr33  1  0.82812749  0.35028436  0.59039892  1
  Sr  Sr34  1  0.83076588  0.71038609  0.09734421  1
  Sr  Sr35  1  0.84460932  0.66905163  0.64740155  1
  Sr  Sr36  1  -0.00216381  0.12694118  0.34325078  1
  Sr  Sr37  1  -0.00421400  0.15435585  0.88411584  1
  Sr  Sr38  1  0.00801758  0.48805033  0.36553013  1
  Sr  Sr39  1  -0.01897657  0.49034434  0.85041630  1
  Sr  Sr40  1  0.00113947  0.81553954  0.39767951  1
  Sr  Sr41  1  -0.00571440  0.80701995  0.89556103  1
  Sr  Sr42  1  0.33115422  0.17452784  0.37539813  1
  Sr  Sr43  1  0.32223469  0.12956060  0.90299174  1
  Sr  Sr44  1  0.33429364  0.47709298  0.38521217  1
  Sr  Sr45  1  0.33688719  0.49775775  0.87830059  1
  Sr  Sr46  1  0.33382079  0.80686769  0.38124881  1
  Sr  Sr47  1  0.32467087  0.82458007  0.84233752  1
  Sr  Sr48  1  0.67460786  0.14917601  0.39609904  1
  Sr  Sr49  1  0.65543964  0.15830529  0.83996147  1
  Sr  Sr50  1  0.65786681  0.49125212  0.36775058  1
  Sr  Sr51  1  0.66365688  0.47133434  0.90895709  1
  Sr  Sr52  1  0.66356365  0.81572304  0.34999046  1
  Sr  Sr53  1  0.66280813  0.81677914  0.89150548  1
  Sr  Sr54  1  0.18720099  0.02235742  0.35554800  1
  Sr  Sr55  1  0.16270197  0.00380569  0.87271471  1
  Sr  Sr56  1  0.16749897  0.34941363  0.39387276  1
  Sr  Sr57  1  0.17011701  0.37243247  0.85081485  1
  Sr  Sr58  1  0.15878604  0.68040664  0.35995990  1
  Sr  Sr59  1  0.17878204  0.68261601  0.90524415  1
  Sr  Sr60  1  0.50253836  0.02698250  0.40822485  1
  Sr  Sr61  1  0.51937562  0.00535463  0.88893150  1
  Sr  Sr62  1  0.49439977  0.33601850  0.33173145  1
  Sr  Sr63  1  0.49789118  0.35404753  0.88405200  1
  Sr  Sr64  1  0.51129544  0.66018001  0.38679816  1
  Sr  Sr65  1  0.50337420  0.69347214  0.84823848  1
  Sr  Sr66  1  0.82653309  -0.00149020  0.38171346  1
  Sr  Sr67  1  0.82936620  0.03514211  0.84078738  1
  Sr  Sr68  1  0.83419910  0.36698934  0.36880170  1
  Sr  Sr69  1  0.83870848  0.34460706  0.90326551  1
  Sr  Sr70  1  0.83621227  0.68971411  0.37344843  1
  Sr  Sr71  1  0.82786606  0.67780561  0.86997412  1
  Ta  Ta72  1  0.16179500  0.21368932  -0.00323275  1
  Ta  Ta73  1  0.12699023  0.16268970  0.50350678  1
  Ta  Ta74  1  0.12883674  0.50696181  0.00131798  1
  Ta  Ta75  1  0.16899084  0.53269761  0.49623606  1
  Ta  Ta76  1  0.18834361  0.85692116  -0.00115750  1
  Ta  Ta77  1  0.17162398  0.88070182  0.50251220  1
  Ta  Ta78  1  0.50438161  0.18987247  -0.00036683  1
  Ta  Ta79  1  0.50054904  0.21486149  0.50140378  1
  Ta  Ta80  1  0.50282347  0.55496443  0.01375082  1
  Ta  Ta81  1  0.49371495  0.46685329  0.49453783  1
  Ta  Ta82  1  0.46575625  0.83407408  -0.00554996  1
  Ta  Ta83  1  0.50654456  0.85799119  0.51032105  1
  Ta  Ta84  1  0.80881110  0.16129487  0.00282155  1
  Ta  Ta85  1  0.87234376  0.17908474  0.49938705  1
  Ta  Ta86  1  0.83434153  0.53361134  0.01610126  1
  Ta  Ta87  1  0.83641094  0.53750486  0.49461442  1
  Ta  Ta88  1  0.83420340  0.89475767  0.00249071  1
  Ta  Ta89  1  0.80040707  0.83302305  0.49890574  1
  Ta  Ta90  1  0.15835331  0.20998538  0.24519154  1
  Ta  Ta91  1  0.16977214  0.19622437  0.75408335  1
  Ta  Ta92  1  0.19679864  0.50782765  0.24872825  1
  Ta  Ta93  1  0.16443361  0.55237596  0.74686027  1
  Ta  Ta94  1  0.14566142  0.85823668  0.25882059  1
  Ta  Ta95  1  0.13304577  0.82765851  0.74967181  1
  Ta  Ta96  1  0.50743920  0.14883767  0.25636527  1
  Ta  Ta97  1  0.45938862  0.16378649  0.75432828  1
  Ta  Ta98  1  0.47896981  0.52301885  0.24141414  1
  Ta  Ta99  1  0.51716613  0.51884760  0.75726371  1
  Ta  Ta100  1  0.49647474  0.88353351  0.25441530  1
  Ta  Ta101  1  0.50660770  0.87514885  0.74658265  1
  Ta  Ta102  1  0.83040266  0.20230925  0.25333082  1
  Ta  Ta103  1  0.84137329  0.22222899  0.74414810  1
  Ta  Ta104  1  0.82801320  0.54987093  0.23369710  1
  Ta  Ta105  1  0.80088286  0.49074508  0.75201905  1
  Ta  Ta106  1  0.86456999  0.84225925  0.24951972  1
  Ta  Ta107  1  0.83423042  0.85997397  0.75241897  1
  Ta  Ta108  1  0.00693456  -0.04562705  0.25144921  1
  Ta  Ta109  1  -0.00845700  -0.05113399  0.74978072  1
  Ta  Ta110  1  0.00317010  0.30061194  0.25292262  1
  Ta  Ta111  1  -0.00607753  0.30751461  0.74442132  1
  Ta  Ta112  1  -0.02554028  0.66354836  0.24254647  1
  Ta  Ta113  1  0.03316485  0.66561587  0.74956708  1
  Ta  Ta114  1  0.37136601  -0.00481737  0.25006151  1
  Ta  Ta115  1  0.36988517  0.00170033  0.75129375  1
  Ta  Ta116  1  0.31009040  0.33587409  0.24035929  1
  Ta  Ta117  1  0.33004238  0.28479146  0.76181133  1
  Ta  Ta118  1  0.33770819  0.62515889  0.24707852  1
  Ta  Ta119  1  0.31454354  0.64530617  0.74701256  1
  Ta  Ta120  1  0.63553514  -0.00523952  0.25900930  1
  Ta  Ta121  1  0.66636985  -0.03669423  0.73405767  1
  Ta  Ta122  1  0.67731682  0.29678295  0.25192439  1
  Ta  Ta123  1  0.69994586  0.34382209  0.75261141  1
  Ta  Ta124  1  0.68644705  0.64154399  0.23496536  1
  Ta  Ta125  1  0.66633737  0.61103720  0.76200017  1
  Ta  Ta126  1  -0.02271550  -0.01686414  -0.00248512  1
  Ta  Ta127  1  0.03105193  -0.00033127  0.50559637  1
  Ta  Ta128  1  0.02519491  0.32940855  -0.00335365  1
  Ta  Ta129  1  0.00200182  0.27671980  0.49554618  1
  Ta  Ta130  1  -0.00808582  0.62001862  0.00503669  1
  Ta  Ta131  1  -0.00727924  0.63264990  0.49329753  1
  Ta  Ta132  1  0.33364180  -0.04729535  -0.00299214  1
  Ta  Ta133  1  0.33209897  -0.02860629  0.50553872  1
  Ta  Ta134  1  0.32184557  0.30405291  -0.01377953  1
  Ta  Ta135  1  0.37907341  0.32931585  0.51160849  1
  Ta  Ta136  1  0.36675370  0.67792007  -0.00325080  1
  Ta  Ta137  1  0.32326446  0.62526499  0.50445827  1
  Ta  Ta138  1  0.69948544  0.01061782  0.00322972  1
  Ta  Ta139  1  0.66486280  -0.05042745  0.50949491  1
  Ta  Ta140  1  0.66013061  0.28122184  -0.00591779  1
  Ta  Ta141  1  0.61399529  0.32885694  0.49885891  1
  Ta  Ta142  1  0.66217506  0.63787797  0.01064579  1
  Ta  Ta143  1  0.69481299  0.65726360  0.49244043  1
  N  N144  1  0.50092605  0.49403113  0.11690618  1
  N  N145  1  0.33652996  -0.01526569  0.87475737  1
  N  N146  1  0.16357871  0.83680842  0.87945498  1
  N  N147  1  0.49927124  0.17557715  0.37452078  1
  N  N148  1  0.32939340  0.33060924  0.11786722  1
  N  N149  1  0.33782849  0.34570074  0.86734465  1
  N  N150  1  0.83171264  0.17381487  0.12444442  1
  N  N151  1  0.00160412  -0.01726556  0.62567210  1
  N  N152  1  0.00165615  0.65635738  0.37246367  1
  N  N153  1  0.66311349  -0.01112936  0.38254542  1
  N  N154  1  0.15943847  0.51160113  0.12200074  1
  N  N155  1  0.33755017  0.66263218  0.62037381  1
  N  N156  1  0.17008744  0.83960721  0.37948735  1
  N  N157  1  0.16549246  0.84540928  0.62858439  1
  N  N158  1  0.67159160  0.65837294  0.37054836  1
  N  N159  1  0.33649802  -0.00587881  0.62545448  1
  N  N160  1  0.82928201  0.84273882  0.37839918  1
  N  N161  1  0.16342267  0.50797912  0.37183801  1
  N  N162  1  0.67112517  0.65382030  0.87823153  1
  N  N163  1  0.49864432  0.84649743  0.87328010  1
  N  N164  1  0.66930935  0.69313586  0.12385091  1
  N  N165  1  0.16312389  0.18326653  0.12352369  1
  N  N166  1  0.83238175  0.48651304  0.12917248  1
  N  N167  1  0.83905875  0.18142504  0.62013661  1
  N  N168  1  0.67121188  0.00048046  0.12492639  1
  N  N169  1  0.33914000  0.66730314  0.87566748  1
  N  N170  1  0.66852876  0.32023219  0.87353326  1
  N  N171  1  0.49651743  0.49395704  0.37112735  1
  N  N172  1  0.83513815  0.85922629  0.12518203  1
  N  N173  1  0.67397182  0.00919470  0.62033683  1
  N  N174  1  0.15877776  0.17279133  0.62944125  1
  N  N175  1  0.34396106  0.32074084  0.63235135  1
  N  N176  1  0.00695621  0.66563620  0.11830476  1
  O  O177  1  0.82216504  0.49687968  0.88161394  1
  O  O178  1  0.50011097  0.51497139  0.88530237  1
  O  O179  1  -0.00957859  -0.00119768  0.86872476  1
  O  O180  1  0.83090527  0.82982085  0.62956192  1
  O  O181  1  0.49280975  0.85520308  0.12548684  1
  O  O182  1  0.50059865  0.81733261  0.63129970  1
  O  O183  1  0.48229393  0.17686358  0.63052464  1
  O  O184  1  0.65932601  0.33799355  0.62751934  1
  O  O185  1  0.49768715  0.86290905  0.38604100  1
  O  O186  1  0.34161818  0.64301348  0.37516197  1
  O  O187  1  0.67625057  0.00682365  0.86037538  1
  O  O188  1  0.34974188  -0.00850100  0.12478048  1
  O  O189  1  0.82670789  0.84795701  0.87781787  1
  O  O190  1  0.15185679  0.15899251  0.87725277  1
  O  O191  1  0.49603114  0.17858974  0.12611895  1
  O  O192  1  0.34126455  0.32745234  0.37141830  1
  O  O193  1  0.48989794  0.16122525  0.88011480  1
  O  O194  1  0.83458144  0.52003604  0.36779307  1
  O  O195  1  0.84179447  0.15253867  0.36970742  1
  O  O196  1  0.83725899  0.18414101  0.87028689  1
  O  O197  1  0.00825270  0.65751715  0.87538974  1
  O  O198  1  0.65453627  0.31722223  0.37398094  1
  O  O199  1  0.50494034  0.49750084  0.63129272  1
  O  O200  1  0.32915373  0.65901260  0.12321000  1
  O  O201  1  -0.00094852  0.31742570  0.12338221  1
  O  O202  1  0.00763086  0.66294057  0.62486314  1
  O  O203  1  0.66965383  0.30920041  0.12370104  1
  O  O204  1  0.16656580  0.17128812  0.37823924  1
  O  O205  1  0.16985028  0.84458067  0.12944889  1
  O  O206  1  0.82241798  0.50969507  0.62661334  1
  O  O207  1  -0.00071883  0.32926326  0.37476539  1
  O  O208  1  0.00023689  -0.02131349  0.37760656  1
  O  O209  1  0.67758404  0.64175010  0.62935901  1
  O  O210  1  0.16494412  0.52603403  0.87649385  1
  O  O211  1  0.15741300  0.51902818  0.62830261  1
  O  O212  1  0.00470309  0.33425939  0.87236259  1
  O  O213  1  0.34591048  0.00086317  0.37449939  1
  O  O214  1  0.00469876  -0.02280627  0.11964781  1
  O  O215  1  0.00395491  0.31762982  0.61972871  1
