# generated using pymatgen
data_Sr24Ta24N11O13
_symmetry_space_group_name_H-M   'P 1'
_cell_length_a   16.81237563
_cell_length_b   16.92993076
_cell_length_c   15.81284762
_cell_angle_alpha   90.05243126
_cell_angle_beta   89.99315646
_cell_angle_gamma   90.13388632
_symmetry_Int_Tables_number   1
_chemical_formula_structural   Sr24Ta24N11O13
_chemical_formula_sum   'Sr72 Ta72 N33 O39'
_cell_volume   4500.83385975
_cell_formula_units_Z   3
loop_
 _symmetry_equiv_pos_site_id
 _symmetry_equiv_pos_as_xyz
  1  'x, y, z'
loop_
 _atom_site_type_symbol
 _atom_site_label
 _atom_site_symmetry_multiplicity
 _atom_site_fract_x
 _atom_site_fract_y
 _atom_site_fract_z
 _atom_site_occupancy
  Sr  Sr0  1  -0.00628486  0.17024374  0.10855808  1
  Sr  Sr1  1  -0.00384749  0.18266901  0.60095415  1
  Sr  Sr2  1  0.00692935  0.51385301  0.11594012  1
  Sr  Sr3  1  -0.01410596  0.48561883  0.67681091  1
  Sr  Sr4  1  -0.01103065  0.86202712  0.14239451  1
  Sr  Sr5  1  0.01055357  0.82929124  0.61736826  1
  Sr  Sr6  1  0.32919703  0.18650428  0.12991885  1
  Sr  Sr7  1  0.30980755  0.18581846  0.60801934  1
  Sr  Sr8  1  0.31493597  0.51818947  0.14377277  1
  Sr  Sr9  1  0.32536174  0.50470834  0.61972874  1
  Sr  Sr10  1  0.32568062  0.83072620  0.11843685  1
  Sr  Sr11  1  0.33512426  0.86830858  0.64941616  1
  Sr  Sr12  1  0.65771926  0.19192026  0.14647888  1
  Sr  Sr13  1  0.67035951  0.17294143  0.61792935  1
  Sr  Sr14  1  0.65552589  0.50261876  0.12380857  1
  Sr  Sr15  1  0.67701826  0.51893259  0.59217367  1
  Sr  Sr16  1  0.67002128  0.85748602  0.12641930  1
  Sr  Sr17  1  0.64470901  0.84925160  0.63817956  1
  Sr  Sr18  1  0.17539402  -0.00833549  0.14518445  1
  Sr  Sr19  1  0.15841564  -0.01685569  0.64055467  1
  Sr  Sr20  1  0.16599848  0.31236304  0.09372978  1
  Sr  Sr21  1  0.17635266  0.35005725  0.63293233  1
  Sr  Sr22  1  0.17389192  0.65921640  0.12855357  1
  Sr  Sr23  1  0.17572335  0.66931437  0.59040052  1
  Sr  Sr24  1  0.49709309  -0.03057336  0.10874696  1
  Sr  Sr25  1  0.49642508  0.00854736  0.62468698  1
  Sr  Sr26  1  0.49767075  0.33275191  0.11794888  1
  Sr  Sr27  1  0.51209537  0.31711325  0.65530880  1
  Sr  Sr28  1  0.51931286  0.64307170  0.13140889  1
  Sr  Sr29  1  0.50487521  0.64287242  0.62314413  1
  Sr  Sr30  1  0.83500630  -0.00802727  0.11133031  1
  Sr  Sr31  1  0.85504088  -0.03353752  0.63655295  1
  Sr  Sr32  1  0.85103327  0.30736661  0.14727613  1
  Sr  Sr33  1  0.82702340  0.32178099  0.61749199  1
  Sr  Sr34  1  0.83280529  0.62961100  0.11767995  1
  Sr  Sr35  1  0.84417191  0.65885974  0.62667219  1
  Sr  Sr36  1  -0.00655128  0.18421886  0.38338028  1
  Sr  Sr37  1  -0.01116774  0.17144175  0.89908513  1
  Sr  Sr38  1  -0.00155421  0.50924284  0.33407021  1
  Sr  Sr39  1  -0.00023466  0.50812562  0.88312405  1
  Sr  Sr40  1  0.00338190  0.83867894  0.39572194  1
  Sr  Sr41  1  -0.00913649  0.85013667  0.84712286  1
  Sr  Sr42  1  0.32228376  0.18031236  0.36969223  1
  Sr  Sr43  1  0.32250824  0.19959397  0.90222678  1
  Sr  Sr44  1  0.31371805  0.50592137  0.39555105  1
  Sr  Sr45  1  0.33149959  0.51040036  0.84207696  1
  Sr  Sr46  1  0.33495051  0.85269540  0.34717636  1
  Sr  Sr47  1  0.32479027  0.84711817  0.89043553  1
  Sr  Sr48  1  0.66831854  0.17299137  0.38634370  1
  Sr  Sr49  1  0.65680671  0.18956724  0.83897211  1
  Sr  Sr50  1  0.66417187  0.51093139  0.37463056  1
  Sr  Sr51  1  0.66182246  0.51225915  0.90823567  1
  Sr  Sr52  1  0.65784772  0.85308017  0.35924536  1
  Sr  Sr53  1  0.66315450  0.86214837  0.88979979  1
  Sr  Sr54  1  0.16232425  -0.01147851  0.35629859  1
  Sr  Sr55  1  0.16891321  -0.01778322  0.85359413  1
  Sr  Sr56  1  0.17751846  0.31925238  0.40996051  1
  Sr  Sr57  1  0.16913962  0.33464751  0.86791918  1
  Sr  Sr58  1  0.17147454  0.65803450  0.36958934  1
  Sr  Sr59  1  0.18421124  0.66987308  0.91117563  1
  Sr  Sr60  1  0.50649713  -0.01314907  0.39925822  1
  Sr  Sr61  1  0.49186230  -0.01361244  0.86513801  1
  Sr  Sr62  1  0.50052434  0.31608182  0.33486527  1
  Sr  Sr63  1  0.50738572  0.32988684  0.89343544  1
  Sr  Sr64  1  0.50983161  0.64259985  0.39034125  1
  Sr  Sr65  1  0.50974747  0.64504083  0.85901566  1
  Sr  Sr66  1  0.84032055  -0.03448781  0.35001037  1
  Sr  Sr67  1  0.84532852  -0.01018179  0.89230334  1
  Sr  Sr68  1  0.83267591  0.31312670  0.39236139  1
  Sr  Sr69  1  0.83986065  0.31946101  0.84288657  1
  Sr  Sr70  1  0.83276730  0.64488895  0.38163297  1
  Sr  Sr71  1  0.84289596  0.64726505  0.87782059  1
  Ta  Ta72  1  0.16609736  0.12674561  -0.00113541  1
  Ta  Ta73  1  0.15861197  0.12505187  0.49371750  1
  Ta  Ta74  1  0.17950134  0.48709484  0.00060215  1
  Ta  Ta75  1  0.11092537  0.50037780  0.50762813  1
  Ta  Ta76  1  0.13439937  0.84105929  0.00059935  1
  Ta  Ta77  1  0.20156187  0.84266850  0.49837202  1
  Ta  Ta78  1  0.51090498  0.14228561  -0.00100752  1
  Ta  Ta79  1  0.48943484  0.19140489  0.50011184  1
  Ta  Ta80  1  0.45927365  0.50308397  0.00374188  1
  Ta  Ta81  1  0.50042424  0.45221931  0.49876344  1
  Ta  Ta82  1  0.50504674  0.78564123  0.00693158  1
  Ta  Ta83  1  0.48598212  0.80850587  0.49525433  1
  Ta  Ta84  1  0.79644841  0.17380927  -0.00782076  1
  Ta  Ta85  1  0.83580462  0.11097491  0.49529369  1
  Ta  Ta86  1  0.83465706  0.44758378  -0.00541100  1
  Ta  Ta87  1  0.88396797  0.49357347  0.50409878  1
  Ta  Ta88  1  0.83944902  0.79908791  0.00607682  1
  Ta  Ta89  1  0.80236864  0.82171663  0.50074699  1
  Ta  Ta90  1  0.14379395  0.17883602  0.24769387  1
  Ta  Ta91  1  0.14940939  0.16259024  0.75574610  1
  Ta  Ta92  1  0.16374363  0.44911143  0.24824238  1
  Ta  Ta93  1  0.15892044  0.55127105  0.74676058  1
  Ta  Ta94  1  0.14654776  0.81182314  0.24965826  1
  Ta  Ta95  1  0.17159245  0.79162619  0.75057250  1
  Ta  Ta96  1  0.49691434  0.12323579  0.25209913  1
  Ta  Ta97  1  0.45495832  0.16509646  0.75410830  1
  Ta  Ta98  1  0.46768988  0.49433721  0.24899826  1
  Ta  Ta99  1  0.52627485  0.47812316  0.75015104  1
  Ta  Ta100  1  0.50354071  0.79309723  0.25038660  1
  Ta  Ta101  1  0.48702910  0.80312018  0.75456116  1
  Ta  Ta102  1  0.83042541  0.13552793  0.25483700  1
  Ta  Ta103  1  0.84224713  0.13806905  0.74787393  1
  Ta  Ta104  1  0.81914315  0.46736312  0.25171571  1
  Ta  Ta105  1  0.79207929  0.49742484  0.75391719  1
  Ta  Ta106  1  0.83211296  0.78880340  0.24127840  1
  Ta  Ta107  1  0.80301860  0.81232050  0.76030288  1
  Ta  Ta108  1  -0.00342485  0.03727822  0.25059512  1
  Ta  Ta109  1  -0.00073326  0.04247124  0.74898701  1
  Ta  Ta110  1  0.03196942  0.33221540  0.24985199  1
  Ta  Ta111  1  0.01276133  0.30008667  0.74846566  1
  Ta  Ta112  1  -0.00700221  0.69701490  0.25149539  1
  Ta  Ta113  1  0.03796853  0.67038602  0.75133935  1
  Ta  Ta114  1  0.36021424  0.02582620  0.24965469  1
  Ta  Ta115  1  0.32809197  0.05444707  0.75397695  1
  Ta  Ta116  1  0.31595080  0.35655298  0.25458463  1
  Ta  Ta117  1  0.35323054  0.32676647  0.74998274  1
  Ta  Ta118  1  0.36450748  0.67305067  0.24893384  1
  Ta  Ta119  1  0.32693871  0.69246125  0.74954188  1
  Ta  Ta120  1  0.65944980  0.02951391  0.25451697  1
  Ta  Ta121  1  0.69595478  0.01473017  0.74830165  1
  Ta  Ta122  1  0.69133374  0.35833881  0.25466995  1
  Ta  Ta123  1  0.66894111  0.38207900  0.74506532  1
  Ta  Ta124  1  0.67753539  0.69037192  0.24505869  1
  Ta  Ta125  1  0.68039922  0.67427012  0.74769498  1
  Ta  Ta126  1  0.03046613  -0.00245755  -0.00177279  1
  Ta  Ta127  1  0.00198505  0.01778577  0.49650668  1
  Ta  Ta128  1  -0.01387666  0.35012454  -0.00776530  1
  Ta  Ta129  1  0.00063767  0.37314835  0.50602445  1
  Ta  Ta130  1  0.00194081  0.71099041  0.00183723  1
  Ta  Ta131  1  -0.00191741  0.62175418  0.50337145  1
  Ta  Ta132  1  0.32289792  0.02808341  -0.00700051  1
  Ta  Ta133  1  0.30927921  0.01029013  0.50449486  1
  Ta  Ta134  1  0.33090449  0.38663555  -0.00256806  1
  Ta  Ta135  1  0.37788574  0.33788041  0.50146712  1
  Ta  Ta136  1  0.36708834  0.65573923  0.00522163  1
  Ta  Ta137  1  0.34503716  0.71632708  0.49689618  1
  Ta  Ta138  1  0.66159900  0.05319381  -0.00275428  1
  Ta  Ta139  1  0.70785055  -0.00615037  0.49660953  1
  Ta  Ta140  1  0.70267985  0.32786493  -0.00325262  1
  Ta  Ta141  1  0.62513242  0.33905480  0.50348166  1
  Ta  Ta142  1  0.67083778  0.69831591  0.00470325  1
  Ta  Ta143  1  0.67167434  0.71045149  0.50183708  1
  N  N144  1  0.16924355  0.82892904  0.37640607  1
  N  N145  1  0.48999235  0.48784586  0.12880729  1
  N  N146  1  0.00135968  0.01248501  0.12299849  1
  N  N147  1  0.32545980  0.02150037  0.62573549  1
  N  N148  1  0.33938464  0.34724156  0.62537804  1
  N  N149  1  0.17239908  0.82633943  0.62425112  1
  N  N150  1  0.66575766  0.67538430  0.62471456  1
  N  N151  1  0.66825276  0.00556779  0.37576433  1
  N  N152  1  0.15315273  0.50776125  0.62794976  1
  N  N153  1  0.33535859  0.34050642  0.37427603  1
  N  N154  1  0.66917332  0.34382699  0.61917081  1
  N  N155  1  0.33678319  0.35428778  0.87466864  1
  N  N156  1  0.16570689  0.15911075  0.12413266  1
  N  N157  1  0.67754001  0.66044653  0.12604381  1
  N  N158  1  0.16428135  0.15942546  0.37520306  1
  N  N159  1  0.50179922  0.82004818  0.12387403  1
  N  N160  1  0.50134273  0.82983420  0.37407961  1
  N  N161  1  0.82568939  0.82692775  0.87792422  1
  N  N162  1  0.82793594  0.16146633  0.87110520  1
  N  N163  1  0.82944935  0.83579219  0.12849765  1
  N  N164  1  0.16520599  0.82555062  0.87535340  1
  N  N165  1  0.33116074  0.00596184  0.87272122  1
  N  N166  1  0.83142343  0.15619881  0.37540554  1
  N  N167  1  0.16636385  0.82993644  0.12590759  1
  N  N168  1  0.82570439  0.48863484  0.87485556  1
  N  N169  1  0.00063301  0.33603003  0.62820501  1
  N  N170  1  0.00108774  0.33844192  0.87077701  1
  N  N171  1  0.00066386  -0.00543865  0.36782937  1
  N  N172  1  0.00394518  0.00194993  0.62804274  1
  N  N173  1  0.16220662  0.16981060  0.87738024  1
  N  N174  1  0.00153210  0.00743597  0.87238149  1
  N  N175  1  0.33820366  0.67133080  0.12572574  1
  N  N176  1  0.16016683  0.48640392  0.12305045  1
  O  O177  1  0.33390572  0.34109395  0.11782495  1
  O  O178  1  0.33608393  0.68646566  0.37571447  1
  O  O179  1  0.33592680  0.69397837  0.62503663  1
  O  O180  1  0.82760444  0.81349690  0.37650808  1
  O  O181  1  0.66747363  0.34890486  0.37831353  1
  O  O182  1  0.49768402  0.81413220  0.87794780  1
  O  O183  1  0.33933154  0.67044278  0.87371769  1
  O  O184  1  0.67496452  0.33794812  0.87256994  1
  O  O185  1  0.67171218  0.03042730  0.86854486  1
  O  O186  1  0.00795893  0.33732946  0.12564216  1
  O  O187  1  0.49333461  0.16588759  0.87832640  1
  O  O188  1  0.47775828  0.16768623  0.62240132  1
  O  O189  1  0.50604126  0.48226497  0.62733866  1
  O  O190  1  0.66709378  0.66586941  0.88310740  1
  O  O191  1  0.49846106  0.47311392  0.37275955  1
  O  O192  1  0.00286121  0.68732755  0.12235164  1
  O  O193  1  0.00990516  0.33924540  0.37460822  1
  O  O194  1  0.82347344  0.15862142  0.12104599  1
  O  O195  1  0.49273044  0.81649056  0.63101171  1
  O  O196  1  0.49711247  0.16420255  0.37878547  1
  O  O197  1  0.50267352  0.14012497  0.12246323  1
  O  O198  1  0.66423844  0.03400621  0.11960674  1
  O  O199  1  0.83049097  0.47368965  0.12443273  1
  O  O200  1  0.33747914  0.01459609  0.37286357  1
  O  O201  1  -0.00797202  0.66462925  0.37364216  1
  O  O202  1  0.83226579  0.15514580  0.61353976  1
  O  O203  1  0.68373317  0.00156665  0.62433985  1
  O  O204  1  0.14988000  0.49226256  0.36826782  1
  O  O205  1  0.01563838  0.68399393  0.87495474  1
  O  O206  1  0.16591093  0.51504488  0.87051348  1
  O  O207  1  0.67362726  0.66703142  0.38096618  1
  O  O208  1  0.84749498  0.48295086  0.37463220  1
  O  O209  1  0.83617083  0.50019252  0.62870707  1
  O  O210  1  0.82315453  0.81648528  0.62680652  1
  O  O211  1  0.00796558  0.66531290  0.62476033  1
  O  O212  1  0.68828906  0.33891648  0.12355012  1
  O  O213  1  0.50440874  0.49125753  0.87627985  1
  O  O214  1  0.15596093  0.16084434  0.61525080  1
  O  O215  1  0.34243022  0.02345513  0.12632010  1
