# generated using pymatgen
data_Sr24Ta24N11O13
_symmetry_space_group_name_H-M   'P 1'
_cell_length_a   16.78264582
_cell_length_b   16.90737982
_cell_length_c   15.71146648
_cell_angle_alpha   89.91122938
_cell_angle_beta   89.80649499
_cell_angle_gamma   90.22749978
_symmetry_Int_Tables_number   1
_chemical_formula_structural   Sr24Ta24N11O13
_chemical_formula_sum   'Sr72 Ta72 N33 O39'
_cell_volume   4458.07151353
_cell_formula_units_Z   3
loop_
 _symmetry_equiv_pos_site_id
 _symmetry_equiv_pos_as_xyz
  1  'x, y, z'
loop_
 _atom_site_type_symbol
 _atom_site_label
 _atom_site_symmetry_multiplicity
 _atom_site_fract_x
 _atom_site_fract_y
 _atom_site_fract_z
 _atom_site_occupancy
  Sr  Sr0  1  0.01247144  0.16352997  0.12191915  1
  Sr  Sr1  1  0.00943450  0.16569500  0.65908186  1
  Sr  Sr2  1  0.00041325  0.51043437  0.13773994  1
  Sr  Sr3  1  0.01173985  0.48085241  0.59429923  1
  Sr  Sr4  1  0.01956077  0.84127860  0.07841320  1
  Sr  Sr5  1  -0.01211210  0.83017479  0.63811265  1
  Sr  Sr6  1  0.35509986  0.15135410  0.13646922  1
  Sr  Sr7  1  0.33945542  0.15100525  0.59623565  1
  Sr  Sr8  1  0.34883120  0.49107158  0.09697732  1
  Sr  Sr9  1  0.32994361  0.46711880  0.64889028  1
  Sr  Sr10  1  0.32333135  0.80705172  0.16823046  1
  Sr  Sr11  1  0.34232332  0.80975865  0.62818560  1
  Sr  Sr12  1  0.67488434  0.16584960  0.10383039  1
  Sr  Sr13  1  0.67930462  0.12476844  0.64607960  1
  Sr  Sr14  1  0.66647372  0.47646793  0.14773398  1
  Sr  Sr15  1  0.66639321  0.50021864  0.62330170  1
  Sr  Sr16  1  0.67929303  0.83427516  0.13869439  1
  Sr  Sr17  1  0.66653644  0.82851265  0.58735877  1
  Sr  Sr18  1  0.17007484  0.00888685  0.13318980  1
  Sr  Sr19  1  0.16573667  0.02198365  0.59323658  1
  Sr  Sr20  1  0.13900681  0.35912105  0.10648128  1
  Sr  Sr21  1  0.14919467  0.33161269  0.65366804  1
  Sr  Sr22  1  0.16763490  0.67514121  0.15279322  1
  Sr  Sr23  1  0.16018074  0.68312124  0.61416997  1
  Sr  Sr24  1  0.51539459  0.01800270  0.08876518  1
  Sr  Sr25  1  0.48329194  0.00873563  0.65487624  1
  Sr  Sr26  1  0.49279672  0.34727585  0.15602731  1
  Sr  Sr27  1  0.48418825  0.34105870  0.60701123  1
  Sr  Sr28  1  0.50023642  0.68000112  0.11971410  1
  Sr  Sr29  1  0.51109562  0.69092337  0.59839560  1
  Sr  Sr30  1  0.82983833  0.02552587  0.17165655  1
  Sr  Sr31  1  0.83636786  -0.02013363  0.61411784  1
  Sr  Sr32  1  0.80640035  0.33293162  0.09446837  1
  Sr  Sr33  1  0.82084318  0.35514412  0.61625105  1
  Sr  Sr34  1  0.84282885  0.68112119  0.11350691  1
  Sr  Sr35  1  0.82878973  0.66259395  0.66929048  1
  Sr  Sr36  1  0.00682886  0.15619828  0.33938559  1
  Sr  Sr37  1  0.01708015  0.16555444  0.87394542  1
  Sr  Sr38  1  0.00581566  0.51127265  0.36677259  1
  Sr  Sr39  1  0.00812487  0.48543893  0.90179260  1
  Sr  Sr40  1  0.00537011  0.84836070  0.42086824  1
  Sr  Sr41  1  -0.01124072  0.82806071  0.86223670  1
  Sr  Sr42  1  0.33554812  0.16252841  0.37653387  1
  Sr  Sr43  1  0.34703349  0.13357696  0.89043071  1
  Sr  Sr44  1  0.35068160  0.46502765  0.36962017  1
  Sr  Sr45  1  0.32616299  0.48713238  0.88080311  1
  Sr  Sr46  1  0.33186164  0.80633023  0.37697101  1
  Sr  Sr47  1  0.34084372  0.82446700  0.83748762  1
  Sr  Sr48  1  0.69836596  0.14615231  0.38160344  1
  Sr  Sr49  1  0.66702729  0.14499217  0.87504290  1
  Sr  Sr50  1  0.66399676  0.47637704  0.39257734  1
  Sr  Sr51  1  0.67493990  0.49795719  0.83777898  1
  Sr  Sr52  1  0.67384776  0.83259530  0.36457247  1
  Sr  Sr53  1  0.65444277  0.81999660  0.92304129  1
  Sr  Sr54  1  0.17082088  0.02024734  0.36450945  1
  Sr  Sr55  1  0.15365201  0.01212453  0.91681205  1
  Sr  Sr56  1  0.12982615  0.34778502  0.36202536  1
  Sr  Sr57  1  0.16301013  0.33817395  0.87044648  1
  Sr  Sr58  1  0.15993603  0.66516035  0.38112068  1
  Sr  Sr59  1  0.16700600  0.69942377  0.85053798  1
  Sr  Sr60  1  0.48514437  0.02606615  0.37773137  1
  Sr  Sr61  1  0.49963405  -0.00341738  0.87381408  1
  Sr  Sr62  1  0.50280776  0.33051323  0.37739508  1
  Sr  Sr63  1  0.48901607  0.37086237  0.84370203  1
  Sr  Sr64  1  0.50843609  0.69448861  0.37591799  1
  Sr  Sr65  1  0.49599813  0.67853704  0.89675527  1
  Sr  Sr66  1  0.82618991  -0.01808258  0.38858256  1
  Sr  Sr67  1  0.84315129  0.01289623  0.82626740  1
  Sr  Sr68  1  0.82653241  0.34541223  0.41140311  1
  Sr  Sr69  1  0.79905253  0.33714232  0.88165085  1
  Sr  Sr70  1  0.83525570  0.65247454  0.33144917  1
  Sr  Sr71  1  0.84065179  0.68032942  0.88583216  1
  Ta  Ta72  1  0.19694056  0.19471697  0.00532082  1
  Ta  Ta73  1  0.14851346  0.19405191  0.49663890  1
  Ta  Ta74  1  0.16931083  0.55146961  0.00434867  1
  Ta  Ta75  1  0.19897460  0.49452342  0.49253368  1
  Ta  Ta76  1  0.21298110  0.82911056  0.00585382  1
  Ta  Ta77  1  0.18739237  0.85642209  0.50082748  1
  Ta  Ta78  1  0.50238234  0.21646600  -0.00359143  1
  Ta  Ta79  1  0.53470627  0.16355049  0.50806003  1
  Ta  Ta80  1  0.53497320  0.50001954  0.00328838  1
  Ta  Ta81  1  0.48427547  0.52446001  0.49100431  1
  Ta  Ta82  1  0.44135087  0.83930856  0.00591786  1
  Ta  Ta83  1  0.49167105  0.87699317  0.50318215  1
  Ta  Ta84  1  0.84766326  0.14848660  -0.00862793  1
  Ta  Ta85  1  0.86710103  0.16687412  0.50416791  1
  Ta  Ta86  1  0.81828207  0.51030251  -0.00004999  1
  Ta  Ta87  1  0.83640598  0.54242372  0.50202713  1
  Ta  Ta88  1  0.83672451  0.87670531  -0.00463138  1
  Ta  Ta89  1  0.83466640  0.77985136  0.50395474  1
  Ta  Ta90  1  0.18553979  0.20106405  0.24204563  1
  Ta  Ta91  1  0.19429176  0.15106885  0.75141138  1
  Ta  Ta92  1  0.20543900  0.49752551  0.24644606  1
  Ta  Ta93  1  0.15498564  0.52694976  0.74872016  1
  Ta  Ta94  1  0.13137247  0.84595165  0.24936668  1
  Ta  Ta95  1  0.16556439  0.88518693  0.75101806  1
  Ta  Ta96  1  0.53975926  0.16517275  0.24535866  1
  Ta  Ta97  1  0.49844715  0.19388725  0.74965365  1
  Ta  Ta98  1  0.50325026  0.53224772  0.25470087  1
  Ta  Ta99  1  0.49514565  0.55224033  0.74493915  1
  Ta  Ta100  1  0.49835792  0.87672522  0.24757698  1
  Ta  Ta101  1  0.53939734  0.82868461  0.74810242  1
  Ta  Ta102  1  0.83227333  0.21887287  0.24967474  1
  Ta  Ta103  1  0.83208345  0.20512137  0.74958707  1
  Ta  Ta104  1  0.83010926  0.46350998  0.25706040  1
  Ta  Ta105  1  0.87514138  0.49447587  0.74901120  1
  Ta  Ta106  1  0.87670510  0.83624448  0.24945191  1
  Ta  Ta107  1  0.78229873  0.83186320  0.75510382  1
  Ta  Ta108  1  -0.00022297  -0.04097891  0.25328685  1
  Ta  Ta109  1  0.03695252  -0.00556315  0.74936300  1
  Ta  Ta110  1  -0.04618529  0.33408465  0.24135013  1
  Ta  Ta111  1  -0.03603202  0.33978824  0.75739992  1
  Ta  Ta112  1  0.00099894  0.72263239  0.24678774  1
  Ta  Ta113  1  0.00590427  0.62294154  0.75502521  1
  Ta  Ta114  1  0.35527441  -0.02274748  0.25088481  1
  Ta  Ta115  1  0.29053818  -0.00214067  0.75286600  1
  Ta  Ta116  1  0.29797141  0.32575337  0.24318668  1
  Ta  Ta117  1  0.33336652  0.27851221  0.74528582  1
  Ta  Ta118  1  0.34380912  0.61925558  0.24812176  1
  Ta  Ta119  1  0.34796623  0.63615737  0.74862542  1
  Ta  Ta120  1  0.63539910  0.00490298  0.24781491  1
  Ta  Ta121  1  0.66103512  -0.05247026  0.75703979  1
  Ta  Ta122  1  0.68183995  0.30642274  0.26343919  1
  Ta  Ta123  1  0.65257656  0.29937619  0.73370329  1
  Ta  Ta124  1  0.65612662  0.63660085  0.25200808  1
  Ta  Ta125  1  0.64599670  0.69682704  0.75271366  1
  Ta  Ta126  1  -0.05062925  0.00777969  -0.00577541  1
  Ta  Ta127  1  -0.00383349  0.03718861  0.50081424  1
  Ta  Ta128  1  -0.03251153  0.31630180  -0.00771963  1
  Ta  Ta129  1  -0.00467063  0.29097716  0.50757260  1
  Ta  Ta130  1  0.02478526  0.65789295  -0.00057956  1
  Ta  Ta131  1  -0.03654819  0.66589449  0.50206656  1
  Ta  Ta132  1  0.32974156  -0.04351894  0.00045410  1
  Ta  Ta133  1  0.33408204  -0.03517000  0.49616532  1
  Ta  Ta134  1  0.34313866  0.30572030  -0.00456862  1
  Ta  Ta135  1  0.28289792  0.32799308  0.50302574  1
  Ta  Ta136  1  0.31524704  0.68135038  0.00526324  1
  Ta  Ta137  1  0.33504442  0.61929759  0.49766225  1
  Ta  Ta138  1  0.72154673  -0.00448888  0.00379193  1
  Ta  Ta139  1  0.62822254  -0.00150919  0.49581635  1
  Ta  Ta140  1  0.62385027  0.34280902  -0.00780820  1
  Ta  Ta141  1  0.65665111  0.28579586  0.51607151  1
  Ta  Ta142  1  0.67433251  0.61928905  0.00020428  1
  Ta  Ta143  1  0.71348760  0.65663385  0.49896465  1
  N  N144  1  0.66256858  -0.00849198  0.37613388  1
  N  N145  1  0.00212330  0.68571536  0.12388173  1
  N  N146  1  0.16879954  0.15960359  0.12373736  1
  N  N147  1  0.00295972  0.00332160  0.62525690  1
  N  N148  1  0.66804252  0.31556076  0.38720751  1
  N  N149  1  0.17254293  0.51392585  0.12240676  1
  N  N150  1  0.50247025  0.84372258  0.62436668  1
  N  N151  1  0.50873488  0.50514056  0.12396897  1
  N  N152  1  0.50843371  0.48822518  0.37692017  1
  N  N153  1  -0.00091110  0.66723813  0.87077274  1
  N  N154  1  -0.01834140  0.33726704  0.11864392  1
  N  N155  1  0.16992917  0.50285436  0.37287061  1
  N  N156  1  0.17147972  0.83822829  0.12817274  1
  N  N157  1  0.82894026  0.16892250  0.86912201  1
  N  N158  1  0.16522373  0.17790484  0.37021717  1
  N  N159  1  0.33930423  0.65710046  0.12513909  1
  N  N160  1  0.01032427  0.32858719  0.87335018  1
  N  N161  1  0.17541621  0.16968013  0.88434152  1
  N  N162  1  0.84381558  0.50685677  0.62849772  1
  N  N163  1  0.32015162  0.31217036  0.62336631  1
  N  N164  1  0.65366303  0.34905166  0.62259039  1
  N  N165  1  -0.00520316  0.00051547  0.87679616  1
  N  N166  1  0.16685864  0.17117550  0.63023514  1
  N  N167  1  0.82426960  0.81904318  0.62506566  1
  N  N168  1  0.50001644  0.16189833  0.63038642  1
  N  N169  1  0.32801778  -0.00423895  0.37127931  1
  N  N170  1  -0.00809843  0.32714023  0.62638001  1
  N  N171  1  0.32625409  -0.01609014  0.87477871  1
  N  N172  1  0.51282516  0.18115011  0.12151099  1
  N  N173  1  0.82546954  0.83814077  0.87229180  1
  N  N174  1  -0.00302506  0.00010525  0.37579944  1
  N  N175  1  0.67891953  -0.00203763  0.12232622  1
  N  N176  1  0.83679736  0.49754421  0.37485492  1
  O  O177  1  0.85128909  0.82694490  0.37942352  1
  O  O178  1  0.50913250  0.52642989  0.87069218  1
  O  O179  1  0.33211519  0.65074366  0.37441167  1
  O  O180  1  0.49173042  0.85051198  0.12264417  1
  O  O181  1  0.17327039  0.52456996  0.87322737  1
  O  O182  1  0.17991281  0.84635383  0.88052801  1
  O  O183  1  0.33848501  0.32473917  0.86984157  1
  O  O184  1  0.67129860  0.67038036  0.62472066  1
  O  O185  1  0.67389467  0.63529386  0.12446889  1
  O  O186  1  0.65080458  0.32879713  0.11916085  1
  O  O187  1  0.17136354  0.84629604  0.37611667  1
  O  O188  1  0.50369767  0.85181669  0.37128276  1
  O  O189  1  -0.01214475  0.66366903  0.62900121  1
  O  O190  1  0.66590722  -0.02222612  0.88664742  1
  O  O191  1  0.66417236  0.65348917  0.87574880  1
  O  O192  1  0.50991794  0.17621103  0.37018278  1
  O  O193  1  0.85119230  0.84018825  0.12410075  1
  O  O194  1  -0.01796090  -0.00036753  0.13045789  1
  O  O195  1  0.33718844  0.32949882  0.12171316  1
  O  O196  1  0.48718785  0.83434295  0.88215349  1
  O  O197  1  0.32676616  0.00026696  0.12878523  1
  O  O198  1  0.17482357  0.84567279  0.62537234  1
  O  O199  1  -0.01246529  0.67661831  0.37418325  1
  O  O200  1  0.82684977  0.49110968  0.12382056  1
  O  O201  1  0.16965903  0.51272150  0.62376527  1
  O  O202  1  0.50706398  0.15922584  0.88324350  1
  O  O203  1  0.67302137  0.65263696  0.37441086  1
  O  O204  1  -0.01975636  0.32834817  0.38287538  1
  O  O205  1  0.84044024  0.16156669  0.62828702  1
  O  O206  1  0.64199706  0.34384624  0.86261565  1
  O  O207  1  0.66006525  -0.02244449  0.62181407  1
  O  O208  1  0.83254349  0.50522940  0.87492945  1
  O  O209  1  0.85007991  0.18207706  0.37735722  1
  O  O210  1  0.33588559  0.65705898  0.87211729  1
  O  O211  1  0.30953274  0.31940797  0.37603415  1
  O  O212  1  0.32900171  0.64029829  0.62015433  1
  O  O213  1  0.83206969  0.17698175  0.12746623  1
  O  O214  1  0.50912720  0.53523482  0.62102096  1
  O  O215  1  0.32930993  -0.00721254  0.62618634  1
