# generated using pymatgen
data_Sr24Ta24N11O13
_symmetry_space_group_name_H-M   'P 1'
_cell_length_a   16.80321209
_cell_length_b   16.84795213
_cell_length_c   15.72080722
_cell_angle_alpha   90.24232662
_cell_angle_beta   90.24296581
_cell_angle_gamma   90.08139790
_symmetry_Int_Tables_number   1
_chemical_formula_structural   Sr24Ta24N11O13
_chemical_formula_sum   'Sr72 Ta72 N33 O39'
_cell_volume   4450.47158201
_cell_formula_units_Z   3
loop_
 _symmetry_equiv_pos_site_id
 _symmetry_equiv_pos_as_xyz
  1  'x, y, z'
loop_
 _atom_site_type_symbol
 _atom_site_label
 _atom_site_symmetry_multiplicity
 _atom_site_fract_x
 _atom_site_fract_y
 _atom_site_fract_z
 _atom_site_occupancy
  Sr  Sr0  1  -0.01094426  0.17877998  0.11158971  1
  Sr  Sr1  1  0.00245596  0.18321200  0.62599361  1
  Sr  Sr2  1  0.00122898  0.50133662  0.12741266  1
  Sr  Sr3  1  -0.00896279  0.52847046  0.61113611  1
  Sr  Sr4  1  -0.00926484  0.85589266  0.14615927  1
  Sr  Sr5  1  -0.00921977  0.83344881  0.63407580  1
  Sr  Sr6  1  0.32486168  0.15894986  0.11716825  1
  Sr  Sr7  1  0.33649325  0.16389114  0.65887090  1
  Sr  Sr8  1  0.34343880  0.50928461  0.17867464  1
  Sr  Sr9  1  0.32619249  0.48732981  0.61286493  1
  Sr  Sr10  1  0.32239687  0.81305851  0.08180472  1
  Sr  Sr11  1  0.33337678  0.83492355  0.62594435  1
  Sr  Sr12  1  0.67196163  0.18616094  0.11213037  1
  Sr  Sr13  1  0.65664406  0.17251669  0.61642700  1
  Sr  Sr14  1  0.66120286  0.51147914  0.09720843  1
  Sr  Sr15  1  0.67990530  0.51666922  0.64943439  1
  Sr  Sr16  1  0.65246932  0.84523915  0.14298940  1
  Sr  Sr17  1  0.65793472  0.84512057  0.60061789  1
  Sr  Sr18  1  0.18113756  -0.00466452  0.13521967  1
  Sr  Sr19  1  0.16723081  -0.02464938  0.59269220  1
  Sr  Sr20  1  0.15191007  0.32340960  0.08595528  1
  Sr  Sr21  1  0.17819197  0.33100960  0.63950980  1
  Sr  Sr22  1  0.14723891  0.65684918  0.13856518  1
  Sr  Sr23  1  0.19021980  0.65411343  0.60441139  1
  Sr  Sr24  1  0.50118858  -0.00256715  0.16559035  1
  Sr  Sr25  1  0.50169403  -0.00281360  0.61856542  1
  Sr  Sr26  1  0.47573403  0.32159915  0.13463325  1
  Sr  Sr27  1  0.50204196  0.33566089  0.58293789  1
  Sr  Sr28  1  0.50955872  0.67104934  0.11674460  1
  Sr  Sr29  1  0.49605652  0.63507860  0.67057695  1
  Sr  Sr30  1  0.82224064  -0.00352151  0.10768322  1
  Sr  Sr31  1  0.85989926  -0.01034757  0.66498777  1
  Sr  Sr32  1  0.84328234  0.33749429  0.16809568  1
  Sr  Sr33  1  0.82862308  0.31283099  0.61777810  1
  Sr  Sr34  1  0.83698822  0.63011259  0.07495777  1
  Sr  Sr35  1  0.82716795  0.67109267  0.62705457  1
  Sr  Sr36  1  0.00630637  0.18175927  0.40137594  1
  Sr  Sr37  1  -0.00802092  0.18050215  0.86074714  1
  Sr  Sr38  1  -0.00929121  0.51136213  0.35810414  1
  Sr  Sr39  1  0.01065539  0.52234147  0.91032677  1
  Sr  Sr40  1  0.00223135  0.83714523  0.35949453  1
  Sr  Sr41  1  -0.01531786  0.84765785  0.85180009  1
  Sr  Sr42  1  0.34064672  0.14940934  0.32848434  1
  Sr  Sr43  1  0.33166154  0.17786905  0.88642029  1
  Sr  Sr44  1  0.33339432  0.48791826  0.38906234  1
  Sr  Sr45  1  0.32435124  0.50047072  0.83234721  1
  Sr  Sr46  1  0.32478586  0.83942746  0.41875554  1
  Sr  Sr47  1  0.33638054  0.83325037  0.87177474  1
  Sr  Sr48  1  0.66710984  0.18967479  0.40075595  1
  Sr  Sr49  1  0.66183997  0.17029178  0.87929520  1
  Sr  Sr50  1  0.67604474  0.51978143  0.37775669  1
  Sr  Sr51  1  0.67290273  0.51082586  0.87250388  1
  Sr  Sr52  1  0.65911352  0.82784295  0.37008002  1
  Sr  Sr53  1  0.66081982  0.86130109  0.89341690  1
  Sr  Sr54  1  0.16405880  -0.00001354  0.36774065  1
  Sr  Sr55  1  0.19186812  -0.02011170  0.89156588  1
  Sr  Sr56  1  0.16080301  0.32328372  0.41012849  1
  Sr  Sr57  1  0.17274638  0.33453225  0.86519854  1
  Sr  Sr58  1  0.18014865  0.64383592  0.36704751  1
  Sr  Sr59  1  0.17233383  0.66747150  0.90050236  1
  Sr  Sr60  1  0.51055284  -0.00716942  0.38720489  1
  Sr  Sr61  1  0.49698396  0.01299274  0.83243819  1
  Sr  Sr62  1  0.48090996  0.32908208  0.36893157  1
  Sr  Sr63  1  0.51554692  0.32270261  0.92425386  1
  Sr  Sr64  1  0.51299576  0.65459065  0.33418946  1
  Sr  Sr65  1  0.49641709  0.66606727  0.89020999  1
  Sr  Sr66  1  0.83168551  -0.03636789  0.33000463  1
  Sr  Sr67  1  0.83652659  0.01225084  0.89813477  1
  Sr  Sr68  1  0.83952229  0.32162204  0.37453094  1
  Sr  Sr69  1  0.81918491  0.32836861  0.82740957  1
  Sr  Sr70  1  0.82311515  0.66739397  0.41530004  1
  Sr  Sr71  1  0.84502609  0.65793553  0.85749085  1
  Ta  Ta72  1  0.14789371  0.14008020  -0.00460689  1
  Ta  Ta73  1  0.21296647  0.15661521  0.49511059  1
  Ta  Ta74  1  0.20731228  0.49781165  0.00204612  1
  Ta  Ta75  1  0.13706643  0.49061814  0.50154430  1
  Ta  Ta76  1  0.12704970  0.83714196  -0.00007580  1
  Ta  Ta77  1  0.13971932  0.80447902  0.49853648  1
  Ta  Ta78  1  0.49794199  0.12836283  0.00123057  1
  Ta  Ta79  1  0.46008197  0.16194669  0.49802491  1
  Ta  Ta80  1  0.45809130  0.49601582  0.00588397  1
  Ta  Ta81  1  0.51482911  0.51991897  0.49590544  1
  Ta  Ta82  1  0.49963813  0.87393988  0.00674800  1
  Ta  Ta83  1  0.49699484  0.78300952  0.49885465  1
  Ta  Ta84  1  0.83133083  0.21807464  -0.00727133  1
  Ta  Ta85  1  0.83848116  0.11590966  0.50381744  1
  Ta  Ta86  1  0.83604774  0.45019409  -0.00555395  1
  Ta  Ta87  1  0.83263363  0.47662061  0.50156130  1
  Ta  Ta88  1  0.83051328  0.81123308  0.00122412  1
  Ta  Ta89  1  0.83573734  0.86714590  0.50354387  1
  Ta  Ta90  1  0.14846510  0.18593618  0.25353129  1
  Ta  Ta91  1  0.16575854  0.11998067  0.74314395  1
  Ta  Ta92  1  0.16290429  0.45502621  0.25452622  1
  Ta  Ta93  1  0.13797472  0.51374518  0.75060794  1
  Ta  Ta94  1  0.20961790  0.82389876  0.25051944  1
  Ta  Ta95  1  0.16723194  0.80649958  0.75017154  1
  Ta  Ta96  1  0.53473126  0.16550875  0.25661666  1
  Ta  Ta97  1  0.50240129  0.20848434  0.75465529  1
  Ta  Ta98  1  0.53198099  0.47835132  0.24779365  1
  Ta  Ta99  1  0.50299728  0.44908506  0.75424583  1
  Ta  Ta100  1  0.45137603  0.82485848  0.24859224  1
  Ta  Ta101  1  0.51288306  0.81921370  0.75220893  1
  Ta  Ta102  1  0.83534348  0.14514597  0.25131923  1
  Ta  Ta103  1  0.81259774  0.14647572  0.74808156  1
  Ta  Ta104  1  0.82116986  0.52690553  0.24601267  1
  Ta  Ta105  1  0.86863177  0.49258168  0.75138286  1
  Ta  Ta106  1  0.82292513  0.78013446  0.24030327  1
  Ta  Ta107  1  0.78934775  0.83252473  0.74944219  1
  Ta  Ta108  1  -0.00475089  0.04321284  0.24954965  1
  Ta  Ta109  1  0.04259556  0.01393330  0.74460065  1
  Ta  Ta110  1  0.03299875  0.33020283  0.25114646  1
  Ta  Ta111  1  0.00219868  0.37923424  0.75251120  1
  Ta  Ta112  1  -0.05513140  0.67220552  0.24065946  1
  Ta  Ta113  1  0.03196378  0.66531795  0.75515639  1
  Ta  Ta114  1  0.33538874  -0.04876261  0.25075798  1
  Ta  Ta115  1  0.30992640  -0.00195321  0.74112423  1
  Ta  Ta116  1  0.28104447  0.32685236  0.25358445  1
  Ta  Ta117  1  0.38039355  0.33230715  0.74649816  1
  Ta  Ta118  1  0.33343742  0.70427299  0.25807690  1
  Ta  Ta119  1  0.31884571  0.67780435  0.74849421  1
  Ta  Ta120  1  0.67517880  0.04788989  0.25162505  1
  Ta  Ta121  1  0.68715992  0.00175878  0.75419417  1
  Ta  Ta122  1  0.65322515  0.35116568  0.24914950  1
  Ta  Ta123  1  0.62794561  0.33529767  0.74598411  1
  Ta  Ta124  1  0.70804802  0.66621649  0.23490331  1
  Ta  Ta125  1  0.66210549  0.71323113  0.75317393  1
  Ta  Ta126  1  0.02964743  0.00464960  -0.00202143  1
  Ta  Ta127  1  -0.03832206  -0.00399971  0.49524712  1
  Ta  Ta128  1  -0.03640546  0.33939876  -0.00119505  1
  Ta  Ta129  1  -0.00618682  0.36967429  0.49843529  1
  Ta  Ta130  1  -0.00513874  0.71442990  0.00125918  1
  Ta  Ta131  1  0.01736094  0.68231641  0.49362103  1
  Ta  Ta132  1  0.37663412  -0.00309977  0.00624659  1
  Ta  Ta133  1  0.33653123  0.03361561  0.49434977  1
  Ta  Ta134  1  0.32937977  0.38072639  0.00263234  1
  Ta  Ta135  1  0.32934363  0.28417071  0.49771048  1
  Ta  Ta136  1  0.33412438  0.61149879  0.00614387  1
  Ta  Ta137  1  0.38235420  0.66016440  0.49887619  1
  Ta  Ta138  1  0.62091782  0.01284037  0.00121888  1
  Ta  Ta139  1  0.71867118  0.00574581  0.50071465  1
  Ta  Ta140  1  0.71246180  0.33911574  -0.00267922  1
  Ta  Ta141  1  0.67424572  0.37464700  0.50379605  1
  Ta  Ta142  1  0.68394746  0.70456258  -0.00440200  1
  Ta  Ta143  1  0.61996798  0.66684917  0.51082845  1
  N  N144  1  0.00251618  0.67950924  0.87367735  1
  N  N145  1  -0.01104249  0.67447518  0.12418774  1
  N  N146  1  0.83155768  0.17429979  0.87482977  1
  N  N147  1  0.65968782  0.67463650  0.63151879  1
  N  N148  1  0.66666768  0.67267927  0.11257029  1
  N  N149  1  0.33952536  -0.00877820  0.12424343  1
  N  N150  1  0.66492148  0.34411589  0.62161557  1
  N  N151  1  -0.00210935  0.33772753  0.12300293  1
  N  N152  1  0.83351952  0.48602059  0.12934311  1
  N  N153  1  -0.00352757  0.34107587  0.37422287  1
  N  N154  1  0.16739333  0.48960862  0.37674133  1
  N  N155  1  0.15917371  0.82347421  0.61994370  1
  N  N156  1  0.50467184  0.49923234  0.37442227  1
  N  N157  1  0.49659546  0.17060703  0.87493869  1
  N  N158  1  0.32350837  0.32075734  0.36826810  1
  N  N159  1  0.17036020  0.15968027  0.37269370  1
  N  N160  1  0.83353593  0.50242148  0.37707473  1
  N  N161  1  0.83450350  0.50938882  0.63011722  1
  N  N162  1  0.83542060  0.49806315  0.87678919  1
  N  N163  1  0.33759350  -0.00606359  0.62276924  1
  N  N164  1  0.82187823  0.83734290  0.62474984  1
  N  N165  1  0.15653177  0.83197446  0.87896572  1
  N  N166  1  0.33864534  -0.00774763  0.37483544  1
  N  N167  1  0.50491290  0.16367496  0.37529097  1
  N  N168  1  0.66154966  0.01342646  0.87581425  1
  N  N169  1  0.83978034  0.15773927  0.62409254  1
  N  N170  1  0.34378019  0.66132550  0.63023720  1
  N  N171  1  0.34060865  0.32547641  0.62700025  1
  N  N172  1  0.17189672  0.49794685  0.87737302  1
  N  N173  1  0.34098195  0.66469582  0.37911056  1
  N  N174  1  0.48962330  0.83152333  0.12290283  1
  N  N175  1  0.49752338  0.49730033  0.12700534  1
  N  N176  1  0.16814897  0.49505376  0.62794813  1
  O  O177  1  0.17052976  0.14375889  0.61721708  1
  O  O178  1  0.16395319  0.82489602  0.37087471  1
  O  O179  1  0.00724210  0.01947779  0.12823084  1
  O  O180  1  0.33469286  0.65640383  0.12775739  1
  O  O181  1  0.66742032  0.34648740  0.37439727  1
  O  O182  1  0.82884764  0.83038204  0.87415883  1
  O  O183  1  0.81916640  0.82086737  0.38037508  1
  O  O184  1  0.02292455  0.00254304  0.87046268  1
  O  O185  1  0.50462784  0.16715496  0.12592570  1
  O  O186  1  0.82920149  0.83993815  0.12659789  1
  O  O187  1  0.49540007  0.16651698  0.62619295  1
  O  O188  1  0.34348323  -0.00671763  0.86912129  1
  O  O189  1  0.01386677  0.35450308  0.87765921  1
  O  O190  1  0.01236474  0.00441390  0.61811291  1
  O  O191  1  0.33577892  0.65144611  0.88000642  1
  O  O192  1  -0.01552714  0.67711009  0.37160326  1
  O  O193  1  0.67829968  0.00184651  0.61940671  1
  O  O194  1  0.16481213  0.49222937  0.12648871  1
  O  O195  1  0.00053928  0.35073937  0.63113306  1
  O  O196  1  0.50334832  0.48532347  0.62908918  1
  O  O197  1  0.66749980  0.02822026  0.12182828  1
  O  O198  1  0.49588853  0.81268727  0.62884494  1
  O  O199  1  0.16835274  0.83274557  0.12803908  1
  O  O200  1  0.66819367  0.34041575  0.87058504  1
  O  O201  1  -0.00080738  0.02120904  0.37703933  1
  O  O202  1  0.49849544  0.80964265  0.37192286  1
  O  O203  1  0.00482648  0.67971842  0.62236551  1
  O  O204  1  0.49948420  0.83625840  0.87692763  1
  O  O205  1  0.16791728  0.14374535  0.87260322  1
  O  O206  1  0.65109787  0.66541786  0.87618130  1
  O  O207  1  0.83168999  0.17510060  0.12604790  1
  O  O208  1  0.83812856  0.15886936  0.37595593  1
  O  O209  1  0.33546779  0.35103069  0.87554850  1
  O  O210  1  0.15461955  0.16116068  0.11963626  1
  O  O211  1  0.67891056  0.34308925  0.12704345  1
  O  O212  1  0.49813145  0.47487252  0.88061654  1
  O  O213  1  0.66748198  0.67403108  0.38783538  1
  O  O214  1  0.32384403  0.35481210  0.13070948  1
  O  O215  1  0.68608018  0.01922243  0.37426603  1
