# generated using pymatgen
data_Sr24Ta24N11O13
_symmetry_space_group_name_H-M   'P 1'
_cell_length_a   16.66239493
_cell_length_b   16.85211912
_cell_length_c   15.74831028
_cell_angle_alpha   90.43610371
_cell_angle_beta   90.24460306
_cell_angle_gamma   89.84367139
_symmetry_Int_Tables_number   1
_chemical_formula_structural   Sr24Ta24N11O13
_chemical_formula_sum   'Sr72 Ta72 N33 O39'
_cell_volume   4421.88853059
_cell_formula_units_Z   3
loop_
 _symmetry_equiv_pos_site_id
 _symmetry_equiv_pos_as_xyz
  1  'x, y, z'
loop_
 _atom_site_type_symbol
 _atom_site_label
 _atom_site_symmetry_multiplicity
 _atom_site_fract_x
 _atom_site_fract_y
 _atom_site_fract_z
 _atom_site_occupancy
  Sr  Sr0  1  0.00343106  0.16363517  0.15515642  1
  Sr  Sr1  1  -0.00072483  0.15023588  0.63048569  1
  Sr  Sr2  1  -0.01205288  0.49144828  0.14209179  1
  Sr  Sr3  1  0.00944881  0.50774100  0.62264991  1
  Sr  Sr4  1  0.00239236  0.82588013  0.12301964  1
  Sr  Sr5  1  -0.00578775  0.83173522  0.58651093  1
  Sr  Sr6  1  0.32197385  0.15282978  0.08133377  1
  Sr  Sr7  1  0.33648420  0.16924999  0.62894536  1
  Sr  Sr8  1  0.32843706  0.51422908  0.10969447  1
  Sr  Sr9  1  0.33526397  0.49392600  0.66311008  1
  Sr  Sr10  1  0.33299221  0.84660153  0.16535504  1
  Sr  Sr11  1  0.34568231  0.82419575  0.60739435  1
  Sr  Sr12  1  0.65974066  0.17122717  0.12783247  1
  Sr  Sr13  1  0.67241252  0.12806361  0.61681619  1
  Sr  Sr14  1  0.66351033  0.47863283  0.10695967  1
  Sr  Sr15  1  0.65529967  0.49497861  0.60827039  1
  Sr  Sr16  1  0.66576822  0.81847862  0.10880937  1
  Sr  Sr17  1  0.68386339  0.81884016  0.66925188  1
  Sr  Sr18  1  0.15597222  -0.00129120  0.11630944  1
  Sr  Sr19  1  0.18605854  0.01490174  0.67383905  1
  Sr  Sr20  1  0.16450447  0.33911308  0.13873414  1
  Sr  Sr21  1  0.16441810  0.32072889  0.58785310  1
  Sr  Sr22  1  0.16468672  0.67405526  0.08585427  1
  Sr  Sr23  1  0.17203213  0.65705448  0.63734094  1
  Sr  Sr24  1  0.50852301  0.01541349  0.11638974  1
  Sr  Sr25  1  0.49282525  -0.00383278  0.58817297  1
  Sr  Sr26  1  0.50949335  0.33234488  0.16148371  1
  Sr  Sr27  1  0.49534474  0.34146460  0.62247466  1
  Sr  Sr28  1  0.48615325  0.67695140  0.13655665  1
  Sr  Sr29  1  0.51240545  0.67151954  0.60479675  1
  Sr  Sr30  1  0.82728779  0.04074491  0.15647057  1
  Sr  Sr31  1  0.84106467  -0.00315851  0.61582604  1
  Sr  Sr32  1  0.81194504  0.33708400  0.08405213  1
  Sr  Sr33  1  0.84853996  0.37039379  0.63678013  1
  Sr  Sr34  1  0.84639651  0.68818719  0.13320558  1
  Sr  Sr35  1  0.83547407  0.68342747  0.65342072  1
  Sr  Sr36  1  0.00715878  0.15484175  0.36756666  1
  Sr  Sr37  1  -0.00771575  0.15431814  0.84612502  1
  Sr  Sr38  1  0.01254264  0.49172486  0.38382686  1
  Sr  Sr39  1  -0.01452157  0.49946584  0.84609286  1
  Sr  Sr40  1  -0.00553277  0.82637385  0.37832425  1
  Sr  Sr41  1  0.01747559  0.83129862  0.92038118  1
  Sr  Sr42  1  0.33865105  0.17338985  0.41236634  1
  Sr  Sr43  1  0.33060102  0.15674247  0.87048181  1
  Sr  Sr44  1  0.33666561  0.48240618  0.32769274  1
  Sr  Sr45  1  0.32856281  0.50575710  0.88387636  1
  Sr  Sr46  1  0.35042746  0.83097528  0.38449407  1
  Sr  Sr47  1  0.31006417  0.83158489  0.82403036  1
  Sr  Sr48  1  0.66338487  0.14955188  0.35611812  1
  Sr  Sr49  1  0.66748146  0.16076115  0.87646781  1
  Sr  Sr50  1  0.65184298  0.48961401  0.40520741  1
  Sr  Sr51  1  0.66111093  0.47736163  0.88122658  1
  Sr  Sr52  1  0.67361362  0.79755758  0.33578534  1
  Sr  Sr53  1  0.65566616  0.82977664  0.88701750  1
  Sr  Sr54  1  0.16903694  -0.01037169  0.33451169  1
  Sr  Sr55  1  0.16413447  0.00817706  0.88360319  1
  Sr  Sr56  1  0.15938844  0.32320400  0.36849241  1
  Sr  Sr57  1  0.18202063  0.33694255  0.91951102  1
  Sr  Sr58  1  0.15909998  0.68102687  0.42093729  1
  Sr  Sr59  1  0.17482037  0.65529314  0.86162859  1
  Sr  Sr60  1  0.50027876  0.01091105  0.38116866  1
  Sr  Sr61  1  0.50963148  0.00974797  0.91084914  1
  Sr  Sr62  1  0.50455332  0.33736967  0.37272485  1
  Sr  Sr63  1  0.48843805  0.32793298  0.82633306  1
  Sr  Sr64  1  0.49841474  0.66875471  0.37280163  1
  Sr  Sr65  1  0.50792445  0.65665318  0.91031907  1
  Sr  Sr66  1  0.84030354  0.01853538  0.39722714  1
  Sr  Sr67  1  0.82270483  0.01813378  0.82997196  1
  Sr  Sr68  1  0.82296504  0.37321832  0.41893305  1
  Sr  Sr69  1  0.83725198  0.34776559  0.87450748  1
  Sr  Sr70  1  0.84374114  0.67393861  0.34334875  1
  Sr  Sr71  1  0.83823161  0.69691024  0.87900368  1
  Ta  Ta72  1  0.12560255  0.17207330  0.00209187  1
  Ta  Ta73  1  0.16461756  0.13018345  0.49537100  1
  Ta  Ta74  1  0.12861420  0.50391743  -0.00623520  1
  Ta  Ta75  1  0.21226890  0.50019579  0.50284002  1
  Ta  Ta76  1  0.21629874  0.83728482  -0.00344047  1
  Ta  Ta77  1  0.17093882  0.87979774  0.50515868  1
  Ta  Ta78  1  0.49768603  0.20674786  -0.00383308  1
  Ta  Ta79  1  0.52121508  0.18493099  0.49596078  1
  Ta  Ta80  1  0.49613366  0.45380530  -0.00779834  1
  Ta  Ta81  1  0.45542803  0.50141657  0.49971034  1
  Ta  Ta82  1  0.44664064  0.83769083  -0.00511469  1
  Ta  Ta83  1  0.55689805  0.82927792  0.50113443  1
  Ta  Ta84  1  0.84736606  0.15834801  -0.01231903  1
  Ta  Ta85  1  0.83142068  0.20210633  0.51122867  1
  Ta  Ta86  1  0.83555133  0.53264734  -0.00425493  1
  Ta  Ta87  1  0.83476720  0.55481355  0.50652608  1
  Ta  Ta88  1  0.83687817  0.89304043  -0.00163880  1
  Ta  Ta89  1  0.79932327  0.81607530  0.49912338  1
  Ta  Ta90  1  0.20807099  0.16235946  0.24731305  1
  Ta  Ta91  1  0.16624775  0.20764744  0.76012755  1
  Ta  Ta92  1  0.16278254  0.54657124  0.25003403  1
  Ta  Ta93  1  0.16273110  0.45438452  0.74907456  1
  Ta  Ta94  1  0.16086583  0.80114051  0.25293545  1
  Ta  Ta95  1  0.11620247  0.83481260  0.74798143  1
  Ta  Ta96  1  0.45983005  0.16291345  0.24568713  1
  Ta  Ta97  1  0.50647514  0.13344354  0.75030533  1
  Ta  Ta98  1  0.52337302  0.51073652  0.24997406  1
  Ta  Ta99  1  0.50976282  0.52792690  0.75010969  1
  Ta  Ta100  1  0.51462587  0.86511219  0.24823589  1
  Ta  Ta101  1  0.49769919  0.84871120  0.74547205  1
  Ta  Ta102  1  0.82699410  0.22082389  0.25980427  1
  Ta  Ta103  1  0.81933375  0.20095184  0.73525813  1
  Ta  Ta104  1  0.81192034  0.48499771  0.25161809  1
  Ta  Ta105  1  0.79762158  0.52512644  0.75224237  1
  Ta  Ta106  1  0.83576475  0.87277843  0.24994868  1
  Ta  Ta107  1  0.89284434  0.84586624  0.75353037  1
  Ta  Ta108  1  -0.01510275  -0.02657484  0.25431203  1
  Ta  Ta109  1  0.00525235  -0.03681594  0.75417932  1
  Ta  Ta110  1  -0.05961527  0.33476207  0.25238599  1
  Ta  Ta111  1  0.03836893  0.32452038  0.75690554  1
  Ta  Ta112  1  0.04225626  0.66644653  0.24523695  1
  Ta  Ta113  1  0.00632401  0.70550438  0.75324013  1
  Ta  Ta114  1  0.34352350  0.03181239  0.24992375  1
  Ta  Ta115  1  0.38250286  -0.00489229  0.74907485  1
  Ta  Ta116  1  0.33149546  0.28838802  0.24787404  1
  Ta  Ta117  1  0.29302390  0.32741129  0.75596812  1
  Ta  Ta118  1  0.28755521  0.66915612  0.24845090  1
  Ta  Ta119  1  0.37991433  0.66633974  0.75532519  1
  Ta  Ta120  1  0.66547549  -0.03080317  0.25106722  1
  Ta  Ta121  1  0.62532310  -0.00988574  0.74928500  1
  Ta  Ta122  1  0.70227311  0.34042859  0.26141433  1
  Ta  Ta123  1  0.67922274  0.31354137  0.74257360  1
  Ta  Ta124  1  0.66744931  0.61289381  0.25363397  1
  Ta  Ta125  1  0.65598799  0.63633121  0.75492988  1
  Ta  Ta126  1  -0.03302270  0.02056233  -0.00323404  1
  Ta  Ta127  1  0.05068924  0.00034120  0.49901298  1
  Ta  Ta128  1  -0.00159237  0.30509331  -0.00233462  1
  Ta  Ta129  1  -0.01763757  0.30437654  0.50254403  1
  Ta  Ta130  1  -0.00584577  0.63190345  -0.00392311  1
  Ta  Ta131  1  -0.03095316  0.65925577  0.50522595  1
  Ta  Ta132  1  0.33177575  -0.03964116  -0.01011986  1
  Ta  Ta133  1  0.29301877  -0.00189864  0.50510204  1
  Ta  Ta134  1  0.37611951  0.32992879  -0.00086921  1
  Ta  Ta135  1  0.33425576  0.36466982  0.49306785  1
  Ta  Ta136  1  0.33347572  0.71318553  -0.00172379  1
  Ta  Ta137  1  0.33672281  0.62333649  0.49951218  1
  Ta  Ta138  1  0.70702773  0.00167003  -0.00590850  1
  Ta  Ta139  1  0.67405132  -0.05582903  0.50536587  1
  Ta  Ta140  1  0.61774880  0.32034632  -0.01247356  1
  Ta  Ta141  1  0.66821124  0.29100108  0.50432446  1
  Ta  Ta142  1  0.69202525  0.64056594  0.00621658  1
  Ta  Ta143  1  0.69417688  0.68282802  0.49667844  1
  N  N144  1  0.83137397  0.50916924  0.87381767  1
  N  N145  1  0.16352111  0.16265586  0.12613279  1
  N  N146  1  0.66620580  -0.00901394  0.87575969  1
  N  N147  1  0.49558821  0.50067553  0.37020671  1
  N  N148  1  0.83296364  0.17409049  0.86603740  1
  N  N149  1  0.49663061  0.17166410  0.12685603  1
  N  N150  1  0.66858748  0.32931880  0.38066985  1
  N  N151  1  0.83856179  0.15038125  0.62256439  1
  N  N152  1  0.32925356  0.32921093  0.37238540  1
  N  N153  1  0.49509221  0.49997623  0.62146510  1
  N  N154  1  0.66767247  -0.02446091  0.62923026  1
  N  N155  1  0.83073227  0.52228073  0.62651668  1
  N  N156  1  0.32560204  0.67763722  0.13025185  1
  N  N157  1  0.00238218  0.67277956  0.87950738  1
  N  N158  1  0.33517488  -0.00250836  0.62383844  1
  N  N159  1  0.00068177  0.67094744  0.62508739  1
  N  N160  1  0.65793019  0.32279347  0.86199811  1
  N  N161  1  0.49612662  0.16419490  0.86872605  1
  N  N162  1  0.16515761  0.16651824  0.88196404  1
  N  N163  1  0.17513358  0.48988212  0.62359734  1
  N  N164  1  0.17181891  0.15588867  0.37420934  1
  N  N165  1  -0.00215230  0.32839780  0.87768462  1
  N  N166  1  0.00411629  0.66608399  0.12642912  1
  N  N167  1  0.33439262  0.33186274  0.87319968  1
  N  N168  1  0.15625452  0.49530309  0.87507514  1
  N  N169  1  0.49609242  0.48988209  0.87163057  1
  N  N170  1  0.33686248  -0.00541254  0.86544123  1
  N  N171  1  0.51602038  0.82960647  0.62223608  1
  N  N172  1  0.00858903  -0.00591487  0.37477885  1
  N  N173  1  -0.00074631  -0.00170880  0.88014445  1
  N  N174  1  0.34470675  0.67009064  0.87098682  1
  N  N175  1  0.50204863  0.16940524  0.37457087  1
  N  N176  1  0.67265894  0.65002883  0.37642505  1
  O  O177  1  -0.03604714  0.33056860  0.12696818  1
  O  O178  1  0.15876272  0.51771433  0.12461090  1
  O  O179  1  0.49854887  0.83604383  0.88121671  1
  O  O180  1  0.33595029  0.32348220  0.12314069  1
  O  O181  1  0.16037018  0.83037283  0.37861089  1
  O  O182  1  0.65405877  0.34610737  0.61509566  1
  O  O183  1  0.66244490  0.32746397  0.12666482  1
  O  O184  1  0.17138798  0.16590144  0.63393217  1
  O  O185  1  0.51359726  0.84235340  0.37365757  1
  O  O186  1  0.67195295  -0.01689166  0.37596936  1
  O  O187  1  0.66618842  0.65419762  0.88501706  1
  O  O188  1  0.82667564  0.49260376  0.12489109  1
  O  O189  1  0.32767740  0.65183465  0.37514611  1
  O  O190  1  0.49765955  0.16362966  0.62089537  1
  O  O191  1  0.00455520  0.66956832  0.37894440  1
  O  O192  1  0.82905167  0.83678517  0.37398119  1
  O  O193  1  0.16974767  0.52559404  0.37916204  1
  O  O194  1  0.34583896  0.65287589  0.62783972  1
  O  O195  1  0.50528122  0.48692344  0.12315335  1
  O  O196  1  0.33897636  0.00271501  0.12394565  1
  O  O197  1  0.84855269  0.85955027  0.87498452  1
  O  O198  1  0.17727302  0.82607501  0.12773259  1
  O  O199  1  0.48766592  0.85160311  0.12517795  1
  O  O200  1  0.32307167  0.33077227  0.61957193  1
  O  O201  1  0.67417670  -0.00849477  0.12496970  1
  O  O202  1  0.33475859  0.01147530  0.37693035  1
  O  O203  1  0.66645665  0.65888732  0.62890646  1
  O  O204  1  -0.00435261  0.00652169  0.13001786  1
  O  O205  1  0.16665104  0.83646911  0.87488729  1
  O  O206  1  0.15431084  0.84067724  0.62429418  1
  O  O207  1  0.00451884  -0.00221773  0.61934823  1
  O  O208  1  0.84417917  0.83598429  0.63006645  1
  O  O209  1  -0.02665490  0.33690214  0.37959730  1
  O  O210  1  0.83403042  0.86998142  0.12062383  1
  O  O211  1  0.00712905  0.31219822  0.62478959  1
  O  O212  1  0.68794967  0.65179940  0.13277451  1
  O  O213  1  0.82711819  0.51614499  0.37473702  1
  O  O214  1  0.82438274  0.18756279  0.12868517  1
  O  O215  1  0.82711777  0.17096470  0.37702857  1
