# generated using pymatgen
data_Sr24Ta24N11O13
_symmetry_space_group_name_H-M   'P 1'
_cell_length_a   16.76344977
_cell_length_b   16.76789502
_cell_length_c   15.69818131
_cell_angle_alpha   90.22608266
_cell_angle_beta   89.76562695
_cell_angle_gamma   90.12629980
_symmetry_Int_Tables_number   1
_chemical_formula_structural   Sr24Ta24N11O13
_chemical_formula_sum   'Sr72 Ta72 N33 O39'
_cell_volume   4412.48487897
_cell_formula_units_Z   3
loop_
 _symmetry_equiv_pos_site_id
 _symmetry_equiv_pos_as_xyz
  1  'x, y, z'
loop_
 _atom_site_type_symbol
 _atom_site_label
 _atom_site_symmetry_multiplicity
 _atom_site_fract_x
 _atom_site_fract_y
 _atom_site_fract_z
 _atom_site_occupancy
  Sr  Sr0  1  0.00168964  0.15948007  0.12908031  1
  Sr  Sr1  1  0.00787108  0.20227188  0.60164360  1
  Sr  Sr2  1  0.01759897  0.52004333  0.11857497  1
  Sr  Sr3  1  -0.00181511  0.50290940  0.65629748  1
  Sr  Sr4  1  -0.00982703  0.84047731  0.10587198  1
  Sr  Sr5  1  0.00087067  0.83641083  0.62434653  1
  Sr  Sr6  1  0.33951157  0.17605592  0.09207528  1
  Sr  Sr7  1  0.33408162  0.15629218  0.61695658  1
  Sr  Sr8  1  0.34682604  0.48897746  0.16735558  1
  Sr  Sr9  1  0.32342143  0.50727268  0.61104891  1
  Sr  Sr10  1  0.32180926  0.82433275  0.12107655  1
  Sr  Sr11  1  0.32723584  0.83436667  0.65960109  1
  Sr  Sr12  1  0.66303539  0.17388244  0.16936762  1
  Sr  Sr13  1  0.67340859  0.17927997  0.62765898  1
  Sr  Sr14  1  0.65808156  0.49292744  0.08634938  1
  Sr  Sr15  1  0.67642636  0.51477230  0.61852502  1
  Sr  Sr16  1  0.66614944  0.83016726  0.12823642  1
  Sr  Sr17  1  0.63030008  0.85048824  0.59607780  1
  Sr  Sr18  1  0.15043849  -0.00019657  0.16228658  1
  Sr  Sr19  1  0.16464350  -0.01833219  0.63237276  1
  Sr  Sr20  1  0.17030361  0.30372688  0.08621553  1
  Sr  Sr21  1  0.15821506  0.34387533  0.63478684  1
  Sr  Sr22  1  0.19526233  0.64575928  0.14686788  1
  Sr  Sr23  1  0.16688944  0.66533373  0.58268018  1
  Sr  Sr24  1  0.51193255  -0.01659311  0.13774655  1
  Sr  Sr25  1  0.49529453  0.01040332  0.58612498  1
  Sr  Sr26  1  0.49738460  0.33503118  0.12138078  1
  Sr  Sr27  1  0.50179925  0.31577018  0.67226455  1
  Sr  Sr28  1  0.52606913  0.66149726  0.08838123  1
  Sr  Sr29  1  0.48103784  0.67562323  0.64124021  1
  Sr  Sr30  1  0.84475190  -0.01124390  0.08160084  1
  Sr  Sr31  1  0.82857255  -0.00284472  0.64448300  1
  Sr  Sr32  1  0.84346198  0.32570514  0.13765597  1
  Sr  Sr33  1  0.81648074  0.32874429  0.58786353  1
  Sr  Sr34  1  0.83122125  0.68211302  0.16505385  1
  Sr  Sr35  1  0.85907181  0.65819976  0.62957141  1
  Sr  Sr36  1  0.00760936  0.17108695  0.36615249  1
  Sr  Sr37  1  0.00251136  0.18283139  0.89754147  1
  Sr  Sr38  1  -0.01015724  0.50456215  0.32716677  1
  Sr  Sr39  1  0.01081708  0.50915117  0.88060825  1
  Sr  Sr40  1  -0.00207215  0.82988165  0.40792903  1
  Sr  Sr41  1  -0.01519766  0.84931299  0.85153391  1
  Sr  Sr42  1  0.33272096  0.16446367  0.40188422  1
  Sr  Sr43  1  0.33863692  0.16659750  0.88243378  1
  Sr  Sr44  1  0.33205743  0.50327980  0.38629643  1
  Sr  Sr45  1  0.34125848  0.49346974  0.83310867  1
  Sr  Sr46  1  0.32607451  0.84304257  0.33223431  1
  Sr  Sr47  1  0.32243232  0.82415752  0.87893284  1
  Sr  Sr48  1  0.67388326  0.18144772  0.37596067  1
  Sr  Sr49  1  0.67633009  0.17122893  0.83389567  1
  Sr  Sr50  1  0.67578206  0.50956550  0.40920720  1
  Sr  Sr51  1  0.67478599  0.51573269  0.87773757  1
  Sr  Sr52  1  0.65725702  0.83545853  0.37114966  1
  Sr  Sr53  1  0.65333580  0.85022524  0.90255587  1
  Sr  Sr54  1  0.15152983  -0.01173686  0.36767487  1
  Sr  Sr55  1  0.17276465  -0.01184451  0.83137176  1
  Sr  Sr56  1  0.18445152  0.31486926  0.41877082  1
  Sr  Sr57  1  0.15868519  0.34105902  0.86789279  1
  Sr  Sr58  1  0.18003546  0.64890397  0.36298915  1
  Sr  Sr59  1  0.14771396  0.68447691  0.93426217  1
  Sr  Sr60  1  0.51263901  -0.00923022  0.36531554  1
  Sr  Sr61  1  0.48723550  0.00037870  0.91426521  1
  Sr  Sr62  1  0.49532693  0.33747958  0.33457660  1
  Sr  Sr63  1  0.49995046  0.32462576  0.88187009  1
  Sr  Sr64  1  0.51642544  0.65429837  0.41916138  1
  Sr  Sr65  1  0.50250318  0.67286927  0.86469997  1
  Sr  Sr66  1  0.83790612  -0.02374515  0.41708549  1
  Sr  Sr67  1  0.82922649  -0.00170815  0.86508598  1
  Sr  Sr68  1  0.84864982  0.32631555  0.36312682  1
  Sr  Sr69  1  0.82452839  0.34325175  0.90338344  1
  Sr  Sr70  1  0.84096764  0.66713568  0.37039604  1
  Sr  Sr71  1  0.84625442  0.65719089  0.83101102  1
  Ta  Ta72  1  0.16809487  0.11117483  0.00023510  1
  Ta  Ta73  1  0.16051522  0.12778851  0.50107462  1
  Ta  Ta74  1  0.21025939  0.49304969  0.00230553  1
  Ta  Ta75  1  0.12731823  0.49444820  0.49349189  1
  Ta  Ta76  1  0.15701228  0.88195265  -0.00575335  1
  Ta  Ta77  1  0.20407706  0.83372232  0.49932565  1
  Ta  Ta78  1  0.54335205  0.16707508  -0.00323927  1
  Ta  Ta79  1  0.51003181  0.19783566  0.50432659  1
  Ta  Ta80  1  0.46184200  0.49864024  0.00095182  1
  Ta  Ta81  1  0.50014314  0.46218003  0.50461786  1
  Ta  Ta82  1  0.47856313  0.82631620  0.00643301  1
  Ta  Ta83  1  0.44800361  0.83314724  0.49481379  1
  Ta  Ta84  1  0.79856523  0.16773492  0.00338297  1
  Ta  Ta85  1  0.84082103  0.14239667  0.50372239  1
  Ta  Ta86  1  0.84440308  0.53349448  0.00270084  1
  Ta  Ta87  1  0.86819216  0.50353897  0.49482583  1
  Ta  Ta88  1  0.83037227  0.79846376  -0.01368195  1
  Ta  Ta89  1  0.81065456  0.81366171  0.51118501  1
  Ta  Ta90  1  0.19063101  0.18044866  0.25058271  1
  Ta  Ta91  1  0.16619989  0.16947547  0.74512691  1
  Ta  Ta92  1  0.17369543  0.44260892  0.25625703  1
  Ta  Ta93  1  0.16616675  0.53461583  0.74542596  1
  Ta  Ta94  1  0.13319863  0.81740548  0.24789851  1
  Ta  Ta95  1  0.15827910  0.79208289  0.75063173  1
  Ta  Ta96  1  0.46708137  0.15808967  0.24782760  1
  Ta  Ta97  1  0.49738283  0.12733380  0.75214089  1
  Ta  Ta98  1  0.53063799  0.52371347  0.24791294  1
  Ta  Ta99  1  0.52781187  0.49444635  0.75476359  1
  Ta  Ta100  1  0.50159430  0.78475667  0.25535974  1
  Ta  Ta101  1  0.50160138  0.87290036  0.74722405  1
  Ta  Ta102  1  0.84056538  0.10810253  0.25476569  1
  Ta  Ta103  1  0.86258742  0.18868961  0.74706540  1
  Ta  Ta104  1  0.78986969  0.49962336  0.25077906  1
  Ta  Ta105  1  0.82671810  0.46447838  0.74208663  1
  Ta  Ta106  1  0.83726460  0.87185509  0.25240138  1
  Ta  Ta107  1  0.77631108  0.82606478  0.74352482  1
  Ta  Ta108  1  -0.03586262  -0.01461074  0.26240836  1
  Ta  Ta109  1  0.00045731  0.05344263  0.73950049  1
  Ta  Ta110  1  0.05374327  0.33067908  0.25588657  1
  Ta  Ta111  1  -0.04073904  0.33418095  0.74498884  1
  Ta  Ta112  1  0.01741109  0.70012191  0.24894011  1
  Ta  Ta113  1  0.05364797  0.66751384  0.74904512  1
  Ta  Ta114  1  0.33720075  0.03728012  0.24650377  1
  Ta  Ta115  1  0.36443123  0.00503523  0.75025060  1
  Ta  Ta116  1  0.30955607  0.30856680  0.24604601  1
  Ta  Ta117  1  0.31885008  0.31013018  0.75160368  1
  Ta  Ta118  1  0.39096689  0.66226375  0.25548849  1
  Ta  Ta119  1  0.27118696  0.66527799  0.75282098  1
  Ta  Ta120  1  0.71420304  -0.00419016  0.25183690  1
  Ta  Ta121  1  0.63255861  -0.00946208  0.75525129  1
  Ta  Ta122  1  0.67073428  0.37912699  0.24992873  1
  Ta  Ta123  1  0.68094861  0.36010890  0.74803369  1
  Ta  Ta124  1  0.65006316  0.64420663  0.24647079  1
  Ta  Ta125  1  0.66851598  0.69207238  0.73776606  1
  Ta  Ta126  1  0.03193538  0.00327263  -0.01566057  1
  Ta  Ta127  1  0.00067712  0.02724118  0.51290569  1
  Ta  Ta128  1  -0.00546466  0.35626350  0.00660183  1
  Ta  Ta129  1  0.00011074  0.37871950  0.49443230  1
  Ta  Ta130  1  -0.05613168  0.67271179  -0.00297498  1
  Ta  Ta131  1  0.00221321  0.62513352  0.48939282  1
  Ta  Ta132  1  0.29700508  -0.00711297  -0.00358848  1
  Ta  Ta133  1  0.31735869  -0.02657429  0.50133790  1
  Ta  Ta134  1  0.33448095  0.37187565  -0.00147719  1
  Ta  Ta135  1  0.39096573  0.33419977  0.50440624  1
  Ta  Ta136  1  0.34048411  0.62461329  -0.00053871  1
  Ta  Ta137  1  0.33461828  0.70766383  0.49171542  1
  Ta  Ta138  1  0.66854757  0.05067737  -0.00103561  1
  Ta  Ta139  1  0.68057590  0.02587488  0.49759484  1
  Ta  Ta140  1  0.66714561  0.28367070  0.00392677  1
  Ta  Ta141  1  0.61406326  0.33765465  0.50443449  1
  Ta  Ta142  1  0.72121309  0.67122915  -0.00157478  1
  Ta  Ta143  1  0.69683303  0.68867256  0.51625674  1
  N  N144  1  0.48146276  0.84279714  0.62836128  1
  N  N145  1  0.33020409  -0.00464785  0.62365780  1
  N  N146  1  0.17428102  0.48817181  0.37091585  1
  N  N147  1  0.00904446  0.33252214  0.37074230  1
  N  N148  1  0.50681281  0.16560770  0.62464649  1
  N  N149  1  0.00015900  0.01274352  0.86307934  1
  N  N150  1  0.16502118  0.82551299  0.61674023  1
  N  N151  1  0.67168459  0.00499464  0.37578455  1
  N  N152  1  -0.01144262  0.34944383  0.62458757  1
  N  N153  1  0.50245451  0.49903678  0.12163876  1
  N  N154  1  0.33121852  0.33132928  0.87089416  1
  N  N155  1  0.83601604  0.17094498  0.62437558  1
  N  N156  1  0.33278120  0.33112951  0.12557190  1
  N  N157  1  0.16980791  0.15455044  0.37608719  1
  N  N158  1  0.16241734  0.50397403  0.62251273  1
  N  N159  1  0.66142771  0.00989461  0.87657592  1
  N  N160  1  0.65863680  0.34084930  0.62700924  1
  N  N161  1  0.00263595  0.66678453  0.37100375  1
  N  N162  1  0.17482622  0.16919460  0.62327786  1
  N  N163  1  0.83473024  0.49735057  0.62296243  1
  N  N164  1  0.81675329  0.83108467  0.85835935  1
  N  N165  1  -0.00702772  -0.00628010  0.38525931  1
  N  N166  1  0.49694841  0.82435600  0.12645761  1
  N  N167  1  0.32916656  -0.00595678  0.87453411  1
  N  N168  1  0.67899580  0.66337110  0.12487535  1
  N  N169  1  0.63282164  0.67997830  0.61988819  1
  N  N170  1  0.50833232  0.16577471  0.87261819  1
  N  N171  1  -0.00997363  -0.00956107  0.63629283  1
  N  N172  1  0.34423370  0.66529062  0.37177544  1
  N  N173  1  0.83162165  0.50100970  0.36772884  1
  N  N174  1  0.15600110  0.83378622  0.88018118  1
  N  N175  1  0.49515646  0.82689883  0.37708804  1
  N  N176  1  0.16869118  0.15096721  0.12358092  1
  O  O177  1  0.83381562  0.52026269  0.12807391  1
  O  O178  1  0.66758298  0.33344225  0.12872881  1
  O  O179  1  0.84318014  0.83171537  0.63226041  1
  O  O180  1  -0.01846844  0.68059315  0.12371723  1
  O  O181  1  0.34900903  0.64604931  0.12668463  1
  O  O182  1  0.83395955  0.83844124  0.12441206  1
  O  O183  1  0.67269561  0.32441342  0.88078943  1
  O  O184  1  0.66107611  0.00835724  0.62479548  1
  O  O185  1  0.14621239  0.84304106  0.12284141  1
  O  O186  1  0.18259086  0.50055213  0.87823229  1
  O  O187  1  0.48877090  0.17282290  0.37085609  1
  O  O188  1  0.83543821  0.50388421  0.87540829  1
  O  O189  1  0.68240624  0.66819550  0.87366240  1
  O  O190  1  0.83962098  0.16096166  0.36910264  1
  O  O191  1  -0.01657678  0.35058985  0.88061201  1
  O  O192  1  0.34833992  0.32669002  0.62404225  1
  O  O193  1  0.82281375  0.14882775  0.12875975  1
  O  O194  1  0.67411020  0.01361752  0.12845391  1
  O  O195  1  0.01587049  0.66016888  0.62199377  1
  O  O196  1  0.32840025  0.00865811  0.36922742  1
  O  O197  1  0.49583428  0.16290717  0.12325759  1
  O  O198  1  0.64839796  0.35358411  0.37346698  1
  O  O199  1  0.33125146  0.01605619  0.12352545  1
  O  O200  1  0.48631121  0.83042934  0.87226249  1
  O  O201  1  0.82111922  0.82765019  0.38099671  1
  O  O202  1  0.15588535  0.82611315  0.37627495  1
  O  O203  1  -0.00032970  0.66507024  0.87902851  1
  O  O204  1  0.00705243  0.34001570  0.12997784  1
  O  O205  1  0.31764400  0.66937953  0.62981601  1
  O  O206  1  0.17283639  0.15755132  0.88168230  1
  O  O207  1  0.51541989  0.50891376  0.88061897  1
  O  O208  1  0.50803332  0.48894877  0.63344157  1
  O  O209  1  0.31570348  0.64884680  0.87633776  1
  O  O210  1  0.50822600  0.49270118  0.37263796  1
  O  O211  1  -0.00456128  -0.00246583  0.11654115  1
  O  O212  1  0.67125115  0.66439329  0.38921519  1
  O  O213  1  0.82839345  0.17774407  0.87876346  1
  O  O214  1  0.18851739  0.49128214  0.12983904  1
  O  O215  1  0.34757706  0.32278117  0.38119070  1
