# generated using pymatgen
data_Sr24Ta24N11O13
_symmetry_space_group_name_H-M   'P 1'
_cell_length_a   17.51514597
_cell_length_b   16.55640647
_cell_length_c   15.19861112
_cell_angle_alpha   90.36341386
_cell_angle_beta   88.29562691
_cell_angle_gamma   88.77234381
_symmetry_Int_Tables_number   1
_chemical_formula_structural   Sr24Ta24N11O13
_chemical_formula_sum   'Sr72 Ta72 N33 O39'
_cell_volume   4404.34440966
_cell_formula_units_Z   3
loop_
 _symmetry_equiv_pos_site_id
 _symmetry_equiv_pos_as_xyz
  1  'x, y, z'
loop_
 _atom_site_type_symbol
 _atom_site_label
 _atom_site_symmetry_multiplicity
 _atom_site_fract_x
 _atom_site_fract_y
 _atom_site_fract_z
 _atom_site_occupancy
  Sr  Sr0  1  -0.00126670  0.15124941  0.09848299  1
  Sr  Sr1  1  -0.03136560  0.16246139  0.65908387  1
  Sr  Sr2  1  0.00583301  0.50091460  0.14633779  1
  Sr  Sr3  1  -0.01235915  0.48668699  0.57631220  1
  Sr  Sr4  1  -0.05970843  0.83945659  0.17377880  1
  Sr  Sr5  1  -0.02213861  0.82864396  0.62638819  1
  Sr  Sr6  1  0.30542037  0.16595862  0.13967551  1
  Sr  Sr7  1  0.30162576  0.16772683  0.63436928  1
  Sr  Sr8  1  0.33737137  0.48522875  0.09264874  1
  Sr  Sr9  1  0.28276857  0.50149601  0.66582479  1
  Sr  Sr10  1  0.33359927  0.81872691  0.14747784  1
  Sr  Sr11  1  0.31597143  0.81751698  0.62402193  1
  Sr  Sr12  1  0.66527287  0.17005790  0.14077422  1
  Sr  Sr13  1  0.65866990  0.15585743  0.57962941  1
  Sr  Sr14  1  0.62816740  0.49721182  0.16646510  1
  Sr  Sr15  1  0.67884853  0.49976868  0.61258275  1
  Sr  Sr16  1  0.65211433  0.81822691  0.10491176  1
  Sr  Sr17  1  0.63695411  0.83281969  0.65335993  1
  Sr  Sr18  1  0.20640899  -0.00388331  0.13097020  1
  Sr  Sr19  1  0.20248052  -0.01162217  0.59444665  1
  Sr  Sr20  1  0.18393296  0.34337009  0.16109194  1
  Sr  Sr21  1  0.15669117  0.34503901  0.60561569  1
  Sr  Sr22  1  0.21375342  0.65625600  0.07211962  1
  Sr  Sr23  1  0.16214587  0.68819804  0.66084824  1
  Sr  Sr24  1  0.54096045  0.00680867  0.09682818  1
  Sr  Sr25  1  0.50528197  0.01208895  0.65660529  1
  Sr  Sr26  1  0.51320617  0.33492978  0.11958174  1
  Sr  Sr27  1  0.54709837  0.33889869  0.59991079  1
  Sr  Sr28  1  0.51283390  0.67996989  0.15306887  1
  Sr  Sr29  1  0.50057879  0.67772769  0.61760600  1
  Sr  Sr30  1  0.83121208  0.02245145  0.17693618  1
  Sr  Sr31  1  0.83252815  0.00120100  0.60939995  1
  Sr  Sr32  1  0.87311705  0.33096989  0.08790389  1
  Sr  Sr33  1  0.84149472  0.35029653  0.63689285  1
  Sr  Sr34  1  0.83250093  0.67095555  0.12100628  1
  Sr  Sr35  1  0.86623140  0.64877500  0.57555267  1
  Sr  Sr36  1  -0.02245974  0.13936649  0.37037904  1
  Sr  Sr37  1  -0.00847502  0.16521284  0.87493491  1
  Sr  Sr38  1  0.01612091  0.51590175  0.36017566  1
  Sr  Sr39  1  -0.02682440  0.51097266  0.93778856  1
  Sr  Sr40  1  -0.01122958  0.84141683  0.38568473  1
  Sr  Sr41  1  -0.01429251  0.81949063  0.85889423  1
  Sr  Sr42  1  0.30230298  0.17504013  0.38559776  1
  Sr  Sr43  1  0.33853236  0.15578090  0.84621273  1
  Sr  Sr44  1  0.30963564  0.47639251  0.38818871  1
  Sr  Sr45  1  0.33107930  0.49501884  0.87929525  1
  Sr  Sr46  1  0.33395740  0.83922279  0.38018947  1
  Sr  Sr47  1  0.27741029  0.82860713  0.92533683  1
  Sr  Sr48  1  0.67274232  0.16405892  0.36087778  1
  Sr  Sr49  1  0.64685675  0.17592503  0.91929165  1
  Sr  Sr50  1  0.60980796  0.49692310  0.39283957  1
  Sr  Sr51  1  0.66567225  0.48647878  0.83791737  1
  Sr  Sr52  1  0.61437356  0.80804516  0.38624138  1
  Sr  Sr53  1  0.66862325  0.84204275  0.87883196  1
  Sr  Sr54  1  0.19270226  -0.00496914  0.36634424  1
  Sr  Sr55  1  0.14342096  0.01159947  0.93797281  1
  Sr  Sr56  1  0.16082916  0.34739438  0.38201612  1
  Sr  Sr57  1  0.19784506  0.32035414  0.81235918  1
  Sr  Sr58  1  0.19927368  0.69653750  0.35991115  1
  Sr  Sr59  1  0.15216979  0.67008364  0.87505590  1
  Sr  Sr60  1  0.52420766  0.02792927  0.39338347  1
  Sr  Sr61  1  0.52546512  0.00646709  0.87361897  1
  Sr  Sr62  1  0.51242284  0.32703137  0.37300865  1
  Sr  Sr63  1  0.50767261  0.34717657  0.89282227  1
  Sr  Sr64  1  0.48139144  0.66528579  0.38604527  1
  Sr  Sr65  1  0.54882620  0.66963767  0.84205712  1
  Sr  Sr66  1  0.83966245  -0.00052109  0.38710200  1
  Sr  Sr67  1  0.84427861  -0.01260973  0.82864440  1
  Sr  Sr68  1  0.88292348  0.37302762  0.38391445  1
  Sr  Sr69  1  0.83628772  0.33410530  0.87020848  1
  Sr  Sr70  1  0.89249530  0.67689028  0.33181463  1
  Sr  Sr71  1  0.84380617  0.67306168  0.90885025  1
  Ta  Ta72  1  0.17811370  0.21802210  -0.01123528  1
  Ta  Ta73  1  0.11965884  0.15326272  0.50797258  1
  Ta  Ta74  1  0.16386759  0.44851861  -0.01038664  1
  Ta  Ta75  1  0.16509944  0.54944237  0.49627041  1
  Ta  Ta76  1  0.09853529  0.83441039  0.02983713  1
  Ta  Ta77  1  0.14033036  0.83088072  0.50114713  1
  Ta  Ta78  1  0.45390317  0.16743996  0.00160987  1
  Ta  Ta79  1  0.45709700  0.17689835  0.51809302  1
  Ta  Ta80  1  0.51559353  0.52966951  -0.00376994  1
  Ta  Ta81  1  0.44450045  0.49465952  0.52457914  1
  Ta  Ta82  1  0.46832751  0.83319239  -0.01036216  1
  Ta  Ta83  1  0.47751031  0.86831282  0.52159560  1
  Ta  Ta84  1  0.82771226  0.13052080  -0.00541878  1
  Ta  Ta85  1  0.83391967  0.20063627  0.49079620  1
  Ta  Ta86  1  0.78428766  0.49783892  0.01104114  1
  Ta  Ta87  1  0.79441192  0.52660123  0.40023423  1
  Ta  Ta88  1  0.82881428  0.86472858  0.00453739  1
  Ta  Ta89  1  0.78848522  0.81856048  0.47446185  1
  Ta  Ta90  1  0.12752749  0.16281835  0.24756768  1
  Ta  Ta91  1  0.15509414  0.09775520  0.75481812  1
  Ta  Ta92  1  0.18516012  0.53513373  0.23807594  1
  Ta  Ta93  1  0.10103799  0.50374947  0.75670839  1
  Ta  Ta94  1  0.12928015  0.83820776  0.22383447  1
  Ta  Ta95  1  0.15605006  0.88328337  0.77110841  1
  Ta  Ta96  1  0.46725560  0.16566770  0.24490791  1
  Ta  Ta97  1  0.52712014  0.19529903  0.75242693  1
  Ta  Ta98  1  0.45189594  0.49434980  0.25283209  1
  Ta  Ta99  1  0.47370589  0.49746808  0.73752438  1
  Ta  Ta100  1  0.49636862  0.87759166  0.24541501  1
  Ta  Ta101  1  0.43924290  0.83614333  0.78253196  1
  Ta  Ta102  1  0.83941490  0.21725920  0.25816944  1
  Ta  Ta103  1  0.78571397  0.17036349  0.74396114  1
  Ta  Ta104  1  0.80936381  0.49052575  0.21008626  1
  Ta  Ta105  1  0.86469308  0.52364628  0.76448966  1
  Ta  Ta106  1  0.76847931  0.82397728  0.27541707  1
  Ta  Ta107  1  0.81658049  0.79471253  0.73720764  1
  Ta  Ta108  1  0.03862387  -0.00447858  0.24445796  1
  Ta  Ta109  1  0.03267559  -0.00713976  0.75356711  1
  Ta  Ta110  1  0.01039132  0.29313691  0.24840509  1
  Ta  Ta111  1  0.00144869  0.37910071  0.75616666  1
  Ta  Ta112  1  0.06568912  0.68407080  0.22499708  1
  Ta  Ta113  1  -0.01556125  0.63021757  0.75523935  1
  Ta  Ta114  1  0.39173332  0.01078492  0.24856728  1
  Ta  Ta115  1  0.30994791  -0.02768668  0.77570893  1
  Ta  Ta116  1  0.36167907  0.33172119  0.25231167  1
  Ta  Ta117  1  0.38737449  0.33514001  0.72849023  1
  Ta  Ta118  1  0.34070005  0.62591397  0.23912958  1
  Ta  Ta119  1  0.35739752  0.67627136  0.78728097  1
  Ta  Ta120  1  0.66355444  -0.03579605  0.26059059  1
  Ta  Ta121  1  0.67655726  0.04016984  0.75200352  1
  Ta  Ta122  1  0.72463882  0.34596629  0.26163955  1
  Ta  Ta123  1  0.67448106  0.29573691  0.74656221  1
  Ta  Ta124  1  0.69907579  0.65311974  0.27038046  1
  Ta  Ta125  1  0.73076992  0.65904713  0.74042830  1
  Ta  Ta126  1  -0.05088882  -0.02505566  0.00025540  1
  Ta  Ta127  1  0.03333592  0.00147831  0.50723960  1
  Ta  Ta128  1  0.05413093  0.33072542  -0.01428848  1
  Ta  Ta129  1  0.00236687  0.28182895  0.51156866  1
  Ta  Ta130  1  0.01609370  0.69563969  0.03968044  1
  Ta  Ta131  1  0.05025002  0.67861736  0.48942512  1
  Ta  Ta132  1  0.36919989  -0.00302286  -0.00766394  1
  Ta  Ta133  1  0.37137655  0.00800735  0.51317192  1
  Ta  Ta134  1  0.31881495  0.30961568  -0.01720512  1
  Ta  Ta135  1  0.36662563  0.33346482  0.52941863  1
  Ta  Ta136  1  0.39326535  0.67138118  -0.01775335  1
  Ta  Ta137  1  0.31870624  0.63690032  0.51780821  1
  Ta  Ta138  1  0.72317853  0.00198121  0.00320162  1
  Ta  Ta139  1  0.67140141  -0.03954181  0.49844119  1
  Ta  Ta140  1  0.68227956  0.36192461  0.00671496  1
  Ta  Ta141  1  0.71754884  0.33558839  0.48113897  1
  Ta  Ta142  1  0.66722011  0.62814516  0.01049111  1
  Ta  Ta143  1  0.70420506  0.66452688  0.47015898  1
  N  N144  1  0.67703235  0.01397045  0.38479257  1
  N  N145  1  0.51161700  0.16697884  0.62561965  1
  N  N146  1  0.29558379  0.00127251  0.90299929  1
  N  N147  1  0.67754085  0.00400014  0.88422111  1
  N  N148  1  0.66835105  0.65506341  0.13760044  1
  N  N149  1  0.50219910  0.50406752  0.85825215  1
  N  N150  1  0.17424564  0.49321239  0.10769604  1
  N  N151  1  0.87066945  0.49569639  0.08988210  1
  N  N152  1  0.82704803  0.15461437  0.36362618  1
  N  N153  1  0.84780643  0.83760559  0.36466720  1
  N  N154  1  0.87860822  0.52069322  0.30020668  1
  N  N155  1  0.66798873  -0.00392552  0.63029804  1
  N  N156  1  0.49192604  0.84205939  0.11593117  1
  N  N157  1  -0.01177699  -0.00496668  0.87820308  1
  N  N158  1  0.34630954  0.32810871  0.84803067  1
  N  N159  1  -0.03036447  0.67572120  0.15989005  1
  N  N160  1  0.48856318  0.49890179  0.11800519  1
  N  N161  1  0.69220295  0.33419970  0.60846248  1
  N  N162  1  0.02146980  -0.00723868  0.37628777  1
  N  N163  1  0.35607741  0.65804542  0.11490340  1
  N  N164  1  0.49552873  0.16985182  0.88453356  1
  N  N165  1  0.46423341  0.49556050  0.39864266  1
  N  N166  1  0.83160260  0.50025635  0.88695223  1
  N  N167  1  0.62798471  0.65019807  0.37283569  1
  N  N168  1  0.13312876  0.84686323  0.89595492  1
  N  N169  1  -0.00367140  0.33303345  0.63804952  1
  N  N170  1  0.68312051  0.00299141  0.13943206  1
  N  N171  1  0.03598387  0.67721686  0.36216338  1
  N  N172  1  0.16685026  0.51238881  0.37009179  1
  N  N173  1  0.47363063  0.84119311  0.64832275  1
  N  N174  1  0.30338219  0.65962269  0.90134383  1
  N  N175  1  0.67297297  0.33380935  0.88160852  1
  N  N176  1  0.82346527  0.16649500  0.61895526  1
  O  O177  1  -0.02307905  0.00151000  0.13329345  1
  O  O178  1  0.17170387  0.15744523  0.87402044  1
  O  O179  1  0.14174031  0.15546326  0.37738955  1
  O  O180  1  0.46381472  0.17397430  0.37633456  1
  O  O181  1  0.16198470  0.84104221  0.63226047  1
  O  O182  1  0.33514226  0.32524643  0.12588240  1
  O  O183  1  0.47820727  0.84845206  0.37879233  1
  O  O184  1  -0.01811785  -0.01303960  0.62739648  1
  O  O185  1  0.34132327  0.00863336  0.64424029  1
  O  O186  1  0.35689846  0.32568313  0.38709011  1
  O  O187  1  0.66942515  0.32803855  0.13608736  1
  O  O188  1  0.29566311  0.32610577  0.64352362  1
  O  O189  1  0.52742824  0.84571500  0.86129882  1
  O  O190  1  0.15717157  0.51162088  0.87181065  1
  O  O191  1  0.71563541  0.65061179  0.60969965  1
  O  O192  1  0.35727774  0.01012759  0.38036576  1
  O  O193  1  0.13662191  0.50496173  0.62171358  1
  O  O194  1  0.84106430  0.17367408  0.12217951  1
  O  O195  1  0.84147516  0.16421333  0.86887705  1
  O  O196  1  0.15292317  0.14037114  0.63492172  1
  O  O197  1  0.69648609  0.65102124  0.87018451  1
  O  O198  1  0.01599478  0.31131697  0.38181689  1
  O  O199  1  0.15897809  0.17910887  0.11972885  1
  O  O200  1  0.33451274  0.64699632  0.38620319  1
  O  O201  1  -0.00421768  0.66514509  0.88807836  1
  O  O202  1  0.32402785  0.66068911  0.65071328  1
  O  O203  1  0.53057124  0.51789981  0.61647089  1
  O  O204  1  0.34568950  -0.00371941  0.12812465  1
  O  O205  1  0.00806064  0.67141637  0.63119427  1
  O  O206  1  0.65309649  0.32812920  0.36671985  1
  O  O207  1  0.82709166  0.80651669  0.60634449  1
  O  O208  1  0.51286692  0.17196463  0.12019600  1
  O  O209  1  0.80350956  0.83016190  0.13358332  1
  O  O210  1  0.01917238  0.31526486  0.11970484  1
  O  O211  1  0.14957416  0.84440527  0.36775336  1
  O  O212  1  -0.00790255  0.32174486  0.87582355  1
  O  O213  1  0.19401690  0.84266326  0.10326337  1
  O  O214  1  0.86896851  0.50946149  0.49273271  1
  O  O215  1  0.82169857  0.82653401  0.86759142  1
