# generated using pymatgen
data_Sr24Ta24N11O13
_symmetry_space_group_name_H-M   'P 1'
_cell_length_a   16.81830286
_cell_length_b   16.79149439
_cell_length_c   15.71700340
_cell_angle_alpha   89.77846087
_cell_angle_beta   90.32228928
_cell_angle_gamma   90.14658409
_symmetry_Int_Tables_number   1
_chemical_formula_structural   Sr24Ta24N11O13
_chemical_formula_sum   'Sr72 Ta72 N33 O39'
_cell_volume   4438.43383610
_cell_formula_units_Z   3
loop_
 _symmetry_equiv_pos_site_id
 _symmetry_equiv_pos_as_xyz
  1  'x, y, z'
loop_
 _atom_site_type_symbol
 _atom_site_label
 _atom_site_symmetry_multiplicity
 _atom_site_fract_x
 _atom_site_fract_y
 _atom_site_fract_z
 _atom_site_occupancy
  Sr  Sr0  1  0.00315924  0.18818365  0.13896527  1
  Sr  Sr1  1  -0.01442948  0.17291069  0.58055539  1
  Sr  Sr2  1  0.00566441  0.51870888  0.08480637  1
  Sr  Sr3  1  0.01077025  0.49871943  0.64739677  1
  Sr  Sr4  1  0.01445943  0.82956226  0.16854341  1
  Sr  Sr5  1  0.01037718  0.83804421  0.63372724  1
  Sr  Sr6  1  0.34698424  0.14681185  0.11359115  1
  Sr  Sr7  1  0.34546310  0.15468746  0.62746379  1
  Sr  Sr8  1  0.34411003  0.49006565  0.15119148  1
  Sr  Sr9  1  0.34010177  0.49262189  0.61937185  1
  Sr  Sr10  1  0.31492324  0.83055691  0.07959729  1
  Sr  Sr11  1  0.34463104  0.81874590  0.61928109  1
  Sr  Sr12  1  0.66585000  0.16876949  0.12200739  1
  Sr  Sr13  1  0.68063228  0.15303387  0.66759376  1
  Sr  Sr14  1  0.68046490  0.48867400  0.11685974  1
  Sr  Sr15  1  0.66798127  0.49666907  0.62550054  1
  Sr  Sr16  1  0.66071051  0.83103584  0.13592685  1
  Sr  Sr17  1  0.67592944  0.83495902  0.59258313  1
  Sr  Sr18  1  0.16865327  0.00754498  0.11704034  1
  Sr  Sr19  1  0.16654124  0.00626920  0.66213875  1
  Sr  Sr20  1  0.14614788  0.34576117  0.12170313  1
  Sr  Sr21  1  0.16186286  0.32567141  0.64638250  1
  Sr  Sr22  1  0.16259061  0.67008824  0.12133576  1
  Sr  Sr23  1  0.15239833  0.67571355  0.60794291  1
  Sr  Sr24  1  0.51651395  0.01005434  0.16893892  1
  Sr  Sr25  1  0.49116846  -0.00144487  0.60855653  1
  Sr  Sr26  1  0.49001250  0.33507775  0.11095822  1
  Sr  Sr27  1  0.49261341  0.33964593  0.58627936  1
  Sr  Sr28  1  0.48823456  0.69042202  0.11796534  1
  Sr  Sr29  1  0.49858623  0.65024884  0.66885955  1
  Sr  Sr30  1  0.82087799  0.02067576  0.07645188  1
  Sr  Sr31  1  0.84147322  -0.00584428  0.63270122  1
  Sr  Sr32  1  0.82342932  0.32533609  0.16673924  1
  Sr  Sr33  1  0.83280472  0.33632419  0.62038265  1
  Sr  Sr34  1  0.82904851  0.68746432  0.13546210  1
  Sr  Sr35  1  0.80209575  0.67013474  0.58959807  1
  Sr  Sr36  1  0.00235004  0.18282625  0.36745372  1
  Sr  Sr37  1  -0.00022009  0.15759141  0.92199073  1
  Sr  Sr38  1  0.01447816  0.51621337  0.40148772  1
  Sr  Sr39  1  0.00607655  0.49717815  0.86777740  1
  Sr  Sr40  1  0.01780379  0.82726784  0.37103686  1
  Sr  Sr41  1  0.00414394  0.84868579  0.83371320  1
  Sr  Sr42  1  0.35545321  0.14911523  0.39457578  1
  Sr  Sr43  1  0.33559414  0.15525220  0.85996526  1
  Sr  Sr44  1  0.32778303  0.50257080  0.36633317  1
  Sr  Sr45  1  0.34800390  0.48691462  0.86376362  1
  Sr  Sr46  1  0.32794171  0.83047475  0.41084638  1
  Sr  Sr47  1  0.35103057  0.81556440  0.87759973  1
  Sr  Sr48  1  0.66639994  0.16648726  0.33873942  1
  Sr  Sr49  1  0.67542482  0.15996931  0.87697719  1
  Sr  Sr50  1  0.68503374  0.48406818  0.39867571  1
  Sr  Sr51  1  0.66454186  0.49648209  0.86675756  1
  Sr  Sr52  1  0.66102696  0.82462023  0.36670977  1
  Sr  Sr53  1  0.68520781  0.82598115  0.90889128  1
  Sr  Sr54  1  0.14916654  0.00956121  0.33785352  1
  Sr  Sr55  1  0.18639462  -0.00096372  0.88782174  1
  Sr  Sr56  1  0.15375620  0.32747446  0.35918281  1
  Sr  Sr57  1  0.15072094  0.34624231  0.86938472  1
  Sr  Sr58  1  0.17002917  0.66668277  0.38762269  1
  Sr  Sr59  1  0.14654333  0.66980581  0.88152734  1
  Sr  Sr60  1  0.50289575  -0.00816204  0.38348275  1
  Sr  Sr61  1  0.50607878  0.02571844  0.82854250  1
  Sr  Sr62  1  0.48056732  0.34191385  0.38410737  1
  Sr  Sr63  1  0.50579988  0.32869581  0.91308179  1
  Sr  Sr64  1  0.49334862  0.66562995  0.33475753  1
  Sr  Sr65  1  0.49708333  0.67357823  0.87286645  1
  Sr  Sr66  1  0.84905845  0.00520510  0.41577969  1
  Sr  Sr67  1  0.82646623  0.00008617  0.86692298  1
  Sr  Sr68  1  0.83698577  0.33020585  0.37911084  1
  Sr  Sr69  1  0.81847424  0.34296845  0.83359926  1
  Sr  Sr70  1  0.82038072  0.67625081  0.36435491  1
  Sr  Sr71  1  0.82407588  0.66415934  0.91497915  1
  Ta  Ta72  1  0.18736246  0.19178021  -0.00345575  1
  Ta  Ta73  1  0.17675608  0.15261683  0.49737683  1
  Ta  Ta74  1  0.20768476  0.50154073  -0.00293549  1
  Ta  Ta75  1  0.17418023  0.46574897  0.49867125  1
  Ta  Ta76  1  0.12113333  0.83673496  0.00172138  1
  Ta  Ta77  1  0.16321027  0.87413398  0.50580624  1
  Ta  Ta78  1  0.50577716  0.13514908  -0.00306314  1
  Ta  Ta79  1  0.54680461  0.16576680  0.50196556  1
  Ta  Ta80  1  0.50192372  0.52324088  -0.00401792  1
  Ta  Ta81  1  0.50051107  0.53796872  0.50160845  1
  Ta  Ta82  1  0.50595615  0.87687196  0.00043156  1
  Ta  Ta83  1  0.50059102  0.77848155  0.49849096  1
  Ta  Ta84  1  0.83110203  0.21121853  0.00035240  1
  Ta  Ta85  1  0.79436422  0.16899640  0.50210631  1
  Ta  Ta86  1  0.83087825  0.46372537  -0.00122895  1
  Ta  Ta87  1  0.86339067  0.50648350  0.49984915  1
  Ta  Ta88  1  0.88150557  0.84317274  -0.00273234  1
  Ta  Ta89  1  0.86569384  0.82768100  0.50268398  1
  Ta  Ta90  1  0.20918747  0.17898619  0.25067805  1
  Ta  Ta91  1  0.10847661  0.16921881  0.75230009  1
  Ta  Ta92  1  0.13890833  0.50820061  0.25226570  1
  Ta  Ta93  1  0.18999243  0.52377904  0.75308833  1
  Ta  Ta94  1  0.21206271  0.83354711  0.24587098  1
  Ta  Ta95  1  0.19836685  0.82410901  0.74953586  1
  Ta  Ta96  1  0.49020504  0.19756294  0.25032863  1
  Ta  Ta97  1  0.50185108  0.21170070  0.74576216  1
  Ta  Ta98  1  0.53280760  0.49104275  0.25025909  1
  Ta  Ta99  1  0.50222354  0.45602638  0.74799422  1
  Ta  Ta100  1  0.43485954  0.83894605  0.24897036  1
  Ta  Ta101  1  0.52962830  0.84163075  0.74813046  1
  Ta  Ta102  1  0.83934043  0.13043341  0.25082243  1
  Ta  Ta103  1  0.87413803  0.16607901  0.75321932  1
  Ta  Ta104  1  0.86193209  0.51104976  0.25319851  1
  Ta  Ta105  1  0.83101193  0.54884927  0.74962459  1
  Ta  Ta106  1  0.83789255  0.88402862  0.24881433  1
  Ta  Ta107  1  0.81834212  0.80849758  0.75091516  1
  Ta  Ta108  1  -0.04421380  0.00647890  0.24692278  1
  Ta  Ta109  1  -0.00046859  0.04268229  0.75034331  1
  Ta  Ta110  1  -0.00512271  0.38867495  0.25028403  1
  Ta  Ta111  1  -0.00713463  0.29558254  0.75394553  1
  Ta  Ta112  1  -0.00230770  0.63263173  0.25364597  1
  Ta  Ta113  1  -0.05491321  0.66923982  0.74956564  1
  Ta  Ta114  1  0.32955801  -0.02885618  0.24875618  1
  Ta  Ta115  1  0.33722204  -0.03856354  0.74701549  1
  Ta  Ta116  1  0.32661818  0.29968842  0.24889913  1
  Ta  Ta117  1  0.37280170  0.32707339  0.74863928  1
  Ta  Ta118  1  0.32136646  0.69805336  0.25099340  1
  Ta  Ta119  1  0.30295946  0.65813302  0.74658650  1
  Ta  Ta120  1  0.71308266  -0.00215544  0.24568637  1
  Ta  Ta121  1  0.66512606  -0.04563861  0.75281913  1
  Ta  Ta122  1  0.63258195  0.34318193  0.24539590  1
  Ta  Ta123  1  0.62694688  0.33025115  0.75146429  1
  Ta  Ta124  1  0.65814835  0.62445341  0.25661211  1
  Ta  Ta125  1  0.68565533  0.68147581  0.74779999  1
  Ta  Ta126  1  0.00321345  -0.03640451  0.00192305  1
  Ta  Ta127  1  0.03654847  -0.00612422  0.50554301  1
  Ta  Ta128  1  -0.04547144  0.34197732  -0.00083966  1
  Ta  Ta129  1  0.00832796  0.36027975  0.50170611  1
  Ta  Ta130  1  -0.00402571  0.72087111  0.00120398  1
  Ta  Ta131  1  -0.02868988  0.67564882  0.49895220  1
  Ta  Ta132  1  0.38744640  -0.00464569  -0.00792893  1
  Ta  Ta133  1  0.28181632  -0.00096977  0.50524674  1
  Ta  Ta134  1  0.30640802  0.32590966  -0.00268131  1
  Ta  Ta135  1  0.29573890  0.32207908  0.50147653  1
  Ta  Ta136  1  0.33029229  0.62903609  -0.00034744  1
  Ta  Ta137  1  0.37319642  0.65570170  0.49644822  1
  Ta  Ta138  1  0.62643738  -0.00393418  -0.00075368  1
  Ta  Ta139  1  0.67068887  0.03174488  0.50013076  1
  Ta  Ta140  1  0.69815904  0.33268674  -0.00184330  1
  Ta  Ta141  1  0.66686659  0.29279050  0.50077748  1
  Ta  Ta142  1  0.64371043  0.64603968  0.00565779  1
  Ta  Ta143  1  0.61852068  0.66008833  0.49892855  1
  N  N144  1  0.83358023  0.16652509  0.62089163  1
  N  N145  1  0.50368156  0.49791764  0.87593148  1
  N  N146  1  0.83736218  0.17301445  0.12129726  1
  N  N147  1  0.65519966  0.66519115  0.63023290  1
  N  N148  1  0.17056118  0.50220835  0.87639900  1
  N  N149  1  0.50177435  0.49724574  0.62556922  1
  N  N150  1  -0.00563656  0.33295734  0.62338013  1
  N  N151  1  0.34988719  -0.01012996  0.87077345  1
  N  N152  1  0.17209905  0.83401741  0.62953325  1
  N  N153  1  -0.00514431  0.34263967  0.36922039  1
  N  N154  1  0.50253577  0.17422507  0.87913663  1
  N  N155  1  0.66618904  -0.01191479  0.87142771  1
  N  N156  1  -0.00431260  0.67236604  0.37352618  1
  N  N157  1  0.83914567  0.50521181  0.37965231  1
  N  N158  1  0.66219449  0.33135506  0.87473811  1
  N  N159  1  0.17112847  0.49668801  0.37467552  1
  N  N160  1  0.50906515  0.16647726  0.37672877  1
  N  N161  1  0.16664176  0.83764874  0.12806287  1
  N  N162  1  0.65914225  0.33214275  0.12564873  1
  N  N163  1  0.50250217  0.16781439  0.12925921  1
  N  N164  1  0.84035323  0.83526746  0.62255705  1
  N  N165  1  0.83484363  0.16528479  0.37263018  1
  N  N166  1  -0.00925305  0.33726358  0.87304763  1
  N  N167  1  0.84243345  0.83546566  0.87534667  1
  N  N168  1  0.83689304  0.17178715  0.87271296  1
  N  N169  1  0.50757885  0.16875935  0.62691478  1
  N  N170  1  0.66335997  0.65534013  0.37479937  1
  N  N171  1  0.17600346  0.16157364  0.37246127  1
  N  N172  1  0.66957317  -0.00119898  0.12764235  1
  N  N173  1  -0.01066412  0.35058543  0.12560229  1
  N  N174  1  0.00604904  0.00694766  0.62335502  1
  N  N175  1  0.33267423  -0.00655916  0.61880985  1
  N  N176  1  0.33404833  0.66459306  0.37338113  1
  O  O177  1  0.17542288  0.50190168  0.12639230  1
  O  O178  1  0.32007846  0.31825085  0.62787335  1
  O  O179  1  -0.00175749  0.00305216  0.37285480  1
  O  O180  1  -0.02020307  0.68373355  0.87278461  1
  O  O181  1  0.50547213  0.49344634  0.12722124  1
  O  O182  1  0.66851406  0.31705143  0.62581055  1
  O  O183  1  0.33272682  0.65122988  0.12699998  1
  O  O184  1  0.51307488  0.81714911  0.62597938  1
  O  O185  1  0.48483327  0.84892156  0.13046079  1
  O  O186  1  0.66008484  0.32075324  0.37554669  1
  O  O187  1  0.32600610  0.32857543  0.12119215  1
  O  O188  1  0.82923898  0.49978847  0.87244242  1
  O  O189  1  0.17712095  0.49399259  0.62693379  1
  O  O190  1  0.67367826  0.01206459  0.37447158  1
  O  O191  1  0.14797066  0.16753727  0.63088917  1
  O  O192  1  0.32590639  0.65936482  0.61866581  1
  O  O193  1  -0.00518570  0.67753474  0.13105219  1
  O  O194  1  0.18205073  0.17039927  0.12224479  1
  O  O195  1  0.32086887  0.31807773  0.37957548  1
  O  O196  1  0.83076934  0.51018820  0.62878245  1
  O  O197  1  0.84803403  0.85101552  0.37267718  1
  O  O198  1  0.00269756  -0.00250359  0.87824947  1
  O  O199  1  0.33080006  0.32697059  0.87022384  1
  O  O200  1  0.31653967  -0.00777915  0.37439549  1
  O  O201  1  0.83755503  0.48797134  0.12218909  1
  O  O202  1  0.84162413  0.84669708  0.12648966  1
  O  O203  1  0.00300621  -0.01443148  0.12906919  1
  O  O204  1  0.66195943  0.66251218  0.88114873  1
  O  O205  1  0.34000024  -0.01044471  0.11731531  1
  O  O206  1  0.17442837  0.84180593  0.37362815  1
  O  O207  1  0.51213932  0.84356401  0.87291325  1
  O  O208  1  0.50937976  0.49508820  0.37744999  1
  O  O209  1  0.47800072  0.82209006  0.37118206  1
  O  O210  1  0.65372823  0.65985036  0.12956262  1
  O  O211  1  0.32926480  0.65481259  0.87342663  1
  O  O212  1  0.66923828  0.00035902  0.62511986  1
  O  O213  1  0.16088655  0.83392285  0.87719403  1
  O  O214  1  0.16071293  0.18093758  0.87481250  1
  O  O215  1  -0.01403482  0.67145607  0.63237866  1
