# generated using pymatgen
data_Sr24Ta24N11O13
_symmetry_space_group_name_H-M   'P 1'
_cell_length_a   16.97122558
_cell_length_b   16.68994067
_cell_length_c   15.56580560
_cell_angle_alpha   89.44207434
_cell_angle_beta   90.27257936
_cell_angle_gamma   89.76389395
_symmetry_Int_Tables_number   1
_chemical_formula_structural   Sr24Ta24N11O13
_chemical_formula_sum   'Sr72 Ta72 N33 O39'
_cell_volume   4408.69774159
_cell_formula_units_Z   3
loop_
 _symmetry_equiv_pos_site_id
 _symmetry_equiv_pos_as_xyz
  1  'x, y, z'
loop_
 _atom_site_type_symbol
 _atom_site_label
 _atom_site_symmetry_multiplicity
 _atom_site_fract_x
 _atom_site_fract_y
 _atom_site_fract_z
 _atom_site_occupancy
  Sr  Sr0  1  0.00007711  0.15889678  0.11703889  1
  Sr  Sr1  1  0.04556772  0.15890270  0.65604486  1
  Sr  Sr2  1  0.01011036  0.50945493  0.07346294  1
  Sr  Sr3  1  -0.02506878  0.50435027  0.64200272  1
  Sr  Sr4  1  0.01854168  0.81284342  0.18054739  1
  Sr  Sr5  1  0.00727472  0.84642693  0.60553542  1
  Sr  Sr6  1  0.37752608  0.17190038  0.15046071  1
  Sr  Sr7  1  0.34164691  0.17489365  0.59753178  1
  Sr  Sr8  1  0.34458785  0.49985836  0.15156684  1
  Sr  Sr9  1  0.35460009  0.50119594  0.63468034  1
  Sr  Sr10  1  0.33765959  0.84397217  0.09393768  1
  Sr  Sr11  1  0.33844291  0.84143425  0.64375469  1
  Sr  Sr12  1  0.68590608  0.16238043  0.10393272  1
  Sr  Sr13  1  0.67099014  0.16839953  0.62994385  1
  Sr  Sr14  1  0.67840388  0.49152051  0.13231613  1
  Sr  Sr15  1  0.65601046  0.51160327  0.57939239  1
  Sr  Sr16  1  0.68834810  0.83624411  0.12327209  1
  Sr  Sr17  1  0.69591143  0.82521569  0.65602999  1
  Sr  Sr18  1  0.16817957  -0.00126084  0.12341083  1
  Sr  Sr19  1  0.15987175  -0.01801435  0.65552609  1
  Sr  Sr20  1  0.12299761  0.33075624  0.10237071  1
  Sr  Sr21  1  0.15564421  0.34438667  0.62140013  1
  Sr  Sr22  1  0.16934733  0.66204714  0.13679635  1
  Sr  Sr23  1  0.12280307  0.66716827  0.58914283  1
  Sr  Sr24  1  0.49942920  -0.01651163  0.15068839  1
  Sr  Sr25  1  0.47212489  0.00297126  0.58911432  1
  Sr  Sr26  1  0.50984803  0.34117297  0.10387975  1
  Sr  Sr27  1  0.48129095  0.32370105  0.66478511  1
  Sr  Sr28  1  0.47167696  0.66758673  0.11868445  1
  Sr  Sr29  1  0.48821612  0.66221795  0.62205502  1
  Sr  Sr30  1  0.82075820  0.00867027  0.07997251  1
  Sr  Sr31  1  0.81954722  0.00105904  0.62863536  1
  Sr  Sr32  1  0.83522422  0.31059780  0.16920117  1
  Sr  Sr33  1  0.81346882  0.34888451  0.60502572  1
  Sr  Sr34  1  0.82524872  0.66227597  0.11450337  1
  Sr  Sr35  1  0.82847347  0.67153061  0.66338753  1
  Sr  Sr36  1  0.00964985  0.18149585  0.33854590  1
  Sr  Sr37  1  0.02263781  0.15461895  0.89192220  1
  Sr  Sr38  1  0.01509840  0.48902249  0.43182370  1
  Sr  Sr39  1  -0.02114237  0.50145218  0.85798674  1
  Sr  Sr40  1  0.00066163  0.84548860  0.39030123  1
  Sr  Sr41  1  0.01944066  0.84347003  0.85480433  1
  Sr  Sr42  1  0.34367019  0.16722357  0.37569391  1
  Sr  Sr43  1  0.36295028  0.18602795  0.88750123  1
  Sr  Sr44  1  0.33607616  0.51551782  0.36022119  1
  Sr  Sr45  1  0.34992271  0.49041350  0.84509184  1
  Sr  Sr46  1  0.37313679  0.83937462  0.41834237  1
  Sr  Sr47  1  0.32044656  0.83801830  0.87531344  1
  Sr  Sr48  1  0.69453970  0.15437024  0.41091511  1
  Sr  Sr49  1  0.67363980  0.16738289  0.86013188  1
  Sr  Sr50  1  0.68297600  0.50120336  0.36409615  1
  Sr  Sr51  1  0.65716089  0.50438843  0.91474900  1
  Sr  Sr52  1  0.67306472  0.83793581  0.34438471  1
  Sr  Sr53  1  0.69306746  0.83207781  0.87736104  1
  Sr  Sr54  1  0.14181020  -0.00050509  0.34722616  1
  Sr  Sr55  1  0.17297032  -0.00309147  0.88160600  1
  Sr  Sr56  1  0.15664696  0.32795953  0.39393120  1
  Sr  Sr57  1  0.14036841  0.34112858  0.87278632  1
  Sr  Sr58  1  0.14630044  0.66842173  0.36627481  1
  Sr  Sr59  1  0.15212544  0.65571258  0.90286864  1
  Sr  Sr60  1  0.50373631  0.00726333  0.37178104  1
  Sr  Sr61  1  0.47805359  -0.02424155  0.87710953  1
  Sr  Sr62  1  0.46392042  0.33756495  0.32230909  1
  Sr  Sr63  1  0.50302437  0.33740385  0.88592213  1
  Sr  Sr64  1  0.49733528  0.64874902  0.40914601  1
  Sr  Sr65  1  0.47051670  0.67423278  0.84940218  1
  Sr  Sr66  1  0.83245865  -0.00586215  0.42001646  1
  Sr  Sr67  1  0.81050960  0.01082658  0.86781913  1
  Sr  Sr68  1  0.83176977  0.33774029  0.38430395  1
  Sr  Sr69  1  0.81965972  0.33065797  0.82954092  1
  Sr  Sr70  1  0.82123493  0.68799032  0.32547599  1
  Sr  Sr71  1  0.82962953  0.65841147  0.88822492  1
  Ta  Ta72  1  0.21644111  0.17639850  0.01819284  1
  Ta  Ta73  1  0.16437212  0.14418273  0.49444155  1
  Ta  Ta74  1  0.21643544  0.49162233  -0.00002826  1
  Ta  Ta75  1  0.20595086  0.50961943  0.50394118  1
  Ta  Ta76  1  0.13893121  0.82876436  0.00749141  1
  Ta  Ta77  1  0.19185957  0.83878148  0.49809295  1
  Ta  Ta78  1  0.51610623  0.13172852  -0.00168053  1
  Ta  Ta79  1  0.51154405  0.21813276  0.49628937  1
  Ta  Ta80  1  0.47917481  0.52438823  -0.00505404  1
  Ta  Ta81  1  0.49217636  0.44195810  0.49719388  1
  Ta  Ta82  1  0.52971327  0.81982222  -0.00354995  1
  Ta  Ta83  1  0.55421939  0.82710172  0.51220679  1
  Ta  Ta84  1  0.84339719  0.20320048  -0.01512040  1
  Ta  Ta85  1  0.88326952  0.16981534  0.51608119  1
  Ta  Ta86  1  0.83150848  0.45624231  -0.00587607  1
  Ta  Ta87  1  0.83040303  0.55151394  0.49997300  1
  Ta  Ta88  1  0.88573298  0.83385110  0.01032347  1
  Ta  Ta89  1  0.82596952  0.80293365  0.50127298  1
  Ta  Ta90  1  0.19642959  0.17776782  0.23166557  1
  Ta  Ta91  1  0.21102748  0.17398545  0.75802755  1
  Ta  Ta92  1  0.14631534  0.48231386  0.24864562  1
  Ta  Ta93  1  0.16887868  0.52492550  0.74363821  1
  Ta  Ta94  1  0.21906816  0.83124557  0.25720854  1
  Ta  Ta95  1  0.16351867  0.78937835  0.74831134  1
  Ta  Ta96  1  0.55711862  0.16804567  0.25493401  1
  Ta  Ta97  1  0.49728581  0.13260711  0.73963772  1
  Ta  Ta98  1  0.52126648  0.51989226  0.24457617  1
  Ta  Ta99  1  0.54325747  0.49992062  0.74598413  1
  Ta  Ta100  1  0.49207660  0.79953619  0.25414357  1
  Ta  Ta101  1  0.52563496  0.84315842  0.73244594  1
  Ta  Ta102  1  0.83297664  0.11515459  0.25390136  1
  Ta  Ta103  1  0.87411366  0.16694448  0.73592532  1
  Ta  Ta104  1  0.86531917  0.49908446  0.24940375  1
  Ta  Ta105  1  0.77562406  0.50416395  0.74903703  1
  Ta  Ta106  1  0.84233279  0.89143344  0.24528223  1
  Ta  Ta107  1  0.87090983  0.84351045  0.75171804  1
  Ta  Ta108  1  -0.03971659  0.00341724  0.25311628  1
  Ta  Ta109  1  -0.02643829  0.00094198  0.74994966  1
  Ta  Ta110  1  0.00013853  0.38981584  0.25833256  1
  Ta  Ta111  1  -0.01964158  0.31442245  0.73266201  1
  Ta  Ta112  1  -0.00452087  0.59993346  0.24944523  1
  Ta  Ta113  1  0.00912774  0.68440923  0.75380117  1
  Ta  Ta114  1  0.32131329  -0.01656677  0.26319560  1
  Ta  Ta115  1  0.33417167  0.03712841  0.74998367  1
  Ta  Ta116  1  0.27747440  0.33106921  0.23658461  1
  Ta  Ta117  1  0.30209474  0.31575068  0.75443922  1
  Ta  Ta118  1  0.33867653  0.71071234  0.26095021  1
  Ta  Ta119  1  0.27711618  0.66196863  0.73645162  1
  Ta  Ta120  1  0.69068104  0.01754574  0.25166694  1
  Ta  Ta121  1  0.62272585  -0.00574357  0.74174948  1
  Ta  Ta122  1  0.65098553  0.30801076  0.25109550  1
  Ta  Ta123  1  0.65534796  0.37332526  0.74793518  1
  Ta  Ta124  1  0.62182973  0.66409797  0.24823410  1
  Ta  Ta125  1  0.64864910  0.63875237  0.74860441  1
  Ta  Ta126  1  0.00276002  -0.04460059  0.01064032  1
  Ta  Ta127  1  0.01279831  0.04072500  0.50268155  1
  Ta  Ta128  1  -0.05655841  0.33091608  -0.00821540  1
  Ta  Ta129  1  -0.00928960  0.29566590  0.50805399  1
  Ta  Ta130  1  -0.00188947  0.70721146  0.01305485  1
  Ta  Ta131  1  -0.05683623  0.66949777  0.49220062  1
  Ta  Ta132  1  0.33923643  0.03456038  0.00905095  1
  Ta  Ta133  1  0.28489192  0.00075133  0.49571090  1
  Ta  Ta134  1  0.30760018  0.34730467  0.00457277  1
  Ta  Ta135  1  0.33602224  0.35337271  0.48967258  1
  Ta  Ta136  1  0.32254831  0.63320799  -0.00313036  1
  Ta  Ta137  1  0.29576538  0.66517264  0.51320119  1
  Ta  Ta138  1  0.63086114  -0.00680563  -0.00363686  1
  Ta  Ta139  1  0.65289893  -0.03672110  0.50756031  1
  Ta  Ta140  1  0.71318451  0.33027653  0.00217904  1
  Ta  Ta141  1  0.62296255  0.33471731  0.49164440  1
  Ta  Ta142  1  0.62333454  0.67696827  0.00311743  1
  Ta  Ta143  1  0.69283555  0.69185780  0.49144156  1
  N  N144  1  0.00064595  0.00138531  0.62858609  1
  N  N145  1  0.14986853  0.15836884  0.11728282  1
  N  N146  1  -0.00304518  0.35634865  0.61488079  1
  N  N147  1  -0.00065771  0.65710869  0.13519531  1
  N  N148  1  0.50294633  0.50103837  0.87445525  1
  N  N149  1  0.34091448  0.00272683  0.13698676  1
  N  N150  1  0.66854420  -0.00408424  0.37763808  1
  N  N151  1  0.50343782  0.48617614  0.61438754  1
  N  N152  1  0.31570046  0.34050579  0.36666344  1
  N  N153  1  0.66512091  0.66992218  0.36925839  1
  N  N154  1  0.48932339  0.82348579  0.61501636  1
  N  N155  1  0.33806997  0.67250285  0.62909063  1
  N  N156  1  0.66663100  -0.00479438  0.12130852  1
  N  N157  1  -0.00726398  0.00778797  0.37978385  1
  N  N158  1  0.34820643  0.00718529  0.39116478  1
  N  N159  1  0.16912967  0.82233628  0.88488182  1
  N  N160  1  0.32758117  0.33910370  0.87975803  1
  N  N161  1  0.84032375  0.16804931  0.86359457  1
  N  N162  1  0.82143329  0.49771946  0.86713009  1
  N  N163  1  -0.00546706  0.33983363  0.37597531  1
  N  N164  1  0.81494493  0.51385888  0.61953168  1
  N  N165  1  0.32864645  0.00791987  0.88115284  1
  N  N166  1  0.49974230  0.17147710  0.61828360  1
  N  N167  1  0.84314399  0.83847899  0.13303625  1
  N  N168  1  0.32007669  0.00840274  0.62440456  1
  N  N169  1  0.16610640  0.82802145  0.61881236  1
  N  N170  1  0.65726739  -0.00567455  0.86719237  1
  N  N171  1  0.84605977  0.83333904  0.62565670  1
  N  N172  1  0.67924074  0.32867909  0.12729909  1
  N  N173  1  0.66929435  0.00894240  0.62202991  1
  N  N174  1  0.50432593  0.49623017  0.12422112  1
  N  N175  1  0.82058223  0.17069601  0.62081412  1
  N  N176  1  0.18188819  0.82637038  0.13857809  1
  O  O177  1  0.33873546  0.67645014  0.38694122  1
  O  O178  1  0.66403080  0.34811238  0.88016306  1
  O  O179  1  0.18636086  0.17290061  0.88695564  1
  O  O180  1  0.17331540  0.49841200  0.37879476  1
  O  O181  1  0.18837037  0.16431811  0.62101394  1
  O  O182  1  0.35088651  0.34349620  0.13684882  1
  O  O183  1  0.84033440  0.84499629  0.37475057  1
  O  O184  1  0.01009486  0.00299363  0.12753467  1
  O  O185  1  0.67881217  0.34228495  0.37320600  1
  O  O186  1  0.52591299  0.82362275  0.86647935  1
  O  O187  1  -0.01914216  0.34242021  0.86030530  1
  O  O188  1  0.49059235  0.49019242  0.36971502  1
  O  O189  1  -0.01999465  0.67412020  0.62766718  1
  O  O190  1  0.63312594  0.66157467  0.87844680  1
  O  O191  1  0.65578128  0.34929335  0.61975050  1
  O  O192  1  0.51369382  0.15569277  0.87135831  1
  O  O193  1  0.31417887  0.65313104  0.86955139  1
  O  O194  1  0.66815220  0.66385762  0.62476226  1
  O  O195  1  0.18305503  0.50119061  0.86897388  1
  O  O196  1  0.49786959  0.82483232  0.12738840  1
  O  O197  1  -0.00162029  -0.00097703  0.88676474  1
  O  O198  1  0.84646478  0.15194511  0.37967910  1
  O  O199  1  0.83758576  0.49992741  0.37735831  1
  O  O200  1  -0.00859284  0.64427515  0.37438374  1
  O  O201  1  0.84038325  0.15838509  0.12684581  1
  O  O202  1  0.15010090  0.82802966  0.36901918  1
  O  O203  1  0.16937524  0.16023956  0.36491854  1
  O  O204  1  0.32219064  0.33663223  0.62802768  1
  O  O205  1  0.53430049  0.16395851  0.38150230  1
  O  O206  1  -0.01980323  0.34445877  0.13413483  1
  O  O207  1  0.14289453  0.50604452  0.62106669  1
  O  O208  1  0.15935342  0.49132062  0.11843025  1
  O  O209  1  0.32386870  0.66194364  0.12660902  1
  O  O210  1  0.53105782  0.15244832  0.12421688  1
  O  O211  1  0.66668446  0.67412597  0.12654883  1
  O  O212  1  -0.00194349  0.67106751  0.88221014  1
  O  O213  1  0.84820303  0.83143304  0.88004955  1
  O  O214  1  0.51664579  0.81039689  0.38138921  1
  O  O215  1  0.84266717  0.49623144  0.12055085  1
