# generated using pymatgen
data_Sr24Ta24N11O13
_symmetry_space_group_name_H-M   'P 1'
_cell_length_a   16.69943730
_cell_length_b   16.83094121
_cell_length_c   15.73220458
_cell_angle_alpha   89.72497876
_cell_angle_beta   89.84940246
_cell_angle_gamma   89.73471121
_symmetry_Int_Tables_number   1
_chemical_formula_structural   Sr24Ta24N11O13
_chemical_formula_sum   'Sr72 Ta72 N33 O39'
_cell_volume   4421.69408422
_cell_formula_units_Z   3
loop_
 _symmetry_equiv_pos_site_id
 _symmetry_equiv_pos_as_xyz
  1  'x, y, z'
loop_
 _atom_site_type_symbol
 _atom_site_label
 _atom_site_symmetry_multiplicity
 _atom_site_fract_x
 _atom_site_fract_y
 _atom_site_fract_z
 _atom_site_occupancy
  Sr  Sr0  1  -0.00848394  0.17867744  0.09342526  1
  Sr  Sr1  1  0.01486622  0.17406294  0.60925102  1
  Sr  Sr2  1  0.01382434  0.50055075  0.15945536  1
  Sr  Sr3  1  -0.00439655  0.52236480  0.62252190  1
  Sr  Sr4  1  0.01679671  0.82652222  0.09749927  1
  Sr  Sr5  1  -0.00615669  0.84657629  0.67203701  1
  Sr  Sr6  1  0.34716830  0.14602860  0.10392978  1
  Sr  Sr7  1  0.33315993  0.17094407  0.66249528  1
  Sr  Sr8  1  0.33856105  0.50915672  0.08217692  1
  Sr  Sr9  1  0.33698289  0.49661788  0.62661602  1
  Sr  Sr10  1  0.33576283  0.81824488  0.17016116  1
  Sr  Sr11  1  0.33418735  0.84966151  0.60949819  1
  Sr  Sr12  1  0.67944191  0.17222470  0.15197983  1
  Sr  Sr13  1  0.63456169  0.18878785  0.60706919  1
  Sr  Sr14  1  0.68768663  0.50561807  0.12476957  1
  Sr  Sr15  1  0.67073115  0.52332854  0.64903007  1
  Sr  Sr16  1  0.66549414  0.84553963  0.12421584  1
  Sr  Sr17  1  0.69812117  0.83209712  0.57760214  1
  Sr  Sr18  1  0.17829738  -0.00080017  0.13219066  1
  Sr  Sr19  1  0.15979008  -0.01210545  0.60674158  1
  Sr  Sr20  1  0.15258397  0.33736533  0.15384381  1
  Sr  Sr21  1  0.16815137  0.32431335  0.63160019  1
  Sr  Sr22  1  0.17205900  0.65390944  0.12313175  1
  Sr  Sr23  1  0.18867954  0.67505742  0.58344306  1
  Sr  Sr24  1  0.50793119  -0.00355857  0.08344531  1
  Sr  Sr25  1  0.49215085  0.00782179  0.63935787  1
  Sr  Sr26  1  0.49406605  0.31376720  0.14750966  1
  Sr  Sr27  1  0.48770898  0.34761258  0.58754667  1
  Sr  Sr28  1  0.50415188  0.66577688  0.12637365  1
  Sr  Sr29  1  0.49503182  0.64398052  0.66609735  1
  Sr  Sr30  1  0.82077265  -0.00442302  0.16066178  1
  Sr  Sr31  1  0.83739587  -0.00816299  0.63456097  1
  Sr  Sr32  1  0.82797637  0.31769238  0.10265024  1
  Sr  Sr33  1  0.80389924  0.31075267  0.62243915  1
  Sr  Sr34  1  0.84124899  0.65300894  0.11173218  1
  Sr  Sr35  1  0.83247072  0.65797059  0.62857013  1
  Sr  Sr36  1  -0.00206943  0.17246282  0.40965887  1
  Sr  Sr37  1  0.00451023  0.17893625  0.88982931  1
  Sr  Sr38  1  -0.00010570  0.51599288  0.37243607  1
  Sr  Sr39  1  0.00911185  0.49841838  0.84266432  1
  Sr  Sr40  1  -0.00386379  0.87614365  0.32316769  1
  Sr  Sr41  1  0.00454923  0.82085034  0.88362264  1
  Sr  Sr42  1  0.31657111  0.18015955  0.32255053  1
  Sr  Sr43  1  0.33925060  0.15854627  0.88445641  1
  Sr  Sr44  1  0.33662705  0.49026604  0.41467870  1
  Sr  Sr45  1  0.33460104  0.50568589  0.87487304  1
  Sr  Sr46  1  0.31736294  0.82557574  0.38702803  1
  Sr  Sr47  1  0.35659659  0.83157293  0.83200308  1
  Sr  Sr48  1  0.65667027  0.17975630  0.37445157  1
  Sr  Sr49  1  0.67687857  0.15291062  0.83443469  1
  Sr  Sr50  1  0.65978131  0.52404907  0.34802816  1
  Sr  Sr51  1  0.68440822  0.50704156  0.86904313  1
  Sr  Sr52  1  0.67359080  0.84522425  0.37545375  1
  Sr  Sr53  1  0.65690088  0.83472300  0.91561724  1
  Sr  Sr54  1  0.17942525  -0.00726504  0.36614744  1
  Sr  Sr55  1  0.15151373  -0.01246187  0.90209188  1
  Sr  Sr56  1  0.15666400  0.32766562  0.37185148  1
  Sr  Sr57  1  0.15728407  0.34108390  0.83680166  1
  Sr  Sr58  1  0.17406092  0.65667681  0.37749223  1
  Sr  Sr59  1  0.17681563  0.66095325  0.91130314  1
  Sr  Sr60  1  0.50031002  -0.01595903  0.42107587  1
  Sr  Sr61  1  0.49596235  0.01529571  0.86278021  1
  Sr  Sr62  1  0.49910111  0.33325457  0.36923705  1
  Sr  Sr63  1  0.45982943  0.33385470  0.93204408  1
  Sr  Sr64  1  0.50925150  0.67582022  0.33588795  1
  Sr  Sr65  1  0.49740763  0.65579848  0.87241974  1
  Sr  Sr66  1  0.82396174  -0.00762476  0.36558000  1
  Sr  Sr67  1  0.82922043  -0.00184470  0.84584087  1
  Sr  Sr68  1  0.82598251  0.30682888  0.39870259  1
  Sr  Sr69  1  0.81766301  0.31558114  0.89191812  1
  Sr  Sr70  1  0.82966626  0.65341065  0.39557689  1
  Sr  Sr71  1  0.84188248  0.66218786  0.86989735  1
  Ta  Ta72  1  0.16993876  0.20312844  -0.00164659  1
  Ta  Ta73  1  0.20393755  0.16486902  0.50300941  1
  Ta  Ta74  1  0.14705311  0.47665211  -0.00232051  1
  Ta  Ta75  1  0.15201177  0.47827794  0.50054469  1
  Ta  Ta76  1  0.22035519  0.82724662  -0.00137874  1
  Ta  Ta77  1  0.09935628  0.83315220  0.49327469  1
  Ta  Ta78  1  0.55156092  0.17261774  -0.00156730  1
  Ta  Ta79  1  0.45020937  0.17170860  0.49374792  1
  Ta  Ta80  1  0.53542368  0.49777237  0.00078284  1
  Ta  Ta81  1  0.51894664  0.52518039  0.49378561  1
  Ta  Ta82  1  0.46466448  0.82388370  -0.00112437  1
  Ta  Ta83  1  0.50510054  0.78982310  0.50696662  1
  Ta  Ta84  1  0.81865013  0.12832285  0.00015688  1
  Ta  Ta85  1  0.81762038  0.13275779  0.50035771  1
  Ta  Ta86  1  0.87637749  0.48928295  -0.00147631  1
  Ta  Ta87  1  0.82720500  0.47385993  0.50443536  1
  Ta  Ta88  1  0.83747141  0.87010679  -0.00080952  1
  Ta  Ta89  1  0.89610575  0.83204048  0.49767543  1
  Ta  Ta90  1  0.11880120  0.16514630  0.25069043  1
  Ta  Ta91  1  0.15769169  0.13320762  0.75057429  1
  Ta  Ta92  1  0.20889104  0.50000426  0.24733809  1
  Ta  Ta93  1  0.17720678  0.53687215  0.75034107  1
  Ta  Ta94  1  0.15204231  0.80633766  0.25246675  1
  Ta  Ta95  1  0.17718363  0.81030515  0.75357281  1
  Ta  Ta96  1  0.49921575  0.12181094  0.24512397  1
  Ta  Ta97  1  0.50042798  0.23333654  0.76176125  1
  Ta  Ta98  1  0.46340612  0.49630307  0.25067932  1
  Ta  Ta99  1  0.50191406  0.44550709  0.76391706  1
  Ta  Ta100  1  0.50688797  0.86593181  0.25363311  1
  Ta  Ta101  1  0.54216567  0.83013776  0.74206731  1
  Ta  Ta102  1  0.86335317  0.17360884  0.25100953  1
  Ta  Ta103  1  0.87048524  0.17035651  0.75255906  1
  Ta  Ta104  1  0.83632065  0.45338410  0.25033649  1
  Ta  Ta105  1  0.84219115  0.45962317  0.75143660  1
  Ta  Ta106  1  0.83779050  0.79920915  0.24671770  1
  Ta  Ta107  1  0.79860047  0.82685043  0.75673022  1
  Ta  Ta108  1  0.00240365  0.05433761  0.24822146  1
  Ta  Ta109  1  0.01195283  0.03461455  0.75023667  1
  Ta  Ta110  1  -0.02508185  0.31357356  0.25331441  1
  Ta  Ta111  1  -0.03516262  0.32600148  0.75104534  1
  Ta  Ta112  1  -0.00131473  0.69193037  0.24367168  1
  Ta  Ta113  1  0.05933006  0.67077375  0.75316206  1
  Ta  Ta114  1  0.38151497  -0.00664003  0.24751071  1
  Ta  Ta115  1  0.29372977  0.00015437  0.75447019  1
  Ta  Ta116  1  0.32838459  0.37964638  0.24801053  1
  Ta  Ta117  1  0.35610450  0.33869932  0.75804471  1
  Ta  Ta118  1  0.33410552  0.62587249  0.25276393  1
  Ta  Ta119  1  0.29185011  0.66655039  0.74622507  1
  Ta  Ta120  1  0.62291126  0.00402808  0.25318889  1
  Ta  Ta121  1  0.66506135  -0.06055994  0.74667713  1
  Ta  Ta122  1  0.68785173  0.35163308  0.25852915  1
  Ta  Ta123  1  0.63037640  0.34199754  0.75178800  1
  Ta  Ta124  1  0.69457459  0.69662801  0.25207773  1
  Ta  Ta125  1  0.66838599  0.71775556  0.74669675  1
  Ta  Ta126  1  -0.04307341  -0.00027815  0.00179372  1
  Ta  Ta127  1  -0.01273095  -0.01949448  0.50269450  1
  Ta  Ta128  1  0.01553886  0.36165790  -0.00604703  1
  Ta  Ta129  1  -0.00338046  0.36247398  0.50694575  1
  Ta  Ta130  1  0.00470024  0.62462210  -0.00345769  1
  Ta  Ta131  1  0.00209381  0.69891092  0.50036348  1
  Ta  Ta132  1  0.33556714  -0.04918859  -0.00114915  1
  Ta  Ta133  1  0.33045797  0.04538009  0.50378722  1
  Ta  Ta134  1  0.27557360  0.32943124  -0.00012942  1
  Ta  Ta135  1  0.31926100  0.29772032  0.49121212  1
  Ta  Ta136  1  0.34504020  0.70636669  0.00597289  1
  Ta  Ta137  1  0.38960872  0.66513082  0.49510553  1
  Ta  Ta138  1  0.68893800  0.01968478  0.00451254  1
  Ta  Ta139  1  0.67962986  0.02316204  0.50158907  1
  Ta  Ta140  1  0.64158382  0.33751187  0.00275824  1
  Ta  Ta141  1  0.66452319  0.39081532  0.49278400  1
  Ta  Ta142  1  0.65860528  0.65697517  -0.00529226  1
  Ta  Ta143  1  0.62818375  0.66631342  0.50241052  1
  N  N144  1  0.83680671  0.15975682  0.87197521  1
  N  N145  1  0.15292074  0.82996002  0.37537456  1
  N  N146  1  0.17863799  0.82742181  0.87646583  1
  N  N147  1  0.33137962  0.00593776  0.62702223  1
  N  N148  1  0.65809054  0.33963015  0.38319595  1
  N  N149  1  0.17136983  0.16154781  0.62553688  1
  N  N150  1  0.50894977  0.18279155  0.87698561  1
  N  N151  1  0.84681574  0.48106517  0.12822695  1
  N  N152  1  0.65961170  0.00498818  0.38023976  1
  N  N153  1  0.17498754  0.49787411  0.12488147  1
  N  N154  1  0.50943206  0.15767566  0.12007931  1
  N  N155  1  0.82985261  0.83496237  0.87878586  1
  N  N156  1  0.66933551  0.67659297  0.61953288  1
  N  N157  1  -0.00239051  0.00674516  0.62786418  1
  N  N158  1  0.32344149  0.33186219  0.37098672  1
  N  N159  1  0.34309515  0.66463673  0.12577403  1
  N  N160  1  0.83968700  0.48749698  0.87583213  1
  N  N161  1  0.31268841  0.33544869  0.87536348  1
  N  N162  1  0.50030242  0.50374348  0.37074306  1
  N  N163  1  0.82994356  0.15301056  0.37685142  1
  N  N164  1  0.33146172  -0.00724586  0.87286287  1
  N  N165  1  -0.00202099  0.33312791  0.87368506  1
  N  N166  1  0.01936488  0.66193043  0.87558947  1
  N  N167  1  0.34683092  0.66069647  0.37908482  1
  N  N168  1  0.82959626  0.49558255  0.62514080  1
  N  N169  1  0.17309296  0.50197072  0.87058970  1
  N  N170  1  0.66432376  0.67553288  0.87525372  1
  N  N171  1  0.49950512  0.49469857  0.87832783  1
  N  N172  1  0.67003509  0.68159538  0.37284908  1
  N  N173  1  0.00502553  0.66485299  0.12325063  1
  N  N174  1  0.83366654  0.15972191  0.12551806  1
  N  N175  1  0.34586301  -0.01356028  0.12785552  1
  N  N176  1  0.66594644  0.00421809  0.12741000  1
  O  O177  1  0.66807153  -0.02088514  0.62140145  1
  O  O178  1  0.84829539  0.83369353  0.62171254  1
  O  O179  1  0.84287801  0.15548485  0.62489863  1
  O  O180  1  0.15917968  0.48908867  0.37387301  1
  O  O181  1  -0.00191881  0.02017656  0.37915908  1
  O  O182  1  0.17737914  0.82100307  0.12552214  1
  O  O183  1  0.84574809  0.49885143  0.36995244  1
  O  O184  1  0.48166987  0.19437122  0.62032863  1
  O  O185  1  -0.01202763  0.33172734  0.38454850  1
  O  O186  1  0.34184921  -0.00044440  0.38312217  1
  O  O187  1  0.14557099  0.83004064  0.61481347  1
  O  O188  1  0.31577578  0.34824939  0.12215921  1
  O  O189  1  0.33942238  0.65822406  0.62450173  1
  O  O190  1  0.50115382  0.83999541  0.12795778  1
  O  O191  1  -0.01251404  0.00214655  0.87566554  1
  O  O192  1  0.32768549  0.33291258  0.62892906  1
  O  O193  1  0.65935509  0.33888743  0.87967070  1
  O  O194  1  0.47369837  0.16391748  0.36975916  1
  O  O195  1  0.01749802  0.67878863  0.63137325  1
  O  O196  1  0.00781281  0.34716153  0.62965632  1
  O  O197  1  0.16729425  0.17967411  0.87252007  1
  O  O198  1  0.50399146  0.82751370  0.87216260  1
  O  O199  1  -0.00460951  0.67167604  0.37704146  1
  O  O200  1  0.49561284  0.49405488  0.63705160  1
  O  O201  1  0.16856068  0.49573534  0.62263479  1
  O  O202  1  0.65944542  0.34321058  0.12912876  1
  O  O203  1  0.64608444  0.34681650  0.61584918  1
  O  O204  1  -0.01946887  0.01860606  0.12287729  1
  O  O205  1  -0.00515461  0.33047626  0.12753215  1
  O  O206  1  0.50996239  0.83550285  0.37975256  1
  O  O207  1  0.67094105  0.68026067  0.12573822  1
  O  O208  1  0.33563112  0.66998992  0.86759338  1
  O  O209  1  0.85395620  0.81938597  0.37389871  1
  O  O210  1  0.49353758  0.84084181  0.62309889  1
  O  O211  1  0.83452035  0.82483772  0.11952759  1
  O  O212  1  0.50018924  0.50127101  0.12308510  1
  O  O213  1  0.67043355  -0.01303637  0.86657781  1
  O  O214  1  0.15552412  0.16794411  0.37546573  1
  O  O215  1  0.14560453  0.18421583  0.12719121  1
