# generated using pymatgen
data_Sr24Ta24N11O13
_symmetry_space_group_name_H-M   'P 1'
_cell_length_a   16.68589148
_cell_length_b   17.08250080
_cell_length_c   15.63170678
_cell_angle_alpha   90.53125846
_cell_angle_beta   90.36692935
_cell_angle_gamma   90.27905633
_symmetry_Int_Tables_number   1
_chemical_formula_structural   Sr24Ta24N11O13
_chemical_formula_sum   'Sr72 Ta72 N33 O39'
_cell_volume   4455.27392641
_cell_formula_units_Z   3
loop_
 _symmetry_equiv_pos_site_id
 _symmetry_equiv_pos_as_xyz
  1  'x, y, z'
loop_
 _atom_site_type_symbol
 _atom_site_label
 _atom_site_symmetry_multiplicity
 _atom_site_fract_x
 _atom_site_fract_y
 _atom_site_fract_z
 _atom_site_occupancy
  Sr  Sr0  1  0.00256265  0.13281131  0.09128987  1
  Sr  Sr1  1  0.00532634  0.17397816  0.63250737  1
  Sr  Sr2  1  -0.01515376  0.50238063  0.13719398  1
  Sr  Sr3  1  0.00233830  0.48842493  0.59375607  1
  Sr  Sr4  1  0.00031495  0.82589870  0.15001957  1
  Sr  Sr5  1  0.00099563  0.80217096  0.62612587  1
  Sr  Sr6  1  0.33566682  0.15542273  0.11638202  1
  Sr  Sr7  1  0.35181339  0.13787027  0.62525682  1
  Sr  Sr8  1  0.34382152  0.49385428  0.16529176  1
  Sr  Sr9  1  0.32775479  0.47056233  0.61785486  1
  Sr  Sr10  1  0.33612230  0.79392113  0.10142103  1
  Sr  Sr11  1  0.33526232  0.83852434  0.63145529  1
  Sr  Sr12  1  0.67265732  0.15630891  0.16270583  1
  Sr  Sr13  1  0.65736984  0.14095639  0.60257430  1
  Sr  Sr14  1  0.65318687  0.48167063  0.07511468  1
  Sr  Sr15  1  0.68040372  0.50480973  0.63366757  1
  Sr  Sr16  1  0.67145175  0.82344373  0.12208040  1
  Sr  Sr17  1  0.68758879  0.80458966  0.62609339  1
  Sr  Sr18  1  0.16716895  0.01296860  0.13779015  1
  Sr  Sr19  1  0.14555353  0.03299150  0.61728925  1
  Sr  Sr20  1  0.16716156  0.37634178  0.15155961  1
  Sr  Sr21  1  0.15943359  0.33169266  0.61938075  1
  Sr  Sr22  1  0.15287417  0.67452419  0.08046251  1
  Sr  Sr23  1  0.17763527  0.68477525  0.64607968  1
  Sr  Sr24  1  0.49714073  0.03402251  0.15837091  1
  Sr  Sr25  1  0.50100185  0.00039774  0.61969285  1
  Sr  Sr26  1  0.49735167  0.33968670  0.10159274  1
  Sr  Sr27  1  0.51221782  0.35835233  0.62361045  1
  Sr  Sr28  1  0.50750214  0.66672834  0.12586064  1
  Sr  Sr29  1  0.48764675  0.69091457  0.61118018  1
  Sr  Sr30  1  0.81287287  -0.00360781  0.10563224  1
  Sr  Sr31  1  0.82893669  0.02624408  0.62738325  1
  Sr  Sr32  1  0.83526716  0.34654936  0.11414839  1
  Sr  Sr33  1  0.83116569  0.34611269  0.65666222  1
  Sr  Sr34  1  0.84368120  0.68506589  0.16965284  1
  Sr  Sr35  1  0.83930950  0.65771193  0.61122729  1
  Sr  Sr36  1  0.01706371  0.15717853  0.40208104  1
  Sr  Sr37  1  -0.00699374  0.17708287  0.86144636  1
  Sr  Sr38  1  -0.01542353  0.49036613  0.35613782  1
  Sr  Sr39  1  0.01298860  0.49692747  0.92296187  1
  Sr  Sr40  1  -0.00082431  0.81740225  0.37555059  1
  Sr  Sr41  1  0.00617843  0.80378884  0.85361544  1
  Sr  Sr42  1  0.33393760  0.12788470  0.34042884  1
  Sr  Sr43  1  0.35027000  0.16338891  0.90293179  1
  Sr  Sr44  1  0.33300037  0.48099965  0.37398617  1
  Sr  Sr45  1  0.32365068  0.47744129  0.83003318  1
  Sr  Sr46  1  0.34701915  0.81751016  0.40108420  1
  Sr  Sr47  1  0.33252947  0.82467423  0.86762490  1
  Sr  Sr48  1  0.66548131  0.16368023  0.37503518  1
  Sr  Sr49  1  0.66426878  0.13034707  0.84774313  1
  Sr  Sr50  1  0.66584965  0.49393480  0.40423640  1
  Sr  Sr51  1  0.67571567  0.49980482  0.85963918  1
  Sr  Sr52  1  0.67364255  0.79565178  0.34856778  1
  Sr  Sr53  1  0.67804361  0.82936117  0.89611333  1
  Sr  Sr54  1  0.15123879  0.00629319  0.35084820  1
  Sr  Sr55  1  0.15465190  0.04182050  0.90728858  1
  Sr  Sr56  1  0.15461118  0.35277915  0.38574239  1
  Sr  Sr57  1  0.16851287  0.34085400  0.85468630  1
  Sr  Sr58  1  0.17574091  0.70071972  0.41432343  1
  Sr  Sr59  1  0.16976167  0.66633217  0.86982755  1
  Sr  Sr60  1  0.49612184  0.01070818  0.38803121  1
  Sr  Sr61  1  0.48643075  0.01271337  0.84765316  1
  Sr  Sr62  1  0.50976348  0.35990933  0.39737696  1
  Sr  Sr63  1  0.50416626  0.34528020  0.87663577  1
  Sr  Sr64  1  0.48327341  0.66991949  0.34292406  1
  Sr  Sr65  1  0.50892058  0.68843202  0.91614931  1
  Sr  Sr66  1  0.82343177  0.03531950  0.40531098  1
  Sr  Sr67  1  0.82905543  0.00213551  0.88330075  1
  Sr  Sr68  1  0.83109598  0.33249643  0.32734593  1
  Sr  Sr69  1  0.83690600  0.35426097  0.89062113  1
  Sr  Sr70  1  0.83283816  0.66113255  0.38803097  1
  Sr  Sr71  1  0.82495189  0.67932586  0.83324083  1
  Ta  Ta72  1  0.16935100  0.22385771  0.01486098  1
  Ta  Ta73  1  0.20755324  0.17360569  0.49568553  1
  Ta  Ta74  1  0.21045820  0.49835089  -0.00502313  1
  Ta  Ta75  1  0.16899526  0.53298900  0.50257058  1
  Ta  Ta76  1  0.15462837  0.86608619  0.00150469  1
  Ta  Ta77  1  0.15754487  0.87635854  0.50280531  1
  Ta  Ta78  1  0.53567917  0.16364545  -0.00351063  1
  Ta  Ta79  1  0.48069932  0.19324678  0.48981930  1
  Ta  Ta80  1  0.45125668  0.50511416  -0.00163422  1
  Ta  Ta81  1  0.49217707  0.53844360  0.49284786  1
  Ta  Ta82  1  0.49184140  0.88817271  0.00713619  1
  Ta  Ta83  1  0.53616474  0.83420007  0.49460005  1
  Ta  Ta84  1  0.80661499  0.17786657  0.00160975  1
  Ta  Ta85  1  0.83951397  0.22047409  0.49367315  1
  Ta  Ta86  1  0.83239856  0.54507001  -0.00114960  1
  Ta  Ta87  1  0.83627476  0.45617095  0.49923515  1
  Ta  Ta88  1  0.85461489  0.81650611  -0.00522402  1
  Ta  Ta89  1  0.83581800  0.85720276  0.49863973  1
  Ta  Ta90  1  0.16204678  0.20152836  0.23674732  1
  Ta  Ta91  1  0.20454024  0.17127804  0.75083105  1
  Ta  Ta92  1  0.16327784  0.54865909  0.25156330  1
  Ta  Ta93  1  0.12473832  0.50225040  0.75196642  1
  Ta  Ta94  1  0.18482318  0.81759319  0.24899911  1
  Ta  Ta95  1  0.16118148  0.89237904  0.75209802  1
  Ta  Ta96  1  0.49469410  0.21863542  0.25999968  1
  Ta  Ta97  1  0.50305713  0.19575722  0.74270311  1
  Ta  Ta98  1  0.53333441  0.49407933  0.24469436  1
  Ta  Ta99  1  0.49695893  0.54413831  0.75075173  1
  Ta  Ta100  1  0.49795900  0.85747169  0.24432798  1
  Ta  Ta101  1  0.52599571  0.82763584  0.75530918  1
  Ta  Ta102  1  0.87425804  0.15253634  0.24961923  1
  Ta  Ta103  1  0.81653308  0.19028760  0.74719077  1
  Ta  Ta104  1  0.78255291  0.50360962  0.23769172  1
  Ta  Ta105  1  0.87953029  0.50420249  0.75423945  1
  Ta  Ta106  1  0.83338954  0.87871750  0.27181157  1
  Ta  Ta107  1  0.83945339  0.86236904  0.74053677  1
  Ta  Ta108  1  -0.03866429  0.00232841  0.25714798  1
  Ta  Ta109  1  -0.00366332  -0.02751622  0.74158099  1
  Ta  Ta110  1  0.00829478  0.28393643  0.23396814  1
  Ta  Ta111  1  -0.00083561  0.36714847  0.75601359  1
  Ta  Ta112  1  0.04979397  0.66382606  0.24908019  1
  Ta  Ta113  1  0.00219207  0.61849113  0.75510825  1
  Ta  Ta114  1  0.33490331  -0.05895849  0.24194455  1
  Ta  Ta115  1  0.29217011  0.00524208  0.75892960  1
  Ta  Ta116  1  0.34056482  0.30649510  0.25119917  1
  Ta  Ta117  1  0.34317801  0.28802094  0.75118025  1
  Ta  Ta118  1  0.28257198  0.66781084  0.25383134  1
  Ta  Ta119  1  0.36712503  0.65350479  0.75357861  1
  Ta  Ta120  1  0.66773554  -0.02821740  0.26275237  1
  Ta  Ta121  1  0.66755247  -0.04252199  0.74640544  1
  Ta  Ta122  1  0.64836231  0.35389806  0.24391885  1
  Ta  Ta123  1  0.66772755  0.29571275  0.74826963  1
  Ta  Ta124  1  0.66711674  0.61742869  0.24078088  1
  Ta  Ta125  1  0.62436699  0.67148008  0.75970922  1
  Ta  Ta126  1  -0.00491313  -0.05019680  -0.00003349  1
  Ta  Ta127  1  -0.00823187  -0.03488040  0.51234732  1
  Ta  Ta128  1  0.02343016  0.31525105  0.01622335  1
  Ta  Ta129  1  -0.03673789  0.32996011  0.49220201  1
  Ta  Ta130  1  -0.03948749  0.67327811  0.00136168  1
  Ta  Ta131  1  0.02127595  0.64269156  0.50207913  1
  Ta  Ta132  1  0.34054517  -0.02849601  0.01645217  1
  Ta  Ta133  1  0.29871326  -0.00766887  0.49082455  1
  Ta  Ta134  1  0.31738994  0.35462651  -0.00435877  1
  Ta  Ta135  1  0.33614100  0.29101702  0.49714395  1
  Ta  Ta136  1  0.33311763  0.61473648  -0.00119265  1
  Ta  Ta137  1  0.33610829  0.63073632  0.49738152  1
  Ta  Ta138  1  0.63184152  0.00391547  0.00440720  1
  Ta  Ta139  1  0.66787891  -0.04988297  0.49326783  1
  Ta  Ta140  1  0.67206048  0.27926950  0.00130302  1
  Ta  Ta141  1  0.70194294  0.32426695  0.49296918  1
  Ta  Ta142  1  0.71340322  0.66250967  0.00404551  1
  Ta  Ta143  1  0.63213770  0.66338194  0.49131141  1
  N  N144  1  0.65838303  -0.00346247  0.13538458  1
  N  N145  1  0.84074102  0.49434874  0.61896700  1
  N  N146  1  0.00286009  0.65662180  0.88661237  1
  N  N147  1  0.83639929  0.50832445  0.87159064  1
  N  N148  1  0.84259613  0.81846948  0.62247384  1
  N  N149  1  0.66060696  0.01019206  0.38747490  1
  N  N150  1  0.66476359  0.66334835  0.87761019  1
  N  N151  1  0.82623371  0.50030232  0.12252926  1
  N  N152  1  -0.00395915  0.34890012  0.13343628  1
  N  N153  1  0.84470174  0.17951130  0.36759858  1
  N  N154  1  0.50604580  0.17170729  0.61506175  1
  N  N155  1  0.66712808  0.32342454  0.11931669  1
  N  N156  1  0.66540165  0.66384811  0.11778308  1
  N  N157  1  0.16939356  0.50440497  0.87246896  1
  N  N158  1  0.66272274  -0.01495063  0.62330876  1
  N  N159  1  0.00431135  0.65200751  0.62373568  1
  N  N160  1  0.65915402  0.64956301  0.37243897  1
  N  N161  1  0.50532300  0.16249178  0.36511262  1
  N  N162  1  0.67293069  0.33044111  0.37206454  1
  N  N163  1  0.18360080  0.17772480  0.62376381  1
  N  N164  1  0.17685227  0.16114559  0.11795659  1
  N  N165  1  0.51019720  0.16906818  0.87543669  1
  N  N166  1  0.65969468  -0.01541581  0.87985122  1
  N  N167  1  0.49606159  0.51002526  0.36722759  1
  N  N168  1  -0.01144255  0.01722523  0.62295827  1
  N  N169  1  0.83998005  0.81683224  0.37446721  1
  N  N170  1  0.00298473  0.67043163  0.13286115  1
  N  N171  1  0.84066888  0.83208008  0.87183310  1
  N  N172  1  0.32559581  0.65600246  0.37386300  1
  N  N173  1  0.49427555  0.50140943  0.11674152  1
  N  N174  1  0.32276984  -0.02157313  0.36978678  1
  N  N175  1  0.32576683  0.00462558  0.13856178  1
  N  N176  1  0.33781000  0.32750989  0.87445774  1
  O  O177  1  0.34604105  0.66123124  0.87713352  1
  O  O178  1  0.83819944  0.83919559  0.14594490  1
  O  O179  1  -0.01945723  -0.02070277  0.12588154  1
  O  O180  1  -0.01235525  0.00489249  0.38430364  1
  O  O181  1  0.17192291  0.51259867  0.62934396  1
  O  O182  1  0.51967112  0.83667851  0.62453192  1
  O  O183  1  0.18286751  0.18835079  0.88627979  1
  O  O184  1  0.50683701  0.83310984  0.11661117  1
  O  O185  1  0.66729494  0.31701812  0.62323662  1
  O  O186  1  -0.00965151  0.34017064  0.62898640  1
  O  O187  1  0.16281666  0.84734676  0.37483440  1
  O  O188  1  0.16683551  0.87738326  0.87991001  1
  O  O189  1  -0.00681182  -0.03154710  0.87628218  1
  O  O190  1  0.33749802  0.65720688  0.62980344  1
  O  O191  1  0.16486122  0.51549850  0.37848950  1
  O  O192  1  0.50508312  0.83737252  0.36772948  1
  O  O193  1  0.17743798  0.17758267  0.36767980  1
  O  O194  1  0.66715772  0.31716915  0.87326315  1
  O  O195  1  0.00416306  0.66492723  0.37248915  1
  O  O196  1  0.31154336  -0.00664467  0.63050702  1
  O  O197  1  0.83842303  0.18346441  0.62226743  1
  O  O198  1  0.33707764  0.33422412  0.12774975  1
  O  O199  1  0.33593251  0.31653767  0.62397238  1
  O  O200  1  0.32396651  0.64909157  0.13086015  1
  O  O201  1  0.00513773  0.34137931  0.88438831  1
  O  O202  1  0.82721713  0.16061094  0.12524086  1
  O  O203  1  0.64966371  0.65848914  0.62858435  1
  O  O204  1  0.32348394  0.32069661  0.37385745  1
  O  O205  1  0.31488332  -0.00139408  0.88657556  1
  O  O206  1  0.17122945  0.52175481  0.11739510  1
  O  O207  1  0.51248762  0.18266002  0.13349961  1
  O  O208  1  0.49983686  0.51917000  0.62602000  1
  O  O209  1  0.82723549  0.17913963  0.87207410  1
  O  O210  1  -0.00631496  0.31972966  0.36293612  1
  O  O211  1  0.49757963  0.51663153  0.87490447  1
  O  O212  1  0.16834175  0.82602649  0.12374284  1
  O  O213  1  0.16706330  0.86192429  0.62876308  1
  O  O214  1  0.50024580  0.84595498  0.87883106  1
  O  O215  1  0.82570910  0.48844187  0.37077809  1
