# generated using pymatgen
data_Sr24Ta24N11O13
_symmetry_space_group_name_H-M   'P 1'
_cell_length_a   17.24850301
_cell_length_b   16.76376574
_cell_length_c   15.55306446
_cell_angle_alpha   90.13940920
_cell_angle_beta   89.58667188
_cell_angle_gamma   89.68862067
_symmetry_Int_Tables_number   1
_chemical_formula_structural   Sr24Ta24N11O13
_chemical_formula_sum   'Sr72 Ta72 N33 O39'
_cell_volume   4496.96930013
_cell_formula_units_Z   3
loop_
 _symmetry_equiv_pos_site_id
 _symmetry_equiv_pos_as_xyz
  1  'x, y, z'
loop_
 _atom_site_type_symbol
 _atom_site_label
 _atom_site_symmetry_multiplicity
 _atom_site_fract_x
 _atom_site_fract_y
 _atom_site_fract_z
 _atom_site_occupancy
  Sr  Sr0  1  0.01454459  0.16405575  0.14693871  1
  Sr  Sr1  1  0.03532163  0.17621518  0.61099331  1
  Sr  Sr2  1  0.02011820  0.50004286  0.12576886  1
  Sr  Sr3  1  0.00280263  0.49604336  0.60996294  1
  Sr  Sr4  1  0.00740704  0.84247321  0.07980227  1
  Sr  Sr5  1  0.00428951  0.83547548  0.64031478  1
  Sr  Sr6  1  0.34166096  0.17474159  0.10322808  1
  Sr  Sr7  1  0.34260349  0.17497493  0.65809711  1
  Sr  Sr8  1  0.34563989  0.51048131  0.14758507  1
  Sr  Sr9  1  0.35692263  0.50009504  0.59568469  1
  Sr  Sr10  1  0.33068533  0.83583102  0.14551602  1
  Sr  Sr11  1  0.34708163  0.83613666  0.61360656  1
  Sr  Sr12  1  0.70143391  0.16197243  0.09873775  1
  Sr  Sr13  1  0.68761103  0.16909766  0.62513388  1
  Sr  Sr14  1  0.66976749  0.49724081  0.11348998  1
  Sr  Sr15  1  0.68434912  0.50996236  0.66869026  1
  Sr  Sr16  1  0.68770830  0.85121912  0.15523105  1
  Sr  Sr17  1  0.68833806  0.83785726  0.59936951  1
  Sr  Sr18  1  0.14927809  -0.00817917  0.13405869  1
  Sr  Sr19  1  0.15720227  -0.02629086  0.60200848  1
  Sr  Sr20  1  0.14783256  0.31916409  0.09456308  1
  Sr  Sr21  1  0.16363430  0.34709231  0.62993546  1
  Sr  Sr22  1  0.13920258  0.66573872  0.11472352  1
  Sr  Sr23  1  0.12935816  0.66394177  0.66929213  1
  Sr  Sr24  1  0.47174953  -0.00643430  0.12487648  1
  Sr  Sr25  1  0.45882281  0.00009001  0.65580642  1
  Sr  Sr26  1  0.47624738  0.33141216  0.15730606  1
  Sr  Sr27  1  0.48613737  0.31747699  0.59723212  1
  Sr  Sr28  1  0.49777869  0.66024938  0.08204782  1
  Sr  Sr29  1  0.49809393  0.66503158  0.64156477  1
  Sr  Sr30  1  0.83571932  0.00025969  0.11914435  1
  Sr  Sr31  1  0.82108064  -0.00089058  0.65212054  1
  Sr  Sr32  1  0.80267745  0.33458293  0.10074553  1
  Sr  Sr33  1  0.80620891  0.33146692  0.64097794  1
  Sr  Sr34  1  0.81224991  0.65293909  0.14913213  1
  Sr  Sr35  1  0.83504877  0.66584588  0.58783853  1
  Sr  Sr36  1  0.01440807  0.15514375  0.36556375  1
  Sr  Sr37  1  0.03198838  0.19372841  0.87591362  1
  Sr  Sr38  1  0.00789538  0.50991157  0.36949858  1
  Sr  Sr39  1  0.03888088  0.50039272  0.87105135  1
  Sr  Sr40  1  0.01667160  0.83914525  0.40937804  1
  Sr  Sr41  1  -0.00166432  0.82989037  0.86462141  1
  Sr  Sr42  1  0.36832478  0.17572668  0.34840520  1
  Sr  Sr43  1  0.33393658  0.16893322  0.87671017  1
  Sr  Sr44  1  0.34251284  0.49316814  0.37905334  1
  Sr  Sr45  1  0.36260432  0.52570251  0.87449467  1
  Sr  Sr46  1  0.32731253  0.84466758  0.37845002  1
  Sr  Sr47  1  0.36830381  0.82771756  0.87419371  1
  Sr  Sr48  1  0.68136585  0.17750273  0.41117775  1
  Sr  Sr49  1  0.68956757  0.16125425  0.86838317  1
  Sr  Sr50  1  0.68161734  0.49257167  0.32972250  1
  Sr  Sr51  1  0.66044283  0.49592184  0.88725885  1
  Sr  Sr52  1  0.67525878  0.82393962  0.37801332  1
  Sr  Sr53  1  0.69135163  0.86063250  0.86883528  1
  Sr  Sr54  1  0.16152738  -0.01087981  0.38374844  1
  Sr  Sr55  1  0.14091218  -0.03058463  0.87690611  1
  Sr  Sr56  1  0.13099367  0.32965376  0.39187667  1
  Sr  Sr57  1  0.17278953  0.33056542  0.86557074  1
  Sr  Sr58  1  0.20516031  0.66147855  0.31675981  1
  Sr  Sr59  1  0.14358494  0.66713177  0.88482549  1
  Sr  Sr60  1  0.47720826  -0.01229560  0.34697619  1
  Sr  Sr61  1  0.47456347  -0.00041663  0.87878621  1
  Sr  Sr62  1  0.50164294  0.33619630  0.37726745  1
  Sr  Sr63  1  0.47285973  0.30813228  0.87857025  1
  Sr  Sr64  1  0.49408573  0.68689852  0.43192765  1
  Sr  Sr65  1  0.51554594  0.66984701  0.86499010  1
  Sr  Sr66  1  0.81556609  0.01272787  0.36265251  1
  Sr  Sr67  1  0.83435340  -0.00262474  0.88139537  1
  Sr  Sr68  1  0.81213180  0.32768548  0.38359367  1
  Sr  Sr69  1  0.79390272  0.33234862  0.87367195  1
  Sr  Sr70  1  0.82989329  0.66055806  0.36946963  1
  Sr  Sr71  1  0.80541976  0.64317562  0.88029951  1
  Ta  Ta72  1  0.16993128  0.13000428  -0.00669056  1
  Ta  Ta73  1  0.21112366  0.16734850  0.49884847  1
  Ta  Ta74  1  0.21363610  0.50800491  0.00263975  1
  Ta  Ta75  1  0.17339799  0.56270359  0.49733371  1
  Ta  Ta76  1  0.20057893  0.82624693  -0.00057127  1
  Ta  Ta77  1  0.17132061  0.76841888  0.49522707  1
  Ta  Ta78  1  0.53186278  0.15782912  0.00467678  1
  Ta  Ta79  1  0.49721966  0.12800672  0.50376492  1
  Ta  Ta80  1  0.49470543  0.46326499  0.00724716  1
  Ta  Ta81  1  0.54764412  0.50258659  0.49872165  1
  Ta  Ta82  1  0.54406161  0.84156885  -0.00137906  1
  Ta  Ta83  1  0.51492453  0.87058909  0.50824505  1
  Ta  Ta84  1  0.88111515  0.17393876  -0.00669842  1
  Ta  Ta85  1  0.86743828  0.16426708  0.50224501  1
  Ta  Ta86  1  0.86873975  0.49697260  -0.00411006  1
  Ta  Ta87  1  0.81566550  0.48602109  0.50261599  1
  Ta  Ta88  1  0.83090788  0.79848789  0.00565121  1
  Ta  Ta89  1  0.85698873  0.85897582  0.49825341  1
  Ta  Ta90  1  0.19551192  0.17089884  0.24416742  1
  Ta  Ta91  1  0.16989343  0.12427489  0.75749283  1
  Ta  Ta92  1  0.18144635  0.46590704  0.25129227  1
  Ta  Ta93  1  0.21774138  0.51010840  0.74330012  1
  Ta  Ta94  1  0.12987936  0.82945828  0.24794799  1
  Ta  Ta95  1  0.20215695  0.82545738  0.75534356  1
  Ta  Ta96  1  0.55024952  0.16254119  0.25244237  1
  Ta  Ta97  1  0.53243198  0.16386097  0.74356669  1
  Ta  Ta98  1  0.50640560  0.54253916  0.25995576  1
  Ta  Ta99  1  0.50126574  0.45998246  0.74733448  1
  Ta  Ta100  1  0.50479373  0.80179004  0.25568594  1
  Ta  Ta101  1  0.54425811  0.84085082  0.74118878  1
  Ta  Ta102  1  0.83496634  0.19142697  0.24679688  1
  Ta  Ta103  1  0.88274905  0.17341295  0.76189253  1
  Ta  Ta104  1  0.85697017  0.46785123  0.24033944  1
  Ta  Ta105  1  0.86527665  0.49748891  0.75432077  1
  Ta  Ta106  1  0.87819521  0.83255759  0.25095977  1
  Ta  Ta107  1  0.83195446  0.79423764  0.74413466  1
  Ta  Ta108  1  -0.01005843  -0.03746124  0.24630449  1
  Ta  Ta109  1  0.00058952  0.03636557  0.76136987  1
  Ta  Ta110  1  -0.03743922  0.33795827  0.24262654  1
  Ta  Ta111  1  -0.03601616  0.34241259  0.76364627  1
  Ta  Ta112  1  -0.00578272  0.71221198  0.25053067  1
  Ta  Ta113  1  -0.05117341  0.65458414  0.74474067  1
  Ta  Ta114  1  0.30132854  0.02296592  0.24541553  1
  Ta  Ta115  1  0.28702933  -0.01058722  0.75387338  1
  Ta  Ta116  1  0.28384370  0.33357524  0.24624328  1
  Ta  Ta117  1  0.33608992  0.36964255  0.74810314  1
  Ta  Ta118  1  0.39864645  0.67197911  0.25775368  1
  Ta  Ta119  1  0.30620495  0.66936323  0.73933973  1
  Ta  Ta120  1  0.64890868  0.03495909  0.25590356  1
  Ta  Ta121  1  0.62854950  0.00404481  0.73445190  1
  Ta  Ta122  1  0.66298564  0.30012096  0.24847886  1
  Ta  Ta123  1  0.61860258  0.32777940  0.75309249  1
  Ta  Ta124  1  0.61196719  0.66821418  0.25717196  1
  Ta  Ta125  1  0.67913185  0.70304954  0.74093494  1
  Ta  Ta126  1  -0.00040209  0.03304635  -0.00596156  1
  Ta  Ta127  1  -0.03874337  0.00564007  0.50500734  1
  Ta  Ta128  1  -0.03812568  0.34228296  -0.01395067  1
  Ta  Ta129  1  -0.04452556  0.32740785  0.50229470  1
  Ta  Ta130  1  -0.04306838  0.65865809  -0.00000411  1
  Ta  Ta131  1  0.02776147  0.66680498  0.49888378  1
  Ta  Ta132  1  0.29341102  -0.00919318  -0.00597293  1
  Ta  Ta133  1  0.33281510  0.03479802  0.49933392  1
  Ta  Ta134  1  0.32804790  0.37007620  0.00045449  1
  Ta  Ta135  1  0.31092651  0.30516811  0.49816256  1
  Ta  Ta136  1  0.30936525  0.67109608  0.00604780  1
  Ta  Ta137  1  0.30022088  0.66912674  0.50823489  1
  Ta  Ta138  1  0.63200168  0.00222174  0.00034445  1
  Ta  Ta139  1  0.61902911  0.00622760  0.51167167  1
  Ta  Ta140  1  0.61533128  0.32259589  0.00543713  1
  Ta  Ta141  1  0.66274384  0.38237573  0.49836988  1
  Ta  Ta142  1  0.67084130  0.71259725  0.00581860  1
  Ta  Ta143  1  0.66628785  0.61460252  0.49145904  1
  N  N144  1  0.18325467  0.17216511  0.87006507  1
  N  N145  1  0.50293666  0.83679286  0.38053934  1
  N  N146  1  0.84193032  0.82709670  0.12638473  1
  N  N147  1  0.66174207  0.66279355  0.37579877  1
  N  N148  1  0.52236495  0.83412679  0.87325885  1
  N  N149  1  0.31346699  0.00062733  0.62252633  1
  N  N150  1  0.01727269  0.34862937  0.87688483  1
  N  N151  1  0.33156381  -0.00322598  0.87113586  1
  N  N152  1  0.32258514  -0.00153046  0.12135832  1
  N  N153  1  0.49477633  0.16555946  0.62257752  1
  N  N154  1  0.65831746  0.33941104  0.37818662  1
  N  N155  1  0.32135127  0.33290548  0.12596764  1
  N  N156  1  0.83485094  0.16442902  0.87373446  1
  N  N157  1  0.32462267  0.00399723  0.37182177  1
  N  N158  1  0.83387811  0.49557479  0.11659752  1
  N  N159  1  -0.00771539  -0.00094750  0.12455351  1
  N  N160  1  0.49890868  0.82286531  0.62328584  1
  N  N161  1  0.84421807  0.83419745  0.62177826  1
  N  N162  1  0.32642192  0.33847611  0.87237072  1
  N  N163  1  0.64502772  0.32979700  0.87633672  1
  N  N164  1  -0.01334385  0.66463375  0.61986138  1
  N  N165  1  0.17398569  0.16493435  0.12025703  1
  N  N166  1  0.16338967  0.81536378  0.87307888  1
  N  N167  1  0.67631897  0.00945520  0.61965913  1
  N  N168  1  0.32790690  0.33212630  0.61936360  1
  N  N169  1  0.83480448  0.49693882  0.62567930  1
  N  N170  1  0.84630958  0.16529088  0.37910664  1
  N  N171  1  0.65310281  0.33747178  0.12939571  1
  N  N172  1  0.16453410  0.82250283  0.12558391  1
  N  N173  1  0.85123846  0.16787243  0.12277223  1
  N  N174  1  -0.01329246  -0.01279601  0.87410159  1
  N  N175  1  0.34931097  0.66996447  0.62355348  1
  N  N176  1  0.16869868  0.81297053  0.37652103  1
  O  O177  1  0.18530410  0.50749006  0.13232388  1
  O  O178  1  0.31180339  0.67183848  0.87824245  1
  O  O179  1  0.51883415  0.17628438  0.38201115  1
  O  O180  1  0.81192212  0.49090646  0.87253132  1
  O  O181  1  0.67656989  0.66408500  0.61800260  1
  O  O182  1  -0.01915354  0.00287448  0.37379101  1
  O  O183  1  -0.01926658  0.66401077  0.12739051  1
  O  O184  1  0.50418156  0.47368058  0.87954966  1
  O  O185  1  0.50798872  0.48951895  0.62414000  1
  O  O186  1  0.17187974  0.16968639  0.37987453  1
  O  O187  1  0.65762012  0.34158154  0.62519609  1
  O  O188  1  0.64135385  0.00688458  0.87244136  1
  O  O189  1  0.83265693  0.82080076  0.37844829  1
  O  O190  1  -0.02231570  0.66369215  0.87400342  1
  O  O191  1  0.17631522  0.51470861  0.37365642  1
  O  O192  1  0.83998597  0.16651394  0.63887691  1
  O  O193  1  0.51494740  0.15791706  0.13340268  1
  O  O194  1  -0.01763022  0.00610002  0.63221098  1
  O  O195  1  0.66066463  0.02029007  0.38296430  1
  O  O196  1  0.35040362  0.66816697  0.37885684  1
  O  O197  1  0.18591688  0.16056890  0.62786545  1
  O  O198  1  0.83664573  0.49801378  0.36555329  1
  O  O199  1  -0.03479716  0.33707310  0.62768434  1
  O  O200  1  0.51950509  0.15589410  0.87902469  1
  O  O201  1  0.20317926  0.51180526  0.87566235  1
  O  O202  1  -0.02542818  0.33288927  0.37590026  1
  O  O203  1  0.18776087  0.51448853  0.61916509  1
  O  O204  1  0.49718847  0.49285991  0.37751148  1
  O  O205  1  0.49922104  0.49698918  0.13200496  1
  O  O206  1  0.65029455  0.00675986  0.13157471  1
  O  O207  1  0.66759255  0.70067427  0.87299018  1
  O  O208  1  0.51285442  0.83657081  0.12687469  1
  O  O209  1  0.15943023  0.81499624  0.63160341  1
  O  O210  1  0.84101915  0.82519638  0.87080329  1
  O  O211  1  -0.00965081  0.67023704  0.37319428  1
  O  O212  1  0.65588378  0.68711704  0.13056324  1
  O  O213  1  0.35150311  0.67055032  0.12816232  1
  O  O214  1  -0.00734766  0.33722341  0.11860180  1
  O  O215  1  0.33616210  0.33303915  0.37191676  1
