# generated using pymatgen
data_Sr24Ta24N11O13
_symmetry_space_group_name_H-M   'P 1'
_cell_length_a   16.80434810
_cell_length_b   16.85986371
_cell_length_c   15.78185680
_cell_angle_alpha   89.97800212
_cell_angle_beta   89.96290896
_cell_angle_gamma   89.82895911
_symmetry_Int_Tables_number   1
_chemical_formula_structural   Sr24Ta24N11O13
_chemical_formula_sum   'Sr72 Ta72 N33 O39'
_cell_volume   4471.27899479
_cell_formula_units_Z   3
loop_
 _symmetry_equiv_pos_site_id
 _symmetry_equiv_pos_as_xyz
  1  'x, y, z'
loop_
 _atom_site_type_symbol
 _atom_site_label
 _atom_site_symmetry_multiplicity
 _atom_site_fract_x
 _atom_site_fract_y
 _atom_site_fract_z
 _atom_site_occupancy
  Sr  Sr0  1  -0.01049007  0.17847519  0.16237959  1
  Sr  Sr1  1  0.01181155  0.15820548  0.62618694  1
  Sr  Sr2  1  -0.01608367  0.48564043  0.07884859  1
  Sr  Sr3  1  -0.00020199  0.51910317  0.63763538  1
  Sr  Sr4  1  -0.00467539  0.83466229  0.13299337  1
  Sr  Sr5  1  0.00071982  0.84095766  0.58603420  1
  Sr  Sr6  1  0.31749758  0.14315539  0.11587517  1
  Sr  Sr7  1  0.33189099  0.16595826  0.66075786  1
  Sr  Sr8  1  0.31912156  0.48451790  0.11742451  1
  Sr  Sr9  1  0.34049154  0.48199960  0.59311082  1
  Sr  Sr10  1  0.34726584  0.81872565  0.16453259  1
  Sr  Sr11  1  0.33767520  0.83089340  0.61870477  1
  Sr  Sr12  1  0.65393486  0.14855366  0.11743640  1
  Sr  Sr13  1  0.65241712  0.16586448  0.60098246  1
  Sr  Sr14  1  0.65860157  0.49255222  0.14216923  1
  Sr  Sr15  1  0.64910525  0.47760921  0.65373189  1
  Sr  Sr16  1  0.65849324  0.81084381  0.08142110  1
  Sr  Sr17  1  0.67336681  0.81512658  0.64018357  1
  Sr  Sr18  1  0.15753617  -0.00567790  0.08107121  1
  Sr  Sr19  1  0.16892119  0.00987763  0.63733467  1
  Sr  Sr20  1  0.17140797  0.32140444  0.13637073  1
  Sr  Sr21  1  0.16548485  0.35414723  0.58574678  1
  Sr  Sr22  1  0.17150011  0.68378037  0.13419506  1
  Sr  Sr23  1  0.17041030  0.66682239  0.66091734  1
  Sr  Sr24  1  0.48611871  -0.00339429  0.13571944  1
  Sr  Sr25  1  0.50452205  0.00603834  0.59198364  1
  Sr  Sr26  1  0.52040653  0.35296543  0.10163398  1
  Sr  Sr27  1  0.49933838  0.32549210  0.63404086  1
  Sr  Sr28  1  0.50658552  0.66770800  0.13755236  1
  Sr  Sr29  1  0.49465061  0.67692619  0.62229369  1
  Sr  Sr30  1  0.84738132  0.01017995  0.15019319  1
  Sr  Sr31  1  0.82340124  0.02102669  0.63736921  1
  Sr  Sr32  1  0.84039763  0.34403826  0.13307633  1
  Sr  Sr33  1  0.85042508  0.35697663  0.64269672  1
  Sr  Sr34  1  0.83968028  0.68018547  0.11702916  1
  Sr  Sr35  1  0.84886882  0.68336012  0.60619615  1
  Sr  Sr36  1  0.01052212  0.16380837  0.37645315  1
  Sr  Sr37  1  -0.01156296  0.16312856  0.83921524  1
  Sr  Sr38  1  -0.01435646  0.49623608  0.41935142  1
  Sr  Sr39  1  0.00238088  0.50536984  0.86035556  1
  Sr  Sr40  1  -0.01542782  0.83444670  0.36090046  1
  Sr  Sr41  1  0.01285240  0.85009689  0.92148776  1
  Sr  Sr42  1  0.32835652  0.16197429  0.33849854  1
  Sr  Sr43  1  0.31955593  0.14892900  0.88038792  1
  Sr  Sr44  1  0.32409089  0.48270499  0.38610735  1
  Sr  Sr45  1  0.33198093  0.48809858  0.90115271  1
  Sr  Sr46  1  0.34135312  0.83408049  0.38278061  1
  Sr  Sr47  1  0.33211338  0.81491618  0.83566328  1
  Sr  Sr48  1  0.65035565  0.14487289  0.38585929  1
  Sr  Sr49  1  0.65716406  0.16159646  0.89573538  1
  Sr  Sr50  1  0.66281057  0.48977223  0.34554500  1
  Sr  Sr51  1  0.64855788  0.47960440  0.86272119  1
  Sr  Sr52  1  0.67150230  0.79658707  0.40779138  1
  Sr  Sr53  1  0.66919252  0.82518677  0.86719897  1
  Sr  Sr54  1  0.15423516  -0.01690011  0.41939616  1
  Sr  Sr55  1  0.16270741  0.00947505  0.86460857  1
  Sr  Sr56  1  0.17422405  0.32490163  0.36210212  1
  Sr  Sr57  1  0.17271073  0.35064528  0.91397297  1
  Sr  Sr58  1  0.16761122  0.68408989  0.33880903  1
  Sr  Sr59  1  0.17409437  0.67325349  0.86565980  1
  Sr  Sr60  1  0.48447812  0.00673367  0.35930901  1
  Sr  Sr61  1  0.51133474  0.00071082  0.91736903  1
  Sr  Sr62  1  0.51382992  0.34021752  0.40144914  1
  Sr  Sr63  1  0.50551148  0.33497277  0.86269021  1
  Sr  Sr64  1  0.49204083  0.66800092  0.38189662  1
  Sr  Sr65  1  0.51260430  0.67982370  0.85349869  1
  Sr  Sr66  1  0.83250064  0.01638825  0.35888925  1
  Sr  Sr67  1  0.83289698  0.01499688  0.85492499  1
  Sr  Sr68  1  0.83572484  0.35117836  0.36160091  1
  Sr  Sr69  1  0.85596334  0.34990046  0.86556287  1
  Sr  Sr70  1  0.84504603  0.67494587  0.38251933  1
  Sr  Sr71  1  0.84318606  0.68626792  0.89284335  1
  Ta  Ta72  1  0.12282180  0.17209025  -0.00140329  1
  Ta  Ta73  1  0.19862640  0.16732529  0.50450306  1
  Ta  Ta74  1  0.15620059  0.53630311  -0.00282619  1
  Ta  Ta75  1  0.16332996  0.54941080  0.49994648  1
  Ta  Ta76  1  0.21059116  0.82392622  0.00166245  1
  Ta  Ta77  1  0.16956689  0.79472967  0.50105651  1
  Ta  Ta78  1  0.47825238  0.18696931  0.00138020  1
  Ta  Ta79  1  0.45739844  0.16887354  0.49820901  1
  Ta  Ta80  1  0.50179171  0.53153169  -0.00183043  1
  Ta  Ta81  1  0.52853869  0.50949902  0.50139199  1
  Ta  Ta82  1  0.46581888  0.82083128  -0.00141838  1
  Ta  Ta83  1  0.51720922  0.84668112  0.50353729  1
  Ta  Ta84  1  0.84513763  0.17600816  0.00154668  1
  Ta  Ta85  1  0.84334168  0.20011596  0.50131541  1
  Ta  Ta86  1  0.79904051  0.50432493  -0.00118262  1
  Ta  Ta87  1  0.79260596  0.50424683  0.50061949  1
  Ta  Ta88  1  0.82927520  0.87621141  0.00623303  1
  Ta  Ta89  1  0.82477587  0.87365587  0.49537785  1
  Ta  Ta90  1  0.16071134  0.10783909  0.25000829  1
  Ta  Ta91  1  0.16530190  0.21984634  0.74811952  1
  Ta  Ta92  1  0.13188672  0.50578847  0.24900511  1
  Ta  Ta93  1  0.18914621  0.48033644  0.75229115  1
  Ta  Ta94  1  0.16701675  0.87569874  0.24422878  1
  Ta  Ta95  1  0.12075529  0.83917994  0.75056839  1
  Ta  Ta96  1  0.50273981  0.20639647  0.25416308  1
  Ta  Ta97  1  0.50838020  0.13153778  0.74689393  1
  Ta  Ta98  1  0.47170832  0.49437327  0.25142638  1
  Ta  Ta99  1  0.46442289  0.50658651  0.74912212  1
  Ta  Ta100  1  0.54839721  0.83134488  0.24552139  1
  Ta  Ta101  1  0.50617460  0.87727242  0.75289714  1
  Ta  Ta102  1  0.80141026  0.18916479  0.25305516  1
  Ta  Ta103  1  0.80131143  0.18916258  0.74881468  1
  Ta  Ta104  1  0.85901989  0.51647082  0.25353064  1
  Ta  Ta105  1  0.81885240  0.53329421  0.74926184  1
  Ta  Ta106  1  0.78849576  0.83561886  0.24833879  1
  Ta  Ta107  1  0.87252938  0.83866233  0.75101498  1
  Ta  Ta108  1  0.03633034  -0.00179375  0.24869149  1
  Ta  Ta109  1  -0.00036222  -0.03558092  0.74905554  1
  Ta  Ta110  1  0.00464224  0.38544176  0.24505285  1
  Ta  Ta111  1  0.04613471  0.33800568  0.75485083  1
  Ta  Ta112  1  -0.00281833  0.61186065  0.24930939  1
  Ta  Ta113  1  -0.00323795  0.71687117  0.74744251  1
  Ta  Ta114  1  0.28573304  -0.01036817  0.24930719  1
  Ta  Ta115  1  0.37820139  -0.00531708  0.75273527  1
  Ta  Ta116  1  0.37496037  0.33294403  0.25337066  1
  Ta  Ta117  1  0.30616021  0.34519669  0.74513820  1
  Ta  Ta118  1  0.34156565  0.63191574  0.25514089  1
  Ta  Ta119  1  0.33970105  0.61982533  0.74344133  1
  Ta  Ta120  1  0.66653656  -0.04733896  0.24873608  1
  Ta  Ta121  1  0.63831731  0.00672357  0.74993271  1
  Ta  Ta122  1  0.66443342  0.30105128  0.24638262  1
  Ta  Ta123  1  0.68495167  0.29930104  0.75290302  1
  Ta  Ta124  1  0.67729376  0.68227865  0.24427289  1
  Ta  Ta125  1  0.69573500  0.64522807  0.75459872  1
  Ta  Ta126  1  -0.01946951  0.03854509  -0.00014210  1
  Ta  Ta127  1  -0.03286790  0.00759321  0.49890909  1
  Ta  Ta128  1  0.00064582  0.29622126  0.00033069  1
  Ta  Ta129  1  -0.01498854  0.31562502  0.49883263  1
  Ta  Ta130  1  0.02416314  0.65806175  -0.00118762  1
  Ta  Ta131  1  0.04472185  0.66974280  0.50171135  1
  Ta  Ta132  1  0.33363590  -0.05258349  0.00308587  1
  Ta  Ta133  1  0.33030645  0.03365087  0.49714968  1
  Ta  Ta134  1  0.35418177  0.30696358  0.00063767  1
  Ta  Ta135  1  0.33604737  0.28959128  0.49813273  1
  Ta  Ta136  1  0.34012780  0.67826818  -0.00085753  1
  Ta  Ta137  1  0.29489385  0.66131059  0.50011399  1
  Ta  Ta138  1  0.70119534  -0.01344053  0.00239544  1
  Ta  Ta139  1  0.67335606  -0.03296052  0.49827437  1
  Ta  Ta140  1  0.70076840  0.33443256  -0.00217783  1
  Ta  Ta141  1  0.69556857  0.34747212  0.50592469  1
  Ta  Ta142  1  0.66669596  0.62755915  -0.00478654  1
  Ta  Ta143  1  0.66725379  0.62142262  0.50340699  1
  N  N144  1  0.49625350  0.16951544  0.37221988  1
  N  N145  1  0.66434600  0.32248010  0.87932890  1
  N  N146  1  0.50669052  0.83841430  0.62573999  1
  N  N147  1  0.33075743  0.65754331  0.37283553  1
  N  N148  1  -0.00275708  0.00074075  0.62455261  1
  N  N149  1  -0.00208567  0.00557220  0.87367040  1
  N  N150  1  0.00756813  0.67865512  0.62656779  1
  N  N151  1  0.67258664  0.32614989  0.62415010  1
  N  N152  1  0.50089434  0.49812537  0.37679140  1
  N  N153  1  0.67288172  0.66923911  0.87588882  1
  N  N154  1  -0.00214706  -0.00158869  0.37770336  1
  N  N155  1  0.16685725  0.50900891  0.87428083  1
  N  N156  1  0.67119830  0.32246068  0.12327309  1
  N  N157  1  0.50509408  0.83050797  0.12564711  1
  N  N158  1  0.49494758  0.15972548  0.62704546  1
  N  N159  1  0.17092146  0.18219692  0.62455148  1
  N  N160  1  0.49267911  0.49679318  0.87622403  1
  N  N161  1  0.00346579  0.33817947  0.13020362  1
  N  N162  1  0.82635131  0.84413574  0.37446043  1
  N  N163  1  0.49530361  0.50423536  0.12181382  1
  N  N164  1  0.32864882  0.32834127  0.62476707  1
  N  N165  1  0.33807622  0.32718389  0.37221317  1
  N  N166  1  0.33152943  0.65353222  0.62452313  1
  N  N167  1  0.83005752  0.50821089  0.37721098  1
  N  N168  1  0.67217394  0.65991428  0.12454714  1
  N  N169  1  0.32846092  -0.01575036  0.12010114  1
  N  N170  1  0.17155344  0.83724682  0.11802644  1
  N  N171  1  0.01318796  0.33445450  0.87621117  1
  N  N172  1  0.50057350  0.83769917  0.87817032  1
  N  N173  1  0.49632108  0.49576634  0.62416244  1
  N  N174  1  -0.00012742  0.00579198  0.11872179  1
  N  N175  1  0.32258020  0.00152380  0.37972181  1
  N  N176  1  0.83206100  0.84291467  0.12561886  1
  O  O177  1  0.33466550  0.32499328  0.87760276  1
  O  O178  1  0.49309075  0.16251668  0.87745180  1
  O  O179  1  0.15275463  0.52140296  0.37105578  1
  O  O180  1  0.67359804  0.33176661  0.37882924  1
  O  O181  1  0.66747616  0.65118096  0.62699380  1
  O  O182  1  0.00315921  0.64252354  0.12143258  1
  O  O183  1  0.67116478  0.64613515  0.37513769  1
  O  O184  1  0.16409134  0.83163965  0.87339325  1
  O  O185  1  0.35699208  -0.00676609  0.87894260  1
  O  O186  1  0.66208444  -0.00697540  0.62706283  1
  O  O187  1  0.16194536  0.51419736  0.62977383  1
  O  O188  1  0.34994867  0.00270621  0.62890639  1
  O  O189  1  0.84389678  0.84483875  0.62705106  1
  O  O190  1  0.33334908  0.65991325  0.87401553  1
  O  O191  1  0.15737899  0.50544991  0.12288392  1
  O  O192  1  0.16957400  0.83111220  0.37822643  1
  O  O193  1  0.01145406  0.67918454  0.87515180  1
  O  O194  1  0.82124244  0.18650567  0.37450849  1
  O  O195  1  0.82827604  0.18565122  0.62223570  1
  O  O196  1  0.00782954  0.32527776  0.62247006  1
  O  O197  1  -0.00604783  0.34325134  0.37424752  1
  O  O198  1  0.51282884  0.83124098  0.37168587  1
  O  O199  1  0.14848847  0.17390496  0.87325389  1
  O  O200  1  0.33538926  0.65931565  0.12364210  1
  O  O201  1  0.66820242  0.00143509  0.87577368  1
  O  O202  1  0.82205271  0.50707933  0.12385497  1
  O  O203  1  0.67593096  -0.01489982  0.12443391  1
  O  O204  1  0.82240870  0.50832431  0.87145888  1
  O  O205  1  0.16148581  0.82232193  0.62642789  1
  O  O206  1  0.82818618  0.17363266  0.87702682  1
  O  O207  1  0.49400706  0.17665092  0.12525205  1
  O  O208  1  0.14684121  0.15617334  0.12452238  1
  O  O209  1  0.82648690  0.17609825  0.12602204  1
  O  O210  1  0.16802741  0.14713764  0.37288125  1
  O  O211  1  0.66424847  -0.02078588  0.37424362  1
  O  O212  1  0.85439428  0.84752307  0.87708052  1
  O  O213  1  0.34149424  0.32264856  0.12667803  1
  O  O214  1  0.83927180  0.52119261  0.62095357  1
  O  O215  1  0.00220933  0.64483856  0.37985956  1
