# generated using pymatgen
data_Sr24Ta24N11O13
_symmetry_space_group_name_H-M   'P 1'
_cell_length_a   16.77036473
_cell_length_b   16.78763094
_cell_length_c   15.68649336
_cell_angle_alpha   89.92445754
_cell_angle_beta   89.82123907
_cell_angle_gamma   89.66487088
_symmetry_Int_Tables_number   1
_chemical_formula_structural   Sr24Ta24N11O13
_chemical_formula_sum   'Sr72 Ta72 N33 O39'
_cell_volume   4416.19133371
_cell_formula_units_Z   3
loop_
 _symmetry_equiv_pos_site_id
 _symmetry_equiv_pos_as_xyz
  1  'x, y, z'
loop_
 _atom_site_type_symbol
 _atom_site_label
 _atom_site_symmetry_multiplicity
 _atom_site_fract_x
 _atom_site_fract_y
 _atom_site_fract_z
 _atom_site_occupancy
  Sr  Sr0  1  -0.00496841  0.17125689  0.09415317  1
  Sr  Sr1  1  -0.00072475  0.18226401  0.61959435  1
  Sr  Sr2  1  -0.00157369  0.50508120  0.11752267  1
  Sr  Sr3  1  0.00549771  0.50126494  0.66722488  1
  Sr  Sr4  1  -0.01156377  0.85300169  0.11041204  1
  Sr  Sr5  1  -0.01059687  0.81783848  0.62069140  1
  Sr  Sr6  1  0.30681868  0.17589587  0.16670779  1
  Sr  Sr7  1  0.32575521  0.16946944  0.60271536  1
  Sr  Sr8  1  0.33866679  0.49144103  0.09170498  1
  Sr  Sr9  1  0.30720340  0.49918779  0.62260815  1
  Sr  Sr10  1  0.32584226  0.82964576  0.11998896  1
  Sr  Sr11  1  0.34226417  0.82723743  0.65569523  1
  Sr  Sr12  1  0.66249113  0.17999963  0.11619019  1
  Sr  Sr13  1  0.65642865  0.15571744  0.67150334  1
  Sr  Sr14  1  0.64193530  0.51059331  0.15642412  1
  Sr  Sr15  1  0.68388496  0.49529709  0.61332033  1
  Sr  Sr16  1  0.66757495  0.83414811  0.12914759  1
  Sr  Sr17  1  0.65147374  0.85851337  0.57695177  1
  Sr  Sr18  1  0.14502905  0.00378094  0.10976863  1
  Sr  Sr19  1  0.16246424  -0.08551771  0.69579028  1
  Sr  Sr20  1  0.17083236  0.32728113  0.16161758  1
  Sr  Sr21  1  0.16960064  0.31590271  0.61691959  1
  Sr  Sr22  1  0.17938933  0.65891591  0.14197516  1
  Sr  Sr23  1  0.17459782  0.68464211  0.60459929  1
  Sr  Sr24  1  0.50713149  -0.01461558  0.07113290  1
  Sr  Sr25  1  0.49350464  0.00481454  0.62821356  1
  Sr  Sr26  1  0.49655024  0.33483006  0.11685525  1
  Sr  Sr27  1  0.53702217  0.32646298  0.65677129  1
  Sr  Sr28  1  0.51928693  0.67644417  0.16848926  1
  Sr  Sr29  1  0.51613718  0.64787030  0.62074971  1
  Sr  Sr30  1  0.80902715  -0.00115331  0.17526854  1
  Sr  Sr31  1  0.83574700  -0.00026833  0.61394191  1
  Sr  Sr32  1  0.85310877  0.33715265  0.11955767  1
  Sr  Sr33  1  0.83764229  0.33485401  0.59011739  1
  Sr  Sr34  1  0.85108676  0.67538021  0.08600084  1
  Sr  Sr35  1  0.84924927  0.64991884  0.65154707  1
  Sr  Sr36  1  -0.00793809  0.18060534  0.41484138  1
  Sr  Sr37  1  0.00006786  0.17357727  0.87809059  1
  Sr  Sr38  1  0.00909323  0.49683914  0.32934737  1
  Sr  Sr39  1  -0.01124341  0.50335421  0.89240486  1
  Sr  Sr40  1  -0.00674900  0.83794085  0.38934842  1
  Sr  Sr41  1  -0.01749852  0.84760614  0.85809026  1
  Sr  Sr42  1  0.32957370  0.17015920  0.38189568  1
  Sr  Sr43  1  0.30408585  0.18573153  0.85059394  1
  Sr  Sr44  1  0.32314186  0.50233952  0.41674718  1
  Sr  Sr45  1  0.33483699  0.47936029  0.88140469  1
  Sr  Sr46  1  0.32075333  0.82253633  0.34912781  1
  Sr  Sr47  1  0.33443366  0.84741331  0.88077806  1
  Sr  Sr48  1  0.67523167  0.17106209  0.33157757  1
  Sr  Sr49  1  0.65633600  0.18244907  0.88812321  1
  Sr  Sr50  1  0.68139459  0.49521948  0.39126848  1
  Sr  Sr51  1  0.65652172  0.51805347  0.83506670  1
  Sr  Sr52  1  0.66541909  0.84183125  0.36105636  1
  Sr  Sr53  1  0.66479043  0.83149919  0.91355830  1
  Sr  Sr54  1  0.19816495  0.00124358  0.31961912  1
  Sr  Sr55  1  0.14877724  -0.00108532  0.89907214  1
  Sr  Sr56  1  0.17823513  0.32000291  0.39150177  1
  Sr  Sr57  1  0.15788848  0.33299337  0.82856479  1
  Sr  Sr58  1  0.17089381  0.67651702  0.38141998  1
  Sr  Sr59  1  0.22400292  0.62284738  0.95312273  1
  Sr  Sr60  1  0.49357720  0.00020080  0.41490601  1
  Sr  Sr61  1  0.49929513  -0.00047730  0.86561597  1
  Sr  Sr62  1  0.51903379  0.31750252  0.34002166  1
  Sr  Sr63  1  0.50716522  0.33681099  0.88696191  1
  Sr  Sr64  1  0.52624376  0.65015867  0.38297415  1
  Sr  Sr65  1  0.50564344  0.66050376  0.84011968  1
  Sr  Sr66  1  0.83208133  -0.01170067  0.38754295  1
  Sr  Sr67  1  0.82347701  0.01991871  0.83278432  1
  Sr  Sr68  1  0.84491113  0.34253744  0.37790402  1
  Sr  Sr69  1  0.84354362  0.32519471  0.91704434  1
  Sr  Sr70  1  0.85869805  0.65377713  0.37018286  1
  Sr  Sr71  1  0.82548189  0.66412939  0.87127853  1
  Ta  Ta72  1  0.17470380  0.19056534  -0.00300452  1
  Ta  Ta73  1  0.16618062  0.08986096  0.51369594  1
  Ta  Ta74  1  0.16519011  0.44453182  -0.00080832  1
  Ta  Ta75  1  0.12522114  0.50805443  0.50535972  1
  Ta  Ta76  1  0.15098717  0.81133182  -0.01627883  1
  Ta  Ta77  1  0.16705107  0.89334781  0.48214647  1
  Ta  Ta78  1  0.44370412  0.16982792  0.00219047  1
  Ta  Ta79  1  0.52581250  0.18592069  0.50329713  1
  Ta  Ta80  1  0.51940674  0.52098961  -0.00021090  1
  Ta  Ta81  1  0.50407691  0.46107505  0.49807564  1
  Ta  Ta82  1  0.49882906  0.79274055  -0.00123738  1
  Ta  Ta83  1  0.46802795  0.81523701  0.49732514  1
  Ta  Ta84  1  0.82307782  0.12964056  0.00445424  1
  Ta  Ta85  1  0.78918048  0.16211236  0.50263567  1
  Ta  Ta86  1  0.78727964  0.50506123  0.00191011  1
  Ta  Ta87  1  0.87612523  0.50921182  0.50009614  1
  Ta  Ta88  1  0.82749943  0.88524484  0.00224763  1
  Ta  Ta89  1  0.82056386  0.79819347  0.49398855  1
  Ta  Ta90  1  0.11712761  0.16115323  0.25240189  1
  Ta  Ta91  1  0.15567036  0.12295208  0.73833742  1
  Ta  Ta92  1  0.20690635  0.49782912  0.25470195  1
  Ta  Ta93  1  0.16780080  0.55290392  0.77129175  1
  Ta  Ta94  1  0.13176448  0.82575979  0.24044182  1
  Ta  Ta95  1  0.16798122  0.73890655  0.81327597  1
  Ta  Ta96  1  0.48983695  0.12908442  0.24550304  1
  Ta  Ta97  1  0.46023121  0.16938578  0.74574836  1
  Ta  Ta98  1  0.45941842  0.49467626  0.24877808  1
  Ta  Ta99  1  0.46922559  0.48492375  0.74792068  1
  Ta  Ta100  1  0.49422371  0.86811347  0.24289148  1
  Ta  Ta101  1  0.53543309  0.83484143  0.75255188  1
  Ta  Ta102  1  0.86512683  0.17686364  0.24823037  1
  Ta  Ta103  1  0.83726771  0.20288005  0.75529980  1
  Ta  Ta104  1  0.81787271  0.50443956  0.23995954  1
  Ta  Ta105  1  0.83396937  0.46109338  0.75702536  1
  Ta  Ta106  1  0.84312395  0.80318042  0.24539593  1
  Ta  Ta107  1  0.79152002  0.84130394  0.74529074  1
  Ta  Ta108  1  -0.00672096  0.03472629  0.25026442  1
  Ta  Ta109  1  0.00380914  0.02355346  0.74520745  1
  Ta  Ta110  1  0.00201537  0.30244879  0.25527265  1
  Ta  Ta111  1  -0.03848325  0.33148158  0.74793119  1
  Ta  Ta112  1  0.00682523  0.69566543  0.23875072  1
  Ta  Ta113  1  0.03315856  0.66863810  0.77311231  1
  Ta  Ta114  1  0.38821131  -0.00021276  0.24276515  1
  Ta  Ta115  1  0.32137422  0.02674057  0.74972123  1
  Ta  Ta116  1  0.33978455  0.37079463  0.25838745  1
  Ta  Ta117  1  0.36071224  0.33599306  0.73855697  1
  Ta  Ta118  1  0.34155983  0.62331571  0.25045584  1
  Ta  Ta119  1  0.32086544  0.64999747  0.75728875  1
  Ta  Ta120  1  0.60702067  0.00576239  0.24140599  1
  Ta  Ta121  1  0.66114243  -0.04699425  0.74935204  1
  Ta  Ta122  1  0.69842765  0.34872314  0.24296051  1
  Ta  Ta123  1  0.71553153  0.33719685  0.75527765  1
  Ta  Ta124  1  0.71560039  0.66841859  0.24015737  1
  Ta  Ta125  1  0.67269297  0.72131977  0.74746200  1
  Ta  Ta126  1  -0.05886546  0.00865907  0.00371121  1
  Ta  Ta127  1  0.03287852  0.00195572  0.49946394  1
  Ta  Ta128  1  0.04448549  0.33613463  0.00588644  1
  Ta  Ta129  1  0.01225666  0.38229520  0.50141259  1
  Ta  Ta130  1  0.04009216  0.68603484  -0.02286093  1
  Ta  Ta131  1  0.00414660  0.62653946  0.50181614  1
  Ta  Ta132  1  0.32541552  0.05007451  0.00372113  1
  Ta  Ta133  1  0.31115749  -0.02113778  0.50200532  1
  Ta  Ta134  1  0.31110709  0.30983088  0.00939716  1
  Ta  Ta135  1  0.39438322  0.33297492  0.49847128  1
  Ta  Ta136  1  0.39857619  0.66401213  0.01141494  1
  Ta  Ta137  1  0.35802601  0.68598387  0.50643054  1
  Ta  Ta138  1  0.70326573  0.00686902  0.00252643  1
  Ta  Ta139  1  0.66284635  0.05791328  0.49583682  1
  Ta  Ta140  1  0.66939269  0.38619584  -0.00729612  1
  Ta  Ta141  1  0.66061509  0.29521315  0.50421176  1
  Ta  Ta142  1  0.64683198  0.64919558  -0.00129692  1
  Ta  Ta143  1  0.70262727  0.67766750  0.49899335  1
  N  N144  1  0.84728050  0.49884917  0.36454536  1
  N  N145  1  0.50075856  0.83333694  0.12179401  1
  N  N146  1  0.82998088  0.50241381  0.87625699  1
  N  N147  1  0.15555989  0.16334223  0.87403436  1
  N  N148  1  0.82482236  0.17137052  0.87463959  1
  N  N149  1  0.16137416  0.84791034  0.35913990  1
  N  N150  1  0.01073044  0.34233783  0.37347905  1
  N  N151  1  0.16748286  0.48947200  0.87606291  1
  N  N152  1  0.33162017  0.33138044  0.13101216  1
  N  N153  1  0.01053688  0.33858685  0.12630914  1
  N  N154  1  0.33786030  0.66249921  0.63181138  1
  N  N155  1  0.66516116  0.67834096  0.86550314  1
  N  N156  1  0.49658479  0.16382894  0.62552166  1
  N  N157  1  0.50227555  0.83366938  0.87346822  1
  N  N158  1  0.34724517  0.65910556  0.13073115  1
  N  N159  1  0.35083083  0.32939187  0.38334523  1
  N  N160  1  0.00424878  0.34093514  0.63122025  1
  N  N161  1  -0.01934804  0.00915995  0.13039176  1
  N  N162  1  0.67758230  0.67241936  0.12096546  1
  N  N163  1  0.83050960  0.84314861  0.12281419  1
  N  N164  1  0.15141601  0.16294573  0.13144282  1
  N  N165  1  0.83410115  0.83133854  0.37339604  1
  N  N166  1  0.16280239  0.15980534  0.61715378  1
  N  N167  1  0.16031994  0.85085055  0.86576026  1
  N  N168  1  0.49315848  0.49693905  0.12447146  1
  N  N169  1  -0.03057376  0.67584317  0.88085565  1
  N  N170  1  0.84557064  0.50416451  0.11020672  1
  N  N171  1  0.82541224  0.16762328  0.13399629  1
  N  N172  1  0.68341326  0.32387218  0.62242219  1
  N  N173  1  0.66972433  0.34117277  0.87729864  1
  N  N174  1  0.49525935  0.49595655  0.86707545  1
  N  N175  1  0.84454547  0.49581293  0.62117024  1
  N  N176  1  0.65565869  0.00783680  0.12516035  1
  O  O177  1  0.00571046  0.32971898  0.87279360  1
  O  O178  1  0.16054959  0.84303565  0.11492379  1
  O  O179  1  0.49619364  0.82667387  0.62169628  1
  O  O180  1  0.34344350  -0.01038947  0.37669221  1
  O  O181  1  0.68146597  0.67275120  0.62303681  1
  O  O182  1  -0.01803234  0.01574262  0.87147773  1
  O  O183  1  0.01244153  0.66610123  0.36564653  1
  O  O184  1  0.81402758  0.84368404  0.61532161  1
  O  O185  1  0.65545918  0.00387423  0.62770224  1
  O  O186  1  0.68136220  0.32879924  0.36856691  1
  O  O187  1  0.47250699  0.17504283  0.12817072  1
  O  O188  1  0.18487907  0.48399633  0.12891105  1
  O  O189  1  0.15752118  0.52731513  0.63304878  1
  O  O190  1  0.66830289  -0.00745472  0.87262958  1
  O  O191  1  0.46612541  0.17182653  0.87929980  1
  O  O192  1  0.48044803  0.83458914  0.37339264  1
  O  O193  1  0.34255766  0.01277126  0.12252186  1
  O  O194  1  0.33095006  0.33236680  0.61549797  1
  O  O195  1  0.82067669  0.84870433  0.87102936  1
  O  O196  1  0.17060434  0.14332269  0.37230355  1
  O  O197  1  0.00998030  0.67967445  0.10950091  1
  O  O198  1  0.49584528  0.16221429  0.37135533  1
  O  O199  1  0.00942959  0.66210011  0.62978235  1
  O  O200  1  0.32983052  -0.01248801  0.63156553  1
  O  O201  1  0.68694083  0.66600598  0.37238136  1
  O  O202  1  0.64270380  0.02460245  0.37223581  1
  O  O203  1  0.50628594  0.48568458  0.37434434  1
  O  O204  1  0.82287045  0.16783205  0.37704144  1
  O  O205  1  0.35856511  0.65348395  0.88842448  1
  O  O206  1  0.51393477  0.48399528  0.62247279  1
  O  O207  1  0.13548871  0.82117868  0.57193508  1
  O  O208  1  0.17305120  0.50795214  0.37916295  1
  O  O209  1  0.33395236  0.65660190  0.38264573  1
  O  O210  1  -0.00706131  -0.00225022  0.62377370  1
  O  O211  1  -0.01207221  0.00543155  0.38254107  1
  O  O212  1  0.31598626  0.02686013  0.88046918  1
  O  O213  1  0.67886127  0.34193983  0.11950192  1
  O  O214  1  0.33952694  0.33035776  0.86770479  1
  O  O215  1  0.81141562  0.16027012  0.63010854  1
