# generated using pymatgen
data_Sr24Ta24N11O13
_symmetry_space_group_name_H-M   'P 1'
_cell_length_a   16.86139942
_cell_length_b   16.75323821
_cell_length_c   15.69292470
_cell_angle_alpha   90.35935394
_cell_angle_beta   89.86259495
_cell_angle_gamma   90.09189698
_symmetry_Int_Tables_number   1
_chemical_formula_structural   Sr24Ta24N11O13
_chemical_formula_sum   'Sr72 Ta72 N33 O39'
_cell_volume   4432.87955960
_cell_formula_units_Z   3
loop_
 _symmetry_equiv_pos_site_id
 _symmetry_equiv_pos_as_xyz
  1  'x, y, z'
loop_
 _atom_site_type_symbol
 _atom_site_label
 _atom_site_symmetry_multiplicity
 _atom_site_fract_x
 _atom_site_fract_y
 _atom_site_fract_z
 _atom_site_occupancy
  Sr  Sr0  1  0.00005952  0.16784255  0.11707649  1
  Sr  Sr1  1  0.02485446  0.16255557  0.67034761  1
  Sr  Sr2  1  -0.01631317  0.51516374  0.16084608  1
  Sr  Sr3  1  -0.01312796  0.49106217  0.60440694  1
  Sr  Sr4  1  0.00035718  0.83709047  0.09045604  1
  Sr  Sr5  1  -0.02686083  0.82418953  0.62563616  1
  Sr  Sr6  1  0.33471160  0.17355444  0.11947513  1
  Sr  Sr7  1  0.32992128  0.17235204  0.58444494  1
  Sr  Sr8  1  0.32166440  0.51217363  0.10750133  1
  Sr  Sr9  1  0.31386888  0.49937092  0.63381120  1
  Sr  Sr10  1  0.31057933  0.84343530  0.16338645  1
  Sr  Sr11  1  0.33561001  0.83695622  0.62115477  1
  Sr  Sr12  1  0.65641707  0.17153251  0.16123620  1
  Sr  Sr13  1  0.67531161  0.16814989  0.61650844  1
  Sr  Sr14  1  0.65759866  0.49667944  0.11647872  1
  Sr  Sr15  1  0.65317332  0.51281610  0.65070817  1
  Sr  Sr16  1  0.66841630  0.83630959  0.12995637  1
  Sr  Sr17  1  0.65305740  0.83127111  0.59970350  1
  Sr  Sr18  1  0.17011421  0.01637926  0.16255559  1
  Sr  Sr19  1  0.18162080  -0.00264768  0.61073709  1
  Sr  Sr20  1  0.19353364  0.33006179  0.07728208  1
  Sr  Sr21  1  0.15888327  0.34024960  0.63487705  1
  Sr  Sr22  1  0.16660082  0.67202920  0.11798959  1
  Sr  Sr23  1  0.18805859  0.67501774  0.66284007  1
  Sr  Sr24  1  0.51492848  -0.00778673  0.11237357  1
  Sr  Sr25  1  0.50873418  -0.01007871  0.66235523  1
  Sr  Sr26  1  0.50392270  0.33390137  0.16246421  1
  Sr  Sr27  1  0.51909009  0.31328320  0.62281735  1
  Sr  Sr28  1  0.49879577  0.65045158  0.08105722  1
  Sr  Sr29  1  0.50300064  0.66551527  0.60690278  1
  Sr  Sr30  1  0.84818740  -0.01927961  0.08655331  1
  Sr  Sr31  1  0.83220996  -0.00330448  0.62936494  1
  Sr  Sr32  1  0.85027283  0.32840742  0.13188639  1
  Sr  Sr33  1  0.83775976  0.33393030  0.58506922  1
  Sr  Sr34  1  0.80996043  0.66287988  0.17849766  1
  Sr  Sr35  1  0.84745458  0.64936239  0.62793239  1
  Sr  Sr36  1  0.01214188  0.15801655  0.33174834  1
  Sr  Sr37  1  0.00392200  0.17855770  0.88491126  1
  Sr  Sr38  1  0.00095733  0.48731592  0.38140731  1
  Sr  Sr39  1  -0.02042788  0.50359477  0.86906569  1
  Sr  Sr40  1  -0.00533722  0.85522837  0.41547732  1
  Sr  Sr41  1  -0.02517800  0.82678370  0.87561754  1
  Sr  Sr42  1  0.32624717  0.17898674  0.37902905  1
  Sr  Sr43  1  0.34141425  0.16241013  0.90978845  1
  Sr  Sr44  1  0.32772831  0.50969852  0.37187887  1
  Sr  Sr45  1  0.30740267  0.50393997  0.88090692  1
  Sr  Sr46  1  0.32176861  0.83650140  0.37634296  1
  Sr  Sr47  1  0.31881094  0.84526680  0.83373853  1
  Sr  Sr48  1  0.68694578  0.16585651  0.38791104  1
  Sr  Sr49  1  0.65413791  0.15811756  0.83397981  1
  Sr  Sr50  1  0.63948088  0.51256073  0.36220999  1
  Sr  Sr51  1  0.66641385  0.49321057  0.88120250  1
  Sr  Sr52  1  0.66876029  0.82748123  0.36142285  1
  Sr  Sr53  1  0.64709065  0.84349411  0.91598664  1
  Sr  Sr54  1  0.17518364  0.00168362  0.38031095  1
  Sr  Sr55  1  0.17685495  0.00600764  0.85051544  1
  Sr  Sr56  1  0.18007564  0.35146498  0.41499710  1
  Sr  Sr57  1  0.16519150  0.33387868  0.86364260  1
  Sr  Sr58  1  0.17826145  0.66014974  0.32840827  1
  Sr  Sr59  1  0.16441618  0.67747296  0.89070826  1
  Sr  Sr60  1  0.52574920  -0.02796467  0.32772777  1
  Sr  Sr61  1  0.50154213  0.00448986  0.88321260  1
  Sr  Sr62  1  0.51023288  0.31450704  0.37213363  1
  Sr  Sr63  1  0.52455776  0.33150000  0.83856014  1
  Sr  Sr64  1  0.48645513  0.66490112  0.40816327  1
  Sr  Sr65  1  0.51476488  0.65546798  0.88433707  1
  Sr  Sr66  1  0.83052932  -0.01137763  0.40916615  1
  Sr  Sr67  1  0.84219547  0.01192174  0.86595056  1
  Sr  Sr68  1  0.85851057  0.31529067  0.36333268  1
  Sr  Sr69  1  0.83295667  0.34253356  0.91785798  1
  Sr  Sr70  1  0.86296937  0.65222591  0.38288154  1
  Sr  Sr71  1  0.82994999  0.64991511  0.84086558  1
  Ta  Ta72  1  0.16567016  0.13873593  -0.00171452  1
  Ta  Ta73  1  0.13749898  0.17182519  0.49678165  1
  Ta  Ta74  1  0.11926315  0.50210502  0.00561719  1
  Ta  Ta75  1  0.16483452  0.54505577  0.49584181  1
  Ta  Ta76  1  0.18368456  0.86417242  0.00584521  1
  Ta  Ta77  1  0.16402776  0.79102054  0.49530007  1
  Ta  Ta78  1  0.52420519  0.18836682  -0.00551085  1
  Ta  Ta79  1  0.50919149  0.11785321  0.50203680  1
  Ta  Ta80  1  0.49496987  0.45580751  0.00130239  1
  Ta  Ta81  1  0.49166842  0.47263606  0.49480660  1
  Ta  Ta82  1  0.44420610  0.83679769  -0.00178077  1
  Ta  Ta83  1  0.49517785  0.86478398  0.49831438  1
  Ta  Ta84  1  0.79024254  0.16692073  0.00288032  1
  Ta  Ta85  1  0.88762357  0.16115752  0.49792596  1
  Ta  Ta86  1  0.83382739  0.53222076  0.01153275  1
  Ta  Ta87  1  0.78874469  0.50109015  0.48789776  1
  Ta  Ta88  1  0.82622535  0.77539577  0.00745552  1
  Ta  Ta89  1  0.80944431  0.80151393  0.50325346  1
  Ta  Ta90  1  0.17789116  0.21438616  0.24754446  1
  Ta  Ta91  1  0.21636970  0.17080582  0.74710808  1
  Ta  Ta92  1  0.16885131  0.46533100  0.24338418  1
  Ta  Ta93  1  0.13057551  0.51498417  0.75458314  1
  Ta  Ta94  1  0.12026924  0.83913287  0.25307894  1
  Ta  Ta95  1  0.13018601  0.83943774  0.74786381  1
  Ta  Ta96  1  0.47926356  0.14370490  0.25135072  1
  Ta  Ta97  1  0.45941538  0.16204102  0.74484981  1
  Ta  Ta98  1  0.48405542  0.52886699  0.24439244  1
  Ta  Ta99  1  0.47267611  0.51265885  0.75005026  1
  Ta  Ta100  1  0.48960814  0.78744624  0.24233850  1
  Ta  Ta101  1  0.51216591  0.80961626  0.74851470  1
  Ta  Ta102  1  0.83618975  0.12181720  0.25075697  1
  Ta  Ta103  1  0.83834944  0.20668511  0.75004273  1
  Ta  Ta104  1  0.80292590  0.47890393  0.26109501  1
  Ta  Ta105  1  0.82929761  0.46094462  0.75438682  1
  Ta  Ta106  1  0.85699214  0.84875112  0.24768303  1
  Ta  Ta107  1  0.78819602  0.82770106  0.75288778  1
  Ta  Ta108  1  -0.01929190  -0.02233715  0.24939699  1
  Ta  Ta109  1  0.01648666  -0.02160286  0.74856166  1
  Ta  Ta110  1  0.06012497  0.33615613  0.24867996  1
  Ta  Ta111  1  -0.03613705  0.33919144  0.74622941  1
  Ta  Ta112  1  -0.00172321  0.72391862  0.25335589  1
  Ta  Ta113  1  0.01967431  0.66274563  0.74631253  1
  Ta  Ta114  1  0.35727010  0.02483167  0.25147005  1
  Ta  Ta115  1  0.33913293  0.04251966  0.74403073  1
  Ta  Ta116  1  0.30861179  0.34443621  0.24272819  1
  Ta  Ta117  1  0.34420185  0.30493762  0.75187492  1
  Ta  Ta118  1  0.37154296  0.66788837  0.23826918  1
  Ta  Ta119  1  0.36912433  0.66271849  0.74950099  1
  Ta  Ta120  1  0.71396183  -0.00107597  0.24594832  1
  Ta  Ta121  1  0.67418321  -0.04059268  0.75799850  1
  Ta  Ta122  1  0.68721694  0.34746668  0.25693455  1
  Ta  Ta123  1  0.71352077  0.33451954  0.74796919  1
  Ta  Ta124  1  0.60967535  0.66823418  0.24236369  1
  Ta  Ta125  1  0.65749685  0.70358209  0.75044096  1
  Ta  Ta126  1  0.04483966  0.00365626  0.00272238  1
  Ta  Ta127  1  0.00807067  0.04405513  0.49697426  1
  Ta  Ta128  1  0.01377312  0.36184643  0.00485742  1
  Ta  Ta129  1  0.01016280  0.28298711  0.50191169  1
  Ta  Ta130  1  -0.03582569  0.65557210  0.00658530  1
  Ta  Ta131  1  0.04775240  0.66771949  0.50107704  1
  Ta  Ta132  1  0.31930884  -0.02398835  0.00041349  1
  Ta  Ta133  1  0.39105260  -0.00236579  0.49603000  1
  Ta  Ta134  1  0.38687704  0.33616691  0.00046344  1
  Ta  Ta135  1  0.36054080  0.35444243  0.50013733  1
  Ta  Ta136  1  0.32952448  0.71918111  -0.00171711  1
  Ta  Ta137  1  0.29827348  0.66837723  0.50329387  1
  Ta  Ta138  1  0.67576810  0.04229550  0.00172889  1
  Ta  Ta139  1  0.63296712  -0.00402822  0.49317242  1
  Ta  Ta140  1  0.65277768  0.30687233  -0.00297142  1
  Ta  Ta141  1  0.66606045  0.37354603  0.50229029  1
  Ta  Ta142  1  0.70064114  0.66300751  0.00609547  1
  Ta  Ta143  1  0.68923311  0.66126846  0.49309888  1
  N  N144  1  0.34010963  0.67007258  0.62382666  1
  N  N145  1  0.66685633  0.00039952  0.87599613  1
  N  N146  1  0.49503330  0.83077554  0.62586191  1
  N  N147  1  0.82491273  0.49395775  0.87627827  1
  N  N148  1  0.15097080  0.50776289  0.87659069  1
  N  N149  1  0.16491446  0.50720857  0.37580463  1
  N  N150  1  0.34644213  0.33425804  0.12349054  1
  N  N151  1  0.00573219  0.66549044  0.62396522  1
  N  N152  1  0.83180641  0.82235081  0.12629722  1
  N  N153  1  0.17698627  0.17084960  0.62825004  1
  N  N154  1  -0.00111676  0.32386510  0.62817895  1
  N  N155  1  0.81910905  0.82214495  0.62698100  1
  N  N156  1  0.16075862  0.83258147  0.37658345  1
  N  N157  1  0.16035516  0.84488998  0.12625768  1
  N  N158  1  0.00477216  0.00577969  0.37608641  1
  N  N159  1  0.50292322  0.15628883  0.62531448  1
  N  N160  1  0.32991931  0.67816892  0.11818429  1
  N  N161  1  0.67452151  0.32799205  0.87685331  1
  N  N162  1  0.00999782  0.00157946  0.12196684  1
  N  N163  1  0.49746081  0.48920931  0.12313949  1
  N  N164  1  0.17403264  0.17435983  0.12265445  1
  N  N165  1  0.48776036  0.49561037  0.37342160  1
  N  N166  1  0.67210335  -0.00699137  0.37533189  1
  N  N167  1  0.16100759  0.51034265  0.12741633  1
  N  N168  1  0.84957303  0.15319882  0.37202225  1
  N  N169  1  0.50068555  0.16729245  0.87511350  1
  N  N170  1  0.17564347  0.17235439  0.87611010  1
  N  N171  1  0.17337050  0.17726902  0.37598163  1
  N  N172  1  0.67427941  0.33906996  0.62028376  1
  N  N173  1  0.67555608  0.00223828  0.12624792  1
  N  N174  1  0.65742279  0.66308533  0.12605640  1
  N  N175  1  0.84667583  0.49241434  0.38104221  1
  N  N176  1  0.82704406  0.49984411  0.13303494  1
  O  O177  1  0.84919292  0.18050155  0.62683710  1
  O  O178  1  0.49727111  0.15713348  0.37654276  1
  O  O179  1  0.34775066  0.31910857  0.87647944  1
  O  O180  1  0.00600806  -0.01320312  0.87562358  1
  O  O181  1  0.33375597  0.66886776  0.37662178  1
  O  O182  1  0.01516672  0.00325848  0.62590165  1
  O  O183  1  0.14870690  0.83370000  0.62130135  1
  O  O184  1  0.34717891  0.00890641  0.37570235  1
  O  O185  1  0.49058419  0.49600816  0.87343751  1
  O  O186  1  0.34470187  0.00099107  0.62026152  1
  O  O187  1  0.67142889  0.32261027  0.38107482  1
  O  O188  1  0.66485460  0.68354451  0.87682684  1
  O  O189  1  -0.01710774  0.67397986  0.13312584  1
  O  O190  1  0.01073321  0.68011740  0.37349711  1
  O  O191  1  0.82835929  0.49322139  0.61387728  1
  O  O192  1  0.01109093  0.33820632  0.12970302  1
  O  O193  1  0.34910550  0.33066794  0.62204717  1
  O  O194  1  0.81426753  0.16898536  0.12742973  1
  O  O195  1  0.48778372  0.50570973  0.62596369  1
  O  O196  1  0.33995362  0.34762491  0.37387847  1
  O  O197  1  0.15888941  0.84055561  0.87210342  1
  O  O198  1  0.47240795  0.84227497  0.87179207  1
  O  O199  1  0.66077134  -0.01400841  0.63047488  1
  O  O200  1  0.82246264  0.80750866  0.87684574  1
  O  O201  1  -0.00252673  0.34259758  0.87939372  1
  O  O202  1  0.33098261  -0.00142642  0.87223431  1
  O  O203  1  0.49938360  0.15934694  0.12614297  1
  O  O204  1  0.49399837  0.82353747  0.37535177  1
  O  O205  1  0.81993767  0.18160652  0.87647634  1
  O  O206  1  0.47042438  0.83623011  0.12366096  1
  O  O207  1  0.65136178  0.66672972  0.37236619  1
  O  O208  1  -0.01443762  0.66452392  0.88007509  1
  O  O209  1  0.67230241  0.33190380  0.13152966  1
  O  O210  1  0.82979613  0.82835594  0.37868612  1
  O  O211  1  0.33702573  0.00185445  0.12282350  1
  O  O212  1  0.01914493  0.32802363  0.37427850  1
  O  O213  1  0.15714285  0.50471068  0.62614168  1
  O  O214  1  0.32675094  0.68711334  0.86764324  1
  O  O215  1  0.67001680  0.67211762  0.62520926  1
