# generated using pymatgen
data_Sr24Ta24N11O13
_symmetry_space_group_name_H-M   'P 1'
_cell_length_a   16.68191084
_cell_length_b   17.04556611
_cell_length_c   15.59957928
_cell_angle_alpha   89.79416859
_cell_angle_beta   89.75786855
_cell_angle_gamma   90.15891277
_symmetry_Int_Tables_number   1
_chemical_formula_structural   Sr24Ta24N11O13
_chemical_formula_sum   'Sr72 Ta72 N33 O39'
_cell_volume   4435.69566486
_cell_formula_units_Z   3
loop_
 _symmetry_equiv_pos_site_id
 _symmetry_equiv_pos_as_xyz
  1  'x, y, z'
loop_
 _atom_site_type_symbol
 _atom_site_label
 _atom_site_symmetry_multiplicity
 _atom_site_fract_x
 _atom_site_fract_y
 _atom_site_fract_z
 _atom_site_occupancy
  Sr  Sr0  1  -0.00318208  0.19393305  0.13980917  1
  Sr  Sr1  1  0.01391682  0.15156652  0.57728854  1
  Sr  Sr2  1  0.01172369  0.51359932  0.08314345  1
  Sr  Sr3  1  -0.00916699  0.48883914  0.64055318  1
  Sr  Sr4  1  -0.00732536  0.81493179  0.14476990  1
  Sr  Sr5  1  -0.00220621  0.83558747  0.64947510  1
  Sr  Sr6  1  0.34300692  0.15639178  0.10559981  1
  Sr  Sr7  1  0.31894137  0.13898592  0.68044839  1
  Sr  Sr8  1  0.33355342  0.47015674  0.14430521  1
  Sr  Sr9  1  0.34633424  0.48070003  0.63629999  1
  Sr  Sr10  1  0.33228935  0.82732681  0.13407054  1
  Sr  Sr11  1  0.32925921  0.82116911  0.59928951  1
  Sr  Sr12  1  0.65606925  0.12125579  0.15933612  1
  Sr  Sr13  1  0.66414916  0.17419001  0.62103090  1
  Sr  Sr14  1  0.67640359  0.49468442  0.13795662  1
  Sr  Sr15  1  0.66247797  0.48298364  0.59050863  1
  Sr  Sr16  1  0.67220490  0.83368460  0.08847882  1
  Sr  Sr17  1  0.66448388  0.79199673  0.64102272  1
  Sr  Sr18  1  0.16297637  0.03560851  0.07781874  1
  Sr  Sr19  1  0.16431359  -0.00754834  0.63684816  1
  Sr  Sr20  1  0.17216746  0.32567260  0.16920391  1
  Sr  Sr21  1  0.15506976  0.33165087  0.61391102  1
  Sr  Sr22  1  0.16225751  0.67794166  0.12779957  1
  Sr  Sr23  1  0.17309651  0.67925497  0.58914114  1
  Sr  Sr24  1  0.47912138  0.01119195  0.14271665  1
  Sr  Sr25  1  0.50278156  0.02805563  0.63876567  1
  Sr  Sr26  1  0.50549817  0.34779236  0.12247969  1
  Sr  Sr27  1  0.51139410  0.34406332  0.59084200  1
  Sr  Sr28  1  0.50169204  0.70987736  0.09760028  1
  Sr  Sr29  1  0.48357428  0.67955370  0.64853921  1
  Sr  Sr30  1  0.84111431  0.00334049  0.13061864  1
  Sr  Sr31  1  0.82837936  0.03367665  0.60196421  1
  Sr  Sr32  1  0.85335925  0.35350371  0.10702377  1
  Sr  Sr33  1  0.82421050  0.33126653  0.66549741  1
  Sr  Sr34  1  0.82737602  0.67727356  0.14985583  1
  Sr  Sr35  1  0.82822139  0.65408993  0.60936782  1
  Sr  Sr36  1  0.00042036  0.17224122  0.36523327  1
  Sr  Sr37  1  -0.01128967  0.14941144  0.92464491  1
  Sr  Sr38  1  0.00884421  0.51435688  0.42124861  1
  Sr  Sr39  1  -0.00994369  0.50098471  0.86286133  1
  Sr  Sr40  1  -0.01993536  0.82923278  0.34710521  1
  Sr  Sr41  1  0.00400751  0.83160459  0.85201246  1
  Sr  Sr42  1  0.33634010  0.14455255  0.35064037  1
  Sr  Sr43  1  0.33458927  0.16314282  0.88840871  1
  Sr  Sr44  1  0.33348839  0.46741475  0.37103134  1
  Sr  Sr45  1  0.34771379  0.49040207  0.85676467  1
  Sr  Sr46  1  0.33123908  0.84653682  0.37399200  1
  Sr  Sr47  1  0.33202961  0.79441279  0.89958355  1
  Sr  Sr48  1  0.65586948  0.14311281  0.39686870  1
  Sr  Sr49  1  0.68121230  0.15930281  0.83495915  1
  Sr  Sr50  1  0.67854598  0.50583808  0.35623776  1
  Sr  Sr51  1  0.66600394  0.47017292  0.91990600  1
  Sr  Sr52  1  0.67038448  0.81110059  0.41423462  1
  Sr  Sr53  1  0.66748637  0.82107040  0.87202882  1
  Sr  Sr54  1  0.16882690  0.00673586  0.41120656  1
  Sr  Sr55  1  0.16484239  0.00956696  0.86308044  1
  Sr  Sr56  1  0.15472655  0.32386208  0.38716875  1
  Sr  Sr57  1  0.17471486  0.34860411  0.82563539  1
  Sr  Sr58  1  0.17231388  0.68781457  0.36129118  1
  Sr  Sr59  1  0.15940555  0.66118670  0.91399006  1
  Sr  Sr60  1  0.49435102  0.01133656  0.36562194  1
  Sr  Sr61  1  0.49798188  0.03907408  0.85264197  1
  Sr  Sr62  1  0.51840182  0.35869717  0.37364717  1
  Sr  Sr63  1  0.49435616  0.34404762  0.91227190  1
  Sr  Sr64  1  0.47998161  0.70524707  0.37925306  1
  Sr  Sr65  1  0.49609214  0.67116521  0.86725368  1
  Sr  Sr66  1  0.84085756  0.01359115  0.36685119  1
  Sr  Sr67  1  0.82445656  0.00575238  0.89014770  1
  Sr  Sr68  1  0.83735372  0.34710704  0.33527694  1
  Sr  Sr69  1  0.84368782  0.34251496  0.88729298  1
  Sr  Sr70  1  0.82705484  0.66731200  0.38311932  1
  Sr  Sr71  1  0.84062993  0.68435027  0.82402342  1
  Ta  Ta72  1  0.16689319  0.21746931  -0.00973825  1
  Ta  Ta73  1  0.21263589  0.16547992  0.51006409  1
  Ta  Ta74  1  0.18827789  0.47143598  -0.00323950  1
  Ta  Ta75  1  0.18862377  0.51437314  0.51254184  1
  Ta  Ta76  1  0.14783647  0.85317377  0.00131594  1
  Ta  Ta77  1  0.12695238  0.83963444  0.49598300  1
  Ta  Ta78  1  0.54377619  0.16862314  0.00065009  1
  Ta  Ta79  1  0.45510318  0.17065392  0.51048654  1
  Ta  Ta80  1  0.49310167  0.53175572  0.01803842  1
  Ta  Ta81  1  0.49180686  0.53922547  0.49354258  1
  Ta  Ta82  1  0.49660750  0.88608767  -0.01635244  1
  Ta  Ta83  1  0.50895984  0.87114598  0.50776374  1
  Ta  Ta84  1  0.78857360  0.17050921  0.01250689  1
  Ta  Ta85  1  0.83688239  0.21298244  0.49776951  1
  Ta  Ta86  1  0.83131531  0.55625980  -0.01125247  1
  Ta  Ta87  1  0.83299842  0.46038149  0.50358365  1
  Ta  Ta88  1  0.85518051  0.82233000  -0.00821266  1
  Ta  Ta89  1  0.84492871  0.85139578  0.51085401  1
  Ta  Ta90  1  0.17001289  0.13745680  0.25619058  1
  Ta  Ta91  1  0.11491130  0.16780708  0.75280361  1
  Ta  Ta92  1  0.14509789  0.51154830  0.25484888  1
  Ta  Ta93  1  0.17034300  0.53960267  0.73984444  1
  Ta  Ta94  1  0.16273332  0.87993891  0.25168524  1
  Ta  Ta95  1  0.18497184  0.80959671  0.74499593  1
  Ta  Ta96  1  0.50056002  0.19998329  0.24848921  1
  Ta  Ta97  1  0.50059505  0.22132858  0.75232923  1
  Ta  Ta98  1  0.49713283  0.55680087  0.23954177  1
  Ta  Ta99  1  0.53332362  0.48131702  0.75372074  1
  Ta  Ta100  1  0.54362068  0.84543942  0.25369536  1
  Ta  Ta101  1  0.49243928  0.86373055  0.76350736  1
  Ta  Ta102  1  0.80904645  0.18819699  0.24020218  1
  Ta  Ta103  1  0.88473236  0.16422326  0.74693216  1
  Ta  Ta104  1  0.87851487  0.51373233  0.24834821  1
  Ta  Ta105  1  0.78755212  0.49901157  0.75355659  1
  Ta  Ta106  1  0.78784638  0.83922092  0.25938121  1
  Ta  Ta107  1  0.82452266  0.87602660  0.73055021  1
  Ta  Ta108  1  0.04168878  0.00278676  0.25197577  1
  Ta  Ta109  1  -0.01892785  0.02198872  0.74404583  1
  Ta  Ta110  1  0.00655776  0.39172282  0.25077938  1
  Ta  Ta111  1  -0.00178038  0.28862623  0.75275461  1
  Ta  Ta112  1  0.00351355  0.62472204  0.25474777  1
  Ta  Ta113  1  0.04874255  0.66317794  0.74599468  1
  Ta  Ta114  1  0.28311879  -0.00306882  0.23455646  1
  Ta  Ta115  1  0.33743517  -0.05178401  0.76177384  1
  Ta  Ta116  1  0.35310882  0.29864576  0.25069476  1
  Ta  Ta117  1  0.36661790  0.31900214  0.75002166  1
  Ta  Ta118  1  0.34146052  0.63930753  0.24132503  1
  Ta  Ta119  1  0.29239151  0.66064840  0.74997977  1
  Ta  Ta120  1  0.67099348  -0.04554196  0.25960376  1
  Ta  Ta121  1  0.67140302  -0.02956138  0.73812803  1
  Ta  Ta122  1  0.66942068  0.29330238  0.24266927  1
  Ta  Ta123  1  0.64005529  0.35567223  0.75584810  1
  Ta  Ta124  1  0.64450853  0.69082286  0.25182149  1
  Ta  Ta125  1  0.65628267  0.60476330  0.74772954  1
  Ta  Ta126  1  -0.00199351  -0.04516525  0.00152025  1
  Ta  Ta127  1  -0.00672625  -0.03618704  0.49693812  1
  Ta  Ta128  1  0.05448243  0.34176696  -0.00017792  1
  Ta  Ta129  1  -0.04036383  0.33477062  0.49584558  1
  Ta  Ta130  1  -0.03546177  0.68636861  -0.01190830  1
  Ta  Ta131  1  0.00125885  0.70270345  0.49687539  1
  Ta  Ta132  1  0.33959642  -0.02865978  -0.01650957  1
  Ta  Ta133  1  0.34453766  0.01456918  0.51423018  1
  Ta  Ta134  1  0.28680393  0.33565119  -0.00177619  1
  Ta  Ta135  1  0.33258429  0.28641063  0.50508547  1
  Ta  Ta136  1  0.33932688  0.61537634  0.00481985  1
  Ta  Ta137  1  0.33883270  0.62405245  0.50275702  1
  Ta  Ta138  1  0.64436342  0.01054937  -0.01026051  1
  Ta  Ta139  1  0.66236726  -0.03472336  0.52016939  1
  Ta  Ta140  1  0.67291594  0.28311935  0.01002943  1
  Ta  Ta141  1  0.71516683  0.32471661  0.49109030  1
  Ta  Ta142  1  0.68632886  0.65273862  -0.00775791  1
  Ta  Ta143  1  0.62675611  0.64286698  0.49854240  1
  N  N144  1  0.51714840  0.49727518  0.13700667  1
  N  N145  1  0.33297236  0.65236858  0.62891757  1
  N  N146  1  0.00064255  0.00119028  0.36920269  1
  N  N147  1  0.16855567  0.48172696  0.63000075  1
  N  N148  1  0.16649690  0.16141954  0.62746333  1
  N  N149  1  0.50941374  0.18825753  0.87832907  1
  N  N150  1  0.01771509  0.35393652  0.12323990  1
  N  N151  1  -0.00340425  0.34836448  0.37556586  1
  N  N152  1  0.50228999  0.18214301  0.62459396  1
  N  N153  1  0.32401664  0.01415249  0.86177437  1
  N  N154  1  0.50112386  0.17305011  0.12714287  1
  N  N155  1  0.16550988  0.84312052  0.37389764  1
  N  N156  1  0.00016713  0.67031633  0.37828437  1
  N  N157  1  0.16622243  0.83310278  0.62407714  1
  N  N158  1  0.82452673  0.48707295  0.62628098  1
  N  N159  1  0.16193092  0.17367903  0.86926925  1
  N  N160  1  0.65680851  0.64195074  0.62644096  1
  N  N161  1  0.17302785  0.16391021  0.37874650  1
  N  N162  1  0.32576260  0.64244755  0.88421070  1
  N  N163  1  0.84467083  0.16175470  0.12186041  1
  N  N164  1  -0.00255833  0.00162319  0.62214418  1
  N  N165  1  0.31778141  -0.00429020  0.11204410  1
  N  N166  1  0.83199824  0.50430280  0.87642842  1
  N  N167  1  0.82308308  0.83572922  0.38050418  1
  N  N168  1  0.82514865  0.80909133  0.63196047  1
  N  N169  1  0.66539585  0.00054137  0.86760471  1
  N  N170  1  0.00297205  0.66994176  0.86732411  1
  N  N171  1  0.50769493  0.82200973  0.88091815  1
  N  N172  1  0.84725981  0.18042154  0.62561871  1
  N  N173  1  0.65852602  0.66250636  0.37200814  1
  N  N174  1  0.33212710  -0.01224302  0.63401795  1
  N  N175  1  0.50567356  0.85541260  0.38022464  1
  N  N176  1  0.66447325  0.02651402  0.62527669  1
  O  O177  1  0.00545036  0.33297383  0.87584633  1
  O  O178  1  0.50394326  0.49396449  0.61773230  1
  O  O179  1  0.83793784  0.17462341  0.36576617  1
  O  O180  1  0.18152690  0.49618346  0.86917748  1
  O  O181  1  0.67058103  -0.01447312  0.38929955  1
  O  O182  1  0.16438216  0.17865116  0.12811289  1
  O  O183  1  0.84181586  0.84394383  0.86357718  1
  O  O184  1  0.66702572  -0.01985905  0.11902139  1
  O  O185  1  0.16202296  0.83238159  0.87827345  1
  O  O186  1  0.49684152  0.50734005  0.36451805  1
  O  O187  1  0.16919560  0.49382559  0.12938229  1
  O  O188  1  0.67006890  0.33192831  0.61580207  1
  O  O189  1  0.51269492  0.85859328  0.12257281  1
  O  O190  1  0.51233065  0.49721880  0.89229040  1
  O  O191  1  0.33475953  0.30576339  0.37426880  1
  O  O192  1  0.33884267  0.33297421  0.87797340  1
  O  O193  1  0.84730487  0.50205385  0.37579716  1
  O  O194  1  0.49890349  0.83566093  0.63268681  1
  O  O195  1  0.16668782  0.51378009  0.37984526  1
  O  O196  1  0.82913449  0.82722437  0.12089172  1
  O  O197  1  0.33017080  0.31701186  0.12395247  1
  O  O198  1  0.67130576  0.67359669  0.11743223  1
  O  O199  1  0.33122914  0.63452841  0.36587137  1
  O  O200  1  -0.00571694  0.33162263  0.62969319  1
  O  O201  1  0.00415050  0.66576714  0.11358641  1
  O  O202  1  0.66357943  0.66130989  0.86813352  1
  O  O203  1  0.00060876  0.67728930  0.62906878  1
  O  O204  1  0.32786523  -0.00289981  0.37570209  1
  O  O205  1  0.31813102  0.67515984  0.11946448  1
  O  O206  1  0.66554264  0.33926237  0.12387517  1
  O  O207  1  0.15470219  0.83298978  0.12665873  1
  O  O208  1  -0.00949953  -0.01326984  0.87792774  1
  O  O209  1  0.50130062  0.17302850  0.38629274  1
  O  O210  1  0.85507617  0.52341095  0.11779509  1
  O  O211  1  -0.00314149  -0.02892183  0.12958591  1
  O  O212  1  0.83593496  0.16057559  0.88731142  1
  O  O213  1  0.66750542  0.30202694  0.37177649  1
  O  O214  1  0.33950652  0.32124197  0.62827011  1
  O  O215  1  0.66276943  0.32357487  0.88058126  1
