# generated using pymatgen
data_Sr24Ta24N11O13
_symmetry_space_group_name_H-M   'P 1'
_cell_length_a   16.97566001
_cell_length_b   16.69679640
_cell_length_c   15.68361912
_cell_angle_alpha   90.38519931
_cell_angle_beta   90.34658414
_cell_angle_gamma   90.21575017
_symmetry_Int_Tables_number   1
_chemical_formula_structural   Sr24Ta24N11O13
_chemical_formula_sum   'Sr72 Ta72 N33 O39'
_cell_volume   4445.13750677
_cell_formula_units_Z   3
loop_
 _symmetry_equiv_pos_site_id
 _symmetry_equiv_pos_as_xyz
  1  'x, y, z'
loop_
 _atom_site_type_symbol
 _atom_site_label
 _atom_site_symmetry_multiplicity
 _atom_site_fract_x
 _atom_site_fract_y
 _atom_site_fract_z
 _atom_site_occupancy
  Sr  Sr0  1  0.00930857  0.17707101  0.13731549  1
  Sr  Sr1  1  -0.01757070  0.15519507  0.57980968  1
  Sr  Sr2  1  -0.02768100  0.50864295  0.12444206  1
  Sr  Sr3  1  0.00991148  0.49897480  0.61953948  1
  Sr  Sr4  1  -0.02225686  0.82605539  0.11222342  1
  Sr  Sr5  1  -0.01272622  0.83798648  0.65860204  1
  Sr  Sr6  1  0.33917231  0.16502168  0.07982672  1
  Sr  Sr7  1  0.31863426  0.15907372  0.63391307  1
  Sr  Sr8  1  0.32345875  0.50232880  0.11608884  1
  Sr  Sr9  1  0.33180118  0.50035535  0.66386170  1
  Sr  Sr10  1  0.32501992  0.84401634  0.14612817  1
  Sr  Sr11  1  0.31288045  0.81973600  0.59819668  1
  Sr  Sr12  1  0.64069584  0.16163287  0.17919265  1
  Sr  Sr13  1  0.65828854  0.18851071  0.63236866  1
  Sr  Sr14  1  0.67379253  0.49041775  0.12760533  1
  Sr  Sr15  1  0.60276888  0.50762234  0.54607976  1
  Sr  Sr16  1  0.64681455  0.84879172  0.09916633  1
  Sr  Sr17  1  0.65522971  0.81281346  0.63726142  1
  Sr  Sr18  1  0.17854016  0.00093917  0.15415268  1
  Sr  Sr19  1  0.16278247  0.00401933  0.61885573  1
  Sr  Sr20  1  0.17939596  0.32639134  0.11388992  1
  Sr  Sr21  1  0.18791134  0.34828652  0.66779000  1
  Sr  Sr22  1  0.18068694  0.67372451  0.12344007  1
  Sr  Sr23  1  0.16288597  0.66041597  0.58784652  1
  Sr  Sr24  1  0.49026034  -0.00306609  0.11742635  1
  Sr  Sr25  1  0.54573872  -0.00116986  0.68954659  1
  Sr  Sr26  1  0.52486483  0.35229116  0.16337304  1
  Sr  Sr27  1  0.50473587  0.31224398  0.58875998  1
  Sr  Sr28  1  0.53507683  0.66001055  0.08276874  1
  Sr  Sr29  1  0.48293965  0.67301600  0.63537842  1
  Sr  Sr30  1  0.84947390  -0.00171679  0.13471731  1
  Sr  Sr31  1  0.83589100  -0.00324599  0.58887351  1
  Sr  Sr32  1  0.84632144  0.33362374  0.10903679  1
  Sr  Sr33  1  0.84031772  0.32240420  0.63434136  1
  Sr  Sr34  1  0.83215363  0.66101592  0.15442610  1
  Sr  Sr35  1  0.85822017  0.66161154  0.63237797  1
  Sr  Sr36  1  0.01509530  0.16851307  0.36137431  1
  Sr  Sr37  1  -0.02113952  0.17258391  0.90958661  1
  Sr  Sr38  1  0.00168344  0.51599451  0.40338747  1
  Sr  Sr39  1  -0.01980261  0.49567955  0.84434713  1
  Sr  Sr40  1  -0.03811683  0.82422567  0.33703205  1
  Sr  Sr41  1  -0.00799533  0.82950129  0.87845874  1
  Sr  Sr42  1  0.33939053  0.17497653  0.41947452  1
  Sr  Sr43  1  0.31785155  0.15811251  0.86618822  1
  Sr  Sr44  1  0.31847617  0.48975086  0.32499958  1
  Sr  Sr45  1  0.32573605  0.50398973  0.88076314  1
  Sr  Sr46  1  0.32790658  0.83379072  0.37226994  1
  Sr  Sr47  1  0.30977398  0.83118423  0.87898120  1
  Sr  Sr48  1  0.62430830  0.17808928  0.38563761  1
  Sr  Sr49  1  0.67219623  0.18600571  0.84590279  1
  Sr  Sr50  1  0.66251174  0.50758409  0.34926228  1
  Sr  Sr51  1  0.66433398  0.48485096  0.90383617  1
  Sr  Sr52  1  0.65589381  0.83506161  0.40361894  1
  Sr  Sr53  1  0.65216609  0.83653837  0.87032055  1
  Sr  Sr54  1  0.18211623  0.01098686  0.38999158  1
  Sr  Sr55  1  0.16729578  -0.00622932  0.83089374  1
  Sr  Sr56  1  0.18005634  0.34182893  0.33768467  1
  Sr  Sr57  1  0.18211962  0.32388305  0.88535910  1
  Sr  Sr58  1  0.17753707  0.66366123  0.36770340  1
  Sr  Sr59  1  0.16337210  0.67729144  0.91491021  1
  Sr  Sr60  1  0.50377970  -0.02425869  0.33471060  1
  Sr  Sr61  1  0.49367350  0.00641194  0.89802539  1
  Sr  Sr62  1  0.49720030  0.35383849  0.37287405  1
  Sr  Sr63  1  0.54210139  0.33245560  0.86733225  1
  Sr  Sr64  1  0.51348279  0.67991711  0.42269425  1
  Sr  Sr65  1  0.50455512  0.65756677  0.85904430  1
  Sr  Sr66  1  0.84599347  -0.00248556  0.37386696  1
  Sr  Sr67  1  0.85348202  -0.00862931  0.91789327  1
  Sr  Sr68  1  0.88602355  0.33007709  0.41368875  1
  Sr  Sr69  1  0.82659365  0.33714325  0.87311377  1
  Sr  Sr70  1  0.84208969  0.65353518  0.36077907  1
  Sr  Sr71  1  0.83830061  0.67655640  0.83467458  1
  Ta  Ta72  1  0.15855481  0.12509358  -0.00389116  1
  Ta  Ta73  1  0.16896110  0.21035282  0.50388297  1
  Ta  Ta74  1  0.12195669  0.49978401  0.00397937  1
  Ta  Ta75  1  0.19952810  0.48045079  0.50419334  1
  Ta  Ta76  1  0.15588436  0.87427974  -0.00375011  1
  Ta  Ta77  1  0.12356212  0.83661545  0.49714881  1
  Ta  Ta78  1  0.52476900  0.18194531  0.00116806  1
  Ta  Ta79  1  0.49651184  0.08933937  0.51620624  1
  Ta  Ta80  1  0.48549569  0.48579931  0.00247237  1
  Ta  Ta81  1  0.42573434  0.50188142  0.48546324  1
  Ta  Ta82  1  0.46311797  0.82024536  -0.00054144  1
  Ta  Ta83  1  0.49406720  0.89307348  0.51947421  1
  Ta  Ta84  1  0.79787385  0.16320713  0.01503191  1
  Ta  Ta85  1  0.79474586  0.16920267  0.48767301  1
  Ta  Ta86  1  0.83401101  0.53430766  -0.01308291  1
  Ta  Ta87  1  0.80042070  0.50000554  0.50876431  1
  Ta  Ta88  1  0.81533629  0.79356003  -0.00045558  1
  Ta  Ta89  1  0.83679699  0.81283247  0.49684707  1
  Ta  Ta90  1  0.21100334  0.16875566  0.24282451  1
  Ta  Ta91  1  0.11185410  0.17016222  0.75162392  1
  Ta  Ta92  1  0.12633093  0.50675250  0.23356113  1
  Ta  Ta93  1  0.16236567  0.54372255  0.75294479  1
  Ta  Ta94  1  0.13127931  0.83427202  0.24839411  1
  Ta  Ta95  1  0.16357798  0.79834935  0.74970763  1
  Ta  Ta96  1  0.45807519  0.16132840  0.25668013  1
  Ta  Ta97  1  0.47754532  0.17467582  0.75303479  1
  Ta  Ta98  1  0.49754404  0.55514568  0.25058536  1
  Ta  Ta99  1  0.51450631  0.48416878  0.74673724  1
  Ta  Ta100  1  0.50714322  0.78223916  0.24925932  1
  Ta  Ta101  1  0.45203825  0.84106932  0.74601574  1
  Ta  Ta102  1  0.81693378  0.17494809  0.27511513  1
  Ta  Ta103  1  0.84621594  0.13941498  0.74205714  1
  Ta  Ta104  1  0.84122554  0.46376989  0.26824805  1
  Ta  Ta105  1  0.79820975  0.49671854  0.73564825  1
  Ta  Ta106  1  0.77926920  0.83639151  0.24709137  1
  Ta  Ta107  1  0.82090467  0.87562215  0.75653088  1
  Ta  Ta108  1  0.02414273  -0.01550902  0.25373485  1
  Ta  Ta109  1  -0.02523115  0.02637542  0.74431126  1
  Ta  Ta110  1  0.00276378  0.36693358  0.25070071  1
  Ta  Ta111  1  0.00878457  0.30153665  0.74680428  1
  Ta  Ta112  1  0.02425016  0.65962982  0.24350951  1
  Ta  Ta113  1  0.04059259  0.66623987  0.74789061  1
  Ta  Ta114  1  0.33747071  0.04458147  0.24744743  1
  Ta  Ta115  1  0.35596506  -0.01748717  0.74821156  1
  Ta  Ta116  1  0.34781912  0.28041436  0.24582146  1
  Ta  Ta117  1  0.38098901  0.32504300  0.74948384  1
  Ta  Ta118  1  0.37819542  0.67275948  0.25024597  1
  Ta  Ta119  1  0.29859130  0.67808389  0.75014357  1
  Ta  Ta120  1  0.68566325  -0.01009857  0.25432547  1
  Ta  Ta121  1  0.72813928  0.01265644  0.75787039  1
  Ta  Ta122  1  0.72453528  0.32720733  0.27748767  1
  Ta  Ta123  1  0.66576186  0.41273077  0.69963906  1
  Ta  Ta124  1  0.64714300  0.68929679  0.25335087  1
  Ta  Ta125  1  0.66494908  0.59770504  0.73385393  1
  Ta  Ta126  1  0.04388050  0.00009056  -0.00199716  1
  Ta  Ta127  1  0.00573247  -0.04860034  0.49961851  1
  Ta  Ta128  1  0.01568939  0.36008288  0.00238850  1
  Ta  Ta129  1  0.06755755  0.33649137  0.49896482  1
  Ta  Ta130  1  -0.02628349  0.65184109  -0.00710790  1
  Ta  Ta131  1  -0.00381316  0.71016128  0.49558600  1
  Ta  Ta132  1  0.30096699  -0.01123093  -0.00271582  1
  Ta  Ta133  1  0.35945159  -0.00786560  0.50298888  1
  Ta  Ta134  1  0.39355672  0.33666414  0.00108389  1
  Ta  Ta135  1  0.30873399  0.35955108  0.49946570  1
  Ta  Ta136  1  0.35754323  0.67716511  -0.00215011  1
  Ta  Ta137  1  0.32931908  0.62954562  0.49870532  1
  Ta  Ta138  1  0.67401286  0.05173782  0.00357893  1
  Ta  Ta139  1  0.65170707  0.01218422  0.50715178  1
  Ta  Ta140  1  0.66969531  0.27969801  0.03526394  1
  Ta  Ta141  1  0.70369531  0.34287532  0.47747899  1
  Ta  Ta142  1  0.70824976  0.66109603  -0.01071398  1
  Ta  Ta143  1  0.70903550  0.66035503  0.49804366  1
  N  N144  1  -0.00176805  0.66870749  0.86657551  1
  N  N145  1  0.82466060  0.50164363  0.86606626  1
  N  N146  1  0.17707514  0.16236771  0.12237907  1
  N  N147  1  0.49843177  0.14348456  0.62794087  1
  N  N148  1  0.33200608  -0.00169229  0.87055430  1
  N  N149  1  0.65764434  0.34621139  0.58981608  1
  N  N150  1  0.81580775  0.82753791  0.37627935  1
  N  N151  1  0.00656957  0.66959633  0.61739357  1
  N  N152  1  0.33484403  0.00752648  0.12307122  1
  N  N153  1  0.17550499  0.50350678  0.63141640  1
  N  N154  1  0.50642764  0.16272309  0.87813287  1
  N  N155  1  0.82617031  0.16208069  0.61830221  1
  N  N156  1  0.67209629  0.66606303  0.38035663  1
  N  N157  1  0.00885993  0.33373381  0.12299852  1
  N  N158  1  0.68014189  0.32386861  0.15167130  1
  N  N159  1  0.33275551  0.66433911  0.87744818  1
  N  N160  1  0.50247951  0.51160280  0.12990900  1
  N  N161  1  0.03135306  0.34247469  0.37688896  1
  N  N162  1  0.86500128  0.15796724  0.39099685  1
  N  N163  1  0.82389024  0.83852810  0.87840268  1
  N  N164  1  -0.00641515  0.67154737  0.12066380  1
  N  N165  1  -0.00524263  -0.00440929  0.61972238  1
  N  N166  1  0.15022991  0.16304881  0.86981031  1
  N  N167  1  0.32532767  0.65963957  0.62153478  1
  N  N168  1  0.50232125  0.49685385  0.86903595  1
  N  N169  1  0.00203358  0.67181645  0.37302673  1
  N  N170  1  0.81643754  0.82624509  0.12806112  1
  N  N171  1  0.64300853  0.34332696  0.36279457  1
  N  N172  1  0.48439727  0.51269810  0.37733986  1
  N  N173  1  0.17149171  0.50960167  0.11609511  1
  N  N174  1  0.84240419  0.49608970  0.38794712  1
  N  N175  1  0.15396239  0.83510752  0.87332429  1
  N  N176  1  0.49382814  0.83256611  0.62461634  1
  O  O177  1  0.02006738  -0.00043543  0.12961251  1
  O  O178  1  0.65349158  0.64996154  0.61807140  1
  O  O179  1  0.16427038  0.18180103  0.62990011  1
  O  O180  1  0.01279439  0.00187819  0.37877485  1
  O  O181  1  0.33158827  0.67782401  0.37231632  1
  O  O182  1  0.86121411  0.50039813  0.62221422  1
  O  O183  1  0.68276528  0.01283516  0.63044764  1
  O  O184  1  0.68009341  0.66453276  0.11852324  1
  O  O185  1  0.18600479  0.18598905  0.37821842  1
  O  O186  1  0.00608827  0.00298450  0.86786823  1
  O  O187  1  0.00482053  0.32465337  0.87265040  1
  O  O188  1  0.67833936  0.63845294  0.86027350  1
  O  O189  1  0.17151354  0.50119158  0.35575265  1
  O  O190  1  0.66087885  -0.00314907  0.37632312  1
  O  O191  1  0.82537059  0.16596730  0.88784739  1
  O  O192  1  0.33157195  0.32575774  0.37390701  1
  O  O193  1  0.01894900  0.32975967  0.62392113  1
  O  O194  1  0.37591799  0.33138532  0.87898840  1
  O  O195  1  0.14946753  0.82739893  0.37093634  1
  O  O196  1  0.16164652  0.51401623  0.88152781  1
  O  O197  1  0.47811440  0.82914546  0.87458420  1
  O  O198  1  0.34671543  -0.00451179  0.37019607  1
  O  O199  1  0.48128143  0.14012288  0.39118775  1
  O  O200  1  0.14898539  0.83186230  0.12030823  1
  O  O201  1  0.49066744  0.15596612  0.12436490  1
  O  O202  1  0.82454340  0.49212086  0.11375446  1
  O  O203  1  0.47144875  0.49804041  0.61197476  1
  O  O204  1  0.81712044  0.16045202  0.14602198  1
  O  O205  1  0.50369779  0.83501692  0.39465663  1
  O  O206  1  0.82962187  0.83814364  0.63338962  1
  O  O207  1  0.31667280  -0.00317768  0.62277353  1
  O  O208  1  0.34674704  0.33489008  0.62721809  1
  O  O209  1  0.36962073  0.32178480  0.12587683  1
  O  O210  1  0.33345730  0.66517942  0.13063336  1
  O  O211  1  0.68067264  0.03231564  0.87631097  1
  O  O212  1  0.48902988  0.82592256  0.12802005  1
  O  O213  1  0.67606878  0.01544991  0.12502564  1
  O  O214  1  0.15012350  0.83789351  0.62709456  1
  O  O215  1  0.68643332  0.33932757  0.93154832  1
