# generated using pymatgen
data_Sr24Ta24N11O13
_symmetry_space_group_name_H-M   'P 1'
_cell_length_a   16.79657092
_cell_length_b   16.79142027
_cell_length_c   15.72027422
_cell_angle_alpha   90.27655843
_cell_angle_beta   89.84662364
_cell_angle_gamma   90.12099406
_symmetry_Int_Tables_number   1
_chemical_formula_structural   Sr24Ta24N11O13
_chemical_formula_sum   'Sr72 Ta72 N33 O39'
_cell_volume   4433.64182402
_cell_formula_units_Z   3
loop_
 _symmetry_equiv_pos_site_id
 _symmetry_equiv_pos_as_xyz
  1  'x, y, z'
loop_
 _atom_site_type_symbol
 _atom_site_label
 _atom_site_symmetry_multiplicity
 _atom_site_fract_x
 _atom_site_fract_y
 _atom_site_fract_z
 _atom_site_occupancy
  Sr  Sr0  1  -0.00738589  0.15508181  0.09068819  1
  Sr  Sr1  1  0.02494555  0.15406003  0.63381209  1
  Sr  Sr2  1  0.01949260  0.48701750  0.10525551  1
  Sr  Sr3  1  -0.00112698  0.49587934  0.63333908  1
  Sr  Sr4  1  -0.00737779  0.83703974  0.16269052  1
  Sr  Sr5  1  0.02652180  0.82767844  0.62028251  1
  Sr  Sr6  1  0.31989994  0.16077483  0.13786198  1
  Sr  Sr7  1  0.34265365  0.15215714  0.57954542  1
  Sr  Sr8  1  0.34084797  0.50449982  0.13767510  1
  Sr  Sr9  1  0.34996607  0.50476197  0.61801846  1
  Sr  Sr10  1  0.33350506  0.82693231  0.10864398  1
  Sr  Sr11  1  0.34478215  0.84655148  0.66454688  1
  Sr  Sr12  1  0.67476983  0.17158162  0.13308148  1
  Sr  Sr13  1  0.64981713  0.17379037  0.66350285  1
  Sr  Sr14  1  0.66688382  0.50744778  0.13046091  1
  Sr  Sr15  1  0.68092685  0.47083869  0.58215973  1
  Sr  Sr16  1  0.68056335  0.84718159  0.07789519  1
  Sr  Sr17  1  0.67524783  0.81585669  0.62968729  1
  Sr  Sr18  1  0.14094507  -0.01321282  0.15122996  1
  Sr  Sr19  1  0.17047223  -0.00420865  0.61956741  1
  Sr  Sr20  1  0.15006628  0.32014856  0.11583730  1
  Sr  Sr21  1  0.16667089  0.35139155  0.67596774  1
  Sr  Sr22  1  0.16296403  0.66992944  0.11303553  1
  Sr  Sr23  1  0.16665741  0.64964662  0.58125922  1
  Sr  Sr24  1  0.47248648  -0.00645267  0.12868544  1
  Sr  Sr25  1  0.49505834  0.00781655  0.61723361  1
  Sr  Sr26  1  0.50520620  0.34609965  0.07932066  1
  Sr  Sr27  1  0.49230240  0.33733692  0.62946603  1
  Sr  Sr28  1  0.49191044  0.65518037  0.16574800  1
  Sr  Sr29  1  0.50498694  0.67643753  0.62334267  1
  Sr  Sr30  1  0.82954575  0.00634866  0.12320931  1
  Sr  Sr31  1  0.80837854  0.00247902  0.60666147  1
  Sr  Sr32  1  0.81572656  0.34136365  0.16715132  1
  Sr  Sr33  1  0.84680383  0.34021229  0.60855157  1
  Sr  Sr34  1  0.82144580  0.66981921  0.11230206  1
  Sr  Sr35  1  0.85204349  0.68339967  0.66658580  1
  Sr  Sr36  1  -0.01824609  0.16250041  0.42354019  1
  Sr  Sr37  1  0.01077017  0.15138827  0.87566795  1
  Sr  Sr38  1  0.01157894  0.48484042  0.38382639  1
  Sr  Sr39  1  0.00070793  0.50524127  0.87382957  1
  Sr  Sr40  1  0.01005689  0.83397575  0.36856766  1
  Sr  Sr41  1  0.00163311  0.83233981  0.84150703  1
  Sr  Sr42  1  0.33069648  0.15900796  0.36690772  1
  Sr  Sr43  1  0.33903707  0.16815891  0.92190702  1
  Sr  Sr44  1  0.34366753  0.51480227  0.38415944  1
  Sr  Sr45  1  0.35321627  0.49079444  0.84432249  1
  Sr  Sr46  1  0.36889913  0.83150392  0.33166585  1
  Sr  Sr47  1  0.33176817  0.83060799  0.87919084  1
  Sr  Sr48  1  0.67071971  0.15914599  0.33112559  1
  Sr  Sr49  1  0.66753123  0.17777986  0.86373787  1
  Sr  Sr50  1  0.67903008  0.50709130  0.35505325  1
  Sr  Sr51  1  0.66936620  0.49793307  0.91233021  1
  Sr  Sr52  1  0.66696697  0.85175294  0.42218436  1
  Sr  Sr53  1  0.67836381  0.81069360  0.87079181  1
  Sr  Sr54  1  0.15054677  0.00757523  0.39382858  1
  Sr  Sr55  1  0.14724827  -0.01880657  0.83825580  1
  Sr  Sr56  1  0.17602996  0.33961708  0.33100409  1
  Sr  Sr57  1  0.15367814  0.31023732  0.88789035  1
  Sr  Sr58  1  0.15439188  0.66799485  0.38448674  1
  Sr  Sr59  1  0.18159902  0.66446243  0.91294270  1
  Sr  Sr60  1  0.49089593  0.01388744  0.36039330  1
  Sr  Sr61  1  0.47286105  -0.01037541  0.89671124  1
  Sr  Sr62  1  0.48466753  0.34697909  0.41642253  1
  Sr  Sr63  1  0.50165065  0.33696182  0.87038021  1
  Sr  Sr64  1  0.50831845  0.67292780  0.37377584  1
  Sr  Sr65  1  0.49150218  0.67303368  0.83249103  1
  Sr  Sr66  1  0.82161986  -0.00091969  0.37507796  1
  Sr  Sr67  1  0.81779422  0.01486016  0.90675878  1
  Sr  Sr68  1  0.83926769  0.34823561  0.38776571  1
  Sr  Sr69  1  0.82506619  0.33270948  0.84182808  1
  Sr  Sr70  1  0.83661640  0.68247378  0.34802598  1
  Sr  Sr71  1  0.83772249  0.66048650  0.88296288  1
  Ta  Ta72  1  0.16482384  0.11574073  -0.00246175  1
  Ta  Ta73  1  0.16965727  0.21652673  0.50218731  1
  Ta  Ta74  1  0.20369791  0.48369606  -0.00241957  1
  Ta  Ta75  1  0.17653801  0.45718696  0.50493253  1
  Ta  Ta76  1  0.14125452  0.84823733  0.00362359  1
  Ta  Ta77  1  0.22433938  0.83073677  0.49441882  1
  Ta  Ta78  1  0.52617492  0.15656375  0.00258389  1
  Ta  Ta79  1  0.53637549  0.17115662  0.49018535  1
  Ta  Ta80  1  0.49358453  0.53429643  -0.00542790  1
  Ta  Ta81  1  0.52580510  0.52665118  0.49735729  1
  Ta  Ta82  1  0.50289140  0.79396939  -0.00122971  1
  Ta  Ta83  1  0.47242054  0.84070071  0.49652289  1
  Ta  Ta84  1  0.82386396  0.20631904  0.00161015  1
  Ta  Ta85  1  0.77919351  0.17027591  0.49945047  1
  Ta  Ta86  1  0.84032104  0.46172470  -0.00444941  1
  Ta  Ta87  1  0.84077711  0.55054582  0.50533963  1
  Ta  Ta88  1  0.87347444  0.83640302  -0.00042625  1
  Ta  Ta89  1  0.85486415  0.82031501  0.49743471  1
  Ta  Ta90  1  0.12001612  0.15938653  0.25456123  1
  Ta  Ta91  1  0.21128694  0.15972992  0.75436482  1
  Ta  Ta92  1  0.16796430  0.52636288  0.24569737  1
  Ta  Ta93  1  0.17501020  0.54573012  0.74747700  1
  Ta  Ta94  1  0.19014285  0.82282211  0.25071515  1
  Ta  Ta95  1  0.17621520  0.77436281  0.74696049  1
  Ta  Ta96  1  0.49464198  0.22070218  0.25053424  1
  Ta  Ta97  1  0.45715878  0.16026993  0.75373871  1
  Ta  Ta98  1  0.50162068  0.46236190  0.24813792  1
  Ta  Ta99  1  0.54757803  0.50064986  0.74573784  1
  Ta  Ta100  1  0.55163355  0.83826037  0.24981403  1
  Ta  Ta101  1  0.52670722  0.86312188  0.75631585  1
  Ta  Ta102  1  0.87477494  0.17021665  0.25498842  1
  Ta  Ta103  1  0.84884748  0.15745997  0.74536816  1
  Ta  Ta104  1  0.87088313  0.51792615  0.24749586  1
  Ta  Ta105  1  0.80006674  0.50197801  0.74785135  1
  Ta  Ta106  1  0.79373948  0.84221088  0.24641765  1
  Ta  Ta107  1  0.82758640  0.87642829  0.75764897  1
  Ta  Ta108  1  -0.01536611  0.03607901  0.25405534  1
  Ta  Ta109  1  -0.05261328  0.00355061  0.75534299  1
  Ta  Ta110  1  -0.00682136  0.29280929  0.25453825  1
  Ta  Ta111  1  -0.01398863  0.30798338  0.75005617  1
  Ta  Ta112  1  0.00528889  0.63694560  0.24424534  1
  Ta  Ta113  1  0.04862360  0.66200965  0.74979549  1
  Ta  Ta114  1  0.29653766  -0.01686863  0.25197275  1
  Ta  Ta115  1  0.33340218  0.03707146  0.74879346  1
  Ta  Ta116  1  0.36846316  0.33625450  0.24819160  1
  Ta  Ta117  1  0.33506760  0.27971260  0.75346400  1
  Ta  Ta118  1  0.29964293  0.66881627  0.25354533  1
  Ta  Ta119  1  0.30152842  0.66349438  0.74568196  1
  Ta  Ta120  1  0.66188943  -0.03416571  0.25070773  1
  Ta  Ta121  1  0.65835856  -0.01538276  0.75304560  1
  Ta  Ta122  1  0.62202949  0.33860948  0.24784153  1
  Ta  Ta123  1  0.66314690  0.37197135  0.75234165  1
  Ta  Ta124  1  0.66837754  0.72302023  0.24770721  1
  Ta  Ta125  1  0.67265284  0.61381689  0.74848865  1
  Ta  Ta126  1  0.00805998  -0.02979983  0.00002323  1
  Ta  Ta127  1  -0.02667980  -0.02542634  0.50107572  1
  Ta  Ta128  1  -0.05036492  0.32558166  0.00637485  1
  Ta  Ta129  1  0.04665251  0.33083877  0.50244180  1
  Ta  Ta130  1  -0.00010062  0.70776189  -0.00587507  1
  Ta  Ta131  1  -0.03037291  0.66853003  0.50418878  1
  Ta  Ta132  1  0.27649030  -0.00849454  0.00316671  1
  Ta  Ta133  1  0.33297977  -0.04011776  0.49396744  1
  Ta  Ta134  1  0.31908968  0.35630129  -0.00517383  1
  Ta  Ta135  1  0.29103688  0.33322035  0.50340470  1
  Ta  Ta136  1  0.37037210  0.65533929  -0.00723903  1
  Ta  Ta137  1  0.34371352  0.70997434  0.49521462  1
  Ta  Ta138  1  0.63731114  0.02940482  0.00261050  1
  Ta  Ta139  1  0.65373296  0.04975177  0.49339185  1
  Ta  Ta140  1  0.69688428  0.32577275  0.00124753  1
  Ta  Ta141  1  0.66086677  0.28637755  0.49405088  1
  Ta  Ta142  1  0.61451626  0.66752944  0.00028892  1
  Ta  Ta143  1  0.69479051  0.65587569  0.49956624  1
  N  N144  1  0.32797609  0.00150468  0.37539942  1
  N  N145  1  0.33101448  0.32345474  0.87443512  1
  N  N146  1  0.00998730  0.66963991  0.87897270  1
  N  N147  1  0.50410875  0.49988663  0.12642057  1
  N  N148  1  0.83397980  0.83931077  0.12646427  1
  N  N149  1  0.33933354  0.66422871  0.87301820  1
  N  N150  1  0.00818043  0.66816206  0.62087100  1
  N  N151  1  -0.01404079  -0.00192140  0.87735678  1
  N  N152  1  0.17461426  0.49889314  0.62457859  1
  N  N153  1  -0.01167787  -0.00338996  0.38130932  1
  N  N154  1  0.16190602  0.82659062  0.12704096  1
  N  N155  1  0.50767965  0.50485864  0.37353294  1
  N  N156  1  -0.01323701  -0.00126691  0.13214674  1
  N  N157  1  0.17590471  0.49584662  0.12449247  1
  N  N158  1  0.50940285  0.50040229  0.61960664  1
  N  N159  1  0.83475057  0.49332398  0.87598768  1
  N  N160  1  0.65987888  0.00624153  0.37404381  1
  N  N161  1  0.83893809  0.50893125  0.62173477  1
  N  N162  1  0.50766376  0.50125285  0.87350434  1
  N  N163  1  0.83244921  0.83927981  0.87766847  1
  N  N164  1  0.83305403  0.83577147  0.37760641  1
  N  N165  1  0.66059364  0.33817514  0.12511011  1
  N  N166  1  0.50384516  0.83208519  0.87391340  1
  N  N167  1  0.33011444  0.00020187  0.62733410  1
  N  N168  1  0.17343225  0.14816271  0.87507433  1
  N  N169  1  -0.01071016  0.32422709  0.12605387  1
  N  N170  1  0.00582019  0.32440248  0.63078583  1
  N  N171  1  0.49844438  0.17796118  0.36902827  1
  N  N172  1  0.66518306  0.33731671  0.87252583  1
  N  N173  1  0.51534309  0.84116094  0.38056935  1
  N  N174  1  0.31361399  -0.00495685  0.12279853  1
  N  N175  1  0.33978646  0.67207429  0.37029395  1
  N  N176  1  0.00698266  0.32607972  0.38046632  1
  O  O177  1  0.33387203  0.33472823  0.37269771  1
  O  O178  1  0.66082385  0.32739223  0.37315394  1
  O  O179  1  0.65712835  0.68070594  0.12139375  1
  O  O180  1  -0.00117959  0.65897218  0.37060825  1
  O  O181  1  0.82278441  0.16325340  0.62397824  1
  O  O182  1  0.83124261  0.17315186  0.87078083  1
  O  O183  1  0.16964475  0.49108177  0.37093219  1
  O  O184  1  0.16731796  0.82402163  0.38297693  1
  O  O185  1  0.33854548  0.66512483  0.12786013  1
  O  O186  1  0.00517851  0.66190390  0.11950037  1
  O  O187  1  0.34707500  0.33982936  0.12333755  1
  O  O188  1  0.50010411  0.84692233  0.62914799  1
  O  O189  1  0.65917678  0.65497510  0.87458049  1
  O  O190  1  0.85271081  0.49822639  0.12550140  1
  O  O191  1  -0.02241130  0.00236193  0.62618795  1
  O  O192  1  0.50799492  0.83545445  0.12070293  1
  O  O193  1  0.65393072  0.01083158  0.87928349  1
  O  O194  1  0.65521880  0.32428980  0.62846044  1
  O  O195  1  0.68037648  0.68353011  0.37814640  1
  O  O196  1  0.65241217  0.01109443  0.12915186  1
  O  O197  1  0.68087680  0.66013914  0.62810872  1
  O  O198  1  0.17119098  0.81704349  0.87020763  1
  O  O199  1  0.17995233  0.16987126  0.62136826  1
  O  O200  1  0.65543749  0.01277879  0.62835844  1
  O  O201  1  0.50559175  0.16281034  0.87311825  1
  O  O202  1  0.83053933  0.18186089  0.13317635  1
  O  O203  1  0.85309887  0.51185226  0.37469152  1
  O  O204  1  0.18834289  0.81945947  0.62387415  1
  O  O205  1  0.49552796  0.16517884  0.62786538  1
  O  O206  1  -0.00615750  0.31485817  0.88259006  1
  O  O207  1  0.33026836  0.31881166  0.62682134  1
  O  O208  1  0.34239255  0.66876381  0.61913923  1
  O  O209  1  0.31901822  -0.00911847  0.87215243  1
  O  O210  1  0.14591113  0.17203944  0.37875467  1
  O  O211  1  0.14320683  0.15101309  0.12809640  1
  O  O212  1  0.82727396  0.83546328  0.63377549  1
  O  O213  1  0.18308344  0.51144241  0.87515450  1
  O  O214  1  0.51378059  0.17820488  0.12522123  1
  O  O215  1  0.82742798  0.17184295  0.37778084  1
