# generated using pymatgen
data_Sr24Ta24N11O13
_symmetry_space_group_name_H-M   'P 1'
_cell_length_a   16.99892502
_cell_length_b   16.60394027
_cell_length_c   15.70108640
_cell_angle_alpha   90.18363054
_cell_angle_beta   89.85203343
_cell_angle_gamma   89.46769806
_symmetry_Int_Tables_number   1
_chemical_formula_structural   Sr24Ta24N11O13
_chemical_formula_sum   'Sr72 Ta72 N33 O39'
_cell_volume   4431.38893646
_cell_formula_units_Z   3
loop_
 _symmetry_equiv_pos_site_id
 _symmetry_equiv_pos_as_xyz
  1  'x, y, z'
loop_
 _atom_site_type_symbol
 _atom_site_label
 _atom_site_symmetry_multiplicity
 _atom_site_fract_x
 _atom_site_fract_y
 _atom_site_fract_z
 _atom_site_occupancy
  Sr  Sr0  1  -0.03575533  0.16254307  0.14024656  1
  Sr  Sr1  1  -0.01456648  0.16022069  0.64428646  1
  Sr  Sr2  1  -0.00291412  0.49238161  0.09803407  1
  Sr  Sr3  1  -0.01574604  0.50634633  0.62409445  1
  Sr  Sr4  1  -0.00167932  0.82758465  0.13571000  1
  Sr  Sr5  1  -0.02725184  0.83331634  0.60549095  1
  Sr  Sr6  1  0.32430429  0.16712987  0.13743588  1
  Sr  Sr7  1  0.29204955  0.16049726  0.59602731  1
  Sr  Sr8  1  0.31100038  0.49379781  0.14716467  1
  Sr  Sr9  1  0.32296110  0.48915744  0.64711763  1
  Sr  Sr10  1  0.33020691  0.82315182  0.09145382  1
  Sr  Sr11  1  0.31768661  0.83467630  0.62727825  1
  Sr  Sr12  1  0.65891840  0.15468774  0.08209435  1
  Sr  Sr13  1  0.66334365  0.18920843  0.64014279  1
  Sr  Sr14  1  0.67310732  0.49494015  0.13693866  1
  Sr  Sr15  1  0.63161936  0.50147434  0.58191613  1
  Sr  Sr16  1  0.64905143  0.84088087  0.16425215  1
  Sr  Sr17  1  0.65770339  0.81468086  0.64068159  1
  Sr  Sr18  1  0.20413508  0.00284074  0.09607205  1
  Sr  Sr19  1  0.17024646  -0.00257146  0.63799552  1
  Sr  Sr20  1  0.17574083  0.33547015  0.12053430  1
  Sr  Sr21  1  0.17266176  0.34922149  0.59387221  1
  Sr  Sr22  1  0.17553389  0.68344691  0.14117098  1
  Sr  Sr23  1  0.18886218  0.67867727  0.64701418  1
  Sr  Sr24  1  0.51082899  0.00647771  0.14244775  1
  Sr  Sr25  1  0.53724143  0.01541736  0.64080126  1
  Sr  Sr26  1  0.53404677  0.33378906  0.09325683  1
  Sr  Sr27  1  0.50430034  0.33805777  0.63884331  1
  Sr  Sr28  1  0.51640347  0.66178802  0.13108779  1
  Sr  Sr29  1  0.50627641  0.67156140  0.59759129  1
  Sr  Sr30  1  0.84013525  -0.01539247  0.13751119  1
  Sr  Sr31  1  0.84282726  0.00413303  0.58573590  1
  Sr  Sr32  1  0.84196320  0.34064892  0.15712936  1
  Sr  Sr33  1  0.85522994  0.34467379  0.63708513  1
  Sr  Sr34  1  0.85907556  0.65505895  0.08347831  1
  Sr  Sr35  1  0.84443865  0.67397018  0.64044518  1
  Sr  Sr36  1  -0.02989083  0.16134786  0.35348782  1
  Sr  Sr37  1  -0.01405960  0.16045665  0.85852412  1
  Sr  Sr38  1  -0.00661644  0.49028313  0.40212004  1
  Sr  Sr39  1  -0.02043761  0.50185257  0.87182822  1
  Sr  Sr40  1  -0.00000380  0.83360520  0.36294522  1
  Sr  Sr41  1  -0.03757484  0.83251496  0.90420218  1
  Sr  Sr42  1  0.33191178  0.15952519  0.36095721  1
  Sr  Sr43  1  0.29654779  0.16125089  0.90286672  1
  Sr  Sr44  1  0.31277523  0.48882256  0.35808641  1
  Sr  Sr45  1  0.32468774  0.48580434  0.85175180  1
  Sr  Sr46  1  0.32691724  0.82591964  0.40946699  1
  Sr  Sr47  1  0.32116925  0.83963192  0.87373829  1
  Sr  Sr48  1  0.65709171  0.15643585  0.41682285  1
  Sr  Sr49  1  0.66169272  0.17993964  0.86371817  1
  Sr  Sr50  1  0.66671754  0.49497544  0.35689296  1
  Sr  Sr51  1  0.64133987  0.51246616  0.92355953  1
  Sr  Sr52  1  0.64879740  0.82272929  0.36139209  1
  Sr  Sr53  1  0.65621696  0.81820859  0.84437883  1
  Sr  Sr54  1  0.19683255  0.00284658  0.40101255  1
  Sr  Sr55  1  0.16660010  0.00808722  0.85817936  1
  Sr  Sr56  1  0.18482064  0.32379216  0.37118865  1
  Sr  Sr57  1  0.17124637  0.34407210  0.90508793  1
  Sr  Sr58  1  0.17639948  0.68322599  0.35113501  1
  Sr  Sr59  1  0.19765888  0.67798056  0.85905755  1
  Sr  Sr60  1  0.50959933  0.00853698  0.35671803  1
  Sr  Sr61  1  0.52947134  0.00717559  0.85913314  1
  Sr  Sr62  1  0.53203291  0.33489294  0.40208413  1
  Sr  Sr63  1  0.50480972  0.33640289  0.86263932  1
  Sr  Sr64  1  0.51750061  0.66169480  0.37374302  1
  Sr  Sr65  1  0.50562230  0.67090958  0.89887385  1
  Sr  Sr66  1  0.84747204  -0.00710380  0.36580857  1
  Sr  Sr67  1  0.84027964  0.00869722  0.92137729  1
  Sr  Sr68  1  0.84679303  0.34342633  0.36013101  1
  Sr  Sr69  1  0.84348938  0.32459582  0.83760905  1
  Sr  Sr70  1  0.86950947  0.66341617  0.40808098  1
  Sr  Sr71  1  0.83149426  0.67054052  0.86728139  1
  Ta  Ta72  1  0.11309837  0.16511898  0.00235024  1
  Ta  Ta73  1  0.11704268  0.16402150  0.49706345  1
  Ta  Ta74  1  0.17441009  0.53504518  0.00356711  1
  Ta  Ta75  1  0.16962570  0.53836356  0.49857949  1
  Ta  Ta76  1  0.13851245  0.83645094  -0.00649269  1
  Ta  Ta77  1  0.14316441  0.82890780  0.49998368  1
  Ta  Ta78  1  0.46959299  0.16111714  -0.00398875  1
  Ta  Ta79  1  0.47286494  0.16634506  0.50715283  1
  Ta  Ta80  1  0.45152189  0.49475839  -0.00214993  1
  Ta  Ta81  1  0.45005098  0.49523055  0.50328034  1
  Ta  Ta82  1  0.51937879  0.85007228  0.00699715  1
  Ta  Ta83  1  0.50812397  0.86508309  0.49672508  1
  Ta  Ta84  1  0.83085520  0.20616112  -0.00561193  1
  Ta  Ta85  1  0.83156958  0.19596999  0.49971126  1
  Ta  Ta86  1  0.82628602  0.46187489  0.00000279  1
  Ta  Ta87  1  0.80616967  0.49623794  0.50098251  1
  Ta  Ta88  1  0.78296089  0.82888965  0.00108136  1
  Ta  Ta89  1  0.79226626  0.82688879  0.50143689  1
  Ta  Ta90  1  0.13890217  0.15561222  0.24292639  1
  Ta  Ta91  1  0.15961651  0.20452904  0.75487070  1
  Ta  Ta92  1  0.12351573  0.50193527  0.24691397  1
  Ta  Ta93  1  0.14071766  0.49779626  0.75232028  1
  Ta  Ta94  1  0.18494146  0.86631683  0.24582957  1
  Ta  Ta95  1  0.10753093  0.83549442  0.76396466  1
  Ta  Ta96  1  0.52391131  0.19014476  0.24947180  1
  Ta  Ta97  1  0.43404791  0.16552384  0.74530246  1
  Ta  Ta98  1  0.48646449  0.47749332  0.24851030  1
  Ta  Ta99  1  0.51273973  0.52142816  0.75149395  1
  Ta  Ta100  1  0.45707130  0.82712368  0.25273862  1
  Ta  Ta101  1  0.47584223  0.82697795  0.74886109  1
  Ta  Ta102  1  0.78256511  0.16442646  0.25321659  1
  Ta  Ta103  1  0.82283884  0.11602039  0.75330495  1
  Ta  Ta104  1  0.84980880  0.53207980  0.25040564  1
  Ta  Ta105  1  0.78777128  0.50893083  0.74634423  1
  Ta  Ta106  1  0.83117696  0.79014121  0.24961158  1
  Ta  Ta107  1  0.82953029  0.87500953  0.75272682  1
  Ta  Ta108  1  0.05494344  0.00274571  0.24639459  1
  Ta  Ta109  1  -0.02355230  -0.02072656  0.75724656  1
  Ta  Ta110  1  0.02774372  0.34428034  0.25016609  1
  Ta  Ta111  1  0.04274303  0.34342222  0.74472778  1
  Ta  Ta112  1  -0.00434017  0.64367411  0.24458470  1
  Ta  Ta113  1  0.02344298  0.67548024  0.76462642  1
  Ta  Ta114  1  0.33714188  -0.03471188  0.25762123  1
  Ta  Ta115  1  0.36276925  0.00897729  0.73536851  1
  Ta  Ta116  1  0.39655840  0.32769677  0.25021921  1
  Ta  Ta117  1  0.31622652  0.29538352  0.75186357  1
  Ta  Ta118  1  0.35425028  0.68464020  0.25111667  1
  Ta  Ta119  1  0.37911624  0.67045965  0.75002418  1
  Ta  Ta120  1  0.67579227  0.04129528  0.24720352  1
  Ta  Ta121  1  0.71112398  -0.00349656  0.75284664  1
  Ta  Ta122  1  0.66403729  0.29103939  0.24567910  1
  Ta  Ta123  1  0.66814557  0.40178444  0.75235745  1
  Ta  Ta124  1  0.72328774  0.66380853  0.25215120  1
  Ta  Ta125  1  0.65582798  0.61557850  0.74793214  1
  Ta  Ta126  1  0.02788405  0.00544729  0.00345651  1
  Ta  Ta127  1  0.02626101  0.01114435  0.49249918  1
  Ta  Ta128  1  -0.02052424  0.31301197  0.00109402  1
  Ta  Ta129  1  -0.00092345  0.30024978  0.49765277  1
  Ta  Ta130  1  0.04505582  0.66936705  -0.00812076  1
  Ta  Ta131  1  0.04747514  0.67013688  0.49901900  1
  Ta  Ta132  1  0.38377872  0.00241645  -0.00437898  1
  Ta  Ta133  1  0.38279857  0.00388860  0.50887925  1
  Ta  Ta134  1  0.35705886  0.33607351  -0.00103571  1
  Ta  Ta135  1  0.36138847  0.33076292  0.49491709  1
  Ta  Ta136  1  0.33409074  0.63116430  -0.00403951  1
  Ta  Ta137  1  0.32661108  0.63426495  0.50540440  1
  Ta  Ta138  1  0.66445193  -0.04385269  0.00541211  1
  Ta  Ta139  1  0.66861783  -0.03538798  0.49588711  1
  Ta  Ta140  1  0.71430796  0.33599636  -0.00189378  1
  Ta  Ta141  1  0.70988104  0.33779033  0.50359653  1
  Ta  Ta142  1  0.67195138  0.70869557  0.00828780  1
  Ta  Ta143  1  0.69707057  0.66880888  0.49266106  1
  N  N144  1  0.01999724  0.66615824  0.37800335  1
  N  N145  1  0.68111737  0.32483283  0.12723855  1
  N  N146  1  0.01322445  -0.00325520  0.36809521  1
  N  N147  1  0.16007480  0.50768672  0.12546854  1
  N  N148  1  0.34656119  0.66053083  0.87507694  1
  N  N149  1  0.49551200  0.83540389  0.37756913  1
  N  N150  1  0.49629373  0.83357776  0.12694831  1
  N  N151  1  0.14557088  0.17796668  0.87790487  1
  N  N152  1  0.01035018  0.33764540  0.62334281  1
  N  N153  1  -0.00360035  0.32791300  0.12142074  1
  N  N154  1  0.35246166  0.32297467  0.37134446  1
  N  N155  1  0.66999016  -0.00121313  0.12787191  1
  N  N156  1  0.81672479  0.16728569  0.38119469  1
  N  N157  1  0.17096617  0.84346124  0.11952389  1
  N  N158  1  0.32412927  -0.00463727  0.61609895  1
  N  N159  1  0.16758065  0.84027990  0.37968232  1
  N  N160  1  0.01073748  0.66627582  0.12037115  1
  N  N161  1  -0.01477273  0.66263921  0.88440900  1
  N  N162  1  0.81304708  0.83756531  0.87267652  1
  N  N163  1  0.83592511  0.50269871  0.37307903  1
  N  N164  1  0.34855917  -0.00721740  0.37873552  1
  N  N165  1  0.83396301  0.49624510  0.12072924  1
  N  N166  1  0.33058396  0.32641480  0.87812173  1
  N  N167  1  0.48871624  0.49806842  0.87928767  1
  N  N168  1  0.83002911  0.50942619  0.62713530  1
  N  N169  1  0.81817282  0.83626543  0.62269557  1
  N  N170  1  0.82336239  0.16441287  0.87126426  1
  N  N171  1  0.00294564  0.33014425  0.37261399  1
  N  N172  1  0.16807010  0.84638597  0.86661798  1
  N  N173  1  0.67669848  0.65804790  0.37176344  1
  N  N174  1  0.48171758  0.49762452  0.62373263  1
  N  N175  1  -0.00285177  0.00047714  0.88301336  1
  N  N176  1  0.34055455  0.66088817  0.62590055  1
  O  O177  1  0.49604617  0.83526952  0.87284300  1
  O  O178  1  0.67957802  -0.00356354  0.88358309  1
  O  O179  1  -0.00366396  -0.00904776  0.13636662  1
  O  O180  1  0.16154627  0.50110612  0.87523905  1
  O  O181  1  0.37060114  -0.00294723  0.87068970  1
  O  O182  1  0.13961840  0.16670201  0.36704141  1
  O  O183  1  0.48537453  0.49485346  0.37392710  1
  O  O184  1  0.34438347  0.66490671  0.12610907  1
  O  O185  1  0.66679856  0.35848347  0.87458232  1
  O  O186  1  0.83365491  0.81761343  0.12527878  1
  O  O187  1  0.66057219  0.66328673  0.88466292  1
  O  O188  1  -0.00302198  0.33664276  0.86552678  1
  O  O189  1  0.16835677  0.17287402  0.11638164  1
  O  O190  1  0.01615049  0.66778821  0.63369523  1
  O  O191  1  0.68481021  -0.01776716  0.61992632  1
  O  O192  1  0.15779752  0.51365948  0.62286758  1
  O  O193  1  0.83346973  0.81953413  0.37328065  1
  O  O194  1  0.66845924  -0.00509146  0.37149757  1
  O  O195  1  0.66413223  0.65516473  0.62371149  1
  O  O196  1  0.82948705  0.15746261  0.62791536  1
  O  O197  1  0.14388735  0.83985746  0.63823778  1
  O  O198  1  -0.00409020  -0.00235480  0.61915606  1
  O  O199  1  0.46738194  0.16707533  0.86645195  1
  O  O200  1  0.32684598  0.32995846  0.62714378  1
  O  O201  1  0.35709616  -0.00987047  0.12143334  1
  O  O202  1  0.49665772  0.49200006  0.12384208  1
  O  O203  1  0.33944532  0.66584435  0.37461419  1
  O  O204  1  0.50267900  0.17308590  0.11669749  1
  O  O205  1  0.49607945  0.83175266  0.62434712  1
  O  O206  1  0.14049947  0.17145427  0.62478293  1
  O  O207  1  0.50009768  0.17219433  0.38158481  1
  O  O208  1  0.68219424  0.35029012  0.63077420  1
  O  O209  1  0.34870801  0.32329570  0.13381789  1
  O  O210  1  0.81561929  0.17031018  0.11823794  1
  O  O211  1  0.82651695  0.50794073  0.87845159  1
  O  O212  1  0.16320677  0.51857427  0.37029993  1
  O  O213  1  0.68460246  0.32896791  0.37654488  1
  O  O214  1  0.67635574  0.66688201  0.13018396  1
  O  O215  1  0.49777119  0.17510320  0.63011034  1
