# generated using pymatgen
data_Sr24Ta24N11O13
_symmetry_space_group_name_H-M   'P 1'
_cell_length_a   16.64680666
_cell_length_b   17.04778716
_cell_length_c   15.49318752
_cell_angle_alpha   89.60449669
_cell_angle_beta   89.33738449
_cell_angle_gamma   90.60963939
_symmetry_Int_Tables_number   1
_chemical_formula_structural   Sr24Ta24N11O13
_chemical_formula_sum   'Sr72 Ta72 N33 O39'
_cell_volume   4396.17910923
_cell_formula_units_Z   3
loop_
 _symmetry_equiv_pos_site_id
 _symmetry_equiv_pos_as_xyz
  1  'x, y, z'
loop_
 _atom_site_type_symbol
 _atom_site_label
 _atom_site_symmetry_multiplicity
 _atom_site_fract_x
 _atom_site_fract_y
 _atom_site_fract_z
 _atom_site_occupancy
  Sr  Sr0  1  -0.00379024  0.16296338  0.13468947  1
  Sr  Sr1  1  0.02179320  0.18071562  0.57441610  1
  Sr  Sr2  1  0.01153686  0.52115637  0.10626039  1
  Sr  Sr3  1  -0.02004865  0.50495664  0.67241112  1
  Sr  Sr4  1  0.00188132  0.84177729  0.14855396  1
  Sr  Sr5  1  -0.00578259  0.83782796  0.60401863  1
  Sr  Sr6  1  0.35688184  0.17928680  0.12990757  1
  Sr  Sr7  1  0.33396193  0.16604319  0.67485448  1
  Sr  Sr8  1  0.32894024  0.54879007  0.16439290  1
  Sr  Sr9  1  0.33682250  0.48975305  0.62086359  1
  Sr  Sr10  1  0.32428504  0.84897233  0.09343240  1
  Sr  Sr11  1  0.33190778  0.87188607  0.61962230  1
  Sr  Sr12  1  0.67115058  0.17206425  0.08620103  1
  Sr  Sr13  1  0.66884603  0.15754714  0.63642341  1
  Sr  Sr14  1  0.66151070  0.49370225  0.13440058  1
  Sr  Sr15  1  0.67951490  0.51965695  0.56354386  1
  Sr  Sr16  1  0.65938958  0.83502415  0.12006542  1
  Sr  Sr17  1  0.66273927  0.82950904  0.64425904  1
  Sr  Sr18  1  0.16946746  -0.01877260  0.09580348  1
  Sr  Sr19  1  0.15879051  0.00270264  0.63526943  1
  Sr  Sr20  1  0.17700346  0.29789569  0.12883992  1
  Sr  Sr21  1  0.16898399  0.33220904  0.58442885  1
  Sr  Sr22  1  0.15869743  0.67828093  0.12049614  1
  Sr  Sr23  1  0.16444380  0.61851601  0.64557248  1
  Sr  Sr24  1  0.49016545  -0.01342023  0.14435000  1
  Sr  Sr25  1  0.51724788  -0.01025149  0.58577971  1
  Sr  Sr26  1  0.51492848  0.32115618  0.10748882  1
  Sr  Sr27  1  0.48084914  0.30931195  0.67596123  1
  Sr  Sr28  1  0.50700167  0.64939768  0.16781921  1
  Sr  Sr29  1  0.49778626  0.65036657  0.61857256  1
  Sr  Sr30  1  0.84163274  0.01214772  0.11704061  1
  Sr  Sr31  1  0.82314463  -0.01540049  0.67436190  1
  Sr  Sr32  1  0.83856008  0.35911178  0.18148045  1
  Sr  Sr33  1  0.82768839  0.33056705  0.61249835  1
  Sr  Sr34  1  0.81378111  0.67234113  0.07841806  1
  Sr  Sr35  1  0.83838320  0.66527967  0.62048076  1
  Sr  Sr36  1  -0.01127406  0.16531892  0.36021311  1
  Sr  Sr37  1  0.01339271  0.17040487  0.91498338  1
  Sr  Sr38  1  -0.00153208  0.51959401  0.33090731  1
  Sr  Sr39  1  0.00962108  0.50118902  0.88583350  1
  Sr  Sr40  1  -0.00264903  0.82827659  0.38062271  1
  Sr  Sr41  1  0.00648132  0.88481384  0.81212790  1
  Sr  Sr42  1  0.35181760  0.17194406  0.34056187  1
  Sr  Sr43  1  0.34985573  0.21114068  0.88969245  1
  Sr  Sr44  1  0.31408090  0.49598180  0.40379943  1
  Sr  Sr45  1  0.34306956  0.51549182  0.83717231  1
  Sr  Sr46  1  0.33070212  0.86592628  0.40359236  1
  Sr  Sr47  1  0.31688536  0.83455184  0.88113855  1
  Sr  Sr48  1  0.65877883  0.16251627  0.41785593  1
  Sr  Sr49  1  0.68100102  0.19036866  0.85902826  1
  Sr  Sr50  1  0.66343031  0.48827532  0.35834014  1
  Sr  Sr51  1  0.66267112  0.49977464  0.91227617  1
  Sr  Sr52  1  0.65780835  0.85762485  0.34902291  1
  Sr  Sr53  1  0.66933925  0.82012708  0.87662588  1
  Sr  Sr54  1  0.15074209  -0.02060080  0.42496848  1
  Sr  Sr55  1  0.18133774  -0.00256158  0.85276270  1
  Sr  Sr56  1  0.17532624  0.29925568  0.37271512  1
  Sr  Sr57  1  0.14916839  0.32744787  0.91903083  1
  Sr  Sr58  1  0.16311514  0.65559548  0.35235732  1
  Sr  Sr59  1  0.16892761  0.65198976  0.87974702  1
  Sr  Sr60  1  0.50205195  0.00265265  0.37305440  1
  Sr  Sr61  1  0.49663748  -0.05523325  0.92907371  1
  Sr  Sr62  1  0.49578872  0.31205025  0.35558578  1
  Sr  Sr63  1  0.51708728  0.34074038  0.89249532  1
  Sr  Sr64  1  0.49049162  0.62981282  0.38486392  1
  Sr  Sr65  1  0.49387930  0.65950583  0.83518674  1
  Sr  Sr66  1  0.84382772  -0.01884402  0.33213171  1
  Sr  Sr67  1  0.83398505  0.02865815  0.88537638  1
  Sr  Sr68  1  0.82104092  0.31877174  0.39374684  1
  Sr  Sr69  1  0.84540986  0.34519205  0.83327147  1
  Sr  Sr70  1  0.83478907  0.67549134  0.41246763  1
  Sr  Sr71  1  0.83049359  0.63823520  0.87409990  1
  Ta  Ta72  1  0.19439460  0.13982961  -0.00165561  1
  Ta  Ta73  1  0.22434975  0.15541308  0.50663297  1
  Ta  Ta74  1  0.20925527  0.49607148  0.01291037  1
  Ta  Ta75  1  0.10203720  0.49961270  0.49399285  1
  Ta  Ta76  1  0.11919398  0.82958238  -0.02807704  1
  Ta  Ta77  1  0.16888881  0.78173734  0.52062431  1
  Ta  Ta78  1  0.50843280  0.12625505  -0.01361088  1
  Ta  Ta79  1  0.47802466  0.17678879  0.51198555  1
  Ta  Ta80  1  0.47458555  0.52316236  -0.00424801  1
  Ta  Ta81  1  0.49934307  0.44206646  0.50558125  1
  Ta  Ta82  1  0.49304946  0.76998363  0.00226488  1
  Ta  Ta83  1  0.50440871  0.80351541  0.49665855  1
  Ta  Ta84  1  0.84111495  0.22194367  0.00825300  1
  Ta  Ta85  1  0.83649185  0.12027943  0.50176958  1
  Ta  Ta86  1  0.83702856  0.46204341  0.00196953  1
  Ta  Ta87  1  0.88510248  0.50090162  0.49634520  1
  Ta  Ta88  1  0.87030113  0.84751046  -0.01543361  1
  Ta  Ta89  1  0.81335955  0.85645873  0.49961330  1
  Ta  Ta90  1  0.17239092  0.11370323  0.25742828  1
  Ta  Ta91  1  0.14587432  0.19662084  0.74608256  1
  Ta  Ta92  1  0.17008207  0.46227607  0.24163125  1
  Ta  Ta93  1  0.15844756  0.44773267  0.75461777  1
  Ta  Ta94  1  0.18323307  0.84902106  0.25649728  1
  Ta  Ta95  1  0.16782091  0.79679938  0.72837461  1
  Ta  Ta96  1  0.54438931  0.15768943  0.24527715  1
  Ta  Ta97  1  0.50944524  0.12348353  0.76982699  1
  Ta  Ta98  1  0.47872171  0.46534003  0.25341567  1
  Ta  Ta99  1  0.55115833  0.49402099  0.74521878  1
  Ta  Ta100  1  0.46460230  0.81528844  0.24720846  1
  Ta  Ta101  1  0.48446047  0.84329352  0.75175714  1
  Ta  Ta102  1  0.79044641  0.16894551  0.24852365  1
  Ta  Ta103  1  0.88520956  0.17771041  0.74478286  1
  Ta  Ta104  1  0.83093726  0.56275229  0.24581046  1
  Ta  Ta105  1  0.77779281  0.50353793  0.73459455  1
  Ta  Ta106  1  0.82830217  0.79128455  0.24938335  1
  Ta  Ta107  1  0.84428991  0.80151883  0.75480174  1
  Ta  Ta108  1  0.04123228  -0.00080830  0.25423173  1
  Ta  Ta109  1  0.00131194  0.06289911  0.74422448  1
  Ta  Ta110  1  0.02575584  0.35093769  0.25954023  1
  Ta  Ta111  1  0.02440197  0.31221574  0.74454951  1
  Ta  Ta112  1  -0.04454929  0.67828250  0.23709110  1
  Ta  Ta113  1  -0.00004963  0.70017988  0.75514313  1
  Ta  Ta114  1  0.29795008  -0.00630830  0.24877276  1
  Ta  Ta115  1  0.40189495  0.00045956  0.76327403  1
  Ta  Ta116  1  0.33167338  0.36722099  0.25249114  1
  Ta  Ta117  1  0.28020521  0.34284127  0.75231555  1
  Ta  Ta118  1  0.32634607  0.72707867  0.25262237  1
  Ta  Ta119  1  0.32263104  0.70524963  0.73441694  1
  Ta  Ta120  1  0.67067476  0.04219004  0.25342425  1
  Ta  Ta121  1  0.61758897  -0.00851140  0.75572509  1
  Ta  Ta122  1  0.66437355  0.29437535  0.24895513  1
  Ta  Ta123  1  0.66569990  0.37167172  0.74845577  1
  Ta  Ta124  1  0.69237830  0.67160566  0.25660693  1
  Ta  Ta125  1  0.67076710  0.63502948  0.74269287  1
  Ta  Ta126  1  0.00612727  -0.02171711  -0.00647290  1
  Ta  Ta127  1  -0.04713572  0.00260339  0.50537923  1
  Ta  Ta128  1  -0.04727853  0.34462265  0.00949583  1
  Ta  Ta129  1  -0.00403115  0.37024392  0.48319815  1
  Ta  Ta130  1  -0.00802028  0.72680454  -0.02867537  1
  Ta  Ta131  1  0.01705399  0.64604660  0.50715497  1
  Ta  Ta132  1  0.33760773  0.03851063  -0.00167025  1
  Ta  Ta133  1  0.34275997  0.04937283  0.50561500  1
  Ta  Ta134  1  0.33653693  0.39280509  0.01031389  1
  Ta  Ta135  1  0.35395218  0.30642219  0.50518623  1
  Ta  Ta136  1  0.34883722  0.65683714  -0.00959746  1
  Ta  Ta137  1  0.32065895  0.69582170  0.51286265  1
  Ta  Ta138  1  0.65964790  0.00652321  -0.00351815  1
  Ta  Ta139  1  0.71019009  -0.00931584  0.50384679  1
  Ta  Ta140  1  0.72155479  0.33954085  0.00391018  1
  Ta  Ta141  1  0.62036973  0.33051307  0.51407898  1
  Ta  Ta142  1  0.62211673  0.66213349  0.00538738  1
  Ta  Ta143  1  0.65453322  0.70516504  0.48162931  1
  N  N144  1  0.83062416  0.82904522  0.37076784  1
  N  N145  1  0.83090851  0.50055197  0.61350326  1
  N  N146  1  0.17042405  0.52265286  0.13515115  1
  N  N147  1  0.83878412  0.17943674  0.13367544  1
  N  N148  1  0.83301789  0.82690125  0.63469191  1
  N  N149  1  0.50965925  0.18956227  0.87507504  1
  N  N150  1  0.65303924  0.64259507  0.37927214  1
  N  N151  1  0.00011738  0.66180235  0.63629030  1
  N  N152  1  0.67529456  0.00704766  0.38022196  1
  N  N153  1  0.33067383  0.33330983  0.37530843  1
  N  N154  1  0.51043868  0.15698068  0.11122286  1
  N  N155  1  0.32409019  0.33118492  0.63400240  1
  N  N156  1  -0.00241510  -0.00600800  0.37436745  1
  N  N157  1  -0.01980386  0.31778593  0.37044763  1
  N  N158  1  0.49943228  0.82738795  0.61746709  1
  N  N159  1  0.50629763  0.15927956  0.36889773  1
  N  N160  1  0.00701928  0.02502032  0.87036869  1
  N  N161  1  0.50593616  0.50183579  0.87332494  1
  N  N162  1  0.65881312  0.66343240  0.12668044  1
  N  N163  1  0.33401059  0.00677533  0.12700585  1
  N  N164  1  0.49007399  0.82186921  0.12306276  1
  N  N165  1  0.15848336  0.85523860  0.61601772  1
  N  N166  1  0.49633497  0.80698802  0.87405909  1
  N  N167  1  0.50388232  0.15860901  0.63454417  1
  N  N168  1  0.17608526  0.17078519  0.62459817  1
  N  N169  1  0.15975814  0.83891189  0.85325737  1
  N  N170  1  0.68043907  0.34330258  0.87137217  1
  N  N171  1  0.49445431  0.47686798  0.38064122  1
  N  N172  1  0.32852928  0.67450411  0.86587739  1
  N  N173  1  0.00591068  0.00012636  0.12357600  1
  N  N174  1  0.67621888  0.33506893  0.13200179  1
  N  N175  1  0.66447379  -0.00736193  0.63915358  1
  N  N176  1  -0.00368669  0.00885386  0.62507322  1
  O  O177  1  0.84619871  0.52586914  0.37313413  1
  O  O178  1  0.67735633  -0.02137412  0.87413005  1
  O  O179  1  0.15959889  0.83301474  0.12625386  1
  O  O180  1  0.00922897  0.32925483  0.61428595  1
  O  O181  1  0.16605113  0.47803008  0.89037997  1
  O  O182  1  0.17630475  0.13937453  0.38242839  1
  O  O183  1  0.66273133  0.66456999  0.61249995  1
  O  O184  1  0.15488266  0.50309111  0.37131927  1
  O  O185  1  0.66674061  0.31081248  0.63004034  1
  O  O186  1  0.83075169  0.51310148  0.12600525  1
  O  O187  1  0.17128787  0.82829842  0.38612967  1
  O  O188  1  -0.00938458  0.64392239  0.87843534  1
  O  O189  1  -0.00919843  0.34484766  0.13629840  1
  O  O190  1  0.33902049  0.63772429  0.62933927  1
  O  O191  1  0.83131336  0.16378077  0.37745625  1
  O  O192  1  -0.00046776  0.32920304  0.87469132  1
  O  O193  1  0.65911692  0.31901786  0.38747335  1
  O  O194  1  0.34195970  0.01258529  0.37194952  1
  O  O195  1  0.36695908  0.01589211  0.63725004  1
  O  O196  1  0.84625986  0.82756075  0.11062282  1
  O  O197  1  0.17669297  0.14016414  0.12739930  1
  O  O198  1  0.17436062  0.16669683  0.87564944  1
  O  O199  1  -0.00959682  0.67149472  0.36534629  1
  O  O200  1  0.83795742  0.87336609  0.86341790  1
  O  O201  1  0.66303338  0.65199835  0.87269832  1
  O  O202  1  0.49684042  0.49379231  0.62762768  1
  O  O203  1  0.82114390  0.49204253  0.86078487  1
  O  O204  1  0.32718935  0.36022106  0.87908300  1
  O  O205  1  0.34242894  -0.01434529  0.88160943  1
  O  O206  1  -0.02427826  0.69019136  0.10684315  1
  O  O207  1  0.49041135  0.85156786  0.37143259  1
  O  O208  1  0.85468880  0.17422594  0.61918730  1
  O  O209  1  0.86051999  0.18910245  0.87291832  1
  O  O210  1  0.66995061  0.00285619  0.12303312  1
  O  O211  1  0.31638144  0.69326367  0.12233009  1
  O  O212  1  0.49890101  0.49957589  0.12864597  1
  O  O213  1  0.33536534  0.33165920  0.11948955  1
  O  O214  1  0.13342267  0.47633218  0.62094266  1
  O  O215  1  0.32014606  0.70860490  0.38728711  1
