# generated using pymatgen
data_Sr24Ta24N11O13
_symmetry_space_group_name_H-M   'P 1'
_cell_length_a   16.88965586
_cell_length_b   17.17513166
_cell_length_c   15.32634300
_cell_angle_alpha   89.84197892
_cell_angle_beta   90.38494119
_cell_angle_gamma   90.57850180
_symmetry_Int_Tables_number   1
_chemical_formula_structural   Sr24Ta24N11O13
_chemical_formula_sum   'Sr72 Ta72 N33 O39'
_cell_volume   4445.55415666
_cell_formula_units_Z   3
loop_
 _symmetry_equiv_pos_site_id
 _symmetry_equiv_pos_as_xyz
  1  'x, y, z'
loop_
 _atom_site_type_symbol
 _atom_site_label
 _atom_site_symmetry_multiplicity
 _atom_site_fract_x
 _atom_site_fract_y
 _atom_site_fract_z
 _atom_site_occupancy
  Sr  Sr0  1  0.02377392  0.13830606  0.16046075  1
  Sr  Sr1  1  -0.03901805  0.20768641  0.58401451  1
  Sr  Sr2  1  0.01159988  0.55568555  0.13302982  1
  Sr  Sr3  1  0.00293316  0.46695986  0.58914843  1
  Sr  Sr4  1  0.02174765  0.85257454  0.12185878  1
  Sr  Sr5  1  0.01343997  0.93554198  0.71961363  1
  Sr  Sr6  1  0.34102518  0.23182277  0.19964514  1
  Sr  Sr7  1  0.36079254  0.17718355  0.61105109  1
  Sr  Sr8  1  0.32481743  0.48799649  0.05595768  1
  Sr  Sr9  1  0.30863554  0.48963075  0.62895703  1
  Sr  Sr10  1  0.32283914  0.80717650  0.10475165  1
  Sr  Sr11  1  0.29724786  0.87040761  0.66557716  1
  Sr  Sr12  1  0.66564777  0.15277703  0.11868118  1
  Sr  Sr13  1  0.67162387  0.20269063  0.67340133  1
  Sr  Sr14  1  0.65772876  0.51389199  0.14536231  1
  Sr  Sr15  1  0.64079938  0.48877142  0.59908185  1
  Sr  Sr16  1  0.72430438  0.86014909  0.24313737  1
  Sr  Sr17  1  0.66537057  0.81782943  0.62268017  1
  Sr  Sr18  1  0.18139158  -0.03344527  0.08900518  1
  Sr  Sr19  1  0.20287998  0.05212531  0.65450420  1
  Sr  Sr20  1  0.14401847  0.32656065  0.14510280  1
  Sr  Sr21  1  0.16340195  0.25617476  0.57430359  1
  Sr  Sr22  1  0.15233109  0.69814079  0.14617952  1
  Sr  Sr23  1  0.13438509  0.70409002  0.56234193  1
  Sr  Sr24  1  0.51835311  -0.04695590  0.13775332  1
  Sr  Sr25  1  0.49266865  -0.00693774  0.54983364  1
  Sr  Sr26  1  0.52826728  0.33102788  0.11934578  1
  Sr  Sr27  1  0.49590448  0.33729151  0.64625789  1
  Sr  Sr28  1  0.45233522  0.64944751  0.05209782  1
  Sr  Sr29  1  0.51278980  0.64908281  0.63067296  1
  Sr  Sr30  1  0.84251700  0.02770847  0.22504913  1
  Sr  Sr31  1  0.80069813  -0.00828946  0.64104061  1
  Sr  Sr32  1  0.82230908  0.28316120  0.05597722  1
  Sr  Sr33  1  0.81638081  0.35441289  0.62609699  1
  Sr  Sr34  1  0.86312907  0.68612066  0.06418075  1
  Sr  Sr35  1  0.82471482  0.56510221  0.66493121  1
  Sr  Sr36  1  -0.01950880  0.14931994  0.37598483  1
  Sr  Sr37  1  0.02254951  0.20344328  0.96445619  1
  Sr  Sr38  1  0.00413950  0.50993143  0.35421303  1
  Sr  Sr39  1  -0.03616335  0.50982949  0.84248226  1
  Sr  Sr40  1  -0.01275436  0.84928255  0.52453072  1
  Sr  Sr41  1  -0.02799620  0.82970112  0.89483739  1
  Sr  Sr42  1  0.35929773  0.14118456  0.40310918  1
  Sr  Sr43  1  0.32887281  0.15301235  0.84749013  1
  Sr  Sr44  1  0.32719353  0.54705334  0.41540913  1
  Sr  Sr45  1  0.36954259  0.52671290  0.83718631  1
  Sr  Sr46  1  0.30408355  0.75692335  0.39050493  1
  Sr  Sr47  1  0.36010561  0.86179268  0.89367683  1
  Sr  Sr48  1  0.66800366  0.19304065  0.32835532  1
  Sr  Sr49  1  0.66744585  0.15914579  0.89312444  1
  Sr  Sr50  1  0.66086953  0.49700259  0.36191775  1
  Sr  Sr51  1  0.65290792  0.63251119  0.97988405  1
  Sr  Sr52  1  0.61775651  0.81985707  0.41420038  1
  Sr  Sr53  1  0.67824302  0.84288825  0.85029389  1
  Sr  Sr54  1  0.23615192  -0.09141834  0.29430232  1
  Sr  Sr55  1  0.15687436  0.01971061  0.88028525  1
  Sr  Sr56  1  0.19878940  0.27245644  0.34648172  1
  Sr  Sr57  1  0.17767307  0.33939281  0.93529240  1
  Sr  Sr58  1  0.15175986  0.64127105  0.37049509  1
  Sr  Sr59  1  0.14143835  0.57830145  0.74990504  1
  Sr  Sr60  1  0.46693996  -0.07069666  0.34377929  1
  Sr  Sr61  1  0.53503448  -0.00188260  0.91305378  1
  Sr  Sr62  1  0.50238537  0.31793934  0.32590971  1
  Sr  Sr63  1  0.49310098  0.30570911  0.86823995  1
  Sr  Sr64  1  0.50786599  0.63474739  0.41741654  1
  Sr  Sr65  1  0.48370658  0.69649660  0.83717454  1
  Sr  Sr66  1  0.82864647  -0.03145190  0.43313063  1
  Sr  Sr67  1  0.82687465  -0.01739483  0.84511153  1
  Sr  Sr68  1  0.82894409  0.36421687  0.40989846  1
  Sr  Sr69  1  0.84024030  0.33950590  0.85751382  1
  Sr  Sr70  1  0.79444668  0.65292285  0.26927746  1
  Sr  Sr71  1  0.82935879  0.69131520  0.85095271  1
  Ta  Ta72  1  0.23541265  0.15913802  0.03533722  1
  Ta  Ta73  1  0.17816523  0.07030215  0.43623254  1
  Ta  Ta74  1  0.13649526  0.51626186  -0.02481810  1
  Ta  Ta75  1  0.17049210  0.42929102  0.46612456  1
  Ta  Ta76  1  0.17078752  0.79872882  -0.06977870  1
  Ta  Ta77  1  0.16484934  0.89692843  0.50167904  1
  Ta  Ta78  1  0.45511436  0.16110695  0.01599209  1
  Ta  Ta79  1  0.55568498  0.18189268  0.49919777  1
  Ta  Ta80  1  0.52099786  0.47384619  -0.01514247  1
  Ta  Ta81  1  0.48329501  0.44185888  0.46480061  1
  Ta  Ta82  1  0.53599702  0.81980176  0.00320602  1
  Ta  Ta83  1  0.43797875  0.80820138  0.52038500  1
  Ta  Ta84  1  0.83226591  0.09280360  0.01584964  1
  Ta  Ta85  1  0.77300010  0.17825898  0.49737192  1
  Ta  Ta86  1  0.82859606  0.48706521  0.02630874  1
  Ta  Ta87  1  0.84004205  0.56352190  0.45060734  1
  Ta  Ta88  1  0.84331188  0.91484486  0.05441137  1
  Ta  Ta89  1  0.82804209  0.75124158  0.46784240  1
  Ta  Ta90  1  0.19332400  0.10068558  0.24282015  1
  Ta  Ta91  1  0.15206217  0.21586645  0.79257128  1
  Ta  Ta92  1  0.19887704  0.49396808  0.23913777  1
  Ta  Ta93  1  0.14787792  0.38845285  0.73404984  1
  Ta  Ta94  1  0.07547432  0.81602956  0.34448412  1
  Ta  Ta95  1  0.13884073  0.79590563  0.74192386  1
  Ta  Ta96  1  0.49864831  0.12440070  0.24797727  1
  Ta  Ta97  1  0.50604381  0.13537165  0.75751751  1
  Ta  Ta98  1  0.47362406  0.53358116  0.23090930  1
  Ta  Ta99  1  0.57986543  0.51835366  0.81813217  1
  Ta  Ta100  1  0.46289883  0.75210749  0.25584565  1
  Ta  Ta101  1  0.49678232  0.86550359  0.73450251  1
  Ta  Ta102  1  0.83882045  0.22264631  0.25716947  1
  Ta  Ta103  1  0.85812650  0.17201665  0.76621199  1
  Ta  Ta104  1  0.84560007  0.45816972  0.21772425  1
  Ta  Ta105  1  0.74515301  0.51138523  0.85849704  1
  Ta  Ta106  1  0.91292032  0.83445432  0.30313308  1
  Ta  Ta107  1  0.85988666  0.78624426  0.65802313  1
  Ta  Ta108  1  0.04956957  -0.03038571  0.34607480  1
  Ta  Ta109  1  0.00735998  0.11822995  0.77175379  1
  Ta  Ta110  1  -0.04129862  0.33227894  0.21484154  1
  Ta  Ta111  1  0.01404482  0.29652891  0.78127416  1
  Ta  Ta112  1  -0.03814164  0.69376717  0.37831799  1
  Ta  Ta113  1  -0.00448884  0.69769441  0.73475632  1
  Ta  Ta114  1  0.35246356  0.04245457  0.20911899  1
  Ta  Ta115  1  0.41158382  0.00719533  0.73974264  1
  Ta  Ta116  1  0.33929622  0.42178253  0.25390963  1
  Ta  Ta117  1  0.29636425  0.32183509  0.74705757  1
  Ta  Ta118  1  0.32985457  0.61783594  0.21563209  1
  Ta  Ta119  1  0.28071492  0.70713938  0.79312020  1
  Ta  Ta120  1  0.63640445  0.02242622  0.29741149  1
  Ta  Ta121  1  0.60577004  0.00617331  0.70985166  1
  Ta  Ta122  1  0.71961248  0.34715295  0.22330428  1
  Ta  Ta123  1  0.66020990  0.37928654  0.79034696  1
  Ta  Ta124  1  0.61000144  0.68649285  0.23540867  1
  Ta  Ta125  1  0.66976630  0.63472390  0.74368505  1
  Ta  Ta126  1  -0.02807114  0.01483422  -0.02021253  1
  Ta  Ta127  1  0.04419261  0.02770531  0.52797013  1
  Ta  Ta128  1  -0.01703296  0.39029556  0.01940044  1
  Ta  Ta129  1  0.02377449  0.33653724  0.40147037  1
  Ta  Ta130  1  0.06863599  0.66489514  -0.05990737  1
  Ta  Ta131  1  -0.04989171  0.65851104  0.55732978  1
  Ta  Ta132  1  0.35542934  0.03009609  0.01622989  1
  Ta  Ta133  1  0.31524701  -0.03691055  0.48265586  1
  Ta  Ta134  1  0.35244869  0.29735376  0.00806029  1
  Ta  Ta135  1  0.33952095  0.35500138  0.47829724  1
  Ta  Ta136  1  0.25266363  0.65204638  -0.03007071  1
  Ta  Ta137  1  0.32502860  0.68917337  0.60925426  1
  Ta  Ta138  1  0.70094239  -0.03098944  0.05360418  1
  Ta  Ta139  1  0.66031878  0.04563510  0.48885447  1
  Ta  Ta140  1  0.67067378  0.39864796  -0.02092960  1
  Ta  Ta141  1  0.64359985  0.31881095  0.47048972  1
  Ta  Ta142  1  0.69385711  0.79721656  0.06213753  1
  Ta  Ta143  1  0.70230193  0.65596468  0.48751541  1
  N  N144  1  0.51135062  0.56873114  0.91724187  1
  N  N145  1  0.00379521  0.02351132  0.85571182  1
  N  N146  1  0.51462970  0.82138445  0.61351024  1
  N  N147  1  0.13446730  0.14111688  0.34130577  1
  N  N148  1  0.67180938  0.63879742  0.61202307  1
  N  N149  1  -0.01066502  0.34938426  0.90240198  1
  N  N150  1  -0.00714041  0.59929978  0.66921986  1
  N  N151  1  0.67857694  0.35152734  0.10184440  1
  N  N152  1  -0.02274781  0.66497702  0.86129504  1
  N  N153  1  0.17978828  0.18215587  0.15109404  1
  N  N154  1  -0.01012676  0.29281028  0.09564822  1
  N  N155  1  0.83337476  0.50996479  0.33693827  1
  N  N156  1  0.82552135  0.19493272  0.38456606  1
  N  N157  1  0.67482542  -0.04019789  0.39452911  1
  N  N158  1  0.51655717  0.84410746  0.87799453  1
  N  N159  1  0.29524210  0.64958250  0.09070634  1
  N  N160  1  0.16987911  0.50121331  0.36669173  1
  N  N161  1  -0.03095926  0.00401838  0.43289835  1
  N  N162  1  0.02759625  0.62996251  0.46461271  1
  N  N163  1  0.49645419  0.15634781  0.89446786  1
  N  N164  1  0.45929300  0.78213392  0.38275051  1
  N  N165  1  0.18374187  0.17912202  0.92335393  1
  N  N166  1  0.50456187  0.49784670  0.11034475  1
  N  N167  1  0.14175352  0.85220837  0.63061581  1
  N  N168  1  0.66658849  0.34420439  0.34758158  1
  N  N169  1  0.65375111  -0.02005368  0.59600637  1
  N  N170  1  0.34694685  0.67506717  0.89799770  1
  N  N171  1  0.16332696  0.79902119  0.43111316  1
  N  N172  1  0.50345937  0.48721485  0.34900533  1
  N  N173  1  0.64932017  0.66690717  0.35322002  1
  N  N174  1  0.81806784  0.57188153  0.94570367  1
  N  N175  1  0.70166183  0.71622505  0.15397917  1
  N  N176  1  0.67909501  0.00233396  0.18144953  1
  O  O177  1  0.81764112  0.18945641  0.63472726  1
  O  O178  1  0.32964899  0.31281360  0.88100563  1
  O  O179  1  0.06074167  0.29881900  0.28313933  1
  O  O180  1  0.36055215  0.62197242  0.70578144  1
  O  O181  1  -0.04117856  0.33706806  0.50419414  1
  O  O182  1  0.65079475  0.30255185  0.89002488  1
  O  O183  1  0.15155825  0.41005983  0.60226417  1
  O  O184  1  0.14318668  0.46310881  0.85462530  1
  O  O185  1  0.74866230  0.74606457  0.96506867  1
  O  O186  1  0.15919486  0.50155578  0.10403375  1
  O  O187  1  0.81631379  0.85392966  0.56241746  1
  O  O188  1  0.16949708  0.82551618  0.05733462  1
  O  O189  1  0.04489316  0.00474753  0.07456312  1
  O  O190  1  0.81860343  0.13232848  0.88446641  1
  O  O191  1  0.87072929  0.87764657  0.73721294  1
  O  O192  1  0.24006016  0.14499387  0.51491915  1
  O  O193  1  0.03724813  0.07487558  0.65264854  1
  O  O194  1  0.34283377  0.33143047  0.34189070  1
  O  O195  1  0.88315578  0.88201230  0.18700567  1
  O  O196  1  0.69053593  -0.01821864  0.79018062  1
  O  O197  1  0.26687603  0.65366478  0.50479741  1
  O  O198  1  0.35016254  0.00681617  0.61921479  1
  O  O199  1  0.35177859  0.35799306  0.12482967  1
  O  O200  1  0.51725070  0.18979248  0.62577201  1
  O  O201  1  0.82637124  0.55474771  0.14041872  1
  O  O202  1  0.11560655  0.87570792  0.84024509  1
  O  O203  1  0.32518597  0.33651549  0.60950470  1
  O  O204  1  0.37600923  0.00911468  0.88520238  1
  O  O205  1  0.50307100  0.16961514  0.37893308  1
  O  O206  1  0.01901664  0.69102451  0.05497191  1
  O  O207  1  0.49789090  0.52840386  0.54448160  1
  O  O208  1  0.34337345  -0.00372194  0.35514456  1
  O  O209  1  0.80923597  0.83638461  0.36986110  1
  O  O210  1  0.84314315  0.47403540  0.53526147  1
  O  O211  1  0.47015140  0.81070282  0.11479443  1
  O  O212  1  0.82525992  0.14976347  0.13427530  1
  O  O213  1  0.33777342  -0.04563281  0.11861645  1
  O  O214  1  0.66607013  0.35478011  0.66938263  1
  O  O215  1  0.52061879  0.17647256  0.13401031  1
