# generated using pymatgen
data_Sr24Ta24N11O13
_symmetry_space_group_name_H-M   'P 1'
_cell_length_a   16.42480034
_cell_length_b   18.12902770
_cell_length_c   14.81462867
_cell_angle_alpha   88.43066728
_cell_angle_beta   90.15284533
_cell_angle_gamma   91.46321310
_symmetry_Int_Tables_number   1
_chemical_formula_structural   Sr24Ta24N11O13
_chemical_formula_sum   'Sr72 Ta72 N33 O39'
_cell_volume   4408.18667205
_cell_formula_units_Z   3
loop_
 _symmetry_equiv_pos_site_id
 _symmetry_equiv_pos_as_xyz
  1  'x, y, z'
loop_
 _atom_site_type_symbol
 _atom_site_label
 _atom_site_symmetry_multiplicity
 _atom_site_fract_x
 _atom_site_fract_y
 _atom_site_fract_z
 _atom_site_occupancy
  Sr  Sr0  1  0.01376054  0.17964403  0.10325977  1
  Sr  Sr1  1  0.00323050  0.13962180  0.62432084  1
  Sr  Sr2  1  0.00231954  0.47932069  0.16007691  1
  Sr  Sr3  1  0.00922350  0.51925590  0.60095105  1
  Sr  Sr4  1  -0.01025591  0.78844797  0.10639694  1
  Sr  Sr5  1  -0.02288267  0.82734368  0.66516898  1
  Sr  Sr6  1  0.33312485  0.15562992  0.14043080  1
  Sr  Sr7  1  0.34765217  0.14637475  0.60714572  1
  Sr  Sr8  1  0.33830792  0.48739293  0.14099629  1
  Sr  Sr9  1  0.34732604  0.43726547  0.66907255  1
  Sr  Sr10  1  0.35770273  0.78636324  0.10940913  1
  Sr  Sr11  1  0.34726927  0.83867463  0.64044377  1
  Sr  Sr12  1  0.66984863  0.18594132  0.12425780  1
  Sr  Sr13  1  0.67430802  0.12230329  0.65767773  1
  Sr  Sr14  1  0.68096053  0.47598305  0.09582249  1
  Sr  Sr15  1  0.67446591  0.50076753  0.64666581  1
  Sr  Sr16  1  0.67156141  0.77351210  0.15106731  1
  Sr  Sr17  1  0.68035055  0.83553553  0.56763388  1
  Sr  Sr18  1  0.16615642  0.02768210  0.14434551  1
  Sr  Sr19  1  0.17335304  0.02171778  0.57853211  1
  Sr  Sr20  1  0.16829859  0.35222547  0.11434392  1
  Sr  Sr21  1  0.15349532  0.32286207  0.64422882  1
  Sr  Sr22  1  0.17161442  0.69169002  0.08183538  1
  Sr  Sr23  1  0.16597157  0.71380562  0.64049229  1
  Sr  Sr24  1  0.50070941  0.06406108  0.09205487  1
  Sr  Sr25  1  0.49008420  0.00816462  0.65198050  1
  Sr  Sr26  1  0.49452640  0.36632491  0.09306831  1
  Sr  Sr27  1  0.50295196  0.32206256  0.62952725  1
  Sr  Sr28  1  0.49260911  0.65488742  0.15455683  1
  Sr  Sr29  1  0.49992221  0.71695553  0.57646827  1
  Sr  Sr30  1  0.82185772  0.06005881  0.09087704  1
  Sr  Sr31  1  0.83549878  0.00153347  0.61834360  1
  Sr  Sr32  1  0.82288704  0.34794699  0.14189040  1
  Sr  Sr33  1  0.83948419  0.38388790  0.59401001  1
  Sr  Sr34  1  0.83844126  0.64825378  0.12160267  1
  Sr  Sr35  1  0.82165290  0.69137350  0.62054979  1
  Sr  Sr36  1  0.00227912  0.11773350  0.38600654  1
  Sr  Sr37  1  -0.00382897  0.14374151  0.87534399  1
  Sr  Sr38  1  -0.00352211  0.50785036  0.38286610  1
  Sr  Sr39  1  0.02873346  0.47532934  0.83422253  1
  Sr  Sr40  1  0.00825966  0.83299590  0.31706490  1
  Sr  Sr41  1  -0.01505256  0.82198113  0.87937830  1
  Sr  Sr42  1  0.33451734  0.14723153  0.37621380  1
  Sr  Sr43  1  0.35027082  0.11445992  0.90915225  1
  Sr  Sr44  1  0.35086798  0.48839773  0.37184337  1
  Sr  Sr45  1  0.32262002  0.47786026  0.88510728  1
  Sr  Sr46  1  0.32670595  0.79117957  0.41776957  1
  Sr  Sr47  1  0.34422436  0.83039777  0.87540307  1
  Sr  Sr48  1  0.67835880  0.15726480  0.34762024  1
  Sr  Sr49  1  0.67026110  0.11784609  0.89504387  1
  Sr  Sr50  1  0.66522790  0.44794539  0.43291757  1
  Sr  Sr51  1  0.66963683  0.51231643  0.86463055  1
  Sr  Sr52  1  0.67075785  0.82227542  0.36146283  1
  Sr  Sr53  1  0.64577363  0.81277862  0.92264481  1
  Sr  Sr54  1  0.17209378  -0.00688724  0.35884508  1
  Sr  Sr55  1  0.16024233  0.02572739  0.91639946  1
  Sr  Sr56  1  0.16747429  0.37741826  0.36191683  1
  Sr  Sr57  1  0.15706648  0.33558534  0.86455573  1
  Sr  Sr58  1  0.16476497  0.65467801  0.43411355  1
  Sr  Sr59  1  0.17538121  0.69481644  0.86310195  1
  Sr  Sr60  1  0.49824315  0.04514508  0.32323108  1
  Sr  Sr61  1  0.49751550  -0.01917042  0.88127017  1
  Sr  Sr62  1  0.49080552  0.33793354  0.40847624  1
  Sr  Sr63  1  0.50512855  0.38796144  0.84679634  1
  Sr  Sr64  1  0.47919828  0.66458934  0.36759642  1
  Sr  Sr65  1  0.48720866  0.70517361  0.88216597  1
  Sr  Sr66  1  0.81479977  0.01116284  0.37586380  1
  Sr  Sr67  1  0.83942339  0.00140531  0.85698178  1
  Sr  Sr68  1  0.82718886  0.33566626  0.37032322  1
  Sr  Sr69  1  0.82515351  0.38187728  0.84115552  1
  Sr  Sr70  1  0.84711462  0.70437521  0.33275825  1
  Sr  Sr71  1  0.81801608  0.68585319  0.88942952  1
  Ta  Ta72  1  0.19075955  0.19865378  -0.00690855  1
  Ta  Ta73  1  0.16454109  0.20551820  0.48107055  1
  Ta  Ta74  1  0.15932987  0.52853296  -0.00247283  1
  Ta  Ta75  1  0.20527680  0.49081974  0.53354498  1
  Ta  Ta76  1  0.16657662  0.86704524  0.01360179  1
  Ta  Ta77  1  0.11271548  0.84346594  0.49980650  1
  Ta  Ta78  1  0.50406618  0.22209608  -0.03210158  1
  Ta  Ta79  1  0.53339531  0.15969799  0.50773622  1
  Ta  Ta80  1  0.49928331  0.54141095  -0.00670744  1
  Ta  Ta81  1  0.49834601  0.52813021  0.53118606  1
  Ta  Ta82  1  0.51578016  0.88496220  0.08602469  1
  Ta  Ta83  1  0.49791268  0.89265199  0.47656585  1
  Ta  Ta84  1  0.83408751  0.22778169  -0.02213178  1
  Ta  Ta85  1  0.82984968  0.19161590  0.51276250  1
  Ta  Ta86  1  0.87422368  0.49747631  0.00328828  1
  Ta  Ta87  1  0.82095734  0.55777308  0.47555309  1
  Ta  Ta88  1  0.82351679  0.86762293  0.01599811  1
  Ta  Ta89  1  0.87151442  0.84268988  0.47787080  1
  Ta  Ta90  1  0.16208038  0.20845926  0.27465832  1
  Ta  Ta91  1  0.18995635  0.14572382  0.74409531  1
  Ta  Ta92  1  0.17366841  0.54381701  0.25474956  1
  Ta  Ta93  1  0.19279996  0.54614564  0.71922406  1
  Ta  Ta94  1  0.19777666  0.81098555  0.24713190  1
  Ta  Ta95  1  0.16484332  0.88892196  0.75705142  1
  Ta  Ta96  1  0.49729575  0.22845279  0.23936432  1
  Ta  Ta97  1  0.50542686  0.18316282  0.77416388  1
  Ta  Ta98  1  0.54568887  0.48588021  0.26400495  1
  Ta  Ta99  1  0.49392141  0.56914025  0.72240092  1
  Ta  Ta100  1  0.48931877  0.86076333  0.28112751  1
  Ta  Ta101  1  0.56232671  0.83650791  0.72626758  1
  Ta  Ta102  1  0.86625965  0.18610143  0.25079181  1
  Ta  Ta103  1  0.83312371  0.20837236  0.74607963  1
  Ta  Ta104  1  0.80710697  0.50816020  0.27217118  1
  Ta  Ta105  1  0.85694043  0.54814011  0.74275531  1
  Ta  Ta106  1  0.82915018  0.88877782  0.21350027  1
  Ta  Ta107  1  0.77561353  0.83475281  0.75641398  1
  Ta  Ta108  1  -0.03156778  -0.00686878  0.21517145  1
  Ta  Ta109  1  0.04009897  -0.01091373  0.75150483  1
  Ta  Ta110  1  0.00569934  0.29183406  0.27147788  1
  Ta  Ta111  1  -0.03061757  0.30042414  0.73667034  1
  Ta  Ta112  1  0.05816132  0.65618871  0.24800188  1
  Ta  Ta113  1  -0.00668419  0.64583029  0.75385244  1
  Ta  Ta114  1  0.34215465  -0.05553024  0.23794161  1
  Ta  Ta115  1  0.29385108  -0.00503366  0.75812066  1
  Ta  Ta116  1  0.34045281  0.31136581  0.24768484  1
  Ta  Ta117  1  0.33988062  0.26117641  0.77456378  1
  Ta  Ta118  1  0.28159952  0.65814383  0.25557472  1
  Ta  Ta119  1  0.34391224  0.64149751  0.73250341  1
  Ta  Ta120  1  0.65234022  -0.03448261  0.22271060  1
  Ta  Ta121  1  0.66517981  -0.04913493  0.75083094  1
  Ta  Ta122  1  0.63842155  0.33970183  0.25692480  1
  Ta  Ta123  1  0.66835658  0.28559490  0.76506790  1
  Ta  Ta124  1  0.66987826  0.59843523  0.28126397  1
  Ta  Ta125  1  0.64639542  0.69032645  0.73352115  1
  Ta  Ta126  1  -0.01345234  -0.04058361  0.01551229  1
  Ta  Ta127  1  -0.00269013  -0.04957523  0.49457578  1
  Ta  Ta128  1  -0.02596602  0.34315987  -0.00231350  1
  Ta  Ta129  1  0.00610040  0.28835460  0.47179578  1
  Ta  Ta130  1  0.00556173  0.61296230  -0.00665351  1
  Ta  Ta131  1  -0.01309994  0.70852706  0.49403053  1
  Ta  Ta132  1  0.32551398  -0.04560976  0.02987351  1
  Ta  Ta133  1  0.36063875  -0.02421724  0.47424365  1
  Ta  Ta134  1  0.33338526  0.28952915  -0.02527877  1
  Ta  Ta135  1  0.30532438  0.31406080  0.51199812  1
  Ta  Ta136  1  0.33887565  0.62232387  -0.00010142  1
  Ta  Ta137  1  0.33768739  0.60572524  0.54361815  1
  Ta  Ta138  1  0.66921755  -0.04093378  0.02403145  1
  Ta  Ta139  1  0.63051531  0.00702987  0.48674708  1
  Ta  Ta140  1  0.67062267  0.30925369  -0.03611380  1
  Ta  Ta141  1  0.67327804  0.27338755  0.51834468  1
  Ta  Ta142  1  0.63872082  0.63529807  0.00660322  1
  Ta  Ta143  1  0.66192091  0.63195800  0.48123376  1
  N  N144  1  0.66304715  0.67348803  0.60271055  1
  N  N145  1  0.66368518  0.36892927  0.85120053  1
  N  N146  1  0.33256904  0.01916598  0.13314247  1
  N  N147  1  0.83781372  0.20186936  0.10771736  1
  N  N148  1  0.65773980  -0.00489417  0.34631018  1
  N  N149  1  0.33051601  0.00438491  0.34576440  1
  N  N150  1  0.50834955  0.16149058  0.63777509  1
  N  N151  1  0.66278640  0.31195768  0.38390135  1
  N  N152  1  0.16907233  0.16448601  0.61720627  1
  N  N153  1  0.15209213  0.46232644  0.65228787  1
  N  N154  1  0.51060120  0.12973501  0.90086230  1
  N  N155  1  0.83795596  0.14603698  0.63906944  1
  N  N156  1  0.81588532  0.83898780  0.88760346  1
  N  N157  1  0.00484159  0.64520818  0.11795101  1
  N  N158  1  0.49482341  0.80270239  0.39454147  1
  N  N159  1  0.33348635  0.29726883  0.63927674  1
  N  N160  1  0.00148925  -0.01287395  0.62329576  1
  N  N161  1  0.32932980  0.64668339  0.12808466  1
  N  N162  1  0.32625339  -0.02270637  0.88548225  1
  N  N163  1  0.83648903  0.85374500  0.34861887  1
  N  N164  1  0.50277132  0.20548393  0.10994649  1
  N  N165  1  0.66162560  -0.02679712  0.89437871  1
  N  N166  1  0.66835059  -0.01327166  0.61018256  1
  N  N167  1  0.00923709  0.67631118  0.36414088  1
  N  N168  1  0.83508634  0.16615828  0.37765517  1
  N  N169  1  0.00470280  0.67649345  0.62682933  1
  N  N170  1  0.83574338  0.53139926  0.61450381  1
  N  N171  1  0.50878933  0.85381610  0.60617559  1
  N  N172  1  0.16943595  0.13692724  0.37588298  1
  N  N173  1  0.33333607  0.69789065  0.61196963  1
  N  N174  1  0.83542403  0.47072813  0.40143765  1
  N  N175  1  0.83975484  0.49805016  0.13571035  1
  N  N176  1  -0.00318310  -0.01674197  0.88853558  1
  O  O177  1  0.33215301  0.33980724  0.37493777  1
  O  O178  1  0.00671980  0.36995408  0.36679591  1
  O  O179  1  0.17595713  0.51121723  0.40024306  1
  O  O180  1  0.63449841  0.68531198  0.35689551  1
  O  O181  1  0.32416407  0.64757763  0.40818833  1
  O  O182  1  0.50179705  0.50706162  0.13708197  1
  O  O183  1  0.14734270  0.18661561  0.86842110  1
  O  O184  1  0.33252716  0.66554285  0.87013790  1
  O  O185  1  0.50702846  0.53279398  0.85139655  1
  O  O186  1  -0.00117881  0.32838088  0.12997810  1
  O  O187  1  0.17591990  0.20011461  0.12991758  1
  O  O188  1  0.15465723  0.85145469  0.62681016  1
  O  O189  1  0.33381556  0.31830570  0.11081979  1
  O  O190  1  0.16944734  0.49527785  0.12629722  1
  O  O191  1  -0.01885951  0.04909869  0.09309824  1
  O  O192  1  -0.00631247  0.29928634  0.60361127  1
  O  O193  1  0.83805599  0.15129088  0.87761680  1
  O  O194  1  0.66346369  0.33236024  0.63007632  1
  O  O195  1  0.01917988  0.68776783  0.88139783  1
  O  O196  1  0.82386873  0.51859437  0.87975429  1
  O  O197  1  0.50540640  0.48943508  0.39666709  1
  O  O198  1  0.48383201  0.82710909  0.98047282  1
  O  O199  1  0.50593572  0.47058054  0.65252055  1
  O  O200  1  0.13850343  0.84666025  0.14426221  1
  O  O201  1  0.51466783  0.79129730  0.16752989  1
  O  O202  1  0.65072541  0.66403168  0.87576645  1
  O  O203  1  0.16871277  0.82803890  0.37503200  1
  O  O204  1  -0.00633656  -0.02084459  0.34617321  1
  O  O205  1  0.50226913  0.18458765  0.37280741  1
  O  O206  1  0.66500667  0.04700115  0.11543490  1
  O  O207  1  0.82550639  0.83681299  0.62548415  1
  O  O208  1  0.31321037  0.35076694  0.84280912  1
  O  O209  1  0.66452136  0.63009986  0.13986163  1
  O  O210  1  0.66581445  0.33358659  0.10419765  1
  O  O211  1  0.17415524  0.53307921  0.86270564  1
  O  O212  1  -0.00742195  0.33654503  0.86452528  1
  O  O213  1  0.33027387  -0.01376971  0.60971065  1
  O  O214  1  0.17547740  0.83999826  0.88567363  1
  O  O215  1  0.82979770  0.79554722  0.13938781  1
