# generated using pymatgen
data_Sr24Ta24N11O13
_symmetry_space_group_name_H-M   'P 1'
_cell_length_a   16.88545036
_cell_length_b   16.77533438
_cell_length_c   15.68845950
_cell_angle_alpha   89.67221538
_cell_angle_beta   90.01962955
_cell_angle_gamma   90.08064081
_symmetry_Int_Tables_number   1
_chemical_formula_structural   Sr24Ta24N11O13
_chemical_formula_sum   'Sr72 Ta72 N33 O39'
_cell_volume   4443.82116823
_cell_formula_units_Z   3
loop_
 _symmetry_equiv_pos_site_id
 _symmetry_equiv_pos_as_xyz
  1  'x, y, z'
loop_
 _atom_site_type_symbol
 _atom_site_label
 _atom_site_symmetry_multiplicity
 _atom_site_fract_x
 _atom_site_fract_y
 _atom_site_fract_z
 _atom_site_occupancy
  Sr  Sr0  1  0.01144713  0.16420305  0.09813936  1
  Sr  Sr1  1  0.02078288  0.15505179  0.61064720  1
  Sr  Sr2  1  0.01714082  0.48551834  0.12653381  1
  Sr  Sr3  1  -0.01289021  0.48935711  0.66218892  1
  Sr  Sr4  1  -0.00423348  0.84131207  0.12937215  1
  Sr  Sr5  1  0.01865722  0.81176024  0.61681936  1
  Sr  Sr6  1  0.33049768  0.15698590  0.12284555  1
  Sr  Sr7  1  0.36243189  0.14831744  0.60992632  1
  Sr  Sr8  1  0.33731075  0.50679414  0.08276831  1
  Sr  Sr9  1  0.35233520  0.48687024  0.64473913  1
  Sr  Sr10  1  0.34797134  0.81960840  0.17345205  1
  Sr  Sr11  1  0.33504409  0.82955379  0.62455506  1
  Sr  Sr12  1  0.69574168  0.17487970  0.13252869  1
  Sr  Sr13  1  0.67844722  0.18278015  0.66064840  1
  Sr  Sr14  1  0.66612150  0.51122327  0.14801595  1
  Sr  Sr15  1  0.68020859  0.48541092  0.57874468  1
  Sr  Sr16  1  0.65491699  0.84621552  0.08244811  1
  Sr  Sr17  1  0.67120857  0.83841445  0.63586133  1
  Sr  Sr18  1  0.14880383  0.01257782  0.07663972  1
  Sr  Sr19  1  0.16353089  -0.00132770  0.64927694  1
  Sr  Sr20  1  0.16947039  0.31667400  0.16297369  1
  Sr  Sr21  1  0.15189398  0.33717198  0.61271292  1
  Sr  Sr22  1  0.15612879  0.67646759  0.14255984  1
  Sr  Sr23  1  0.18722259  0.66516145  0.57123736  1
  Sr  Sr24  1  0.49347772  0.00428376  0.13442064  1
  Sr  Sr25  1  0.49430047  -0.01276316  0.58246210  1
  Sr  Sr26  1  0.45651473  0.33360091  0.10167474  1
  Sr  Sr27  1  0.50910962  0.32944174  0.63270683  1
  Sr  Sr28  1  0.49091586  0.66092263  0.13356345  1
  Sr  Sr29  1  0.49587183  0.67718796  0.66946827  1
  Sr  Sr30  1  0.83188683  0.00137906  0.14949701  1
  Sr  Sr31  1  0.81586964  0.00798047  0.62219797  1
  Sr  Sr32  1  0.82402693  0.34945822  0.11967406  1
  Sr  Sr33  1  0.82911192  0.33583253  0.62392391  1
  Sr  Sr34  1  0.80548231  0.69035766  0.10448653  1
  Sr  Sr35  1  0.83300073  0.66995077  0.62846238  1
  Sr  Sr36  1  0.00520297  0.16919880  0.40319887  1
  Sr  Sr37  1  0.02364484  0.15518443  0.87499460  1
  Sr  Sr38  1  0.01131240  0.48798039  0.33326661  1
  Sr  Sr39  1  -0.00060045  0.49411525  0.87189438  1
  Sr  Sr40  1  -0.00082965  0.82489904  0.35798946  1
  Sr  Sr41  1  0.02874379  0.82902052  0.89179724  1
  Sr  Sr42  1  0.34118299  0.16969720  0.35329711  1
  Sr  Sr43  1  0.34659905  0.14491358  0.89687803  1
  Sr  Sr44  1  0.30496157  0.49082803  0.43484266  1
  Sr  Sr45  1  0.34051967  0.49497305  0.86705948  1
  Sr  Sr46  1  0.34079722  0.83054906  0.38117765  1
  Sr  Sr47  1  0.33273279  0.82887417  0.84241937  1
  Sr  Sr48  1  0.68497972  0.16266375  0.33515909  1
  Sr  Sr49  1  0.68417831  0.19065919  0.86574345  1
  Sr  Sr50  1  0.66369801  0.49831533  0.36619146  1
  Sr  Sr51  1  0.70215845  0.49114609  0.92455851  1
  Sr  Sr52  1  0.66862794  0.85694720  0.41795397  1
  Sr  Sr53  1  0.65853165  0.83150266  0.86910844  1
  Sr  Sr54  1  0.14493752  0.01436233  0.40341037  1
  Sr  Sr55  1  0.17587463  -0.00347823  0.86314660  1
  Sr  Sr56  1  0.15704861  0.32478307  0.37474080  1
  Sr  Sr57  1  0.16420277  0.36599350  0.82027710  1
  Sr  Sr58  1  0.15493927  0.67930226  0.35986534  1
  Sr  Sr59  1  0.16142586  0.64847704  0.92605348  1
  Sr  Sr60  1  0.48242902  -0.00060808  0.36706184  1
  Sr  Sr61  1  0.50006906  -0.00242095  0.91404902  1
  Sr  Sr62  1  0.48585619  0.34895840  0.40702965  1
  Sr  Sr63  1  0.48612659  0.32844981  0.86608697  1
  Sr  Sr64  1  0.49792018  0.66306613  0.34311712  1
  Sr  Sr65  1  0.48275719  0.66737359  0.87371895  1
  Sr  Sr66  1  0.83405690  0.01038164  0.37011258  1
  Sr  Sr67  1  0.79670246  0.00214969  0.84057373  1
  Sr  Sr68  1  0.81852940  0.34327087  0.35700834  1
  Sr  Sr69  1  0.84984658  0.32799851  0.89312854  1
  Sr  Sr70  1  0.80968996  0.67747319  0.39966806  1
  Sr  Sr71  1  0.82489620  0.67704481  0.86540439  1
  Ta  Ta72  1  0.17880312  0.20617054  -0.01295765  1
  Ta  Ta73  1  0.20226140  0.16867541  0.50218806  1
  Ta  Ta74  1  0.16548828  0.45484999  -0.00257398  1
  Ta  Ta75  1  0.10546846  0.50144759  0.49993511  1
  Ta  Ta76  1  0.21507433  0.82571253  0.00740526  1
  Ta  Ta77  1  0.17041071  0.85508447  0.49882765  1
  Ta  Ta78  1  0.54046821  0.17717618  0.00235559  1
  Ta  Ta79  1  0.54597445  0.17164780  0.50123124  1
  Ta  Ta80  1  0.52669439  0.49979417  0.00102586  1
  Ta  Ta81  1  0.50420938  0.54121923  0.50826998  1
  Ta  Ta82  1  0.46698559  0.82184643  0.00370554  1
  Ta  Ta83  1  0.50130860  0.79573359  0.50226958  1
  Ta  Ta84  1  0.84055193  0.13037294  -0.01075577  1
  Ta  Ta85  1  0.80634709  0.17713521  0.49300145  1
  Ta  Ta86  1  0.86630512  0.53377252  0.01332274  1
  Ta  Ta87  1  0.87311635  0.50321933  0.49468573  1
  Ta  Ta88  1  0.83992745  0.86793100  -0.00079196  1
  Ta  Ta89  1  0.86003396  0.85280566  0.49848709  1
  Ta  Ta90  1  0.15615827  0.13314871  0.24731384  1
  Ta  Ta91  1  0.19885528  0.18100517  0.74843962  1
  Ta  Ta92  1  0.20053444  0.49883025  0.25178856  1
  Ta  Ta93  1  0.15861089  0.56438554  0.74403004  1
  Ta  Ta94  1  0.16236861  0.89161765  0.24531912  1
  Ta  Ta95  1  0.16607649  0.76167058  0.75173849  1
  Ta  Ta96  1  0.51387792  0.19738242  0.24985666  1
  Ta  Ta97  1  0.50063349  0.13467006  0.74807438  1
  Ta  Ta98  1  0.47447138  0.48121330  0.24784214  1
  Ta  Ta99  1  0.54382101  0.49562253  0.75177569  1
  Ta  Ta100  1  0.54141373  0.83688958  0.25230018  1
  Ta  Ta101  1  0.50029845  0.87005612  0.75142518  1
  Ta  Ta102  1  0.87903732  0.17287578  0.24856163  1
  Ta  Ta103  1  0.87321900  0.16467580  0.74809950  1
  Ta  Ta104  1  0.84297766  0.53778959  0.24424672  1
  Ta  Ta105  1  0.80254092  0.49948223  0.74553050  1
  Ta  Ta106  1  0.79278054  0.83058154  0.24646050  1
  Ta  Ta107  1  0.87250418  0.84574053  0.75240725  1
  Ta  Ta108  1  0.01454401  0.01629017  0.25144591  1
  Ta  Ta109  1  -0.02611354  -0.00850721  0.75784698  1
  Ta  Ta110  1  -0.01348966  0.30265737  0.24716440  1
  Ta  Ta111  1  -0.01007057  0.30049678  0.74411454  1
  Ta  Ta112  1  -0.04897478  0.65904844  0.25099642  1
  Ta  Ta113  1  0.02498954  0.66808432  0.75125654  1
  Ta  Ta114  1  0.28686398  -0.00286446  0.25303609  1
  Ta  Ta115  1  0.36888813  0.00319458  0.75006673  1
  Ta  Ta116  1  0.33281025  0.38617226  0.26033703  1
  Ta  Ta117  1  0.32631894  0.28936374  0.74490033  1
  Ta  Ta118  1  0.32931229  0.59640341  0.25941878  1
  Ta  Ta119  1  0.29732316  0.65695838  0.74784677  1
  Ta  Ta120  1  0.66228249  -0.02955234  0.24641647  1
  Ta  Ta121  1  0.61762747  0.00770859  0.74821950  1
  Ta  Ta122  1  0.61232861  0.33447292  0.24347500  1
  Ta  Ta123  1  0.67237810  0.38596999  0.75711084  1
  Ta  Ta124  1  0.66695977  0.71589070  0.24823595  1
  Ta  Ta125  1  0.66753851  0.60412560  0.75215242  1
  Ta  Ta126  1  -0.04360980  -0.00372514  -0.01876545  1
  Ta  Ta127  1  -0.01456037  -0.02931492  0.50165872  1
  Ta  Ta128  1  0.04995865  0.33248287  -0.01133758  1
  Ta  Ta129  1  -0.01410935  0.36325969  0.49487689  1
  Ta  Ta130  1  -0.02217844  0.65951982  0.00985135  1
  Ta  Ta131  1  -0.00742048  0.62805518  0.49075309  1
  Ta  Ta132  1  0.32875305  -0.04961989  0.00244929  1
  Ta  Ta133  1  0.30182810  -0.00631916  0.50070292  1
  Ta  Ta134  1  0.28009287  0.33196526  -0.00998682  1
  Ta  Ta135  1  0.31511335  0.30392429  0.50313028  1
  Ta  Ta136  1  0.33207415  0.70369215  0.00917988  1
  Ta  Ta137  1  0.37945434  0.66178752  0.50628156  1
  Ta  Ta138  1  0.67879897  0.03047572  -0.00196952  1
  Ta  Ta139  1  0.66481212  0.05084772  0.50388376  1
  Ta  Ta140  1  0.63148182  0.33207433  0.01716122  1
  Ta  Ta141  1  0.66689936  0.29492309  0.48742244  1
  Ta  Ta142  1  0.63522573  0.65668699  0.00207015  1
  Ta  Ta143  1  0.62614412  0.66788355  0.50551256  1
  N  N144  1  0.65619245  0.33257444  0.36841017  1
  N  N145  1  0.33654695  0.65557230  0.62454304  1
  N  N146  1  0.33730189  -0.01361073  0.87839173  1
  N  N147  1  0.32667352  -0.00364536  0.37100145  1
  N  N148  1  0.50902683  0.49957361  0.62905195  1
  N  N149  1  0.17067948  0.16403726  0.11914214  1
  N  N150  1  0.65142239  0.00690881  0.87758117  1
  N  N151  1  0.83503838  0.50317795  0.62088162  1
  N  N152  1  0.01364128  0.33129116  0.86864440  1
  N  N153  1  0.49199107  0.49714311  0.12136255  1
  N  N154  1  0.51634648  0.16649122  0.62698216  1
  N  N155  1  0.50294488  0.83423743  0.37856440  1
  N  N156  1  -0.00250277  0.32801834  0.61928656  1
  N  N157  1  0.66005077  0.01031346  0.62195540  1
  N  N158  1  0.17050218  0.16684987  0.36809064  1
  N  N159  1  0.82503178  0.84564002  0.12199734  1
  N  N160  1  0.32695949  0.33991480  0.37938177  1
  N  N161  1  -0.00733339  -0.00093427  0.37305306  1
  N  N162  1  0.65130775  0.67764292  0.12291751  1
  N  N163  1  0.49736841  0.83442101  0.87844873  1
  N  N164  1  0.66413303  0.00534539  0.12926207  1
  N  N165  1  0.82049490  0.50598587  0.12582842  1
  N  N166  1  0.33434974  -0.00820230  0.62612527  1
  N  N167  1  0.67040572  0.34574599  0.13327630  1
  N  N168  1  0.83932014  0.16905179  0.37404195  1
  N  N169  1  0.01766010  -0.00567082  0.87565587  1
  N  N170  1  0.49889048  0.83463828  0.13076003  1
  N  N171  1  0.17299567  0.15719016  0.62431890  1
  N  N172  1  -0.00590665  0.66460873  0.36833756  1
  N  N173  1  0.18061189  0.15090581  0.87600518  1
  N  N174  1  -0.00384220  0.32982277  0.36944190  1
  N  N175  1  0.50441816  0.83311218  0.62742883  1
  N  N176  1  0.83899960  0.16751634  0.87141836  1
  O  O177  1  0.51238310  0.16897401  0.12387292  1
  O  O178  1  0.17886671  0.48877268  0.12102545  1
  O  O179  1  0.15883798  0.50034397  0.38199967  1
  O  O180  1  -0.00489287  0.00083135  0.10943742  1
  O  O181  1  -0.00133934  0.65858280  0.62546749  1
  O  O182  1  0.82012626  0.51314417  0.37803404  1
  O  O183  1  0.66787668  0.33865176  0.63229732  1
  O  O184  1  0.31386923  0.35066634  0.13059362  1
  O  O185  1  0.00084381  0.66559736  0.88464022  1
  O  O186  1  0.33128328  -0.00471999  0.12475904  1
  O  O187  1  0.83200761  0.84163705  0.37522507  1
  O  O188  1  0.34365880  0.63546017  0.38023650  1
  O  O189  1  -0.00021076  0.68651372  0.13164588  1
  O  O190  1  0.52304528  0.17572414  0.87393741  1
  O  O191  1  0.14252302  0.52034921  0.62368554  1
  O  O192  1  0.17837138  0.79892299  0.87708293  1
  O  O193  1  0.50459267  0.18193539  0.37351560  1
  O  O194  1  0.66723874  0.64756385  0.87371370  1
  O  O195  1  0.00193535  -0.00524499  0.62798600  1
  O  O196  1  0.35458476  0.32832058  0.62223035  1
  O  O197  1  0.66723093  0.00784804  0.37645945  1
  O  O198  1  0.17077567  0.81403049  0.62126921  1
  O  O199  1  0.86072208  0.83154948  0.62686542  1
  O  O200  1  0.84432218  0.83235811  0.87255515  1
  O  O201  1  0.66276566  0.34709898  0.88068212  1
  O  O202  1  0.50720567  0.50304336  0.38366135  1
  O  O203  1  0.83614271  0.16732467  0.62333636  1
  O  O204  1  0.84382733  0.51843492  0.88252930  1
  O  O205  1  0.65104460  0.68012755  0.37890388  1
  O  O206  1  0.01740540  0.32641014  0.12200949  1
  O  O207  1  0.15749973  0.85042881  0.37232987  1
  O  O208  1  0.85112854  0.15633721  0.12168468  1
  O  O209  1  0.32620941  0.66295368  0.88638435  1
  O  O210  1  0.32686104  0.33548050  0.86485903  1
  O  O211  1  0.49236061  0.48682035  0.87679073  1
  O  O212  1  0.65301821  0.65369993  0.62952286  1
  O  O213  1  0.15781774  0.50769016  0.87497033  1
  O  O214  1  0.33197213  0.65320608  0.13020277  1
  O  O215  1  0.17097643  0.83805968  0.13009604  1
