# generated using pymatgen
data_Sr24Ta24N11O13
_symmetry_space_group_name_H-M   'P 1'
_cell_length_a   17.59058637
_cell_length_b   16.73715257
_cell_length_c   15.46039873
_cell_angle_alpha   89.65210913
_cell_angle_beta   91.22882593
_cell_angle_gamma   90.60012457
_symmetry_Int_Tables_number   1
_chemical_formula_structural   Sr24Ta24N11O13
_chemical_formula_sum   'Sr72 Ta72 N33 O39'
_cell_volume   4550.41954375
_cell_formula_units_Z   3
loop_
 _symmetry_equiv_pos_site_id
 _symmetry_equiv_pos_as_xyz
  1  'x, y, z'
loop_
 _atom_site_type_symbol
 _atom_site_label
 _atom_site_symmetry_multiplicity
 _atom_site_fract_x
 _atom_site_fract_y
 _atom_site_fract_z
 _atom_site_occupancy
  Sr  Sr0  1  0.01964818  0.18525942  0.12377224  1
  Sr  Sr1  1  0.02198287  0.17367792  0.53688066  1
  Sr  Sr2  1  0.00633850  0.51709892  0.12913471  1
  Sr  Sr3  1  -0.08153176  0.52013466  0.54818471  1
  Sr  Sr4  1  0.03166740  0.78392812  0.11056162  1
  Sr  Sr5  1  0.03163997  0.83318676  0.67232708  1
  Sr  Sr6  1  0.32099250  0.17997781  0.09641551  1
  Sr  Sr7  1  0.33057746  0.14370940  0.67463090  1
  Sr  Sr8  1  0.23982375  0.48057863  -0.03622654  1
  Sr  Sr9  1  0.33165340  0.47032719  0.60056476  1
  Sr  Sr10  1  0.20267964  0.88812000  0.19616467  1
  Sr  Sr11  1  0.34392500  0.85818511  0.63490228  1
  Sr  Sr12  1  0.64756507  0.16509045  0.09743904  1
  Sr  Sr13  1  0.64997270  0.18426063  0.61195319  1
  Sr  Sr14  1  0.69030694  0.50616395  0.15702198  1
  Sr  Sr15  1  0.69259795  0.50493204  0.58537528  1
  Sr  Sr16  1  0.67026866  0.83852737  0.19557543  1
  Sr  Sr17  1  0.60373554  0.84097034  0.64157986  1
  Sr  Sr18  1  0.19278811  0.06705630  0.28876737  1
  Sr  Sr19  1  0.18926354  0.00091980  0.62283112  1
  Sr  Sr20  1  0.13233221  0.34024193  0.05494752  1
  Sr  Sr21  1  0.20983118  0.32351910  0.65149513  1
  Sr  Sr22  1  0.15358900  0.63797500  0.14007921  1
  Sr  Sr23  1  0.22890970  0.65071453  0.68153189  1
  Sr  Sr24  1  0.46480770  0.01704087  0.04589427  1
  Sr  Sr25  1  0.48915599  0.01795057  0.63866915  1
  Sr  Sr26  1  0.53008173  0.32597046  0.13339856  1
  Sr  Sr27  1  0.50515906  0.35803208  0.59382195  1
  Sr  Sr28  1  0.53594573  0.67571132  0.13071519  1
  Sr  Sr29  1  0.45571842  0.69077402  0.70926068  1
  Sr  Sr30  1  0.90038433  -0.00955186  0.11994629  1
  Sr  Sr31  1  0.89906992  0.01168280  0.47827223  1
  Sr  Sr32  1  0.88130047  0.38882186  0.21956745  1
  Sr  Sr33  1  0.82695157  0.31309596  0.63390192  1
  Sr  Sr34  1  0.85230754  0.68747123  0.10082441  1
  Sr  Sr35  1  0.84666962  0.71792841  0.67483954  1
  Sr  Sr36  1  -0.01808948  0.11488497  0.31446321  1
  Sr  Sr37  1  -0.02317816  0.19577397  0.86933595  1
  Sr  Sr38  1  0.02847229  0.51966032  0.36118052  1
  Sr  Sr39  1  -0.10024639  0.47395034  0.77617797  1
  Sr  Sr40  1  -0.05195115  0.81236624  0.47803826  1
  Sr  Sr41  1  -0.02691519  0.82631365  0.89641396  1
  Sr  Sr42  1  0.34306160  0.21451743  0.31886179  1
  Sr  Sr43  1  0.30510945  0.13033932  0.87559458  1
  Sr  Sr44  1  0.36382930  0.48736538  0.37095270  1
  Sr  Sr45  1  0.37248366  0.52153332  0.81009192  1
  Sr  Sr46  1  0.32058895  0.74086466  0.28873654  1
  Sr  Sr47  1  0.37567271  0.83871980  1.05824200  1
  Sr  Sr48  1  0.62675821  0.16812934  0.35106432  1
  Sr  Sr49  1  0.70933854  0.14934840  0.86599548  1
  Sr  Sr50  1  0.60992954  0.50510179  0.37562781  1
  Sr  Sr51  1  0.64511832  0.53885826  0.95862145  1
  Sr  Sr52  1  0.63947685  0.83716358  0.39278418  1
  Sr  Sr53  1  0.71300690  0.86185803  0.83422040  1
  Sr  Sr54  1  0.29529382  -0.09520101  0.41773305  1
  Sr  Sr55  1  0.09998025  -0.00735106  0.84471846  1
  Sr  Sr56  1  0.20811135  0.36584002  0.41964875  1
  Sr  Sr57  1  0.19813860  0.29844591  0.86595271  1
  Sr  Sr58  1  0.20801229  0.61208375  0.39820057  1
  Sr  Sr59  1  0.16202374  0.66045119  0.91413909  1
  Sr  Sr60  1  0.48827451  -0.01399634  0.41834230  1
  Sr  Sr61  1  0.56018866  0.01467623  0.85512006  1
  Sr  Sr62  1  0.48936656  0.33690407  0.35695308  1
  Sr  Sr63  1  0.59259114  0.35213599  0.91694537  1
  Sr  Sr64  1  0.49570632  0.65745242  0.33130126  1
  Sr  Sr65  1  0.51642445  0.68476396  0.90549307  1
  Sr  Sr66  1  0.77608806  0.00088401  0.29596485  1
  Sr  Sr67  1  0.86876445  0.01269145  0.89042977  1
  Sr  Sr68  1  0.90513466  0.30797327  0.42040283  1
  Sr  Sr69  1  0.80785123  0.32141308  0.86962902  1
  Sr  Sr70  1  0.79180660  0.68021608  0.45816199  1
  Sr  Sr71  1  0.80647008  0.65039493  0.87821359  1
  Ta  Ta72  1  0.14767428  0.13078559  -0.00888568  1
  Ta  Ta73  1  0.20589161  0.17677874  0.49336984  1
  Ta  Ta74  1  0.03732399  0.45614245  -0.07769742  1
  Ta  Ta75  1  0.12933792  0.51473694  0.57515205  1
  Ta  Ta76  1  0.18475520  0.85210086  -0.03381962  1
  Ta  Ta77  1  0.16289835  0.79370607  0.52048802  1
  Ta  Ta78  1  0.47816901  0.20284697  -0.04332550  1
  Ta  Ta79  1  0.47357381  0.17498604  0.49308706  1
  Ta  Ta80  1  0.45966245  0.48282427  -0.00524731  1
  Ta  Ta81  1  0.50616549  0.55586901  0.57204798  1
  Ta  Ta82  1  0.57706998  0.85686875  0.01809774  1
  Ta  Ta83  1  0.47510918  0.79699248  0.47701933  1
  Ta  Ta84  1  0.84517729  0.18926111  0.05524739  1
  Ta  Ta85  1  0.78752949  0.16444511  0.46410743  1
  Ta  Ta86  1  0.84720617  0.48558313  0.00995395  1
  Ta  Ta87  1  0.78815880  0.46441147  0.38546354  1
  Ta  Ta88  1  0.77984763  0.85764140  0.03523012  1
  Ta  Ta89  1  0.77706992  0.88188693  0.52989416  1
  Ta  Ta90  1  0.18344628  0.25671583  0.23158143  1
  Ta  Ta91  1  0.11766851  0.16226098  0.72953552  1
  Ta  Ta92  1  0.20235508  0.42822208  0.22698375  1
  Ta  Ta93  1  0.09224075  0.46574260  0.73890559  1
  Ta  Ta94  1  0.11221997  0.77825337  0.34575037  1
  Ta  Ta95  1  0.19660703  0.82761289  0.78035655  1
  Ta  Ta96  1  0.48473884  0.13978007  0.21351246  1
  Ta  Ta97  1  0.52125708  0.21612790  0.76133386  1
  Ta  Ta98  1  0.45289622  0.50131806  0.17260095  1
  Ta  Ta99  1  0.55217640  0.49959711  0.75934668  1
  Ta  Ta100  1  0.48203935  0.87137861  0.23374446  1
  Ta  Ta101  1  0.43293997  0.86418893  0.84031626  1
  Ta  Ta102  1  0.81517854  0.19709303  0.24330002  1
  Ta  Ta103  1  0.85554565  0.11212962  0.65045695  1
  Ta  Ta104  1  0.85145769  0.57677730  0.26040598  1
  Ta  Ta105  1  0.71763550  0.48415076  0.78872906  1
  Ta  Ta106  1  0.83958157  0.80418140  0.29255382  1
  Ta  Ta107  1  0.86625732  0.93864969  0.68275285  1
  Ta  Ta108  1  -0.00019325  -0.10901885  0.28626010  1
  Ta  Ta109  1  -0.00654531  0.03297311  0.67172024  1
  Ta  Ta110  1  0.05798583  0.34360816  0.25860423  1
  Ta  Ta111  1  0.01172880  0.31889096  0.69934895  1
  Ta  Ta112  1  -0.03886718  0.70517685  0.31023080  1
  Ta  Ta113  1  0.02697371  0.62439452  0.72293080  1
  Ta  Ta114  1  0.37849189  0.01327162  0.24020708  1
  Ta  Ta115  1  0.29715452  -0.06852458  0.87132034  1
  Ta  Ta116  1  0.32850799  0.37782259  0.13566321  1
  Ta  Ta117  1  0.39931520  0.31271865  0.77167518  1
  Ta  Ta118  1  0.30610262  0.54067951  0.16394729  1
  Ta  Ta119  1  0.32273961  0.75756980  0.87362637  1
  Ta  Ta120  1  0.58418468  0.00968655  0.23806198  1
  Ta  Ta121  1  0.72449581  0.00734555  0.66732423  1
  Ta  Ta122  1  0.71499682  0.33229228  0.27343313  1
  Ta  Ta123  1  0.64594874  0.35515365  0.72260121  1
  Ta  Ta124  1  0.70349969  0.66528519  0.27493530  1
  Ta  Ta125  1  0.64838580  0.64067533  0.75080026  1
  Ta  Ta126  1  0.08026311  -0.02008582  0.05245624  1
  Ta  Ta127  1  0.08160072  -0.05206031  0.45412225  1
  Ta  Ta128  1  -0.06576925  0.34625885  0.03287931  1
  Ta  Ta129  1  0.05195276  0.37736336  0.52800114  1
  Ta  Ta130  1  -0.01496559  0.60641723  -0.08072286  1
  Ta  Ta131  1  0.05412097  0.66290289  0.53059991  1
  Ta  Ta132  1  0.24564322  0.00281709  0.03748812  1
  Ta  Ta133  1  0.33442722  0.08717612  0.47721428  1
  Ta  Ta134  1  0.37779503  0.34066090  -0.04173485  1
  Ta  Ta135  1  0.35227228  0.26560798  0.52310083  1
  Ta  Ta136  1  0.36400268  0.63241524  0.01987476  1
  Ta  Ta137  1  0.39276672  0.66298184  0.51194265  1
  Ta  Ta138  1  0.68264850  -0.01860319  0.04977550  1
  Ta  Ta139  1  0.67932314  0.01842163  0.48130158  1
  Ta  Ta140  1  0.76126131  0.32422597  0.07922834  1
  Ta  Ta141  1  0.70162685  0.32627207  0.46191043  1
  Ta  Ta142  1  0.68227748  0.72215277  0.02049295  1
  Ta  Ta143  1  0.60037471  0.67685704  0.51126923  1
  N  N144  1  0.68619379  0.68151680  0.14494629  1
  N  N145  1  -0.01788752  0.68746154  0.62833429  1
  N  N146  1  -0.00780511  -0.02888750  0.37379474  1
  N  N147  1  0.78680516  0.49075027  0.90211714  1
  N  N148  1  0.88974432  0.48642726  0.34829641  1
  N  N149  1  0.87152365  0.18255642  0.54613150  1
  N  N150  1  0.29052551  0.01600547  0.15632961  1
  N  N151  1  -0.04177629  0.34776518  0.58238748  1
  N  N152  1  0.80349370  0.84495462  0.40299416  1
  N  N153  1  0.47980749  0.81738466  0.35392000  1
  N  N154  1  0.63055249  0.00607983  0.36844681  1
  N  N155  1  0.49530774  0.89611446  0.94344982  1
  N  N156  1  0.00450274  0.34831477  0.14577539  1
  N  N157  1  0.14090233  0.15034433  0.86242056  1
  N  N158  1  0.37074162  0.65104304  0.89215638  1
  N  N159  1  0.28256873  0.33455361  0.02454561  1
  N  N160  1  0.48709301  0.17802384  0.07978864  1
  N  N161  1  0.46089458  0.51560313  0.68169906  1
  N  N162  1  0.67631906  0.02051413  0.17069043  1
  N  N163  1  0.36066741  0.31176050  0.65040311  1
  N  N164  1  0.86940247  0.85026442  0.59720771  1
  N  N165  1  0.64467766  0.66495035  0.39445041  1
  N  N166  1  0.21477819  0.77119887  0.40993982  1
  N  N167  1  0.33587565  0.04437191  0.35340755  1
  N  N168  1  0.26412610  0.60203393  0.05428234  1
  N  N169  1  0.51696148  0.82634344  0.12650398  1
  N  N170  1  0.04674055  -0.00615602  0.55933990  1
  N  N171  1  0.85169094  0.53569722  0.14136490  1
  N  N172  1  0.88425195  0.13752644  0.16680433  1
  N  N173  1  0.84335400  0.14437012  0.35608128  1
  N  N174  1  0.51219723  0.50363710  0.88690427  1
  N  N175  1  0.11394331  0.82115019  0.86276281  1
  N  N176  1  0.17358547  0.16575756  0.61628665  1
  O  O177  1  0.16840289  0.20147813  0.11168701  1
  O  O178  1  0.14983572  0.75595901  0.22790246  1
  O  O179  1  0.50828487  0.17597028  0.63610113  1
  O  O180  1  0.54514562  0.47775435  0.09818016  1
  O  O181  1  0.83534999  0.86988658  0.93058397  1
  O  O182  1  0.62551597  0.03291761  0.60047915  1
  O  O183  1  0.48443329  0.18363522  0.35477245  1
  O  O184  1  0.13471118  0.43257641  0.85517018  1
  O  O185  1  0.81725063  0.83666737  0.15916900  1
  O  O186  1  0.33974735  0.01446175  0.96856939  1
  O  O187  1  0.32137372  0.37653584  0.83957829  1
  O  O188  1  0.20002237  0.21607105  0.35508983  1
  O  O189  1  0.04176502  0.66522180  0.00815025  1
  O  O190  1  0.68692072  0.01096211  0.78557793  1
  O  O191  1  -0.07091277  0.62468136  0.80173902  1
  O  O192  1  0.78785974  0.53569995  0.48665599  1
  O  O193  1  0.84550751  0.15346386  0.93520661  1
  O  O194  1  0.10623381  0.48998715  0.01869040  1
  O  O195  1  0.32910640  -0.00832820  0.55543581  1
  O  O196  1  0.47955597  0.88607894  0.56205328  1
  O  O197  1  0.22162334  0.49780520  0.49864082  1
  O  O198  1  0.35633296  0.35400660  0.43681921  1
  O  O199  1  -0.01223106  -0.03685551  0.97956188  1
  O  O200  1  0.65131090  0.69324250  0.63732293  1
  O  O201  1  0.62491570  0.32372741  0.35387015  1
  O  O202  1  0.70474282  0.27468921  0.97833260  1
  O  O203  1  0.66305863  0.67930006  0.88118193  1
  O  O204  1  -0.02517570  0.64235431  0.44019907  1
  O  O205  1  0.34194137  0.70154183  0.61332045  1
  O  O206  1  0.49082960  0.48157743  0.29192508  1
  O  O207  1  0.19790842  0.80708755  0.64893182  1
  O  O208  1  0.19679572  0.48479584  0.68304971  1
  O  O209  1  -0.07900298  0.31558304  0.77109187  1
  O  O210  1  0.35351732  0.63345769  0.39455367  1
  O  O211  1  0.04233900  -0.07086030  0.16264267  1
  O  O212  1  0.04500660  0.36798373  0.39461533  1
  O  O213  1  0.56821632  0.17462253  0.87706642  1
  O  O214  1  0.67546304  0.34033097  0.58901670  1
  O  O215  1  0.66834641  0.35465702  0.15008767  1
