# generated using pymatgen
data_Sr24Ta24N11O13
_symmetry_space_group_name_H-M   'P 1'
_cell_length_a   16.56349751
_cell_length_b   17.15087371
_cell_length_c   15.44169718
_cell_angle_alpha   90.53932515
_cell_angle_beta   89.62401368
_cell_angle_gamma   89.41475193
_symmetry_Int_Tables_number   1
_chemical_formula_structural   Sr24Ta24N11O13
_chemical_formula_sum   'Sr72 Ta72 N33 O39'
_cell_volume   4386.13304701
_cell_formula_units_Z   3
loop_
 _symmetry_equiv_pos_site_id
 _symmetry_equiv_pos_as_xyz
  1  'x, y, z'
loop_
 _atom_site_type_symbol
 _atom_site_label
 _atom_site_symmetry_multiplicity
 _atom_site_fract_x
 _atom_site_fract_y
 _atom_site_fract_z
 _atom_site_occupancy
  Sr  Sr0  1  -0.00235467  0.14716598  0.15693425  1
  Sr  Sr1  1  -0.00656071  0.17078448  0.61320095  1
  Sr  Sr2  1  -0.00038489  0.46525213  0.13193142  1
  Sr  Sr3  1  -0.00871600  0.49628386  0.64391925  1
  Sr  Sr4  1  0.00623032  0.85098187  0.12994353  1
  Sr  Sr5  1  -0.00057961  0.79977106  0.61080852  1
  Sr  Sr6  1  0.33511051  0.17918758  0.13592725  1
  Sr  Sr7  1  0.34746173  0.14433989  0.57177603  1
  Sr  Sr8  1  0.33048682  0.52735784  0.07314817  1
  Sr  Sr9  1  0.33255697  0.48939103  0.63815952  1
  Sr  Sr10  1  0.35651804  0.83647265  0.17608604  1
  Sr  Sr11  1  0.31717042  0.82668853  0.62911281  1
  Sr  Sr12  1  0.67694570  0.15116711  0.10296059  1
  Sr  Sr13  1  0.65401179  0.15136124  0.66072003  1
  Sr  Sr14  1  0.65284200  0.49809711  0.13890431  1
  Sr  Sr15  1  0.66970328  0.45812540  0.57531671  1
  Sr  Sr16  1  0.65704239  0.81575849  0.07749409  1
  Sr  Sr17  1  0.67014654  0.82822269  0.62831095  1
  Sr  Sr18  1  0.17493792  0.00886542  0.09580171  1
  Sr  Sr19  1  0.16561755  -0.00672979  0.65112069  1
  Sr  Sr20  1  0.17886187  0.33214421  0.11611481  1
  Sr  Sr21  1  0.14476851  0.35043650  0.68237657  1
  Sr  Sr22  1  0.16035702  0.68338961  0.14514151  1
  Sr  Sr23  1  0.17489957  0.66172640  0.58126630  1
  Sr  Sr24  1  0.50195630  0.01749237  0.13326305  1
  Sr  Sr25  1  0.50699363  0.00046662  0.60292978  1
  Sr  Sr26  1  0.50237476  0.34866109  0.15959248  1
  Sr  Sr27  1  0.50049204  0.31913524  0.61006588  1
  Sr  Sr28  1  0.50852814  0.65904860  0.11741994  1
  Sr  Sr29  1  0.50109981  0.70137355  0.67487632  1
  Sr  Sr30  1  0.83552298  0.01308203  0.13900275  1
  Sr  Sr31  1  0.84053929  0.02493236  0.63920113  1
  Sr  Sr32  1  0.80856717  0.34801944  0.12380548  1
  Sr  Sr33  1  0.83851279  0.33315523  0.56746606  1
  Sr  Sr34  1  0.83566062  0.72194141  0.08286598  1
  Sr  Sr35  1  0.83052934  0.68947340  0.63260249  1
  Sr  Sr36  1  -0.00693809  0.16594982  0.39272858  1
  Sr  Sr37  1  0.01896662  0.15306690  0.82569657  1
  Sr  Sr38  1  0.00512497  0.48984311  0.34917788  1
  Sr  Sr39  1  -0.01115136  0.47996300  0.86731667  1
  Sr  Sr40  1  -0.00715143  0.81500119  0.36475474  1
  Sr  Sr41  1  0.00654495  0.80826126  0.91041216  1
  Sr  Sr42  1  0.34091022  0.18349259  0.36347009  1
  Sr  Sr43  1  0.32676035  0.15029588  0.91838877  1
  Sr  Sr44  1  0.32058687  0.50678374  0.42185705  1
  Sr  Sr45  1  0.34168505  0.48323302  0.85572807  1
  Sr  Sr46  1  0.32689622  0.80005343  0.37353353  1
  Sr  Sr47  1  0.32827557  0.83850827  0.83830095  1
  Sr  Sr48  1  0.67564722  0.11254057  0.32416052  1
  Sr  Sr49  1  0.66520781  0.17517398  0.87591365  1
  Sr  Sr50  1  0.65362462  0.50918701  0.35597971  1
  Sr  Sr51  1  0.66870651  0.48175643  0.88599102  1
  Sr  Sr52  1  0.66441461  0.82568111  0.41372189  1
  Sr  Sr53  1  0.66730151  0.78792125  0.85789290  1
  Sr  Sr54  1  0.16941326  0.05831530  0.43989592  1
  Sr  Sr55  1  0.17121538  -0.00459677  0.87340364  1
  Sr  Sr56  1  0.16008125  0.33485753  0.33441040  1
  Sr  Sr57  1  0.18473442  0.33018342  0.89025576  1
  Sr  Sr58  1  0.15385191  0.65804372  0.36864903  1
  Sr  Sr59  1  0.16735737  0.67530591  0.92341541  1
  Sr  Sr60  1  0.49378809  -0.00904718  0.36690949  1
  Sr  Sr61  1  0.50809262  0.02913021  0.90478352  1
  Sr  Sr62  1  0.48666222  0.35966623  0.39673954  1
  Sr  Sr63  1  0.51138805  0.33222136  0.82355755  1
  Sr  Sr64  1  0.51161195  0.67201746  0.34896276  1
  Sr  Sr65  1  0.49932307  0.65344845  0.88590261  1
  Sr  Sr66  1  0.85320618  0.00303475  0.35556222  1
  Sr  Sr67  1  0.83620295  0.04744286  0.85343975  1
  Sr  Sr68  1  0.82105102  0.38087148  0.36023911  1
  Sr  Sr69  1  0.81994490  0.34499879  0.91482020  1
  Sr  Sr70  1  0.82266341  0.69684107  0.40160685  1
  Sr  Sr71  1  0.84901305  0.66518531  0.84868819  1
  Ta  Ta72  1  0.12680192  0.16888043  -0.00356474  1
  Ta  Ta73  1  0.16362592  0.23476194  0.51342517  1
  Ta  Ta74  1  0.14271032  0.50670684  -0.00029234  1
  Ta  Ta75  1  0.14620374  0.46760954  0.50776923  1
  Ta  Ta76  1  0.21264414  0.84088017  0.01701151  1
  Ta  Ta77  1  0.16218356  0.86767921  0.48605611  1
  Ta  Ta78  1  0.50004451  0.21497790  -0.00533640  1
  Ta  Ta79  1  0.54638776  0.16044511  0.48585858  1
  Ta  Ta80  1  0.50257823  0.46065180  -0.01246725  1
  Ta  Ta81  1  0.49916253  0.54586901  0.50928351  1
  Ta  Ta82  1  0.47015944  0.83848847  -0.01113425  1
  Ta  Ta83  1  0.47977217  0.81894360  0.49913931  1
  Ta  Ta84  1  0.87655303  0.17229214  0.00398143  1
  Ta  Ta85  1  0.78642999  0.15798235  0.49390019  1
  Ta  Ta86  1  0.83674354  0.53657972  0.01151395  1
  Ta  Ta87  1  0.84718564  0.53475512  0.48972481  1
  Ta  Ta88  1  0.83680654  0.89113577  -0.02950161  1
  Ta  Ta89  1  0.84125383  0.87826110  0.50849147  1
  Ta  Ta90  1  0.16526111  0.14533381  0.24938152  1
  Ta  Ta91  1  0.21799732  0.16532021  0.74831484  1
  Ta  Ta92  1  0.21432243  0.50654569  0.24408637  1
  Ta  Ta93  1  0.16631985  0.54058193  0.75603328  1
  Ta  Ta94  1  0.17088523  0.87586847  0.26792925  1
  Ta  Ta95  1  0.14753254  0.80514628  0.75336454  1
  Ta  Ta96  1  0.52114011  0.19308624  0.26581883  1
  Ta  Ta97  1  0.45894784  0.15414377  0.74468826  1
  Ta  Ta98  1  0.44495662  0.50977479  0.25718047  1
  Ta  Ta99  1  0.52828634  0.50880380  0.73317129  1
  Ta  Ta100  1  0.54628671  0.83009015  0.24897915  1
  Ta  Ta101  1  0.50583710  0.88176361  0.76652891  1
  Ta  Ta102  1  0.83013350  0.20776173  0.25382930  1
  Ta  Ta103  1  0.82668225  0.21665744  0.74091923  1
  Ta  Ta104  1  0.83086541  0.56669413  0.23701202  1
  Ta  Ta105  1  0.81171188  0.47220532  0.74075020  1
  Ta  Ta106  1  0.80579815  0.83344163  0.25267581  1
  Ta  Ta107  1  0.83761682  0.86478812  0.76462102  1
  Ta  Ta108  1  0.06674078  -0.00020254  0.26677621  1
  Ta  Ta109  1  -0.00643512  -0.05956256  0.76497418  1
  Ta  Ta110  1  -0.02356680  0.30597823  0.25165352  1
  Ta  Ta111  1  -0.06084119  0.32878778  0.74513846  1
  Ta  Ta112  1  -0.03387185  0.65740724  0.23401017  1
  Ta  Ta113  1  0.05076734  0.66315617  0.75860569  1
  Ta  Ta114  1  0.28297452  0.00437343  0.27030278  1
  Ta  Ta115  1  0.35243549  0.01734028  0.74974467  1
  Ta  Ta116  1  0.33395145  0.38177171  0.25222189  1
  Ta  Ta117  1  0.33402292  0.28611302  0.74544844  1
  Ta  Ta118  1  0.33440747  0.62810215  0.25325457  1
  Ta  Ta119  1  0.27763837  0.66568504  0.75848153  1
  Ta  Ta120  1  0.67083676  -0.05880132  0.24146033  1
  Ta  Ta121  1  0.66693632  -0.03099478  0.77018449  1
  Ta  Ta122  1  0.66183966  0.29581208  0.27264902  1
  Ta  Ta123  1  0.70329355  0.33743960  0.74279266  1
  Ta  Ta124  1  0.68874320  0.69339048  0.24589411  1
  Ta  Ta125  1  0.67094876  0.60866310  0.73360000  1
  Ta  Ta126  1  -0.01084739  0.02143445  -0.00672099  1
  Ta  Ta127  1  0.00598010  -0.03349100  0.50627983  1
  Ta  Ta128  1  0.00279694  0.29031436  -0.00595602  1
  Ta  Ta129  1  0.03250052  0.34435830  0.50403137  1
  Ta  Ta130  1  -0.00868131  0.62189378  0.00719462  1
  Ta  Ta131  1  -0.01179192  0.62592353  0.49636157  1
  Ta  Ta132  1  0.34238973  -0.05227794  0.00679518  1
  Ta  Ta133  1  0.32426575  -0.04031478  0.48678880  1
  Ta  Ta134  1  0.37933880  0.33384000  -0.00774733  1
  Ta  Ta135  1  0.28663664  0.33517029  0.50398809  1
  Ta  Ta136  1  0.33936531  0.72899801  0.00770788  1
  Ta  Ta137  1  0.38293513  0.66914193  0.51424478  1
  Ta  Ta138  1  0.68944458  -0.02419680  -0.01421271  1
  Ta  Ta139  1  0.68624640  0.00712119  0.49666889  1
  Ta  Ta140  1  0.62265232  0.32960685  -0.00190777  1
  Ta  Ta141  1  0.66380724  0.27723016  0.47032460  1
  Ta  Ta142  1  0.69139000  0.63190432  -0.00511330  1
  Ta  Ta143  1  0.64457277  0.64867806  0.50994446  1
  N  N144  1  0.48569994  0.51383695  0.38717214  1
  N  N145  1  0.67401153  0.63977334  0.86537663  1
  N  N146  1  0.83363786  0.84634975  0.37502310  1
  N  N147  1  0.67124115  0.67992521  0.63711543  1
  N  N148  1  0.83614972  0.81004117  0.88214575  1
  N  N149  1  0.16416295  0.50169582  0.62824169  1
  N  N150  1  0.83242892  0.17751082  0.12495513  1
  N  N151  1  0.17510939  0.16080494  0.86684556  1
  N  N152  1  0.50405335  0.49122270  0.85707778  1
  N  N153  1  0.32049820  0.34985780  0.38215901  1
  N  N154  1  0.82745026  0.53116576  0.35892045  1
  N  N155  1  0.32438158  0.02942853  0.39075243  1
  N  N156  1  0.49929346  0.81243222  0.86303901  1
  N  N157  1  0.00750949  0.65112317  0.88627184  1
  N  N158  1  0.67104463  -0.02307660  0.37669862  1
  N  N159  1  0.50073696  0.15820171  0.61612461  1
  N  N160  1  0.66788737  0.33067929  0.86987203  1
  N  N161  1  0.16187879  0.16680159  0.12333652  1
  N  N162  1  0.65962135  0.35974311  0.37993482  1
  N  N163  1  0.49383135  0.14202835  0.37522363  1
  N  N164  1  -0.00933823  0.33613008  0.63093901  1
  N  N165  1  0.01250995  0.00389420  0.87031626  1
  N  N166  1  0.66603531  0.66963474  0.38578053  1
  N  N167  1  0.66741338  0.66538169  0.12192183  1
  N  N168  1  0.67204988  -0.01533653  0.11490286  1
  N  N169  1  0.49449463  0.17557106  0.86984083  1
  N  N170  1  0.34144109  0.32542162  0.86869919  1
  N  N171  1  0.18005665  0.84231409  0.14474883  1
  N  N172  1  0.66852059  0.03329152  0.87183679  1
  N  N173  1  0.50192252  0.82593271  0.37609973  1
  N  N174  1  0.83114226  0.84326429  0.62926004  1
  N  N175  1  0.16762087  0.50128802  0.12244450  1
  N  N176  1  0.82258936  0.17843127  0.61189255  1
  O  O177  1  -0.01120237  0.31899957  0.87013221  1
  O  O178  1  0.32883328  -0.01609345  0.14715340  1
  O  O179  1  0.34413475  0.33797633  0.62538997  1
  O  O180  1  0.67443497  -0.00153217  0.64049058  1
  O  O181  1  0.02268080  -0.00023836  0.13650383  1
  O  O182  1  0.49576279  0.17932241  0.13797376  1
  O  O183  1  0.34120505  0.33853822  0.12705309  1
  O  O184  1  0.33872897  -0.00839117  0.61935700  1
  O  O185  1  0.82106744  0.49160271  0.13518220  1
  O  O186  1  0.33861116  -0.00414925  0.87974446  1
  O  O187  1  0.00973441  -0.03630381  0.63462672  1
  O  O188  1  0.83055202  0.49342601  0.87121084  1
  O  O189  1  0.15913684  0.80209036  0.37817311  1
  O  O190  1  0.48901023  0.50127485  0.11251627  1
  O  O191  1  0.15724792  0.19161335  0.37611007  1
  O  O192  1  0.85010264  0.86413524  0.10683674  1
  O  O193  1  0.01127954  0.01078718  0.38246229  1
  O  O194  1  0.82551950  0.48497364  0.61008642  1
  O  O195  1  -0.01228103  0.70030208  0.11512597  1
  O  O196  1  0.15312611  0.19018006  0.63614446  1
  O  O197  1  0.01519549  0.64668605  0.62315565  1
  O  O198  1  0.33814805  0.67964490  0.12735346  1
  O  O199  1  0.84100838  0.15183180  0.36887715  1
  O  O200  1  0.49317691  0.84998822  0.63760684  1
  O  O201  1  0.16503580  0.50199203  0.36816758  1
  O  O202  1  0.16715540  0.82462769  0.88270326  1
  O  O203  1  0.50896208  0.82603105  0.12234386  1
  O  O204  1  0.00286025  0.30838956  0.12734752  1
  O  O205  1  0.65509526  0.32665186  0.12900272  1
  O  O206  1  0.33978682  0.65653293  0.38925205  1
  O  O207  1  0.66298875  0.31654479  0.61553104  1
  O  O208  1  0.16806977  0.48221879  0.87165952  1
  O  O209  1  0.82616162  0.19151204  0.88543746  1
  O  O210  1  0.49029787  0.46834152  0.61572789  1
  O  O211  1  0.15820976  0.83018983  0.62108404  1
  O  O212  1  0.31799732  0.68965624  0.87957497  1
  O  O213  1  -0.01001912  0.32522153  0.38037981  1
  O  O214  1  -0.00744010  0.64582825  0.36153435  1
  O  O215  1  0.32802391  0.67247618  0.63517674  1
