# generated using pymatgen
data_Sr24Ta24N11O13
_symmetry_space_group_name_H-M   'P 1'
_cell_length_a   16.73365439
_cell_length_b   16.85408834
_cell_length_c   15.60663122
_cell_angle_alpha   89.39862402
_cell_angle_beta   89.79772602
_cell_angle_gamma   90.35929468
_symmetry_Int_Tables_number   1
_chemical_formula_structural   Sr24Ta24N11O13
_chemical_formula_sum   'Sr72 Ta72 N33 O39'
_cell_volume   4401.18839028
_cell_formula_units_Z   3
loop_
 _symmetry_equiv_pos_site_id
 _symmetry_equiv_pos_as_xyz
  1  'x, y, z'
loop_
 _atom_site_type_symbol
 _atom_site_label
 _atom_site_symmetry_multiplicity
 _atom_site_fract_x
 _atom_site_fract_y
 _atom_site_fract_z
 _atom_site_occupancy
  Sr  Sr0  1  -0.01166425  0.16568881  0.11720062  1
  Sr  Sr1  1  0.00659291  0.12504815  0.66750213  1
  Sr  Sr2  1  0.01159894  0.48591259  0.12962279  1
  Sr  Sr3  1  0.00816883  0.49063567  0.63707429  1
  Sr  Sr4  1  -0.00673512  0.80384523  0.15573398  1
  Sr  Sr5  1  0.00858986  0.82348022  0.58232691  1
  Sr  Sr6  1  0.34078400  0.15129159  0.08984742  1
  Sr  Sr7  1  0.32541620  0.15236363  0.62340153  1
  Sr  Sr8  1  0.32769884  0.47956511  0.11983036  1
  Sr  Sr9  1  0.34543189  0.48775183  0.61048500  1
  Sr  Sr10  1  0.33414528  0.81895218  0.13209454  1
  Sr  Sr11  1  0.32689004  0.81988782  0.65761692  1
  Sr  Sr12  1  0.64995154  0.16370584  0.17079556  1
  Sr  Sr13  1  0.68009819  0.17947044  0.61811602  1
  Sr  Sr14  1  0.67236961  0.51940063  0.13721040  1
  Sr  Sr15  1  0.68464843  0.50265418  0.58663386  1
  Sr  Sr16  1  0.67047350  0.85713182  0.07939127  1
  Sr  Sr17  1  0.67327327  0.82754168  0.64000096  1
  Sr  Sr18  1  0.16578386  0.03891162  0.08083875  1
  Sr  Sr19  1  0.17117748  -0.00401538  0.63122250  1
  Sr  Sr20  1  0.15235383  0.33152256  0.17428782  1
  Sr  Sr21  1  0.16874687  0.34957471  0.59925362  1
  Sr  Sr22  1  0.16251979  0.66481722  0.11258003  1
  Sr  Sr23  1  0.14794722  0.67410243  0.63251690  1
  Sr  Sr24  1  0.49281998  -0.00097677  0.13043921  1
  Sr  Sr25  1  0.52176063  0.01116271  0.57538242  1
  Sr  Sr26  1  0.50485721  0.35208387  0.11178237  1
  Sr  Sr27  1  0.50138079  0.31409672  0.67032418  1
  Sr  Sr28  1  0.49529068  0.68002658  0.15606831  1
  Sr  Sr29  1  0.49254223  0.65384871  0.61396897  1
  Sr  Sr30  1  0.83980079  0.00740187  0.11987639  1
  Sr  Sr31  1  0.82978454  0.00738053  0.66910678  1
  Sr  Sr32  1  0.84107079  0.35026496  0.09128438  1
  Sr  Sr33  1  0.83204909  0.34885840  0.62443464  1
  Sr  Sr34  1  0.81686265  0.67422163  0.14127949  1
  Sr  Sr35  1  0.83000495  0.68733215  0.61088625  1
  Sr  Sr36  1  0.00512934  0.15406426  0.34145555  1
  Sr  Sr37  1  0.00148088  0.14220872  0.89363618  1
  Sr  Sr38  1  0.02043086  0.44819072  0.40227356  1
  Sr  Sr39  1  0.00700690  0.50387223  0.86218262  1
  Sr  Sr40  1  -0.01201564  0.84314942  0.36904900  1
  Sr  Sr41  1  0.01563141  0.80010373  0.90221014  1
  Sr  Sr42  1  0.32109513  0.14258227  0.41009819  1
  Sr  Sr43  1  0.33912095  0.15756421  0.87488183  1
  Sr  Sr44  1  0.33177166  0.47124629  0.38155024  1
  Sr  Sr45  1  0.34815703  0.48881675  0.87885546  1
  Sr  Sr46  1  0.34544024  0.82681215  0.33682268  1
  Sr  Sr47  1  0.32541385  0.81671597  0.86501216  1
  Sr  Sr48  1  0.67021828  0.17002176  0.38333914  1
  Sr  Sr49  1  0.66644460  0.19116988  0.82934161  1
  Sr  Sr50  1  0.66258480  0.51060392  0.36254485  1
  Sr  Sr51  1  0.67799289  0.49432577  0.91881653  1
  Sr  Sr52  1  0.65363312  0.84643731  0.41884895  1
  Sr  Sr53  1  0.67070896  0.83267672  0.86324852  1
  Sr  Sr54  1  0.15987487  -0.00110376  0.40606554  1
  Sr  Sr55  1  0.17459716  0.01553992  0.85661248  1
  Sr  Sr56  1  0.17784438  0.31688543  0.38455262  1
  Sr  Sr57  1  0.15357720  0.35626685  0.84362150  1
  Sr  Sr58  1  0.15783406  0.70664905  0.34375483  1
  Sr  Sr59  1  0.16849371  0.65331108  0.89349566  1
  Sr  Sr60  1  0.48890536  0.00416851  0.36340446  1
  Sr  Sr61  1  0.49810300  -0.00615024  0.91713871  1
  Sr  Sr62  1  0.51883020  0.33540882  0.32869342  1
  Sr  Sr63  1  0.49572215  0.33350733  0.88373237  1
  Sr  Sr64  1  0.49255122  0.66709892  0.38277870  1
  Sr  Sr65  1  0.49540463  0.68875861  0.82600195  1
  Sr  Sr66  1  0.84986143  0.01953361  0.33613146  1
  Sr  Sr67  1  0.83191652  0.00230669  0.88179814  1
  Sr  Sr68  1  0.82037480  0.33497317  0.41948590  1
  Sr  Sr69  1  0.83986320  0.35338531  0.87649928  1
  Sr  Sr70  1  0.82948354  0.69495216  0.37643577  1
  Sr  Sr71  1  0.81201876  0.67731299  0.88335373  1
  Ta  Ta72  1  0.16497250  0.22129832  -0.00791628  1
  Ta  Ta73  1  0.12589600  0.16238487  0.50891124  1
  Ta  Ta74  1  0.16651023  0.45818839  0.00834090  1
  Ta  Ta75  1  0.17070253  0.54884883  0.48715414  1
  Ta  Ta76  1  0.17023349  0.85723783  0.00498204  1
  Ta  Ta77  1  0.20737544  0.82595864  0.50031012  1
  Ta  Ta78  1  0.54162094  0.16984104  -0.00527265  1
  Ta  Ta79  1  0.50482695  0.20096854  0.49696597  1
  Ta  Ta80  1  0.50156925  0.55503256  -0.00482802  1
  Ta  Ta81  1  0.50666748  0.45557197  0.50135019  1
  Ta  Ta82  1  0.48678214  0.80628665  -0.00656397  1
  Ta  Ta83  1  0.46275021  0.83068658  0.50011444  1
  Ta  Ta84  1  0.78821943  0.17551882  0.00120759  1
  Ta  Ta85  1  0.85846893  0.14177459  0.50786929  1
  Ta  Ta86  1  0.85931964  0.52816576  0.00838602  1
  Ta  Ta87  1  0.86249562  0.53097869  0.49262659  1
  Ta  Ta88  1  0.85924110  0.83495411  0.00675690  1
  Ta  Ta89  1  0.83220829  0.88627133  0.50238604  1
  Ta  Ta90  1  0.18871988  0.14432775  0.25510442  1
  Ta  Ta91  1  0.16812526  0.20032321  0.75034077  1
  Ta  Ta92  1  0.16945226  0.52282715  0.25928839  1
  Ta  Ta93  1  0.19568499  0.51064200  0.73735053  1
  Ta  Ta94  1  0.16846952  0.88805889  0.23732175  1
  Ta  Ta95  1  0.13408821  0.82882039  0.74767171  1
  Ta  Ta96  1  0.45678085  0.16832010  0.24873641  1
  Ta  Ta97  1  0.50073171  0.11863759  0.75223241  1
  Ta  Ta98  1  0.47594389  0.51455642  0.24726908  1
  Ta  Ta99  1  0.54802748  0.49827654  0.75107952  1
  Ta  Ta100  1  0.54211615  0.84376456  0.25178725  1
  Ta  Ta101  1  0.50331341  0.88592678  0.74815492  1
  Ta  Ta102  1  0.82738436  0.21715641  0.25109111  1
  Ta  Ta103  1  0.85432591  0.19701943  0.75044630  1
  Ta  Ta104  1  0.85254528  0.48121314  0.25799847  1
  Ta  Ta105  1  0.81681838  0.52033725  0.74411460  1
  Ta  Ta106  1  0.78835195  0.84910547  0.25393331  1
  Ta  Ta107  1  0.87558755  0.82685962  0.74882581  1
  Ta  Ta108  1  0.04362393  -0.00797609  0.23058467  1
  Ta  Ta109  1  0.00425894  -0.05695195  0.75769265  1
  Ta  Ta110  1  -0.04474807  0.32750620  0.25627392  1
  Ta  Ta111  1  -0.00349266  0.30175511  0.74669859  1
  Ta  Ta112  1  -0.00636528  0.61251126  0.27938409  1
  Ta  Ta113  1  -0.01863054  0.68375564  0.74726601  1
  Ta  Ta114  1  0.30452855  0.01055309  0.24468933  1
  Ta  Ta115  1  0.37349452  -0.00501466  0.75062503  1
  Ta  Ta116  1  0.33722149  0.28156923  0.25403405  1
  Ta  Ta117  1  0.31074677  0.32406446  0.74433140  1
  Ta  Ta118  1  0.32412030  0.62629119  0.24855037  1
  Ta  Ta119  1  0.30915959  0.63424333  0.74875732  1
  Ta  Ta120  1  0.66685339  -0.02695918  0.24906655  1
  Ta  Ta121  1  0.62854560  0.00745707  0.75243340  1
  Ta  Ta122  1  0.71070156  0.34085234  0.25184490  1
  Ta  Ta123  1  0.67318771  0.38186993  0.75056689  1
  Ta  Ta124  1  0.65919895  0.72293681  0.24555484  1
  Ta  Ta125  1  0.66831676  0.62354101  0.75120644  1
  Ta  Ta126  1  0.00700784  -0.04520845  0.00066002  1
  Ta  Ta127  1  -0.02426217  0.01395880  0.50791684  1
  Ta  Ta128  1  0.03093311  0.33325993  0.00598878  1
  Ta  Ta129  1  -0.00575535  0.26744695  0.50584616  1
  Ta  Ta130  1  -0.03055885  0.64700410  0.01454357  1
  Ta  Ta131  1  0.00442597  0.63302235  0.47814382  1
  Ta  Ta132  1  0.32096834  -0.03979588  -0.00130223  1
  Ta  Ta133  1  0.33578929  -0.04835096  0.49737068  1
  Ta  Ta134  1  0.28919854  0.32821579  0.00205969  1
  Ta  Ta135  1  0.39019904  0.31643651  0.49334343  1
  Ta  Ta136  1  0.36891079  0.66036309  -0.00570266  1
  Ta  Ta137  1  0.31036838  0.68285894  0.49584585  1
  Ta  Ta138  1  0.66954120  0.05354807  0.00215174  1
  Ta  Ta139  1  0.72182325  0.01187892  0.50124428  1
  Ta  Ta140  1  0.66827135  0.29722940  -0.00053029  1
  Ta  Ta141  1  0.62402358  0.33745150  0.50295407  1
  Ta  Ta142  1  0.62239535  0.67506470  -0.00387074  1
  Ta  Ta143  1  0.66143426  0.66830956  0.50278029  1
  N  N144  1  0.33811628  0.31442547  0.37921426  1
  N  N145  1  -0.00164995  0.32686072  0.12792287  1
  N  N146  1  0.84522388  0.51360978  0.62189674  1
  N  N147  1  0.49996633  0.83886799  0.87326116  1
  N  N148  1  0.16315721  0.17002889  0.87942722  1
  N  N149  1  0.50409859  0.16291930  0.87238916  1
  N  N150  1  0.33092968  -0.01521692  0.37647119  1
  N  N151  1  0.00165529  0.01257111  0.11493041  1
  N  N152  1  0.83847382  0.50455294  0.13656534  1
  N  N153  1  -0.01159152  0.30330100  0.38608488  1
  N  N154  1  0.66995314  0.34135326  0.37064947  1
  N  N155  1  0.66446316  0.34128988  0.62408353  1
  N  N156  1  -0.00048554  0.69329055  0.36517701  1
  N  N157  1  0.16670558  0.15886473  0.62846356  1
  N  N158  1  0.83524645  0.16773570  0.63078318  1
  N  N159  1  0.33832654  -0.00935593  0.87415627  1
  N  N160  1  0.66680397  0.01287757  0.12665979  1
  N  N161  1  0.65772884  0.67163124  0.86628017  1
  N  N162  1  0.33150782  0.65660209  0.87311368  1
  N  N163  1  0.65776335  0.67207512  0.62584692  1
  N  N164  1  0.65727259  0.68817461  0.11964667  1
  N  N165  1  0.17516610  0.51010879  0.60429236  1
  N  N166  1  0.16410338  0.15733240  0.37664512  1
  N  N167  1  0.16723838  0.83085509  0.62536489  1
  N  N168  1  0.84027662  0.84460670  0.62871048  1
  N  N169  1  0.66869338  0.34179539  0.87806144  1
  N  N170  1  0.83292394  0.84069261  0.12613131  1
  N  N171  1  0.33667000  -0.00707166  0.12248478  1
  N  N172  1  -0.00123250  -0.01974101  0.62502081  1
  N  N173  1  0.49888541  0.83573085  0.37769793  1
  N  N174  1  0.16906402  0.49474695  0.13592844  1
  N  N175  1  0.82770974  0.85304407  0.37434026  1
  N  N176  1  0.00426818  -0.01038538  0.87586407  1
  O  O177  1  -0.00027852  0.32228702  0.87384402  1
  O  O178  1  0.17159808  0.82331540  0.13042193  1
  O  O179  1  0.68694536  0.01429532  0.37612735  1
  O  O180  1  0.49504754  0.51327130  0.12100815  1
  O  O181  1  0.81282906  0.17512520  0.12775740  1
  O  O182  1  0.31054245  0.32101235  0.13086551  1
  O  O183  1  0.67258495  0.01553833  0.62506123  1
  O  O184  1  0.16748413  0.50034112  0.88377484  1
  O  O185  1  0.82787389  0.83059334  0.87417950  1
  O  O186  1  0.49591408  0.16328271  0.12125418  1
  O  O187  1  0.16600113  0.18090062  0.12441966  1
  O  O188  1  0.84535401  0.51488394  0.87539017  1
  O  O189  1  -0.00873302  0.64673191  0.14641325  1
  O  O190  1  0.17896309  0.47020869  0.38214755  1
  O  O191  1  0.49941553  0.83747382  0.12727822  1
  O  O192  1  0.16814251  0.83690236  0.87798781  1
  O  O193  1  0.65636917  0.68465225  0.37139035  1
  O  O194  1  0.50488904  0.48351425  0.63188092  1
  O  O195  1  0.49979421  0.84615433  0.62371665  1
  O  O196  1  -0.01901907  0.65802435  0.87553969  1
  O  O197  1  0.82846201  0.17133148  0.37303391  1
  O  O198  1  0.81833032  0.17923733  0.87374853  1
  O  O199  1  -0.00203037  0.33160512  0.62188251  1
  O  O200  1  0.51135759  0.17833730  0.36293149  1
  O  O201  1  0.51006803  0.50373751  0.87589587  1
  O  O202  1  -0.00668977  0.66511594  0.62012824  1
  O  O203  1  0.67014272  0.01249541  0.87393746  1
  O  O204  1  0.32809095  0.66688410  0.36989077  1
  O  O205  1  0.00461751  0.00037102  0.36064779  1
  O  O206  1  0.50597461  0.16456729  0.62493569  1
  O  O207  1  0.17777475  0.85116861  0.37196536  1
  O  O208  1  0.32297584  0.64123323  0.11874246  1
  O  O209  1  0.66586301  0.33532435  0.12624758  1
  O  O210  1  0.34165965  0.31991490  0.62083081  1
  O  O211  1  0.33205689  -0.00819516  0.62621381  1
  O  O212  1  0.32987087  0.66820638  0.62343464  1
  O  O213  1  0.81255361  0.49144426  0.38838212  1
  O  O214  1  0.31619326  0.33428282  0.87069016  1
  O  O215  1  0.49182926  0.48710883  0.36976462  1
