# generated using pymatgen
data_Sr24Ta24N11O13
_symmetry_space_group_name_H-M   'P 1'
_cell_length_a   16.76730900
_cell_length_b   16.76931035
_cell_length_c   15.69550594
_cell_angle_alpha   89.88798014
_cell_angle_beta   90.07820911
_cell_angle_gamma   90.06609405
_symmetry_Int_Tables_number   1
_chemical_formula_structural   Sr24Ta24N11O13
_chemical_formula_sum   'Sr72 Ta72 N33 O39'
_cell_volume   4413.18737703
_cell_formula_units_Z   3
loop_
 _symmetry_equiv_pos_site_id
 _symmetry_equiv_pos_as_xyz
  1  'x, y, z'
loop_
 _atom_site_type_symbol
 _atom_site_label
 _atom_site_symmetry_multiplicity
 _atom_site_fract_x
 _atom_site_fract_y
 _atom_site_fract_z
 _atom_site_occupancy
  Sr  Sr0  1  0.01493038  0.17342685  0.16466905  1
  Sr  Sr1  1  -0.01578330  0.16208035  0.61497056  1
  Sr  Sr2  1  -0.01038614  0.51110586  0.11309386  1
  Sr  Sr3  1  0.00405898  0.49983823  0.58952052  1
  Sr  Sr4  1  0.01283631  0.85307342  0.12039668  1
  Sr  Sr5  1  -0.01904241  0.82991101  0.65719970  1
  Sr  Sr6  1  0.32663136  0.16418396  0.08521018  1
  Sr  Sr7  1  0.34350582  0.16830057  0.63099211  1
  Sr  Sr8  1  0.33672386  0.50722006  0.11497614  1
  Sr  Sr9  1  0.31656034  0.49141801  0.67681154  1
  Sr  Sr10  1  0.32998747  0.85539439  0.15585493  1
  Sr  Sr11  1  0.33034684  0.82015033  0.61995165  1
  Sr  Sr12  1  0.67406536  0.17837388  0.11187135  1
  Sr  Sr13  1  0.66684714  0.14276454  0.66737770  1
  Sr  Sr14  1  0.67544219  0.50845425  0.16423016  1
  Sr  Sr15  1  0.66226994  0.48746135  0.61312875  1
  Sr  Sr16  1  0.65925019  0.82795988  0.12827458  1
  Sr  Sr17  1  0.66450278  0.84823228  0.58167961  1
  Sr  Sr18  1  0.16781456  -0.00424197  0.13222488  1
  Sr  Sr19  1  0.18169394  0.00144435  0.58017058  1
  Sr  Sr20  1  0.16494703  0.33103662  0.15194766  1
  Sr  Sr21  1  0.17896204  0.32579243  0.64099186  1
  Sr  Sr22  1  0.16954194  0.64384333  0.09433564  1
  Sr  Sr23  1  0.16003532  0.67442367  0.63048660  1
  Sr  Sr24  1  0.50473768  -0.02101460  0.16262118  1
  Sr  Sr25  1  0.50204924  0.00585561  0.63924339  1
  Sr  Sr26  1  0.50961987  0.33986239  0.13931139  1
  Sr  Sr27  1  0.50196648  0.32519983  0.58862095  1
  Sr  Sr28  1  0.48949594  0.66761280  0.08863419  1
  Sr  Sr29  1  0.50652307  0.65579378  0.63395946  1
  Sr  Sr30  1  0.81242210  0.00404335  0.07270189  1
  Sr  Sr31  1  0.84334843  0.00313887  0.63042733  1
  Sr  Sr32  1  0.84245889  0.32255123  0.11411611  1
  Sr  Sr33  1  0.83648989  0.35082940  0.60248641  1
  Sr  Sr34  1  0.82695854  0.67064345  0.12864887  1
  Sr  Sr35  1  0.83539849  0.67334417  0.65213265  1
  Sr  Sr36  1  -0.01530137  0.15892916  0.38317670  1
  Sr  Sr37  1  0.00662934  0.17896002  0.83454532  1
  Sr  Sr38  1  -0.00101954  0.50944662  0.38619469  1
  Sr  Sr39  1  -0.01358991  0.49445250  0.91163326  1
  Sr  Sr40  1  -0.01041096  0.83062834  0.34304202  1
  Sr  Sr41  1  0.00868821  0.85386089  0.87485127  1
  Sr  Sr42  1  0.34153530  0.17610186  0.42298931  1
  Sr  Sr43  1  0.33287128  0.16408339  0.87312372  1
  Sr  Sr44  1  0.32921767  0.48163329  0.33047886  1
  Sr  Sr45  1  0.33298413  0.50975630  0.88941253  1
  Sr  Sr46  1  0.31246410  0.82804160  0.38733023  1
  Sr  Sr47  1  0.34747722  0.84340353  0.84810916  1
  Sr  Sr48  1  0.64822681  0.16730206  0.33138950  1
  Sr  Sr49  1  0.68539530  0.16719343  0.89120727  1
  Sr  Sr50  1  0.65831357  0.49035960  0.39103211  1
  Sr  Sr51  1  0.67675983  0.52161662  0.82491664  1
  Sr  Sr52  1  0.66523828  0.83895845  0.36812683  1
  Sr  Sr53  1  0.66845717  0.82634988  0.91915190  1
  Sr  Sr54  1  0.15266094  -0.01205373  0.35458025  1
  Sr  Sr55  1  0.17947067  0.00158896  0.91652275  1
  Sr  Sr56  1  0.17226139  0.33672632  0.36254539  1
  Sr  Sr57  1  0.17425234  0.31964763  0.84504571  1
  Sr  Sr58  1  0.16544520  0.65677360  0.40302029  1
  Sr  Sr59  1  0.16128473  0.65953432  0.87169707  1
  Sr  Sr60  1  0.51265041  -0.00216371  0.36330040  1
  Sr  Sr61  1  0.48885749  0.00497321  0.84124351  1
  Sr  Sr62  1  0.50747478  0.33435495  0.36718565  1
  Sr  Sr63  1  0.49999336  0.31872467  0.92297023  1
  Sr  Sr64  1  0.48847567  0.67121546  0.41691853  1
  Sr  Sr65  1  0.50274297  0.66342477  0.86939456  1
  Sr  Sr66  1  0.82866087  -0.00690333  0.40976872  1
  Sr  Sr67  1  0.85227278  0.01041529  0.85427305  1
  Sr  Sr68  1  0.84585711  0.32072752  0.38895786  1
  Sr  Sr69  1  0.83171114  0.34250086  0.88407770  1
  Sr  Sr70  1  0.83419709  0.67714672  0.33555240  1
  Sr  Sr71  1  0.83160032  0.66774159  0.86931523  1
  Ta  Ta72  1  0.13947060  0.18595714  -0.00452939  1
  Ta  Ta73  1  0.15318128  0.18226583  0.49956547  1
  Ta  Ta74  1  0.16525613  0.45196674  -0.00152426  1
  Ta  Ta75  1  0.19382381  0.48217700  0.50385223  1
  Ta  Ta76  1  0.18741119  0.81909711  0.00462869  1
  Ta  Ta77  1  0.11673689  0.83073104  0.49426003  1
  Ta  Ta78  1  0.50242499  0.12251140  0.00552996  1
  Ta  Ta79  1  0.53164621  0.15151008  0.50055035  1
  Ta  Ta80  1  0.55359749  0.50092531  -0.00116694  1
  Ta  Ta81  1  0.45556555  0.49413049  0.50858576  1
  Ta  Ta82  1  0.48084419  0.85176522  -0.00007897  1
  Ta  Ta83  1  0.48439549  0.85606682  0.50310705  1
  Ta  Ta84  1  0.88556789  0.17151748  -0.00309035  1
  Ta  Ta85  1  0.78771478  0.16343746  0.49736570  1
  Ta  Ta86  1  0.79200769  0.50603503  -0.00497451  1
  Ta  Ta87  1  0.82753312  0.55085611  0.50151908  1
  Ta  Ta88  1  0.85740713  0.82120479  -0.00700097  1
  Ta  Ta89  1  0.84646860  0.80919506  0.49623030  1
  Ta  Ta90  1  0.21635520  0.16447195  0.25396979  1
  Ta  Ta91  1  0.17426127  0.12536881  0.75068795  1
  Ta  Ta92  1  0.14365807  0.51659469  0.24384739  1
  Ta  Ta93  1  0.12092336  0.49821571  0.75795434  1
  Ta  Ta94  1  0.16553396  0.78351126  0.24793175  1
  Ta  Ta95  1  0.17141342  0.86902713  0.74591317  1
  Ta  Ta96  1  0.45645024  0.16676497  0.25336845  1
  Ta  Ta97  1  0.50404986  0.20843355  0.75212790  1
  Ta  Ta98  1  0.50135228  0.54649850  0.25223532  1
  Ta  Ta99  1  0.50304401  0.44618377  0.74998097  1
  Ta  Ta100  1  0.49023234  0.78141010  0.24948286  1
  Ta  Ta101  1  0.53474430  0.82769551  0.75073833  1
  Ta  Ta102  1  0.82818466  0.13580754  0.24679672  1
  Ta  Ta103  1  0.83119081  0.20648647  0.74535046  1
  Ta  Ta104  1  0.84406800  0.47462658  0.25380243  1
  Ta  Ta105  1  0.86783898  0.49712337  0.74669798  1
  Ta  Ta106  1  0.82680794  0.87616175  0.24425374  1
  Ta  Ta107  1  0.79103294  0.84137476  0.74836479  1
  Ta  Ta108  1  -0.04902343  0.00355945  0.24785953  1
  Ta  Ta109  1  0.05097926  0.00439718  0.74280949  1
  Ta  Ta110  1  -0.00914641  0.36644330  0.25543847  1
  Ta  Ta111  1  -0.01026626  0.36389776  0.74274074  1
  Ta  Ta112  1  0.03125507  0.65965309  0.24858894  1
  Ta  Ta113  1  0.00055009  0.61778540  0.75013739  1
  Ta  Ta114  1  0.33373544  0.04446609  0.24991283  1
  Ta  Ta115  1  0.29372778  0.00246641  0.75195603  1
  Ta  Ta116  1  0.33598306  0.28519930  0.25211158  1
  Ta  Ta117  1  0.38133236  0.32885398  0.75422593  1
  Ta  Ta118  1  0.33493822  0.67015315  0.24707819  1
  Ta  Ta119  1  0.32965965  0.67035643  0.75265748  1
  Ta  Ta120  1  0.70542257  0.00109865  0.24090085  1
  Ta  Ta121  1  0.66781133  -0.05017613  0.75537716  1
  Ta  Ta122  1  0.70127687  0.34148889  0.25353132  1
  Ta  Ta123  1  0.64455981  0.32524695  0.75248682  1
  Ta  Ta124  1  0.62439273  0.66971709  0.25063763  1
  Ta  Ta125  1  0.66786385  0.72421192  0.74875665  1
  Ta  Ta126  1  0.00422973  0.04260183  -0.00621994  1
  Ta  Ta127  1  0.00422379  -0.03149963  0.49785237  1
  Ta  Ta128  1  0.02352694  0.30970986  -0.00078124  1
  Ta  Ta129  1  0.03632393  0.32297646  0.49981667  1
  Ta  Ta130  1  -0.01060735  0.69223119  -0.00178127  1
  Ta  Ta131  1  -0.02292019  0.68943253  0.49390772  1
  Ta  Ta132  1  0.36827414  -0.01047620  0.00176871  1
  Ta  Ta133  1  0.36554375  -0.00919676  0.49985535  1
  Ta  Ta134  1  0.30374380  0.33734131  0.00075412  1
  Ta  Ta135  1  0.32745056  0.38040555  0.50370681  1
  Ta  Ta136  1  0.32483686  0.71930786  0.00409105  1
  Ta  Ta137  1  0.32169605  0.59485915  0.50518457  1
  Ta  Ta138  1  0.61411189  0.00062439  0.00224311  1
  Ta  Ta139  1  0.65707163  0.03870135  0.49835757  1
  Ta  Ta140  1  0.67176183  0.37994646  0.00550958  1
  Ta  Ta141  1  0.66811005  0.28204020  0.49724306  1
  Ta  Ta142  1  0.66857645  0.63267743  0.00381432  1
  Ta  Ta143  1  0.69985204  0.67032124  0.49675326  1
  N  N144  1  0.01405576  0.01407844  0.87397226  1
  N  N145  1  0.49753956  0.83381731  0.62459045  1
  N  N146  1  0.33712787  0.00901675  0.12653909  1
  N  N147  1  0.16728888  0.82908006  0.12912057  1
  N  N148  1  -0.01143072  -0.00129388  0.36932066  1
  N  N149  1  0.50311465  0.82937032  0.87824732  1
  N  N150  1  0.49526286  0.82239261  0.13296642  1
  N  N151  1  0.50403732  0.16897761  0.63431088  1
  N  N152  1  0.00464843  0.33680336  0.37425904  1
  N  N153  1  0.66104104  0.00035782  0.12316054  1
  N  N154  1  -0.00482501  0.66657521  0.37220155  1
  N  N155  1  0.82610389  0.83960769  0.61577975  1
  N  N156  1  0.82639778  0.83741743  0.36504597  1
  N  N157  1  0.84195430  0.16649930  0.11322645  1
  N  N158  1  0.82715776  0.50558662  0.87303806  1
  N  N159  1  0.66874416  0.32193787  0.37579491  1
  N  N160  1  0.17001155  0.16442602  0.87646400  1
  N  N161  1  0.83805034  0.83965064  0.87275391  1
  N  N162  1  0.82336853  0.16058237  0.37121920  1
  N  N163  1  0.16386409  0.49126876  0.12522964  1
  N  N164  1  0.67099936  0.34016667  0.12678374  1
  N  N165  1  0.49734747  0.48791609  0.63060428  1
  N  N166  1  0.15357430  0.81996946  0.37547303  1
  N  N167  1  0.00234525  0.33919872  0.62142188  1
  N  N168  1  0.84349118  0.17777477  0.86985679  1
  N  N169  1  0.49341887  0.16624651  0.37744018  1
  N  N170  1  0.33306206  0.00265000  0.87413017  1
  N  N171  1  0.82656147  0.17068451  0.62495359  1
  N  N172  1  0.32896279  0.66926037  0.12295487  1
  N  N173  1  0.83513497  0.51245065  0.61974177  1
  N  N174  1  0.66148595  0.66763167  0.12436474  1
  N  N175  1  0.00698565  -0.00115648  0.62414014  1
  N  N176  1  0.15906152  0.49166203  0.87806088  1
  O  O177  1  0.00708393  0.01554984  0.13298777  1
  O  O178  1  0.49979379  0.16507206  0.88075265  1
  O  O179  1  -0.00393026  0.66287838  0.87675916  1
  O  O180  1  -0.00916950  0.67793958  0.12634109  1
  O  O181  1  0.83155463  0.83328827  0.12017082  1
  O  O182  1  0.34045065  0.00114643  0.62633202  1
  O  O183  1  0.31933589  0.64334147  0.62979075  1
  O  O184  1  -0.00086718  0.65753472  0.62671083  1
  O  O185  1  0.66038924  -0.00542899  0.62917521  1
  O  O186  1  0.00800407  0.33340276  0.87427739  1
  O  O187  1  0.52810708  0.48800190  0.87315815  1
  O  O188  1  0.67527161  0.67516026  0.37059930  1
  O  O189  1  0.33866377  0.33801311  0.62951925  1
  O  O190  1  0.33861690  0.68189086  0.87816904  1
  O  O191  1  0.17223237  0.84648822  0.87086276  1
  O  O192  1  0.48799438  0.82201754  0.37704097  1
  O  O193  1  0.51905774  0.51470096  0.12902440  1
  O  O194  1  0.16579186  0.48448308  0.63350258  1
  O  O195  1  0.83826257  0.50357850  0.37760292  1
  O  O196  1  0.33269360  0.33324200  0.38221362  1
  O  O197  1  0.64687262  -0.01864137  0.87806103  1
  O  O198  1  0.48727808  0.51993034  0.37642467  1
  O  O199  1  0.65836037  0.32499205  0.62549042  1
  O  O200  1  0.35281366  0.00281540  0.37596431  1
  O  O201  1  0.49064768  0.16042848  0.12496642  1
  O  O202  1  0.00941221  0.32774100  0.13229390  1
  O  O203  1  0.17348131  0.49328531  0.37053490  1
  O  O204  1  0.16408537  0.84322962  0.61969089  1
  O  O205  1  0.66744968  0.00321522  0.37194621  1
  O  O206  1  0.66664993  0.67650882  0.87539160  1
  O  O207  1  0.33227458  0.33394660  0.87721552  1
  O  O208  1  0.66203945  0.33353952  0.87916238  1
  O  O209  1  0.16872922  0.16885182  0.62487374  1
  O  O210  1  0.17012970  0.17399086  0.37558500  1
  O  O211  1  0.83431643  0.49518990  0.12597473  1
  O  O212  1  0.32453579  0.63427758  0.38221628  1
  O  O213  1  0.32006477  0.32264865  0.12604590  1
  O  O214  1  0.67832444  0.68732876  0.62004921  1
  O  O215  1  0.17318484  0.17092296  0.12998837  1
