# generated using pymatgen
data_Sr24Ta24N11O13
_symmetry_space_group_name_H-M   'P 1'
_cell_length_a   16.81218306
_cell_length_b   16.75424221
_cell_length_c   15.73983846
_cell_angle_alpha   90.07501488
_cell_angle_beta   90.26063412
_cell_angle_gamma   89.99171326
_symmetry_Int_Tables_number   1
_chemical_formula_structural   Sr24Ta24N11O13
_chemical_formula_sum   'Sr72 Ta72 N33 O39'
_cell_volume   4433.47537726
_cell_formula_units_Z   3
loop_
 _symmetry_equiv_pos_site_id
 _symmetry_equiv_pos_as_xyz
  1  'x, y, z'
loop_
 _atom_site_type_symbol
 _atom_site_label
 _atom_site_symmetry_multiplicity
 _atom_site_fract_x
 _atom_site_fract_y
 _atom_site_fract_z
 _atom_site_occupancy
  Sr  Sr0  1  -0.00703821  0.17515626  0.08032093  1
  Sr  Sr1  1  -0.00145473  0.16600027  0.63089511  1
  Sr  Sr2  1  -0.00670678  0.48936032  0.14731683  1
  Sr  Sr3  1  -0.01174731  0.50334759  0.66031881  1
  Sr  Sr4  1  -0.00102735  0.83987163  0.13413769  1
  Sr  Sr5  1  0.00107393  0.80753487  0.56331427  1
  Sr  Sr6  1  0.32661552  0.16132330  0.12232985  1
  Sr  Sr7  1  0.32863115  0.16104342  0.63995856  1
  Sr  Sr8  1  0.31536207  0.51194585  0.08648807  1
  Sr  Sr9  1  0.32866198  0.49340990  0.63349564  1
  Sr  Sr10  1  0.32624706  0.82727145  0.16461901  1
  Sr  Sr11  1  0.31630349  0.83281155  0.61289875  1
  Sr  Sr12  1  0.66840291  0.16976286  0.12754606  1
  Sr  Sr13  1  0.64268435  0.18812339  0.60901692  1
  Sr  Sr14  1  0.63595752  0.51808521  0.13102950  1
  Sr  Sr15  1  0.67262761  0.51235058  0.58843026  1
  Sr  Sr16  1  0.64781354  0.83233698  0.11394365  1
  Sr  Sr17  1  0.67362868  0.84071264  0.65816709  1
  Sr  Sr18  1  0.15745662  -0.00684375  0.11847613  1
  Sr  Sr19  1  0.18044714  0.01149126  0.67277526  1
  Sr  Sr20  1  0.17147146  0.33767353  0.13253337  1
  Sr  Sr21  1  0.17077605  0.31710244  0.58467608  1
  Sr  Sr22  1  0.17197994  0.66359490  0.09857675  1
  Sr  Sr23  1  0.18060346  0.64818222  0.63755680  1
  Sr  Sr24  1  0.50542988  0.01163622  0.07974588  1
  Sr  Sr25  1  0.51136938  -0.01581089  0.61214061  1
  Sr  Sr26  1  0.49769001  0.31287616  0.17594928  1
  Sr  Sr27  1  0.51459193  0.35145461  0.61376290  1
  Sr  Sr28  1  0.48990606  0.67621054  0.12853308  1
  Sr  Sr29  1  0.52659385  0.67055037  0.63983465  1
  Sr  Sr30  1  0.82237920  -0.00931949  0.16634890  1
  Sr  Sr31  1  0.85313175  -0.00008479  0.61250326  1
  Sr  Sr32  1  0.83131086  0.33699201  0.10787279  1
  Sr  Sr33  1  0.85115644  0.32597379  0.65268823  1
  Sr  Sr34  1  0.86939417  0.67348659  0.14640926  1
  Sr  Sr35  1  0.83938941  0.66343832  0.62234115  1
  Sr  Sr36  1  -0.00504757  0.18092421  0.41535212  1
  Sr  Sr37  1  -0.00887098  0.15182874  0.85941614  1
  Sr  Sr38  1  -0.00306856  0.48868967  0.34464536  1
  Sr  Sr39  1  -0.01553257  0.50076117  0.85546470  1
  Sr  Sr40  1  -0.00887481  0.85464845  0.35661470  1
  Sr  Sr41  1  0.00946077  0.82147518  0.92051984  1
  Sr  Sr42  1  0.31436532  0.17775664  0.34858423  1
  Sr  Sr43  1  0.33330435  0.15369450  0.87812167  1
  Sr  Sr44  1  0.30740689  0.49917148  0.41096506  1
  Sr  Sr45  1  0.33362616  0.50016482  0.86955044  1
  Sr  Sr46  1  0.33506437  0.83170170  0.38061217  1
  Sr  Sr47  1  0.29491569  0.83002738  0.83353498  1
  Sr  Sr48  1  0.66461390  0.17933306  0.35724168  1
  Sr  Sr49  1  0.65867029  0.18562537  0.88598601  1
  Sr  Sr50  1  0.65129049  0.51361043  0.38055555  1
  Sr  Sr51  1  0.66927099  0.49461431  0.91617731  1
  Sr  Sr52  1  0.65094480  0.84636103  0.36699092  1
  Sr  Sr53  1  0.65932253  0.82548741  0.87479665  1
  Sr  Sr54  1  0.18221422  -0.00265730  0.32847277  1
  Sr  Sr55  1  0.15137915  -0.00196316  0.88513604  1
  Sr  Sr56  1  0.16467011  0.33248470  0.37089499  1
  Sr  Sr57  1  0.19037232  0.32980253  0.91605761  1
  Sr  Sr58  1  0.18402456  0.68131527  0.41754104  1
  Sr  Sr59  1  0.17707487  0.64920935  0.86333753  1
  Sr  Sr60  1  0.49318372  -0.00313060  0.41057505  1
  Sr  Sr61  1  0.52068443  -0.01077121  0.88266584  1
  Sr  Sr62  1  0.51679083  0.34784683  0.38456340  1
  Sr  Sr63  1  0.48864320  0.32191668  0.82697629  1
  Sr  Sr64  1  0.50814912  0.67534484  0.34139855  1
  Sr  Sr65  1  0.51421475  0.65722372  0.90285092  1
  Sr  Sr66  1  0.84836966  0.00782404  0.38043549  1
  Sr  Sr67  1  0.82914484  -0.02463238  0.84310463  1
  Sr  Sr68  1  0.84721049  0.33599124  0.35696831  1
  Sr  Sr69  1  0.83424236  0.33105226  0.88235255  1
  Sr  Sr70  1  0.85686216  0.66499769  0.38869917  1
  Sr  Sr71  1  0.85119938  0.67386125  0.85737853  1
  Ta  Ta72  1  0.16259299  0.16303990  -0.00576567  1
  Ta  Ta73  1  0.17214010  0.12134878  0.50301310  1
  Ta  Ta74  1  0.12573538  0.49611202  -0.00436621  1
  Ta  Ta75  1  0.12552462  0.49234273  0.50964579  1
  Ta  Ta76  1  0.20271576  0.83196607  0.00560728  1
  Ta  Ta77  1  0.16569426  0.89922397  0.49815603  1
  Ta  Ta78  1  0.49480199  0.20201064  0.00060112  1
  Ta  Ta79  1  0.46526681  0.17666799  0.49584432  1
  Ta  Ta80  1  0.48817233  0.45172646  0.00345577  1
  Ta  Ta81  1  0.48340280  0.53067817  0.49514174  1
  Ta  Ta82  1  0.43658688  0.83506297  -0.00210350  1
  Ta  Ta83  1  0.50550791  0.80349200  0.49507938  1
  Ta  Ta84  1  0.82469821  0.12098641  -0.00112638  1
  Ta  Ta85  1  0.80878068  0.18034864  0.49217505  1
  Ta  Ta86  1  0.84727555  0.52735812  0.00119611  1
  Ta  Ta87  1  0.85586956  0.48287238  0.49814554  1
  Ta  Ta88  1  0.82444005  0.84155553  0.00837254  1
  Ta  Ta89  1  0.79771116  0.83736437  0.49590119  1
  Ta  Ta90  1  0.11817085  0.17063838  0.24933971  1
  Ta  Ta91  1  0.16463893  0.20390939  0.75032301  1
  Ta  Ta92  1  0.18231089  0.51822699  0.24618379  1
  Ta  Ta93  1  0.16441797  0.45078398  0.75294614  1
  Ta  Ta94  1  0.16011363  0.79970921  0.25203898  1
  Ta  Ta95  1  0.10886774  0.83250819  0.74148400  1
  Ta  Ta96  1  0.49477262  0.12135504  0.24572937  1
  Ta  Ta97  1  0.50452225  0.13275214  0.75319108  1
  Ta  Ta98  1  0.44466893  0.50039642  0.25361199  1
  Ta  Ta99  1  0.53792222  0.50873524  0.75286545  1
  Ta  Ta100  1  0.49628916  0.88082428  0.24797301  1
  Ta  Ta101  1  0.47262436  0.82935884  0.75219900  1
  Ta  Ta102  1  0.87170306  0.17255524  0.24706386  1
  Ta  Ta103  1  0.79362694  0.14839784  0.74701401  1
  Ta  Ta104  1  0.80046076  0.50679714  0.25447570  1
  Ta  Ta105  1  0.78965093  0.49821105  0.75627792  1
  Ta  Ta106  1  0.80413676  0.81731416  0.25854783  1
  Ta  Ta107  1  0.90184327  0.82677671  0.74009183  1
  Ta  Ta108  1  0.00146544  0.04732300  0.24704163  1
  Ta  Ta109  1  0.00170643  -0.03730463  0.75160743  1
  Ta  Ta110  1  0.00126752  0.29373099  0.24183997  1
  Ta  Ta111  1  0.04608809  0.32912646  0.75251577  1
  Ta  Ta112  1  0.05142464  0.66679039  0.25288218  1
  Ta  Ta113  1  0.01349954  0.69886451  0.74315848  1
  Ta  Ta114  1  0.37384299  -0.00019380  0.24202626  1
  Ta  Ta115  1  0.37268118  -0.00937166  0.74688444  1
  Ta  Ta116  1  0.33031514  0.37579219  0.25293278  1
  Ta  Ta117  1  0.29808248  0.32585468  0.75449584  1
  Ta  Ta118  1  0.31414000  0.64236544  0.25242975  1
  Ta  Ta119  1  0.37411113  0.67061669  0.75437877  1
  Ta  Ta120  1  0.62575707  -0.00050013  0.24171177  1
  Ta  Ta121  1  0.66508139  0.03740660  0.74666168  1
  Ta  Ta122  1  0.68590396  0.36165460  0.25162167  1
  Ta  Ta123  1  0.67178241  0.37086592  0.74540295  1
  Ta  Ta124  1  0.70304272  0.67288680  0.25680859  1
  Ta  Ta125  1  0.67671015  0.62910685  0.75430465  1
  Ta  Ta126  1  -0.04641396  -0.00290149  0.00420035  1
  Ta  Ta127  1  0.04257974  0.00517232  0.49483565  1
  Ta  Ta128  1  0.01077471  0.35655668  -0.00412103  1
  Ta  Ta129  1  -0.00835383  0.36983197  0.50896450  1
  Ta  Ta130  1  0.00048856  0.63233895  0.00463944  1
  Ta  Ta131  1  0.01021993  0.61049592  0.50274742  1
  Ta  Ta132  1  0.32602317  -0.03584663  0.00022755  1
  Ta  Ta133  1  0.30809887  0.01243043  0.50151585  1
  Ta  Ta134  1  0.37850984  0.32769743  0.00026655  1
  Ta  Ta135  1  0.35395551  0.31416264  0.49677543  1
  Ta  Ta136  1  0.33397020  0.70278496  -0.00179914  1
  Ta  Ta137  1  0.37864312  0.66517398  0.49878411  1
  Ta  Ta138  1  0.70885818  -0.00207762  0.00191111  1
  Ta  Ta139  1  0.68569522  0.00778808  0.49306197  1
  Ta  Ta140  1  0.60398169  0.33396177  0.00497818  1
  Ta  Ta141  1  0.71390810  0.33950910  0.49827012  1
  Ta  Ta142  1  0.72245648  0.67215212  0.00421677  1
  Ta  Ta143  1  0.66931653  0.70435726  0.50674886  1
  N  N144  1  0.67980775  0.67136858  0.62959333  1
  N  N145  1  0.83558309  0.17036958  0.37117767  1
  N  N146  1  0.83612420  0.50532631  0.37572392  1
  N  N147  1  0.33966603  0.66891116  0.37892704  1
  N  N148  1  0.34180826  0.66116268  0.87259008  1
  N  N149  1  -0.00745982  0.00301407  0.12392758  1
  N  N150  1  0.67883684  0.34953358  0.62238662  1
  N  N151  1  0.00989909  0.65859573  0.61637534  1
  N  N152  1  0.82774650  0.83531400  0.13208366  1
  N  N153  1  0.00907533  0.01190168  0.37396829  1
  N  N154  1  -0.00184210  0.33285619  0.11744701  1
  N  N155  1  0.83807046  0.84325260  0.38181413  1
  N  N156  1  -0.00940548  -0.01118795  0.87782974  1
  N  N157  1  0.34110801  -0.00543816  0.62368646  1
  N  N158  1  0.16417158  0.48989046  0.62792771  1
  N  N159  1  0.16340554  0.16249652  0.62098847  1
  N  N160  1  0.16132532  0.49780576  0.12627112  1
  N  N161  1  0.16978472  0.82926035  0.12711302  1
  N  N162  1  0.49754047  0.16316314  0.12781082  1
  N  N163  1  0.49960899  0.16021436  0.87215148  1
  N  N164  1  0.33946074  0.32690025  0.87278586  1
  N  N165  1  0.16001279  0.15930745  0.87309476  1
  N  N166  1  0.82839652  0.49905422  0.88126746  1
  N  N167  1  0.01745301  0.66042229  0.12825524  1
  N  N168  1  0.32942419  0.33916150  0.37628199  1
  N  N169  1  0.49483098  0.83940930  0.37655554  1
  N  N170  1  0.66361994  0.00032409  0.12135615  1
  N  N171  1  0.67534784  0.34732585  0.37407800  1
  N  N172  1  0.00685626  0.33358557  0.62658458  1
  N  N173  1  0.16605676  0.49309922  0.87794215  1
  N  N174  1  0.48842833  0.50658888  0.37420744  1
  N  N175  1  0.33398969  0.66898209  0.12693747  1
  N  N176  1  0.33316866  -0.00239755  0.12073605  1
  O  O177  1  0.83056303  0.50127656  0.63220688  1
  O  O178  1  0.47731865  0.16100900  0.37268232  1
  O  O179  1  0.48455297  0.83159317  0.87811584  1
  O  O180  1  0.66745304  0.00888896  0.36901255  1
  O  O181  1  0.51719625  0.51054565  0.62612320  1
  O  O182  1  0.49479676  0.82817213  0.62664148  1
  O  O183  1  0.85996273  0.82739567  0.86541493  1
  O  O184  1  0.67596923  0.67057021  0.38082144  1
  O  O185  1  0.15619843  0.48706228  0.37347835  1
  O  O186  1  0.80843748  0.16487697  0.62605644  1
  O  O187  1  0.48223615  0.83848509  0.12267876  1
  O  O188  1  0.51189054  0.49178483  0.87514466  1
  O  O189  1  0.32779179  0.33101376  0.62199630  1
  O  O190  1  0.33083921  -0.00852656  0.86654752  1
  O  O191  1  0.85348185  0.82961216  0.61781301  1
  O  O192  1  0.16741561  0.84821866  0.37484527  1
  O  O193  1  0.69563237  0.67003180  0.87702301  1
  O  O194  1  0.33809547  0.00096613  0.37456532  1
  O  O195  1  0.34146331  0.32902315  0.13378262  1
  O  O196  1  0.48736486  0.16055012  0.62052140  1
  O  O197  1  0.48141684  0.49103014  0.12922859  1
  O  O198  1  0.15284640  0.85731686  0.62021068  1
  O  O199  1  0.64608688  0.34254540  0.88207066  1
  O  O200  1  0.82262145  0.14208868  0.87085248  1
  O  O201  1  0.70147843  0.66766296  0.12502005  1
  O  O202  1  0.15338351  0.83797743  0.88135532  1
  O  O203  1  0.67279236  0.00234198  0.87560991  1
  O  O204  1  0.64761159  0.34486698  0.12837558  1
  O  O205  1  0.34033867  0.65846137  0.63051433  1
  O  O206  1  0.67020431  0.01604608  0.61585784  1
  O  O207  1  0.83107726  0.15312037  0.12595379  1
  O  O208  1  -0.01047248  0.33734492  0.86834677  1
  O  O209  1  0.00591437  0.66662750  0.87909694  1
  O  O210  1  0.15008476  0.17005831  0.12669321  1
  O  O211  1  0.00634521  0.00935192  0.63034650  1
  O  O212  1  0.00375925  0.33518040  0.36918481  1
  O  O213  1  0.01522470  0.64392195  0.37296441  1
  O  O214  1  0.15563916  0.16700457  0.37519319  1
  O  O215  1  0.83540915  0.50227511  0.13102976  1
