# generated using pymatgen
data_Sr24Ta24N11O13
_symmetry_space_group_name_H-M   'P 1'
_cell_length_a   17.01272715
_cell_length_b   16.65675192
_cell_length_c   15.67436042
_cell_angle_alpha   90.03021087
_cell_angle_beta   90.31723761
_cell_angle_gamma   90.06546319
_symmetry_Int_Tables_number   1
_chemical_formula_structural   Sr24Ta24N11O13
_chemical_formula_sum   'Sr72 Ta72 N33 O39'
_cell_volume   4441.67809946
_cell_formula_units_Z   3
loop_
 _symmetry_equiv_pos_site_id
 _symmetry_equiv_pos_as_xyz
  1  'x, y, z'
loop_
 _atom_site_type_symbol
 _atom_site_label
 _atom_site_symmetry_multiplicity
 _atom_site_fract_x
 _atom_site_fract_y
 _atom_site_fract_z
 _atom_site_occupancy
  Sr  Sr0  1  0.01293651  0.15856119  0.14509773  1
  Sr  Sr1  1  0.03145208  0.16640251  0.59041775  1
  Sr  Sr2  1  0.02690490  0.50021372  0.14384904  1
  Sr  Sr3  1  0.01424197  0.49198781  0.64446580  1
  Sr  Sr4  1  -0.01648250  0.83205849  0.08082296  1
  Sr  Sr5  1  0.00780828  0.83920753  0.63631496  1
  Sr  Sr6  1  0.37848706  0.16738012  0.14880330  1
  Sr  Sr7  1  0.34391743  0.15713768  0.63651798  1
  Sr  Sr8  1  0.34580749  0.49329328  0.09981777  1
  Sr  Sr9  1  0.34454925  0.51410517  0.63369278  1
  Sr  Sr10  1  0.31941614  0.83001862  0.13451670  1
  Sr  Sr11  1  0.35358896  0.83537977  0.59194576  1
  Sr  Sr12  1  0.67703740  0.15444626  0.08233086  1
  Sr  Sr13  1  0.70109137  0.17123163  0.63114991  1
  Sr  Sr14  1  0.66158078  0.50773332  0.12422545  1
  Sr  Sr15  1  0.70622869  0.49972580  0.60903564  1
  Sr  Sr16  1  0.67371050  0.84096188  0.16683872  1
  Sr  Sr17  1  0.66929680  0.82870676  0.63706444  1
  Sr  Sr18  1  0.13594980  -0.01182651  0.10368184  1
  Sr  Sr19  1  0.15280257  -0.00094932  0.63043327  1
  Sr  Sr20  1  0.15121255  0.33247048  0.12405703  1
  Sr  Sr21  1  0.14792355  0.33592526  0.59395951  1
  Sr  Sr22  1  0.16764497  0.66632766  0.15955726  1
  Sr  Sr23  1  0.14587286  0.66965090  0.63268667  1
  Sr  Sr24  1  0.49205339  -0.00362750  0.12964527  1
  Sr  Sr25  1  0.48392157  0.00356397  0.60568312  1
  Sr  Sr26  1  0.49691448  0.34851293  0.15677078  1
  Sr  Sr27  1  0.46661765  0.33900511  0.61985045  1
  Sr  Sr28  1  0.47953341  0.65364409  0.07854547  1
  Sr  Sr29  1  0.49929969  0.67051459  0.64209817  1
  Sr  Sr30  1  0.82028280  0.00588467  0.13579920  1
  Sr  Sr31  1  0.82160320  0.00094896  0.64920663  1
  Sr  Sr32  1  0.79221931  0.33554923  0.08648626  1
  Sr  Sr33  1  0.83753757  0.34087307  0.63939439  1
  Sr  Sr34  1  0.81537237  0.66371766  0.13913728  1
  Sr  Sr35  1  0.82714997  0.67652251  0.58589783  1
  Sr  Sr36  1  0.00663857  0.16138922  0.35928048  1
  Sr  Sr37  1  0.04437585  0.16817107  0.91415416  1
  Sr  Sr38  1  0.01986567  0.49581379  0.35420213  1
  Sr  Sr39  1  0.01206311  0.48894449  0.86216448  1
  Sr  Sr40  1  0.00057758  0.82675301  0.41816251  1
  Sr  Sr41  1  0.00650986  0.83961176  0.86322209  1
  Sr  Sr42  1  0.37157220  0.16203551  0.37272052  1
  Sr  Sr43  1  0.34204845  0.15694471  0.85283742  1
  Sr  Sr44  1  0.35152338  0.49416712  0.39711316  1
  Sr  Sr45  1  0.34835528  0.50634852  0.86621394  1
  Sr  Sr46  1  0.32308025  0.83008768  0.35571747  1
  Sr  Sr47  1  0.34532921  0.84064370  0.91887542  1
  Sr  Sr48  1  0.68870819  0.16279132  0.40496196  1
  Sr  Sr49  1  0.70044833  0.17103909  0.86883350  1
  Sr  Sr50  1  0.67573248  0.49832527  0.36199405  1
  Sr  Sr51  1  0.69252596  0.51315702  0.90594047  1
  Sr  Sr52  1  0.67752077  0.83006081  0.36664752  1
  Sr  Sr53  1  0.65724292  0.83250282  0.84085671  1
  Sr  Sr54  1  0.13541831  -0.00126632  0.38389817  1
  Sr  Sr55  1  0.15879344  -0.00955435  0.87678834  1
  Sr  Sr56  1  0.13820919  0.32620479  0.36253361  1
  Sr  Sr57  1  0.16395113  0.33903330  0.91337476  1
  Sr  Sr58  1  0.15499304  0.67074498  0.36617813  1
  Sr  Sr59  1  0.14966109  0.65966486  0.83766265  1
  Sr  Sr60  1  0.49099679  -0.01553173  0.36678647  1
  Sr  Sr61  1  0.48500854  0.00891339  0.90005211  1
  Sr  Sr62  1  0.49232857  0.34394235  0.36905738  1
  Sr  Sr63  1  0.46637801  0.33224824  0.83127777  1
  Sr  Sr64  1  0.47007592  0.66561128  0.41202991  1
  Sr  Sr65  1  0.50835777  0.66386124  0.86469941  1
  Sr  Sr66  1  0.82106106  0.00979622  0.35539239  1
  Sr  Sr67  1  0.82146738  -0.01094074  0.86150463  1
  Sr  Sr68  1  0.80769676  0.33911512  0.40407478  1
  Sr  Sr69  1  0.82643804  0.34920278  0.85759385  1
  Sr  Sr70  1  0.82088608  0.66542457  0.36780584  1
  Sr  Sr71  1  0.84125890  0.67005626  0.92220092  1
  Ta  Ta72  1  0.22229033  0.16306066  0.01890735  1
  Ta  Ta73  1  0.20835609  0.16182722  0.49284571  1
  Ta  Ta74  1  0.17011920  0.53562467  0.00297819  1
  Ta  Ta75  1  0.17762253  0.51560988  0.50113104  1
  Ta  Ta76  1  0.16271757  0.79247413  -0.00352324  1
  Ta  Ta77  1  0.18650470  0.83162331  0.50070319  1
  Ta  Ta78  1  0.50401313  0.21291579  -0.00099855  1
  Ta  Ta79  1  0.53041530  0.18470277  0.50221055  1
  Ta  Ta80  1  0.51098743  0.45633321  -0.01759631  1
  Ta  Ta81  1  0.53645512  0.50059505  0.50703381  1
  Ta  Ta82  1  0.53682588  0.83239725  0.00060486  1
  Ta  Ta83  1  0.53316906  0.82909144  0.50431619  1
  Ta  Ta84  1  0.86861461  0.17238861  -0.00073980  1
  Ta  Ta85  1  0.86477386  0.16495634  0.50167083  1
  Ta  Ta86  1  0.88144718  0.49270215  0.00556617  1
  Ta  Ta87  1  0.88059318  0.49926595  0.49790204  1
  Ta  Ta88  1  0.79320837  0.84428209  0.00685056  1
  Ta  Ta89  1  0.82282120  0.86588779  0.49939308  1
  Ta  Ta90  1  0.20501115  0.16215973  0.24131196  1
  Ta  Ta91  1  0.16329892  0.18794872  0.74565749  1
  Ta  Ta92  1  0.21698119  0.48719963  0.24740582  1
  Ta  Ta93  1  0.18293031  0.46541102  0.74855104  1
  Ta  Ta94  1  0.12426237  0.84155697  0.24732030  1
  Ta  Ta95  1  0.20936368  0.83385774  0.75013693  1
  Ta  Ta96  1  0.55936624  0.17371584  0.24523482  1
  Ta  Ta97  1  0.53544398  0.16027946  0.75181903  1
  Ta  Ta98  1  0.49564863  0.54083717  0.24851909  1
  Ta  Ta99  1  0.55934758  0.49123856  0.75320394  1
  Ta  Ta100  1  0.49349996  0.78570722  0.24699720  1
  Ta  Ta101  1  0.47259585  0.85181907  0.75435669  1
  Ta  Ta102  1  0.81149788  0.20329066  0.24562774  1
  Ta  Ta103  1  0.90400308  0.17561286  0.75456203  1
  Ta  Ta104  1  0.84266740  0.47015729  0.24078814  1
  Ta  Ta105  1  0.84027036  0.54654941  0.75815000  1
  Ta  Ta106  1  0.86923617  0.83305833  0.25266236  1
  Ta  Ta107  1  0.83456474  0.78352597  0.75379940  1
  Ta  Ta108  1  -0.01333169  -0.04243912  0.25033714  1
  Ta  Ta109  1  -0.00356140  0.03879138  0.75227582  1
  Ta  Ta110  1  -0.05971612  0.33212567  0.23946895  1
  Ta  Ta111  1  0.01995587  0.30231963  0.75410690  1
  Ta  Ta112  1  -0.01151054  0.71228958  0.24818646  1
  Ta  Ta113  1  -0.04297138  0.66739878  0.75059368  1
  Ta  Ta114  1  0.28596524  0.01250236  0.23812744  1
  Ta  Ta115  1  0.33089634  -0.03284048  0.75864534  1
  Ta  Ta116  1  0.30786827  0.33577676  0.24685144  1
  Ta  Ta117  1  0.27870301  0.33142036  0.75140838  1
  Ta  Ta118  1  0.35195477  0.64450925  0.24714091  1
  Ta  Ta119  1  0.33031644  0.70962451  0.75259803  1
  Ta  Ta120  1  0.65271414  0.03348667  0.24931983  1
  Ta  Ta121  1  0.62421706  0.01492319  0.75348633  1
  Ta  Ta122  1  0.67484198  0.31025970  0.24957483  1
  Ta  Ta123  1  0.63831934  0.33964601  0.74010558  1
  Ta  Ta124  1  0.61079609  0.66449516  0.24485168  1
  Ta  Ta125  1  0.70044170  0.65120799  0.75921495  1
  Ta  Ta126  1  -0.04058967  0.01512695  -0.00170509  1
  Ta  Ta127  1  -0.04496255  0.00463390  0.50195884  1
  Ta  Ta128  1  -0.03046303  0.33411919  0.01540532  1
  Ta  Ta129  1  -0.02667579  0.34176556  0.48978387  1
  Ta  Ta130  1  0.02650674  0.64830201  -0.00261238  1
  Ta  Ta131  1  -0.00397596  0.63311451  0.50178038  1
  Ta  Ta132  1  0.31193556  0.02400422  0.01327052  1
  Ta  Ta133  1  0.30102756  0.00381521  0.49362617  1
  Ta  Ta134  1  0.35244025  0.31192034  -0.00574492  1
  Ta  Ta135  1  0.30617713  0.31446141  0.49708902  1
  Ta  Ta136  1  0.28738498  0.66404927  0.00022847  1
  Ta  Ta137  1  0.29333629  0.66676891  0.49661680  1
  Ta  Ta138  1  0.65942432  -0.04179049  0.00388573  1
  Ta  Ta139  1  0.66134827  -0.01836463  0.49740729  1
  Ta  Ta140  1  0.61816713  0.33644702  -0.01733645  1
  Ta  Ta141  1  0.63171530  0.33663143  0.51533560  1
  Ta  Ta142  1  0.66037430  0.71135577  0.00485338  1
  Ta  Ta143  1  0.64211948  0.66676757  0.49962368  1
  N  N144  1  0.16588076  0.82882015  0.87452699  1
  N  N145  1  -0.00905158  0.00296825  0.62885110  1
  N  N146  1  0.15270814  0.82655317  0.12293220  1
  N  N147  1  0.17270792  0.49899025  0.62412984  1
  N  N148  1  0.32524013  0.66376870  0.12057200  1
  N  N149  1  0.85263126  0.50845024  0.88670977  1
  N  N150  1  0.33904778  -0.01169428  0.13177797  1
  N  N151  1  0.83221599  0.83553967  0.38209442  1
  N  N152  1  0.00036844  0.66384853  0.87799457  1
  N  N153  1  0.50662986  0.50193593  0.86283429  1
  N  N154  1  0.66108671  -0.00061154  0.12257733  1
  N  N155  1  -0.00509116  -0.00132631  0.87862367  1
  N  N156  1  0.31905686  0.66515153  0.37461401  1
  N  N157  1  -0.01730585  -0.00683277  0.12365727  1
  N  N158  1  0.16216160  0.17277223  0.12417556  1
  N  N159  1  0.16553923  0.83389387  0.63042288  1
  N  N160  1  0.18155154  0.50195673  0.12540061  1
  N  N161  1  0.52558874  0.18070943  0.11951948  1
  N  N162  1  0.50928889  0.83351689  0.62540141  1
  N  N163  1  0.18071141  0.16772614  0.62377758  1
  N  N164  1  -0.01876951  0.32953142  0.36698110  1
  N  N165  1  0.00406792  0.32533240  0.13512352  1
  N  N166  1  0.15667222  0.83218264  0.37584959  1
  N  N167  1  0.31984555  0.32991372  0.87611192  1
  N  N168  1  0.82549168  0.83293786  0.12526872  1
  N  N169  1  0.65775566  -0.00419678  0.37456499  1
  N  N170  1  0.32764948  -0.00315702  0.87919108  1
  N  N171  1  0.50284681  0.83424748  0.87653051  1
  N  N172  1  -0.00811200  0.66388716  0.62031756  1
  N  N173  1  -0.01659649  -0.00488848  0.37624390  1
  N  N174  1  0.68653579  0.33040524  0.62539981  1
  N  N175  1  0.65434154  0.66978064  0.12638788  1
  N  N176  1  0.67309185  0.67152484  0.87842773  1
  O  O177  1  0.82253536  0.82641548  0.87422343  1
  O  O178  1  0.51258935  0.16726190  0.87558070  1
  O  O179  1  0.67445769  0.32512119  0.86866156  1
  O  O180  1  0.31468235  -0.00635717  0.36737738  1
  O  O181  1  0.18962118  0.17545234  0.88740296  1
  O  O182  1  0.52462103  0.18460622  0.37450213  1
  O  O183  1  0.17170658  0.49819820  0.87475027  1
  O  O184  1  0.50124937  0.81518999  0.37240509  1
  O  O185  1  0.01230925  0.32384665  0.88267565  1
  O  O186  1  0.32728081  0.68040670  0.62798706  1
  O  O187  1  0.00004626  0.32613067  0.62721967  1
  O  O188  1  0.64609396  0.00557664  0.88031846  1
  O  O189  1  0.16407641  0.16909813  0.37105020  1
  O  O190  1  0.83298159  0.16870079  0.12480007  1
  O  O191  1  -0.00634715  0.67186308  0.37196852  1
  O  O192  1  0.85990445  0.17862519  0.62917997  1
  O  O193  1  0.85841514  0.18553516  0.87381263  1
  O  O194  1  0.84083430  0.17566246  0.37467015  1
  O  O195  1  0.85540153  0.50446744  0.62874444  1
  O  O196  1  0.51164356  0.50938378  0.62986274  1
  O  O197  1  0.66872757  0.66446269  0.62415224  1
  O  O198  1  0.33735354  0.33378362  0.12554520  1
  O  O199  1  0.17664435  0.49418956  0.36709055  1
  O  O200  1  0.51563452  0.16743813  0.62343604  1
  O  O201  1  0.82613462  0.82629988  0.62993228  1
  O  O202  1  0.32353311  -0.00412368  0.62039166  1
  O  O203  1  0.48860773  0.80950703  0.12280839  1
  O  O204  1  0.00122525  0.67310263  0.12841425  1
  O  O205  1  0.51677737  0.50317115  0.37853139  1
  O  O206  1  0.65051801  0.33117750  0.12261353  1
  O  O207  1  0.81279346  0.49136940  0.11716220  1
  O  O208  1  0.66097276  0.33274159  0.37787744  1
  O  O209  1  0.85504821  0.49289621  0.36440479  1
  O  O210  1  0.50337942  0.50032280  0.12159129  1
  O  O211  1  0.31452452  0.32063706  0.62427266  1
  O  O212  1  0.33337677  0.68312057  0.87628786  1
  O  O213  1  0.64255281  0.00122997  0.63068080  1
  O  O214  1  0.65370156  0.66267306  0.37322728  1
  O  O215  1  0.32390767  0.32831607  0.37566909  1
