# generated using pymatgen
data_Sr24Ta24N11O13
_symmetry_space_group_name_H-M   'P 1'
_cell_length_a   16.77534680
_cell_length_b   16.76559942
_cell_length_c   15.75638925
_cell_angle_alpha   90.20391356
_cell_angle_beta   90.01178823
_cell_angle_gamma   89.97250013
_symmetry_Int_Tables_number   1
_chemical_formula_structural   Sr24Ta24N11O13
_chemical_formula_sum   'Sr72 Ta72 N33 O39'
_cell_volume   4431.43602828
_cell_formula_units_Z   3
loop_
 _symmetry_equiv_pos_site_id
 _symmetry_equiv_pos_as_xyz
  1  'x, y, z'
loop_
 _atom_site_type_symbol
 _atom_site_label
 _atom_site_symmetry_multiplicity
 _atom_site_fract_x
 _atom_site_fract_y
 _atom_site_fract_z
 _atom_site_occupancy
  Sr  Sr0  1  -0.00385994  0.17517612  0.08744254  1
  Sr  Sr1  1  -0.00205966  0.15155392  0.63698831  1
  Sr  Sr2  1  -0.00806843  0.49234171  0.15847989  1
  Sr  Sr3  1  0.00029194  0.51199009  0.65005807  1
  Sr  Sr4  1  0.00715104  0.84183777  0.12552359  1
  Sr  Sr5  1  -0.01596063  0.82337640  0.57981759  1
  Sr  Sr6  1  0.32516108  0.13755677  0.11398642  1
  Sr  Sr7  1  0.33999774  0.16676867  0.61998284  1
  Sr  Sr8  1  0.32197347  0.49406478  0.11512527  1
  Sr  Sr9  1  0.32054749  0.48652326  0.63392871  1
  Sr  Sr10  1  0.33516696  0.83252761  0.15940725  1
  Sr  Sr11  1  0.34862175  0.82600512  0.60901585  1
  Sr  Sr12  1  0.66757792  0.17791157  0.12470317  1
  Sr  Sr13  1  0.66651690  0.15961606  0.64872844  1
  Sr  Sr14  1  0.69501194  0.49947272  0.08295617  1
  Sr  Sr15  1  0.65565651  0.48653231  0.61677085  1
  Sr  Sr16  1  0.66280832  0.82455102  0.11675469  1
  Sr  Sr17  1  0.68366143  0.82592418  0.67513693  1
  Sr  Sr18  1  0.15354228  -0.00489175  0.11561945  1
  Sr  Sr19  1  0.18022626  0.01138076  0.67924004  1
  Sr  Sr20  1  0.16705832  0.34848600  0.13590155  1
  Sr  Sr21  1  0.17002852  0.31947656  0.58269902  1
  Sr  Sr22  1  0.16069180  0.67134948  0.08841809  1
  Sr  Sr23  1  0.16795699  0.66023142  0.63495672  1
  Sr  Sr24  1  0.50542845  0.01491727  0.09531405  1
  Sr  Sr25  1  0.48835975  0.00468682  0.59445094  1
  Sr  Sr26  1  0.49045540  0.34135185  0.15458314  1
  Sr  Sr27  1  0.50502729  0.33510715  0.63217349  1
  Sr  Sr28  1  0.48270884  0.66683354  0.14619803  1
  Sr  Sr29  1  0.50593955  0.68039653  0.61167466  1
  Sr  Sr30  1  0.81309429  0.00321697  0.17405859  1
  Sr  Sr31  1  0.84785342  0.00186153  0.61706223  1
  Sr  Sr32  1  0.82797553  0.32442791  0.12108554  1
  Sr  Sr33  1  0.84982467  0.33480673  0.61369483  1
  Sr  Sr34  1  0.83094619  0.68070277  0.11789031  1
  Sr  Sr35  1  0.83164528  0.66118879  0.62896180  1
  Sr  Sr36  1  -0.00505335  0.18018726  0.42250766  1
  Sr  Sr37  1  -0.00116207  0.15509361  0.86644338  1
  Sr  Sr38  1  -0.00541785  0.50153870  0.35057686  1
  Sr  Sr39  1  -0.00514471  0.50916036  0.84524726  1
  Sr  Sr40  1  0.01056999  0.84342307  0.37159589  1
  Sr  Sr41  1  0.00707842  0.82185919  0.91737303  1
  Sr  Sr42  1  0.34078107  0.16090020  0.39738738  1
  Sr  Sr43  1  0.32895139  0.14783623  0.87557031  1
  Sr  Sr44  1  0.33392919  0.48371146  0.33889839  1
  Sr  Sr45  1  0.32085178  0.50180411  0.89214745  1
  Sr  Sr46  1  0.34065465  0.82868408  0.38345618  1
  Sr  Sr47  1  0.31434947  0.82658377  0.82345025  1
  Sr  Sr48  1  0.67606218  0.16960805  0.33990366  1
  Sr  Sr49  1  0.66272689  0.16737625  0.88065598  1
  Sr  Sr50  1  0.67358649  0.50921621  0.41817557  1
  Sr  Sr51  1  0.66228479  0.49003721  0.87561732  1
  Sr  Sr52  1  0.67572247  0.82537897  0.33026874  1
  Sr  Sr53  1  0.66687560  0.82791666  0.88588354  1
  Sr  Sr54  1  0.18476570  -0.00984952  0.32970617  1
  Sr  Sr55  1  0.15052625  0.00241832  0.88876679  1
  Sr  Sr56  1  0.16908949  0.34762332  0.36608022  1
  Sr  Sr57  1  0.17283725  0.33740701  0.90911986  1
  Sr  Sr58  1  0.16689755  0.68381402  0.41312204  1
  Sr  Sr59  1  0.16982936  0.65657109  0.86391238  1
  Sr  Sr60  1  0.49286036  0.00705717  0.40405510  1
  Sr  Sr61  1  0.50514933  0.00839034  0.90149488  1
  Sr  Sr62  1  0.50688748  0.33212005  0.36777865  1
  Sr  Sr63  1  0.48555172  0.34065400  0.84254282  1
  Sr  Sr64  1  0.50351774  0.67644409  0.37243593  1
  Sr  Sr65  1  0.49584470  0.69077663  0.85831498  1
  Sr  Sr66  1  0.85400549  0.00093574  0.39130013  1
  Sr  Sr67  1  0.81780595  0.00377420  0.82914939  1
  Sr  Sr68  1  0.83518809  0.33582802  0.37463649  1
  Sr  Sr69  1  0.83454900  0.32770767  0.89896057  1
  Sr  Sr70  1  0.84268127  0.66677211  0.37006817  1
  Sr  Sr71  1  0.81850587  0.67158398  0.88468839  1
  Ta  Ta72  1  0.17097737  0.17780499  -0.00246414  1
  Ta  Ta73  1  0.17047668  0.12258983  0.50688121  1
  Ta  Ta74  1  0.12075439  0.50155388  0.00169607  1
  Ta  Ta75  1  0.14471159  0.50445094  0.49655888  1
  Ta  Ta76  1  0.20413073  0.83517338  -0.00312553  1
  Ta  Ta77  1  0.17215501  0.87302751  0.50333269  1
  Ta  Ta78  1  0.49563583  0.20742956  -0.00092814  1
  Ta  Ta79  1  0.53908152  0.18257221  0.49904177  1
  Ta  Ta80  1  0.50746345  0.49277705  0.00218039  1
  Ta  Ta81  1  0.46898113  0.49958064  0.49726232  1
  Ta  Ta82  1  0.46965198  0.82985609  -0.00127393  1
  Ta  Ta83  1  0.57487101  0.84220562  0.50478277  1
  Ta  Ta84  1  0.82501022  0.11227623  0.00203531  1
  Ta  Ta85  1  0.79676262  0.16920067  0.50064925  1
  Ta  Ta86  1  0.88118495  0.49922059  0.00149117  1
  Ta  Ta87  1  0.86464278  0.50053360  0.50083903  1
  Ta  Ta88  1  0.82766311  0.88869435  0.00414716  1
  Ta  Ta89  1  0.78107987  0.83546866  0.50535441  1
  Ta  Ta90  1  0.13498468  0.17405514  0.25438234  1
  Ta  Ta91  1  0.16914804  0.20709660  0.74961481  1
  Ta  Ta92  1  0.16499080  0.54771809  0.24958297  1
  Ta  Ta93  1  0.16789181  0.45441993  0.75020773  1
  Ta  Ta94  1  0.16814179  0.79789818  0.24899392  1
  Ta  Ta95  1  0.12397627  0.83021575  0.74984673  1
  Ta  Ta96  1  0.48623307  0.14712717  0.25422468  1
  Ta  Ta97  1  0.49717691  0.13894043  0.74502401  1
  Ta  Ta98  1  0.55862039  0.50467337  0.25086465  1
  Ta  Ta99  1  0.49413833  0.52725623  0.74550144  1
  Ta  Ta100  1  0.50410518  0.87618147  0.25355939  1
  Ta  Ta101  1  0.50548760  0.87258683  0.74210224  1
  Ta  Ta102  1  0.87605052  0.17017783  0.25735474  1
  Ta  Ta103  1  0.82705339  0.19568801  0.74791485  1
  Ta  Ta104  1  0.79456111  0.49903446  0.25468359  1
  Ta  Ta105  1  0.80791700  0.48576170  0.74760046  1
  Ta  Ta106  1  0.85212305  0.83220473  0.24981673  1
  Ta  Ta107  1  0.87094330  0.82916185  0.74871132  1
  Ta  Ta108  1  0.00094522  0.04032066  0.24801160  1
  Ta  Ta109  1  0.00026458  -0.04817176  0.75149050  1
  Ta  Ta110  1  -0.00082405  0.29429551  0.24840049  1
  Ta  Ta111  1  0.02978888  0.32841122  0.74924652  1
  Ta  Ta112  1  0.02580748  0.67902608  0.25062204  1
  Ta  Ta113  1  -0.00549264  0.70610596  0.74734007  1
  Ta  Ta114  1  0.38519905  -0.00035371  0.25248529  1
  Ta  Ta115  1  0.37712620  -0.00054231  0.74557974  1
  Ta  Ta116  1  0.32672667  0.28601555  0.24940511  1
  Ta  Ta117  1  0.29866196  0.32359121  0.74960839  1
  Ta  Ta118  1  0.28847431  0.66219887  0.24646275  1
  Ta  Ta119  1  0.34919996  0.64234992  0.74897496  1
  Ta  Ta120  1  0.61327003  0.00282091  0.25099213  1
  Ta  Ta121  1  0.61714263  0.00069817  0.74823767  1
  Ta  Ta122  1  0.67085025  0.37693301  0.24537233  1
  Ta  Ta123  1  0.69753035  0.33146667  0.75283064  1
  Ta  Ta124  1  0.67074713  0.63040354  0.24267166  1
  Ta  Ta125  1  0.65940674  0.63605380  0.75342942  1
  Ta  Ta126  1  -0.04648053  0.00087975  -0.00133562  1
  Ta  Ta127  1  0.05583433  -0.00215664  0.50820703  1
  Ta  Ta128  1  0.00165068  0.36461633  0.00488159  1
  Ta  Ta129  1  0.00343059  0.38271856  0.49770459  1
  Ta  Ta130  1  -0.01019542  0.62987844  0.00547566  1
  Ta  Ta131  1  -0.00200568  0.63283503  0.49890081  1
  Ta  Ta132  1  0.33317439  -0.05661697  -0.00499815  1
  Ta  Ta133  1  0.28887270  -0.00383418  0.50690966  1
  Ta  Ta134  1  0.35369008  0.31055045  0.00586350  1
  Ta  Ta135  1  0.35316338  0.35098410  0.49226761  1
  Ta  Ta136  1  0.34069277  0.71073002  -0.00732877  1
  Ta  Ta137  1  0.34012989  0.62259418  0.49255723  1
  Ta  Ta138  1  0.70084538  0.00164780  0.00184919  1
  Ta  Ta139  1  0.67384261  -0.00151880  0.49948477  1
  Ta  Ta140  1  0.61823050  0.33466508  0.00285798  1
  Ta  Ta141  1  0.67214726  0.30317320  0.49762675  1
  Ta  Ta142  1  0.62310410  0.65552062  0.00043105  1
  Ta  Ta143  1  0.67572573  0.70167090  0.49911765  1
  N  N144  1  -0.00479226  0.66465913  0.12524358  1
  N  N145  1  0.83012779  0.83561223  0.62177328  1
  N  N146  1  0.17519070  0.83873824  0.37555889  1
  N  N147  1  0.33101563  -0.00665583  0.63124627  1
  N  N148  1  0.65972851  0.34143233  0.12015307  1
  N  N149  1  0.83318817  0.84763379  0.13079407  1
  N  N150  1  0.16245631  0.16618889  0.87610648  1
  N  N151  1  0.33546550  0.32693986  0.37326632  1
  N  N152  1  0.33401338  0.66953567  0.87213332  1
  N  N153  1  -0.00364074  0.33314038  0.12753459  1
  N  N154  1  0.65930514  0.66457712  0.12227145  1
  N  N155  1  0.00032239  0.66962643  0.62672627  1
  N  N156  1  0.83939113  0.16385913  0.38045022  1
  N  N157  1  0.16153330  0.82934180  0.87088626  1
  N  N158  1  0.65867434  0.65979617  0.87586448  1
  N  N159  1  -0.00941670  -0.00834395  0.87774777  1
  N  N160  1  0.15972489  0.50747539  0.12251904  1
  N  N161  1  0.16659200  0.16502633  0.62776956  1
  N  N162  1  0.49619737  0.50445906  0.62276983  1
  N  N163  1  0.15744775  0.49573515  0.87542715  1
  N  N164  1  -0.00598277  0.01052971  0.12980290  1
  N  N165  1  0.50503424  0.16687076  0.62289996  1
  N  N166  1  0.52078862  0.84254818  0.61859351  1
  N  N167  1  0.01230811  -0.00815385  0.62942508  1
  N  N168  1  0.33317680  0.32204022  0.12861200  1
  N  N169  1  0.16593386  0.50707779  0.37148475  1
  N  N170  1  0.82687288  0.50165635  0.37578278  1
  N  N171  1  0.83244165  0.16577908  0.62808186  1
  N  N172  1  0.00240511  0.66831845  0.37911052  1
  N  N173  1  0.50437931  0.16879581  0.37509804  1
  N  N174  1  0.16337816  0.49101774  0.63212764  1
  N  N175  1  0.17195119  0.83327668  0.12615321  1
  N  N176  1  0.82788910  0.49648116  0.62785216  1
  O  O177  1  0.50955587  0.50105759  0.13028038  1
  O  O178  1  0.50032618  0.17759938  0.12291525  1
  O  O179  1  0.65670019  0.00425846  0.13027679  1
  O  O180  1  0.01398462  0.34141422  0.62161708  1
  O  O181  1  0.15314664  0.17078998  0.12999042  1
  O  O182  1  0.66867893  0.67084593  0.62949022  1
  O  O183  1  0.15125178  0.16093274  0.37912641  1
  O  O184  1  0.52805565  0.85051775  0.38403286  1
  O  O185  1  0.84099889  0.48955223  0.87903517  1
  O  O186  1  0.49996124  0.18244623  0.86999301  1
  O  O187  1  0.32416973  0.33008965  0.62140602  1
  O  O188  1  0.51831822  0.50638107  0.37709313  1
  O  O189  1  0.49158696  0.84627862  0.12303387  1
  O  O190  1  0.00284612  0.33897176  0.37497389  1
  O  O191  1  0.33361418  0.64474740  0.61614816  1
  O  O192  1  0.49568730  0.49650928  0.87783190  1
  O  O193  1  0.67248783  0.32963785  0.37158324  1
  O  O194  1  0.33540681  0.64599513  0.36760539  1
  O  O195  1  0.82494211  0.84731118  0.86656401  1
  O  O196  1  0.67756452  0.32444448  0.62782224  1
  O  O197  1  0.83938077  0.49312899  0.12602867  1
  O  O198  1  0.66514647  0.00411856  0.62613596  1
  O  O199  1  0.83361801  0.15406524  0.13357680  1
  O  O200  1  0.35122686  -0.01603873  0.11994163  1
  O  O201  1  0.82219772  0.84235127  0.37787374  1
  O  O202  1  0.16804031  0.83189589  0.62728623  1
  O  O203  1  0.34808192  -0.01463960  0.87560962  1
  O  O204  1  0.32795966  0.67413389  0.11876675  1
  O  O205  1  0.65931889  0.00363764  0.87059851  1
  O  O206  1  0.00949180  0.33623870  0.87192852  1
  O  O207  1  0.01518694  0.00517740  0.37944254  1
  O  O208  1  0.82206711  0.15432371  0.87104388  1
  O  O209  1  0.67033795  0.67334774  0.37220148  1
  O  O210  1  0.67038312  0.33052043  0.87989020  1
  O  O211  1  0.49517389  0.84485498  0.87500714  1
  O  O212  1  0.65803739  0.00973619  0.37445494  1
  O  O213  1  0.33612906  -0.00459406  0.37232980  1
  O  O214  1  -0.00622061  0.66709032  0.87319613  1
  O  O215  1  0.32950538  0.32167633  0.87243960  1
