# generated using pymatgen
data_Sr24Ta24N11O13
_symmetry_space_group_name_H-M   'P 1'
_cell_length_a   16.78183465
_cell_length_b   16.90772547
_cell_length_c   15.65766664
_cell_angle_alpha   89.30713459
_cell_angle_beta   89.61248907
_cell_angle_gamma   90.43072924
_symmetry_Int_Tables_number   1
_chemical_formula_structural   Sr24Ta24N11O13
_chemical_formula_sum   'Sr72 Ta72 N33 O39'
_cell_volume   4442.19313167
_cell_formula_units_Z   3
loop_
 _symmetry_equiv_pos_site_id
 _symmetry_equiv_pos_as_xyz
  1  'x, y, z'
loop_
 _atom_site_type_symbol
 _atom_site_label
 _atom_site_symmetry_multiplicity
 _atom_site_fract_x
 _atom_site_fract_y
 _atom_site_fract_z
 _atom_site_occupancy
  Sr  Sr0  1  -0.02201300  0.15787614  0.17728347  1
  Sr  Sr1  1  0.00881693  0.17312616  0.62406178  1
  Sr  Sr2  1  -0.00311985  0.49936670  0.13607416  1
  Sr  Sr3  1  0.00147381  0.49621058  0.58598992  1
  Sr  Sr4  1  0.00476934  0.85603742  0.07316380  1
  Sr  Sr5  1  0.00273247  0.82311724  0.63777569  1
  Sr  Sr6  1  0.31457963  0.16844301  0.11841216  1
  Sr  Sr7  1  0.34589563  0.13179237  0.63288891  1
  Sr  Sr8  1  0.33278809  0.48932607  0.11194637  1
  Sr  Sr9  1  0.32611973  0.48471553  0.63478814  1
  Sr  Sr10  1  0.33501489  0.79775971  0.16286155  1
  Sr  Sr11  1  0.34971070  0.83384237  0.61162684  1
  Sr  Sr12  1  0.67447406  0.16996675  0.07945079  1
  Sr  Sr13  1  0.66641154  0.15295647  0.62980585  1
  Sr  Sr14  1  0.66424433  0.48751937  0.10639915  1
  Sr  Sr15  1  0.67515451  0.49803481  0.62840309  1
  Sr  Sr16  1  0.67506195  0.81825239  0.11919672  1
  Sr  Sr17  1  0.67553685  0.82534376  0.65915064  1
  Sr  Sr18  1  0.16257595  0.01054572  0.11856379  1
  Sr  Sr19  1  0.13771393  0.01471782  0.66420157  1
  Sr  Sr20  1  0.17349833  0.35070444  0.08608844  1
  Sr  Sr21  1  0.16424843  0.33476509  0.62676209  1
  Sr  Sr22  1  0.15963699  0.66788495  0.14456108  1
  Sr  Sr23  1  0.18575933  0.68287366  0.63877715  1
  Sr  Sr24  1  0.48529047  0.04766030  0.10811017  1
  Sr  Sr25  1  0.51324215  -0.00931517  0.63578431  1
  Sr  Sr26  1  0.48653481  0.34155171  0.16964664  1
  Sr  Sr27  1  0.50691308  0.36085265  0.60286791  1
  Sr  Sr28  1  0.50109904  0.67366803  0.12289578  1
  Sr  Sr29  1  0.49382943  0.68652473  0.58139614  1
  Sr  Sr30  1  0.82395554  0.00121716  0.13497127  1
  Sr  Sr31  1  0.85257031  0.01035094  0.58121235  1
  Sr  Sr32  1  0.82893625  0.33931921  0.11108953  1
  Sr  Sr33  1  0.82962322  0.31569880  0.67616901  1
  Sr  Sr34  1  0.84074808  0.66516213  0.16223509  1
  Sr  Sr35  1  0.84612020  0.66704704  0.60612107  1
  Sr  Sr36  1  0.00387588  0.16231122  0.38667499  1
  Sr  Sr37  1  0.00721645  0.17937986  0.83726068  1
  Sr  Sr38  1  0.00283867  0.51096086  0.36182420  1
  Sr  Sr39  1  -0.00242791  0.47515759  0.92022685  1
  Sr  Sr40  1  -0.02271987  0.83903383  0.42393089  1
  Sr  Sr41  1  0.00674620  0.82994086  0.86405858  1
  Sr  Sr42  1  0.34234678  0.15482703  0.34180288  1
  Sr  Sr43  1  0.32948757  0.14146894  0.90253587  1
  Sr  Sr44  1  0.33416772  0.46046065  0.39546025  1
  Sr  Sr45  1  0.32100058  0.50466899  0.86650768  1
  Sr  Sr46  1  0.33283797  0.82587685  0.38723988  1
  Sr  Sr47  1  0.35121908  0.81368889  0.86709927  1
  Sr  Sr48  1  0.66608278  0.14730229  0.41799196  1
  Sr  Sr49  1  0.66486343  0.14984379  0.87233146  1
  Sr  Sr50  1  0.66389905  0.48975481  0.39944318  1
  Sr  Sr51  1  0.67778864  0.49854996  0.86248920  1
  Sr  Sr52  1  0.67894470  0.82948424  0.32726445  1
  Sr  Sr53  1  0.66237259  0.82595702  0.87803830  1
  Sr  Sr54  1  0.16540874  0.02812736  0.33233002  1
  Sr  Sr55  1  0.14578117  0.00496022  0.89047326  1
  Sr  Sr56  1  0.15806433  0.34056035  0.41613299  1
  Sr  Sr57  1  0.17619388  0.33714785  0.87406894  1
  Sr  Sr58  1  0.17751830  0.67906378  0.35735554  1
  Sr  Sr59  1  0.16443453  0.67932845  0.86119395  1
  Sr  Sr60  1  0.48882350  0.01066712  0.39931223  1
  Sr  Sr61  1  0.49679817  0.00233368  0.85331312  1
  Sr  Sr62  1  0.50782955  0.33319321  0.37774325  1
  Sr  Sr63  1  0.48591663  0.37506147  0.83149477  1
  Sr  Sr64  1  0.50347857  0.70761179  0.35174075  1
  Sr  Sr65  1  0.49978519  0.66610730  0.91446458  1
  Sr  Sr66  1  0.83901247  0.00732944  0.36884762  1
  Sr  Sr67  1  0.82681751  -0.03372157  0.92652193  1
  Sr  Sr68  1  0.85958693  0.32008326  0.32948451  1
  Sr  Sr69  1  0.81904489  0.33868570  0.88957652  1
  Sr  Sr70  1  0.83531093  0.66110838  0.38117499  1
  Sr  Sr71  1  0.81641090  0.67416421  0.81551958  1
  Ta  Ta72  1  0.12231721  0.17454984  0.00863370  1
  Ta  Ta73  1  0.18824694  0.15006335  0.50054459  1
  Ta  Ta74  1  0.16634469  0.53911785  0.00421029  1
  Ta  Ta75  1  0.17352499  0.53704073  0.49861691  1
  Ta  Ta76  1  0.20806216  0.82918750  0.00070457  1
  Ta  Ta77  1  0.16205348  0.87061125  0.50243772  1
  Ta  Ta78  1  0.49960343  0.21896511  -0.00217006  1
  Ta  Ta79  1  0.48036107  0.18317237  0.49607764  1
  Ta  Ta80  1  0.49652080  0.47438073  0.00028531  1
  Ta  Ta81  1  0.49050647  0.54019735  0.49015131  1
  Ta  Ta82  1  0.49147330  0.86368317  0.01649786  1
  Ta  Ta83  1  0.55959852  0.84407075  0.49880173  1
  Ta  Ta84  1  0.86506936  0.16510278  0.00194610  1
  Ta  Ta85  1  0.83591735  0.20896038  0.50828783  1
  Ta  Ta86  1  0.83439570  0.56066004  -0.00927006  1
  Ta  Ta87  1  0.83284172  0.43831063  0.50332643  1
  Ta  Ta88  1  0.83562067  0.76750173  -0.01217236  1
  Ta  Ta89  1  0.78946463  0.83486929  0.49795743  1
  Ta  Ta90  1  0.16063350  0.21405593  0.25054636  1
  Ta  Ta91  1  0.19717738  0.17419315  0.75602381  1
  Ta  Ta92  1  0.18096924  0.47751460  0.25379210  1
  Ta  Ta93  1  0.12472683  0.50549747  0.74515610  1
  Ta  Ta94  1  0.13437421  0.84779674  0.24921240  1
  Ta  Ta95  1  0.19167936  0.85433488  0.76004578  1
  Ta  Ta96  1  0.56072161  0.16938398  0.25444287  1
  Ta  Ta97  1  0.49741665  0.20122977  0.75058535  1
  Ta  Ta98  1  0.50600955  0.52653720  0.25918369  1
  Ta  Ta99  1  0.49850285  0.55366335  0.73594360  1
  Ta  Ta100  1  0.49988074  0.89119879  0.23456069  1
  Ta  Ta101  1  0.50399529  0.79115782  0.74495874  1
  Ta  Ta102  1  0.77078622  0.16735256  0.24551233  1
  Ta  Ta103  1  0.83255617  0.12590278  0.75486835  1
  Ta  Ta104  1  0.79925236  0.49183566  0.24867672  1
  Ta  Ta105  1  0.88056550  0.49781225  0.75263657  1
  Ta  Ta106  1  0.87132835  0.83686041  0.25005769  1
  Ta  Ta107  1  0.84023337  0.86790162  0.74393355  1
  Ta  Ta108  1  -0.00178361  -0.04577773  0.24866947  1
  Ta  Ta109  1  -0.05031058  0.00105096  0.76270488  1
  Ta  Ta110  1  0.04676489  0.33708617  0.24493040  1
  Ta  Ta111  1  0.00456713  0.37000426  0.74985486  1
  Ta  Ta112  1  0.00573817  0.73706486  0.25086553  1
  Ta  Ta113  1  0.00226877  0.62140647  0.74641189  1
  Ta  Ta114  1  0.34276112  -0.02443380  0.24460412  1
  Ta  Ta115  1  0.30368081  -0.02057328  0.76009791  1
  Ta  Ta116  1  0.29343056  0.33243182  0.24822167  1
  Ta  Ta117  1  0.33727375  0.29015815  0.74870389  1
  Ta  Ta118  1  0.34688264  0.61294805  0.26253492  1
  Ta  Ta119  1  0.37064714  0.66297368  0.73759254  1
  Ta  Ta120  1  0.64808701  0.02208479  0.24661721  1
  Ta  Ta121  1  0.72045037  -0.00644456  0.75436794  1
  Ta  Ta122  1  0.67319393  0.31760566  0.24472408  1
  Ta  Ta123  1  0.64338292  0.31229113  0.74934828  1
  Ta  Ta124  1  0.66063348  0.62176414  0.25361504  1
  Ta  Ta125  1  0.61947798  0.66177181  0.74303619  1
  Ta  Ta126  1  -0.01186243  0.05114571  0.00524995  1
  Ta  Ta127  1  0.04841053  0.00155975  0.49381113  1
  Ta  Ta128  1  -0.00309707  0.28620417  0.01173875  1
  Ta  Ta129  1  -0.03890069  0.32930927  0.50530767  1
  Ta  Ta130  1  -0.01512180  0.66366187  -0.00172931  1
  Ta  Ta131  1  0.03764341  0.66666636  0.50196140  1
  Ta  Ta132  1  0.33900477  -0.05365445  0.00959658  1
  Ta  Ta133  1  0.27725194  -0.00454100  0.49978798  1
  Ta  Ta134  1  0.37664790  0.33093586  0.00116604  1
  Ta  Ta135  1  0.33642937  0.28031670  0.49393078  1
  Ta  Ta136  1  0.31122199  0.66369930  0.01038829  1
  Ta  Ta137  1  0.33283026  0.63439239  0.48763580  1
  Ta  Ta138  1  0.63437674  -0.02080757  -0.00317516  1
  Ta  Ta139  1  0.67203636  -0.03927637  0.50126815  1
  Ta  Ta140  1  0.61086623  0.33845489  -0.00318096  1
  Ta  Ta141  1  0.70823413  0.32348554  0.50412715  1
  Ta  Ta142  1  0.69775187  0.65897507  -0.00333025  1
  Ta  Ta143  1  0.66336500  0.69480993  0.49148445  1
  N  N144  1  -0.00774558  0.00506086  0.13429318  1
  N  N145  1  0.33364154  0.64888363  0.13235800  1
  N  N146  1  0.33715383  0.67689806  0.36271141  1
  N  N147  1  0.16773870  0.16947062  0.63003853  1
  N  N148  1  0.66574588  0.32610693  0.62847574  1
  N  N149  1  0.50476578  0.82334513  0.13585135  1
  N  N150  1  0.32886285  0.31104419  0.37198664  1
  N  N151  1  -0.00061573  0.33265466  0.12903097  1
  N  N152  1  0.51152694  0.17171164  0.37272096  1
  N  N153  1  0.82960059  0.83186891  0.37144701  1
  N  N154  1  0.83544426  0.83433612  0.62098973  1
  N  N155  1  0.00771998  0.66527111  0.62148327  1
  N  N156  1  0.16374954  0.83457867  0.88644172  1
  N  N157  1  -0.01348805  0.00592415  0.88150518  1
  N  N158  1  0.16314161  0.17776662  0.37782804  1
  N  N159  1  0.82201985  0.16723940  0.13014833  1
  N  N160  1  0.16677834  0.50535572  0.62787710  1
  N  N161  1  0.65402371  0.33371714  0.12121397  1
  N  N162  1  0.66813868  -0.01008871  0.87645362  1
  N  N163  1  0.51641585  0.83558267  0.62653830  1
  N  N164  1  0.83911392  0.51167380  0.87560546  1
  N  N165  1  0.00466846  0.00000843  0.37840435  1
  N  N166  1  0.33935272  0.66397817  0.61684500  1
  N  N167  1  0.83413889  0.81768869  0.87391591  1
  N  N168  1  -0.00108618  0.33225136  0.63145818  1
  N  N169  1  0.67083233  0.66805847  0.36854094  1
  N  N170  1  0.33350212  0.32753734  0.12065550  1
  N  N171  1  0.16007353  0.16968236  0.12839385  1
  N  N172  1  0.16329992  0.50275547  0.37579548  1
  N  N173  1  0.83717401  0.16425278  0.62888192  1
  N  N174  1  0.16038984  0.51013333  0.12372757  1
  N  N175  1  0.50295829  0.51569389  0.61084972  1
  N  N176  1  0.16293289  0.17062294  0.87770167  1
  O  O177  1  0.15860870  0.84995474  0.37798353  1
  O  O178  1  0.33905252  -0.01910619  0.88317920  1
  O  O179  1  0.67613790  -0.01464880  0.63444285  1
  O  O180  1  0.15839673  0.83903199  0.12189620  1
  O  O181  1  0.32938438  0.00797801  0.12320034  1
  O  O182  1  0.65924824  0.01305388  0.11598189  1
  O  O183  1  0.33238998  0.30800496  0.62471427  1
  O  O184  1  0.82161245  0.51440961  0.12248976  1
  O  O185  1  0.50453440  0.18207384  0.62352596  1
  O  O186  1  0.66362567  0.66566325  0.62252406  1
  O  O187  1  0.66286983  -0.00520062  0.36981297  1
  O  O188  1  0.50959156  0.47943423  0.38259095  1
  O  O189  1  0.66019155  0.34358636  0.87546803  1
  O  O190  1  0.29554175  -0.00922828  0.62676959  1
  O  O191  1  0.01602047  0.69148872  0.37198849  1
  O  O192  1  0.34500906  0.66032957  0.88034959  1
  O  O193  1  0.83848885  0.46976740  0.63191694  1
  O  O194  1  0.84046643  0.81186317  0.11221747  1
  O  O195  1  0.16308445  0.51630732  0.87383034  1
  O  O196  1  -0.00060020  0.69120834  0.12340370  1
  O  O197  1  0.16387433  0.84941096  0.63324524  1
  O  O198  1  0.00343605  0.33606205  0.37849015  1
  O  O199  1  0.81400061  0.17377960  0.36815550  1
  O  O200  1  0.33708413  0.31594911  0.87552663  1
  O  O201  1  0.49538179  0.51445945  0.87645458  1
  O  O202  1  0.67968403  0.65833273  0.12797770  1
  O  O203  1  0.66334932  0.65809039  0.87115309  1
  O  O204  1  0.00511007  0.66324204  0.87279241  1
  O  O205  1  0.51890418  0.18942227  0.13392080  1
  O  O206  1  0.52300414  0.85993875  0.36186087  1
  O  O207  1  0.50211712  0.82109955  0.87450342  1
  O  O208  1  0.50312607  0.49538206  0.12684902  1
  O  O209  1  0.81981744  0.46706819  0.37014581  1
  O  O210  1  0.66732172  0.33154371  0.38302837  1
  O  O211  1  -0.00049334  0.32916977  0.87700710  1
  O  O212  1  0.31690882  -0.01714838  0.37017087  1
  O  O213  1  -0.00260538  0.00539026  0.61650953  1
  O  O214  1  0.82459016  0.17300917  0.87861179  1
  O  O215  1  0.49609438  0.17994271  0.87353811  1
