# generated using pymatgen
data_Sr24Ta24N11O13
_symmetry_space_group_name_H-M   'P 1'
_cell_length_a   16.94205967
_cell_length_b   16.68522150
_cell_length_c   15.64592581
_cell_angle_alpha   89.86450455
_cell_angle_beta   90.13120319
_cell_angle_gamma   89.87409326
_symmetry_Int_Tables_number   1
_chemical_formula_structural   Sr24Ta24N11O13
_chemical_formula_sum   'Sr72 Ta72 N33 O39'
_cell_volume   4422.78719050
_cell_formula_units_Z   3
loop_
 _symmetry_equiv_pos_site_id
 _symmetry_equiv_pos_as_xyz
  1  'x, y, z'
loop_
 _atom_site_type_symbol
 _atom_site_label
 _atom_site_symmetry_multiplicity
 _atom_site_fract_x
 _atom_site_fract_y
 _atom_site_fract_z
 _atom_site_occupancy
  Sr  Sr0  1  -0.00107519  0.15963777  0.15428375  1
  Sr  Sr1  1  -0.01324320  0.18311183  0.58543296  1
  Sr  Sr2  1  -0.03210080  0.50114158  0.12856873  1
  Sr  Sr3  1  -0.01077749  0.50022173  0.65227961  1
  Sr  Sr4  1  0.02796824  0.82877090  0.07151814  1
  Sr  Sr5  1  -0.00750794  0.84474896  0.64066363  1
  Sr  Sr6  1  0.32141925  0.15587027  0.06841531  1
  Sr  Sr7  1  0.32590113  0.17254013  0.63008639  1
  Sr  Sr8  1  0.33883711  0.50009411  0.13230234  1
  Sr  Sr9  1  0.29201649  0.49942820  0.60602014  1
  Sr  Sr10  1  0.33422721  0.84582835  0.16584118  1
  Sr  Sr11  1  0.33183989  0.81823811  0.63068411  1
  Sr  Sr12  1  0.65956801  0.17352702  0.10471814  1
  Sr  Sr13  1  0.65864674  0.14026730  0.65377748  1
  Sr  Sr14  1  0.64486547  0.49479003  0.14583085  1
  Sr  Sr15  1  0.66460705  0.51922477  0.62251800  1
  Sr  Sr16  1  0.66438416  0.83056559  0.14191580  1
  Sr  Sr17  1  0.65726177  0.85711251  0.57871118  1
  Sr  Sr18  1  0.16493405  0.00622139  0.11527344  1
  Sr  Sr19  1  0.20267341  -0.01484669  0.68934056  1
  Sr  Sr20  1  0.19705314  0.33515563  0.10110648  1
  Sr  Sr21  1  0.15582079  0.33045234  0.63129184  1
  Sr  Sr22  1  0.17743970  0.65188581  0.14273956  1
  Sr  Sr23  1  0.16759202  0.68358653  0.58288665  1
  Sr  Sr24  1  0.50952956  0.00980700  0.12784892  1
  Sr  Sr25  1  0.51260707  0.00387694  0.60190452  1
  Sr  Sr26  1  0.51054791  0.34096477  0.15744157  1
  Sr  Sr27  1  0.53391091  0.33811304  0.62459022  1
  Sr  Sr28  1  0.50457908  0.65691478  0.08857161  1
  Sr  Sr29  1  0.50583784  0.67183167  0.64558765  1
  Sr  Sr30  1  0.85147469  0.00177813  0.16783777  1
  Sr  Sr31  1  0.82178782  0.00313901  0.61352117  1
  Sr  Sr32  1  0.84886177  0.31656474  0.12264935  1
  Sr  Sr33  1  0.83125885  0.34121797  0.57750275  1
  Sr  Sr34  1  0.83281336  0.67786248  0.11653208  1
  Sr  Sr35  1  0.84197413  0.65132254  0.67115877  1
  Sr  Sr36  1  0.02279494  0.15995541  0.36828175  1
  Sr  Sr37  1  -0.02088407  0.17794783  0.88598873  1
  Sr  Sr38  1  -0.01860295  0.52611622  0.33994275  1
  Sr  Sr39  1  -0.02972488  0.49443822  0.87082703  1
  Sr  Sr40  1  0.01564148  0.82399535  0.41918994  1
  Sr  Sr41  1  0.00063836  0.84071489  0.86437314  1
  Sr  Sr42  1  0.32986073  0.16115416  0.41277702  1
  Sr  Sr43  1  0.30515125  0.16718761  0.86225631  1
  Sr  Sr44  1  0.30860367  0.49452804  0.36596096  1
  Sr  Sr45  1  0.31333559  0.50881032  0.91230885  1
  Sr  Sr46  1  0.31365133  0.83024765  0.37436782  1
  Sr  Sr47  1  0.34233009  0.82727784  0.83822636  1
  Sr  Sr48  1  0.59753255  0.18204803  0.30347708  1
  Sr  Sr49  1  0.67350405  0.15849658  0.87584839  1
  Sr  Sr50  1  0.66769519  0.48778129  0.39988447  1
  Sr  Sr51  1  0.64521358  0.51779045  0.83672397  1
  Sr  Sr52  1  0.68629001  0.83304574  0.36409889  1
  Sr  Sr53  1  0.64626017  0.81956088  0.93332904  1
  Sr  Sr54  1  0.17382314  0.00157050  0.33673317  1
  Sr  Sr55  1  0.16326367  -0.00628708  0.89098504  1
  Sr  Sr56  1  0.18147113  0.30993117  0.40423107  1
  Sr  Sr57  1  0.16535680  0.34624958  0.85454576  1
  Sr  Sr58  1  0.16616701  0.66558368  0.36811915  1
  Sr  Sr59  1  0.17169365  0.66777849  0.91356661  1
  Sr  Sr60  1  0.50011490  -0.01739544  0.36377095  1
  Sr  Sr61  1  0.52680475  0.01290256  0.90619856  1
  Sr  Sr62  1  0.50908295  0.35434301  0.36791177  1
  Sr  Sr63  1  0.53566865  0.33490172  0.83803082  1
  Sr  Sr64  1  0.54437761  0.66484552  0.43054114  1
  Sr  Sr65  1  0.48931235  0.66684934  0.86799827  1
  Sr  Sr66  1  0.85473042  -0.01840435  0.39454583  1
  Sr  Sr67  1  0.83485494  0.01581239  0.83844155  1
  Sr  Sr68  1  0.85812933  0.33331908  0.36897334  1
  Sr  Sr69  1  0.83520713  0.32148912  0.91002095  1
  Sr  Sr70  1  0.83228368  0.66133311  0.33767265  1
  Sr  Sr71  1  0.83964114  0.66938674  0.88289189  1
  Ta  Ta72  1  0.12911524  0.18126795  0.00454332  1
  Ta  Ta73  1  0.16961064  0.09393221  0.51073760  1
  Ta  Ta74  1  0.12310638  0.49652925  0.00354363  1
  Ta  Ta75  1  0.11400614  0.50313221  0.48982249  1
  Ta  Ta76  1  0.21966546  0.83329153  -0.00162253  1
  Ta  Ta77  1  0.17485655  0.89681589  0.51283950  1
  Ta  Ta78  1  0.49591039  0.20996698  -0.00387397  1
  Ta  Ta79  1  0.50996216  0.18157339  0.49942588  1
  Ta  Ta80  1  0.50818286  0.47031690  -0.00841855  1
  Ta  Ta81  1  0.45933893  0.50326816  0.50550098  1
  Ta  Ta82  1  0.45849085  0.83606402  0.00276102  1
  Ta  Ta83  1  0.46973434  0.82563090  0.50358578  1
  Ta  Ta84  1  0.83414883  0.12978010  0.01815464  1
  Ta  Ta85  1  0.80763031  0.16441034  0.47427950  1
  Ta  Ta86  1  0.78039861  0.49624213  -0.00711737  1
  Ta  Ta87  1  0.84844033  0.52897741  0.50159108  1
  Ta  Ta88  1  0.84134463  0.87507429  0.00014453  1
  Ta  Ta89  1  0.84229957  0.78873100  0.50336692  1
  Ta  Ta90  1  0.21568302  0.17763614  0.24144858  1
  Ta  Ta91  1  0.12370144  0.16078582  0.74731552  1
  Ta  Ta92  1  0.14392347  0.46028199  0.25741027  1
  Ta  Ta93  1  0.15952344  0.54587730  0.75177099  1
  Ta  Ta94  1  0.13773464  0.82898458  0.24729864  1
  Ta  Ta95  1  0.16671557  0.78877995  0.75854946  1
  Ta  Ta96  1  0.42763969  0.16967404  0.23389415  1
  Ta  Ta97  1  0.47906799  0.15932061  0.75601538  1
  Ta  Ta98  1  0.49506296  0.55907393  0.26252334  1
  Ta  Ta99  1  0.43726168  0.49619190  0.75618884  1
  Ta  Ta100  1  0.50196502  0.76750935  0.25726657  1
  Ta  Ta101  1  0.52295445  0.85535670  0.75602175  1
  Ta  Ta102  1  0.79502611  0.16506872  0.26948517  1
  Ta  Ta103  1  0.84102152  0.20031219  0.73654482  1
  Ta  Ta104  1  0.80268688  0.48214657  0.25118566  1
  Ta  Ta105  1  0.81774959  0.45230377  0.74686701  1
  Ta  Ta106  1  0.87850547  0.83154421  0.25379652  1
  Ta  Ta107  1  0.79858027  0.83772791  0.74984186  1
  Ta  Ta108  1  0.01131000  -0.06165899  0.24553770  1
  Ta  Ta109  1  0.00934535  0.03663248  0.74604461  1
  Ta  Ta110  1  0.03481791  0.34159742  0.25955402  1
  Ta  Ta111  1  -0.03243034  0.31970357  0.74252210  1
  Ta  Ta112  1  0.00725932  0.72159393  0.24220324  1
  Ta  Ta113  1  0.03945669  0.66944237  0.75948773  1
  Ta  Ta114  1  0.33459335  0.03561164  0.23880563  1
  Ta  Ta115  1  0.38550848  0.00405100  0.76458990  1
  Ta  Ta116  1  0.32853224  0.30616011  0.24414570  1
  Ta  Ta117  1  0.35737703  0.34704134  0.75884055  1
  Ta  Ta118  1  0.36808185  0.66567241  0.25934344  1
  Ta  Ta119  1  0.30315020  0.64519202  0.75702735  1
  Ta  Ta120  1  0.69079929  0.02364175  0.26133595  1
  Ta  Ta121  1  0.66546804  -0.06957197  0.77542941  1
  Ta  Ta122  1  0.70186497  0.33026945  0.25203565  1
  Ta  Ta123  1  0.71828814  0.31662567  0.74066181  1
  Ta  Ta124  1  0.64712896  0.65576907  0.25597918  1
  Ta  Ta125  1  0.67063981  0.73072323  0.74615446  1
  Ta  Ta126  1  -0.02942443  0.01177808  0.00650781  1
  Ta  Ta127  1  0.03854590  -0.00099942  0.50243335  1
  Ta  Ta128  1  0.02422277  0.33899870  -0.00143791  1
  Ta  Ta129  1  0.00966538  0.37697618  0.49026837  1
  Ta  Ta130  1  0.01131251  0.64334933  0.00118858  1
  Ta  Ta131  1  -0.02670088  0.65033119  0.50422655  1
  Ta  Ta132  1  0.34378031  -0.03435249  -0.00915425  1
  Ta  Ta133  1  0.31890733  -0.01422673  0.50701383  1
  Ta  Ta134  1  0.38486019  0.33701793  -0.00325400  1
  Ta  Ta135  1  0.37042893  0.34287773  0.50371050  1
  Ta  Ta136  1  0.33477620  0.70447912  0.00855171  1
  Ta  Ta137  1  0.36191332  0.66055966  0.48758115  1
  Ta  Ta138  1  0.72102354  -0.00466793  0.00949850  1
  Ta  Ta139  1  0.67056374  0.07324987  0.45112838  1
  Ta  Ta140  1  0.65276524  0.35379681  0.00155129  1
  Ta  Ta141  1  0.67249295  0.26302872  0.47758491  1
  Ta  Ta142  1  0.67221161  0.63315218  0.00078403  1
  Ta  Ta143  1  0.72065015  0.67296236  0.50651787  1
  N  N144  1  0.31401035  0.66712236  0.37621410  1
  N  N145  1  0.01288498  0.31359187  0.38414277  1
  N  N146  1  0.82615088  0.49677931  0.37156943  1
  N  N147  1  0.49627574  0.83193836  0.88393141  1
  N  N148  1  0.48717484  0.17327959  0.12285975  1
  N  N149  1  0.48760007  0.50535718  0.87471613  1
  N  N150  1  0.17493519  0.83181564  0.87327521  1
  N  N151  1  0.52024469  0.17690882  0.87152393  1
  N  N152  1  0.34974073  0.33775938  0.11841691  1
  N  N153  1  0.49355701  0.83317028  0.62326320  1
  N  N154  1  0.15427119  0.51336898  0.37139976  1
  N  N155  1  -0.00327821  0.33681255  0.87675227  1
  N  N156  1  0.33522326  0.66798651  0.12916853  1
  N  N157  1  0.68491612  0.66339723  0.37669399  1
  N  N158  1  0.66982540  0.33028054  0.12217219  1
  N  N159  1  -0.00443307  0.34136028  0.61989267  1
  N  N160  1  0.50268645  0.17219447  0.62353027  1
  N  N161  1  0.67529522  0.68364124  0.63128540  1
  N  N162  1  0.67800258  -0.01405043  0.89328272  1
  N  N163  1  0.65789226  -0.01855953  0.37182613  1
  N  N164  1  0.85262349  0.82283209  0.38210621  1
  N  N165  1  0.82653583  0.49611717  0.62212246  1
  N  N166  1  0.33497262  0.00294550  0.11699079  1
  N  N167  1  0.81314777  0.48961923  0.87109449  1
  N  N168  1  0.32195809  0.00328297  0.86544694  1
  N  N169  1  0.32750300  0.66399051  0.87801807  1
  N  N170  1  0.82651309  0.15973680  0.14070354  1
  N  N171  1  0.00298011  0.67519299  0.12452660  1
  N  N172  1  0.00513570  -0.01133421  0.12403844  1
  N  N173  1  0.66688702  0.66417237  0.12063758  1
  N  N174  1  -0.00467233  0.67618325  0.87562050  1
  N  N175  1  0.16737532  0.16918904  0.12051577  1
  N  N176  1  0.66001352  0.32810824  0.37480383  1
  O  O177  1  0.31812584  0.65932637  0.61163468  1
  O  O178  1  0.34881337  -0.00770487  0.63481176  1
  O  O179  1  0.16564727  0.85272831  0.38672087  1
  O  O180  1  0.68006956  0.29498156  0.61687330  1
  O  O181  1  -0.00497725  0.66141138  0.63162366  1
  O  O182  1  0.83238052  0.16477378  0.60870442  1
  O  O183  1  -0.00199241  0.01239901  0.62391496  1
  O  O184  1  0.13788056  0.49454975  0.13036172  1
  O  O185  1  0.17968296  0.14630408  0.38638623  1
  O  O186  1  0.13802597  0.17825066  0.87118908  1
  O  O187  1  0.32870620  0.00330479  0.37798046  1
  O  O188  1  0.36349599  0.33210099  0.62763569  1
  O  O189  1  0.46856240  0.17001747  0.37042583  1
  O  O190  1  0.49016778  0.51042095  0.37868135  1
  O  O191  1  0.68192371  0.31632060  0.86887384  1
  O  O192  1  0.01874057  -0.02040307  0.37196569  1
  O  O193  1  0.15387960  0.50716663  0.87536198  1
  O  O194  1  0.00483057  0.33196598  0.13434336  1
  O  O195  1  0.17373986  0.84245279  0.63265453  1
  O  O196  1  0.87544661  0.15693455  0.36676523  1
  O  O197  1  0.16447293  0.14363004  0.62627091  1
  O  O198  1  0.67631154  -0.00948204  0.13670269  1
  O  O199  1  0.66632910  0.67780389  0.87585921  1
  O  O200  1  0.49990786  0.80849904  0.13303754  1
  O  O201  1  0.84831318  0.84381178  0.12148449  1
  O  O202  1  -0.00516219  0.67514302  0.37581996  1
  O  O203  1  0.84460606  0.85479915  0.87230318  1
  O  O204  1  0.18009576  0.83432789  0.12218927  1
  O  O205  1  0.83076259  0.16573507  0.87519386  1
  O  O206  1  0.35048345  0.33380918  0.37695941  1
  O  O207  1  0.83805705  0.84419609  0.62558361  1
  O  O208  1  -0.00674228  0.01889088  0.87121712  1
  O  O209  1  0.81548293  0.48904469  0.11553809  1
  O  O210  1  0.49343124  0.50997365  0.13661695  1
  O  O211  1  0.46635217  0.51098392  0.63109548  1
  O  O212  1  0.14567019  0.53016257  0.62238040  1
  O  O213  1  0.32201902  0.33800498  0.87889196  1
  O  O214  1  0.50054958  0.81923363  0.37351715  1
  O  O215  1  0.66892132  0.01327917  0.55840637  1
