# generated using pymatgen
data_Sr24Ta24N11O13
_symmetry_space_group_name_H-M   'P 1'
_cell_length_a   17.02656945
_cell_length_b   16.62314394
_cell_length_c   15.52137944
_cell_angle_alpha   89.47884056
_cell_angle_beta   89.10414508
_cell_angle_gamma   90.19438488
_symmetry_Int_Tables_number   1
_chemical_formula_structural   Sr24Ta24N11O13
_chemical_formula_sum   'Sr72 Ta72 N33 O39'
_cell_volume   4392.34926553
_cell_formula_units_Z   3
loop_
 _symmetry_equiv_pos_site_id
 _symmetry_equiv_pos_as_xyz
  1  'x, y, z'
loop_
 _atom_site_type_symbol
 _atom_site_label
 _atom_site_symmetry_multiplicity
 _atom_site_fract_x
 _atom_site_fract_y
 _atom_site_fract_z
 _atom_site_occupancy
  Sr  Sr0  1  -0.00175653  0.16500834  0.13398752  1
  Sr  Sr1  1  -0.00325472  0.17127359  0.58144060  1
  Sr  Sr2  1  0.00718435  0.50505692  0.11641292  1
  Sr  Sr3  1  -0.01441631  0.47724493  0.67219440  1
  Sr  Sr4  1  -0.05631708  0.82758034  0.19442065  1
  Sr  Sr5  1  0.00947377  0.82682084  0.62377065  1
  Sr  Sr6  1  0.38633768  0.18280175  0.03292373  1
  Sr  Sr7  1  0.31880233  0.14987914  0.62430955  1
  Sr  Sr8  1  0.32907018  0.47040493  0.16585174  1
  Sr  Sr9  1  0.31088819  0.49529557  0.61444284  1
  Sr  Sr10  1  0.33797007  0.85129301  0.12335094  1
  Sr  Sr11  1  0.31456158  0.83066136  0.67969706  1
  Sr  Sr12  1  0.66477712  0.15554884  0.16657787  1
  Sr  Sr13  1  0.64938747  0.17486354  0.62244650  1
  Sr  Sr14  1  0.66384228  0.50846636  0.13498892  1
  Sr  Sr15  1  0.67918548  0.51023762  0.57932504  1
  Sr  Sr16  1  0.65378415  0.84482047  0.09256692  1
  Sr  Sr17  1  0.63172528  0.83549396  0.64467364  1
  Sr  Sr18  1  0.19783666  0.00784520  0.08889800  1
  Sr  Sr19  1  0.17679924  -0.01795332  0.67635061  1
  Sr  Sr20  1  0.15131156  0.34224422  0.17095267  1
  Sr  Sr21  1  0.17387657  0.32052060  0.61451891  1
  Sr  Sr22  1  0.20387507  0.67451804  0.13708730  1
  Sr  Sr23  1  0.16581544  0.66732395  0.59388114  1
  Sr  Sr24  1  0.51092403  -0.00219616  0.12852498  1
  Sr  Sr25  1  0.50171035  0.01577026  0.60498988  1
  Sr  Sr26  1  0.51064450  0.34007589  0.11696470  1
  Sr  Sr27  1  0.50110536  0.34565624  0.65871036  1
  Sr  Sr28  1  0.51918069  0.68122438  0.07089948  1
  Sr  Sr29  1  0.47677357  0.66146704  0.63519704  1
  Sr  Sr30  1  0.82781042  0.00548850  0.13326256  1
  Sr  Sr31  1  0.88362382  -0.01123582  0.57697049  1
  Sr  Sr32  1  0.84985395  0.34203301  0.08325469  1
  Sr  Sr33  1  0.82294634  0.31849759  0.63180689  1
  Sr  Sr34  1  0.82057032  0.65985509  0.17651285  1
  Sr  Sr35  1  0.84476672  0.67854865  0.62201980  1
  Sr  Sr36  1  0.00713240  0.16824813  0.36753285  1
  Sr  Sr37  1  -0.01273480  0.14733327  0.92182088  1
  Sr  Sr38  1  -0.00326005  0.49669393  0.34336969  1
  Sr  Sr39  1  -0.00257672  0.49633164  0.88677635  1
  Sr  Sr40  1  0.00191485  0.82162030  0.40354678  1
  Sr  Sr41  1  -0.01259508  0.83534627  0.85864587  1
  Sr  Sr42  1  0.33873375  0.14898415  0.40552054  1
  Sr  Sr43  1  0.28328464  0.15156039  0.85930097  1
  Sr  Sr44  1  0.32758955  0.52169533  0.38858561  1
  Sr  Sr45  1  0.34044471  0.48538206  0.83796574  1
  Sr  Sr46  1  0.32596859  0.84050478  0.33611881  1
  Sr  Sr47  1  0.29270129  0.81337324  0.91502624  1
  Sr  Sr48  1  0.65102058  0.16360170  0.37719882  1
  Sr  Sr49  1  0.68375033  0.18627865  0.82318622  1
  Sr  Sr50  1  0.66906611  0.51081690  0.36674213  1
  Sr  Sr51  1  0.65423372  0.49435722  0.92298446  1
  Sr  Sr52  1  0.61051473  0.84578293  0.41157074  1
  Sr  Sr53  1  0.68108939  0.83741647  0.86953945  1
  Sr  Sr54  1  0.20807101  -0.00943777  0.34679288  1
  Sr  Sr55  1  0.15114175  -0.02314451  0.88398255  1
  Sr  Sr56  1  0.17686262  0.32877787  0.38568189  1
  Sr  Sr57  1  0.16402798  0.35187638  0.83104726  1
  Sr  Sr58  1  0.18306519  0.68006540  0.38069261  1
  Sr  Sr59  1  0.14703600  0.65233909  0.93366919  1
  Sr  Sr60  1  0.47864700  -0.00242041  0.36286992  1
  Sr  Sr61  1  0.55654433  0.01630260  0.83825519  1
  Sr  Sr62  1  0.50680175  0.35352379  0.32795773  1
  Sr  Sr63  1  0.49679386  0.33210257  0.88469366  1
  Sr  Sr64  1  0.49972044  0.66365576  0.41613122  1
  Sr  Sr65  1  0.47758272  0.66448477  0.85881373  1
  Sr  Sr66  1  0.86762495  0.00229225  0.34952504  1
  Sr  Sr67  1  0.84799110  -0.00789086  0.90574479  1
  Sr  Sr68  1  0.81926588  0.32511999  0.41679126  1
  Sr  Sr69  1  0.84111597  0.34073871  0.86904619  1
  Sr  Sr70  1  0.84834544  0.66505030  0.37865914  1
  Sr  Sr71  1  0.84361734  0.68405094  0.83873778  1
  Ta  Ta72  1  0.16308717  0.22161769  0.00087728  1
  Ta  Ta73  1  0.16921378  0.11837369  0.50914260  1
  Ta  Ta74  1  0.18799113  0.47143849  0.00354265  1
  Ta  Ta75  1  0.12301046  0.49423186  0.50459141  1
  Ta  Ta76  1  0.10524605  0.82513542  0.03189303  1
  Ta  Ta77  1  0.18938853  0.85140175  0.50903818  1
  Ta  Ta78  1  0.57308563  0.16219632  -0.01065896  1
  Ta  Ta79  1  0.49582251  0.22182996  0.50026577  1
  Ta  Ta80  1  0.46284585  0.49989943  -0.00158312  1
  Ta  Ta81  1  0.49748449  0.46626521  0.49549538  1
  Ta  Ta82  1  0.48513480  0.86104237  -0.03083407  1
  Ta  Ta83  1  0.43750958  0.84421467  0.51421756  1
  Ta  Ta84  1  0.78533621  0.16753402  0.00296850  1
  Ta  Ta85  1  0.80690607  0.13942426  0.49416000  1
  Ta  Ta86  1  0.83315826  0.54634698  0.00335017  1
  Ta  Ta87  1  0.87212439  0.50061599  0.49974005  1
  Ta  Ta88  1  0.84056268  0.81107026  0.01964336  1
  Ta  Ta89  1  0.79232793  0.84027813  0.47408055  1
  Ta  Ta90  1  0.19546211  0.15791981  0.24409486  1
  Ta  Ta91  1  0.10993818  0.15923614  0.74988118  1
  Ta  Ta92  1  0.15767428  0.52523720  0.25901299  1
  Ta  Ta93  1  0.15779443  0.54161245  0.75420935  1
  Ta  Ta94  1  0.13565143  0.83597694  0.23950350  1
  Ta  Ta95  1  0.15041573  0.78121508  0.76754837  1
  Ta  Ta96  1  0.47579899  0.17200486  0.24148153  1
  Ta  Ta97  1  0.46666185  0.16870572  0.76160463  1
  Ta  Ta98  1  0.50020296  0.55033181  0.24703895  1
  Ta  Ta99  1  0.55287994  0.50889067  0.75201022  1
  Ta  Ta100  1  0.50482831  0.80131235  0.24341455  1
  Ta  Ta101  1  0.46920697  0.85674902  0.77939891  1
  Ta  Ta102  1  0.83268431  0.20494843  0.24896180  1
  Ta  Ta103  1  0.86748060  0.13999276  0.74761681  1
  Ta  Ta104  1  0.83198383  0.45903281  0.25606241  1
  Ta  Ta105  1  0.78491852  0.50828027  0.75228279  1
  Ta  Ta106  1  0.76094698  0.83550883  0.27017664  1
  Ta  Ta107  1  0.83380008  0.86953308  0.73141939  1
  Ta  Ta108  1  0.04916073  -0.01258780  0.24000189  1
  Ta  Ta109  1  -0.01246537  0.02058703  0.74477916  1
  Ta  Ta110  1  -0.03999101  0.33308974  0.25215470  1
  Ta  Ta111  1  -0.00595042  0.28093615  0.75636084  1
  Ta  Ta112  1  0.03601295  0.66724276  0.25572436  1
  Ta  Ta113  1  0.03507662  0.66098443  0.75537478  1
  Ta  Ta114  1  0.34225541  0.07694410  0.20248665  1
  Ta  Ta115  1  0.36966754  -0.00180168  0.77156222  1
  Ta  Ta116  1  0.33449949  0.26250355  0.23776580  1
  Ta  Ta117  1  0.34242011  0.30226788  0.74544843  1
  Ta  Ta118  1  0.38686171  0.67271416  0.23604348  1
  Ta  Ta119  1  0.28250663  0.66020764  0.76528361  1
  Ta  Ta120  1  0.66943909  -0.02815189  0.26310531  1
  Ta  Ta121  1  0.73672942  0.00660040  0.73362172  1
  Ta  Ta122  1  0.70841399  0.33606988  0.25164165  1
  Ta  Ta123  1  0.66936943  0.38423479  0.74442759  1
  Ta  Ta124  1  0.63146557  0.69526269  0.24551735  1
  Ta  Ta125  1  0.66923210  0.63173455  0.75422657  1
  Ta  Ta126  1  0.00145970  -0.05011693  0.03098034  1
  Ta  Ta127  1  0.06866244  -0.00560801  0.50150752  1
  Ta  Ta128  1  0.03868857  0.33243013  0.00056164  1
  Ta  Ta129  1  -0.00405374  0.36625898  0.49604283  1
  Ta  Ta130  1  -0.04077409  0.68789263  0.01449351  1
  Ta  Ta131  1  0.00190887  0.61644443  0.50175988  1
  Ta  Ta132  1  0.38441177  -0.00677000  -0.03889743  1
  Ta  Ta133  1  0.31419317  -0.03877144  0.52664532  1
  Ta  Ta134  1  0.29804538  0.34745956  -0.00695567  1
  Ta  Ta135  1  0.37028775  0.33211707  0.49631153  1
  Ta  Ta136  1  0.33713718  0.61155336  0.00642186  1
  Ta  Ta137  1  0.33157211  0.72464276  0.50520415  1
  Ta  Ta138  1  0.67798242  0.03220392  -0.01091610  1
  Ta  Ta139  1  0.70327348  -0.00147972  0.50622632  1
  Ta  Ta140  1  0.67268818  0.29933462  -0.00061319  1
  Ta  Ta141  1  0.62659797  0.33572477  0.49634772  1
  Ta  Ta142  1  0.71980514  0.67164460  0.00469397  1
  Ta  Ta143  1  0.68532651  0.69369475  0.49954736  1
  N  N144  1  -0.00257133  0.32586204  0.87342346  1
  N  N145  1  0.02334218  -0.00494542  0.62718211  1
  N  N146  1  0.17220509  0.49871292  0.38878821  1
  N  N147  1  0.13976046  0.81449325  0.89525432  1
  N  N148  1  0.35148378  0.02962356  0.08147540  1
  N  N149  1  0.35427226  0.67623198  0.11319412  1
  N  N150  1  0.50282885  0.49988660  0.87858882  1
  N  N151  1  0.52748912  0.17234397  0.86449704  1
  N  N152  1  0.32981375  0.33118933  0.61586633  1
  N  N153  1  0.80612802  0.83076575  0.13909936  1
  N  N154  1  0.33291819  -0.00604597  0.65292833  1
  N  N155  1  0.16823304  0.83506291  0.36276134  1
  N  N156  1  -0.00126668  0.32705059  0.37838269  1
  N  N157  1  0.66174345  0.33704455  0.36680562  1
  N  N158  1  0.16066356  0.50055551  0.88328412  1
  N  N159  1  0.31867366  0.65566417  0.88449000  1
  N  N160  1  0.82743760  0.16933492  0.11978254  1
  N  N161  1  0.50004177  0.51123774  0.37260314  1
  N  N162  1  0.84646724  0.83595955  0.36077979  1
  N  N163  1  0.66466361  0.34525293  0.62291474  1
  N  N164  1  0.16842169  0.49793670  0.13599357  1
  N  N165  1  0.00679466  0.66430806  0.37729126  1
  N  N166  1  0.29767352  -0.01099807  0.87958153  1
  N  N167  1  0.00108691  0.33796824  0.12462232  1
  N  N168  1  0.16284230  0.82292379  0.63218902  1
  N  N169  1  0.70268280  0.01297014  0.85438057  1
  N  N170  1  0.82930188  0.15991465  0.37060652  1
  N  N171  1  0.32796227  0.32820355  0.87173769  1
  N  N172  1  0.16074737  0.15136921  0.63269541  1
  N  N173  1  0.83323927  0.49654371  0.37910775  1
  N  N174  1  0.66891500  0.67432882  0.12287562  1
  N  N175  1  0.15575105  0.49430006  0.63711408  1
  N  N176  1  0.18902238  0.83498011  0.11567770  1
  O  O177  1  0.47244515  0.83861476  0.36973708  1
  O  O178  1  0.49494018  0.83940995  0.10180427  1
  O  O179  1  0.52115507  0.50630903  0.61734000  1
  O  O180  1  0.33255565  0.29989737  0.36638222  1
  O  O181  1  0.53953460  0.80549929  0.86850928  1
  O  O182  1  0.83434260  0.50930113  0.12794988  1
  O  O183  1  0.68558137  0.67325026  0.87500885  1
  O  O184  1  -0.02550487  0.00876118  0.14082830  1
  O  O185  1  -0.00211183  -0.01432610  0.89883455  1
  O  O186  1  0.67161753  -0.00242753  0.13281707  1
  O  O187  1  0.48873339  0.18026157  0.37626487  1
  O  O188  1  0.83605156  0.84162330  0.60522913  1
  O  O189  1  -0.01455313  0.32401110  0.62882124  1
  O  O190  1  0.83533112  0.84121967  0.86293491  1
  O  O191  1  0.66543037  0.31796661  0.12855129  1
  O  O192  1  0.50946759  0.49970728  0.12540529  1
  O  O193  1  0.33563372  0.31553268  0.12002474  1
  O  O194  1  -0.01242660  0.67404527  0.88624768  1
  O  O195  1  0.84994015  0.15812664  0.61443383  1
  O  O196  1  0.16149938  0.17866378  0.12061198  1
  O  O197  1  0.34600913  0.68402441  0.38083537  1
  O  O198  1  0.34966536  -0.01938385  0.27427654  1
  O  O199  1  0.65217400  0.67324739  0.38104878  1
  O  O200  1  0.18678551  0.14593664  0.37296315  1
  O  O201  1  0.68594667  0.68077591  0.62870363  1
  O  O202  1  0.67195275  0.33652513  0.87448164  1
  O  O203  1  0.00041986  0.65576964  0.62893479  1
  O  O204  1  0.04008760  -0.00332173  0.36849200  1
  O  O205  1  0.47114574  0.84394105  0.64548696  1
  O  O206  1  0.83139277  0.52547114  0.87520286  1
  O  O207  1  0.84119295  0.15353361  0.87636069  1
  O  O208  1  0.52197838  0.16686556  0.11042774  1
  O  O209  1  -0.02727122  0.67177311  0.14177242  1
  O  O210  1  0.13951708  0.17026694  0.88086837  1
  O  O211  1  0.32071497  0.67791491  0.62793877  1
  O  O212  1  0.82911899  0.50941918  0.62847610  1
  O  O213  1  0.49683398  0.17514572  0.62626364  1
  O  O214  1  0.64448966  -0.00147245  0.38647654  1
  O  O215  1  0.65772901  -0.00405709  0.62803392  1
