# generated using pymatgen
data_Sr24Ta24N11O13
_symmetry_space_group_name_H-M   'P 1'
_cell_length_a   16.80502619
_cell_length_b   16.77304559
_cell_length_c   15.76334069
_cell_angle_alpha   89.98270020
_cell_angle_beta   90.12788411
_cell_angle_gamma   90.28407542
_symmetry_Int_Tables_number   1
_chemical_formula_structural   Sr24Ta24N11O13
_chemical_formula_sum   'Sr72 Ta72 N33 O39'
_cell_volume   4443.17015210
_cell_formula_units_Z   3
loop_
 _symmetry_equiv_pos_site_id
 _symmetry_equiv_pos_as_xyz
  1  'x, y, z'
loop_
 _atom_site_type_symbol
 _atom_site_label
 _atom_site_symmetry_multiplicity
 _atom_site_fract_x
 _atom_site_fract_y
 _atom_site_fract_z
 _atom_site_occupancy
  Sr  Sr0  1  0.00975186  0.17638904  0.08428315  1
  Sr  Sr1  1  0.00720708  0.16228521  0.63196952  1
  Sr  Sr2  1  0.01441621  0.48866772  0.17648091  1
  Sr  Sr3  1  -0.01697655  0.49524643  0.61633555  1
  Sr  Sr4  1  0.00669912  0.83055845  0.11517906  1
  Sr  Sr5  1  -0.01217221  0.83416468  0.62766199  1
  Sr  Sr6  1  0.34741827  0.15990564  0.12373749  1
  Sr  Sr7  1  0.34931628  0.16414248  0.65968715  1
  Sr  Sr8  1  0.32269208  0.50823520  0.08496177  1
  Sr  Sr9  1  0.33899327  0.50349030  0.62474121  1
  Sr  Sr10  1  0.33404248  0.82063887  0.16560831  1
  Sr  Sr11  1  0.32457922  0.84339106  0.62130131  1
  Sr  Sr12  1  0.68085265  0.16066809  0.11186203  1
  Sr  Sr13  1  0.67118273  0.15541896  0.61837452  1
  Sr  Sr14  1  0.66973206  0.50328380  0.11980997  1
  Sr  Sr15  1  0.66167463  0.49982078  0.66364805  1
  Sr  Sr16  1  0.65676076  0.83255509  0.12931021  1
  Sr  Sr17  1  0.65187612  0.81622391  0.59192431  1
  Sr  Sr18  1  0.16898373  -0.00150181  0.13121225  1
  Sr  Sr19  1  0.15520720  -0.01640950  0.57991500  1
  Sr  Sr20  1  0.16666478  0.33689976  0.12226201  1
  Sr  Sr21  1  0.14909130  0.33015990  0.61492332  1
  Sr  Sr22  1  0.16195555  0.66534798  0.12105705  1
  Sr  Sr23  1  0.18658303  0.66824347  0.66602583  1
  Sr  Sr24  1  0.51786031  0.02047304  0.07611638  1
  Sr  Sr25  1  0.51058901  0.00590451  0.63705959  1
  Sr  Sr26  1  0.48457825  0.33265263  0.15997083  1
  Sr  Sr27  1  0.49258269  0.35407009  0.62304542  1
  Sr  Sr28  1  0.51516122  0.66337429  0.13337942  1
  Sr  Sr29  1  0.49127985  0.67842014  0.58661159  1
  Sr  Sr30  1  0.83081706  -0.01887263  0.15374917  1
  Sr  Sr31  1  0.84454781  0.01537602  0.65584757  1
  Sr  Sr32  1  0.83337910  0.34608395  0.14002158  1
  Sr  Sr33  1  0.81614908  0.31854665  0.58456923  1
  Sr  Sr34  1  0.84673612  0.67390622  0.09149621  1
  Sr  Sr35  1  0.82576741  0.65523418  0.63840634  1
  Sr  Sr36  1  0.02433825  0.16014482  0.40991239  1
  Sr  Sr37  1  0.00066136  0.16440849  0.86870075  1
  Sr  Sr38  1  -0.00188183  0.49774756  0.38414976  1
  Sr  Sr39  1  -0.00118196  0.49839848  0.83828758  1
  Sr  Sr40  1  -0.00406407  0.84275103  0.37177477  1
  Sr  Sr41  1  -0.00279180  0.83021654  0.88554755  1
  Sr  Sr42  1  0.33571580  0.18065442  0.32944085  1
  Sr  Sr43  1  0.35123600  0.15134493  0.87655841  1
  Sr  Sr44  1  0.34032579  0.49192989  0.41750644  1
  Sr  Sr45  1  0.32999759  0.50926875  0.87786810  1
  Sr  Sr46  1  0.32527543  0.83529842  0.37602296  1
  Sr  Sr47  1  0.33213678  0.83565791  0.83572453  1
  Sr  Sr48  1  0.67259360  0.17458800  0.39171796  1
  Sr  Sr49  1  0.67141410  0.14492029  0.87156266  1
  Sr  Sr50  1  0.64743836  0.49644642  0.32894639  1
  Sr  Sr51  1  0.67571950  0.50144292  0.88242227  1
  Sr  Sr52  1  0.66325151  0.83147685  0.37206106  1
  Sr  Sr53  1  0.64062470  0.82752651  0.90376572  1
  Sr  Sr54  1  0.16967594  -0.00254640  0.36777740  1
  Sr  Sr55  1  0.14856976  -0.00193063  0.91734501  1
  Sr  Sr56  1  0.16006732  0.34573547  0.38433917  1
  Sr  Sr57  1  0.14702583  0.32580654  0.87686363  1
  Sr  Sr58  1  0.15725864  0.66410510  0.33615489  1
  Sr  Sr59  1  0.17782350  0.66143176  0.88117190  1
  Sr  Sr60  1  0.52871494  0.01981509  0.41068504  1
  Sr  Sr61  1  0.49721877  -0.00594218  0.85988128  1
  Sr  Sr62  1  0.49171633  0.33771395  0.37450902  1
  Sr  Sr63  1  0.48663156  0.35888004  0.84185363  1
  Sr  Sr64  1  0.49686187  0.67855438  0.36637012  1
  Sr  Sr65  1  0.50892646  0.65951740  0.91227595  1
  Sr  Sr66  1  0.82982921  -0.00455212  0.34944400  1
  Sr  Sr67  1  0.84567820  -0.00613502  0.84630499  1
  Sr  Sr68  1  0.82571794  0.34207490  0.36051102  1
  Sr  Sr69  1  0.81506851  0.31294692  0.92615137  1
  Sr  Sr70  1  0.85144481  0.67619380  0.42427584  1
  Sr  Sr71  1  0.83362848  0.65651176  0.86174919  1
  Ta  Ta72  1  0.19686660  0.17276167  0.00212564  1
  Ta  Ta73  1  0.21815916  0.16211451  0.49706288  1
  Ta  Ta74  1  0.12864176  0.49608947  0.00282873  1
  Ta  Ta75  1  0.16464830  0.54055935  0.49750039  1
  Ta  Ta76  1  0.21472825  0.83064149  0.00171935  1
  Ta  Ta77  1  0.16066615  0.79146672  0.50242211  1
  Ta  Ta78  1  0.50482918  0.21904515  0.00378771  1
  Ta  Ta79  1  0.46466550  0.18040558  0.49430106  1
  Ta  Ta80  1  0.50339117  0.46268101  0.00933354  1
  Ta  Ta81  1  0.53601048  0.50602722  0.49540150  1
  Ta  Ta82  1  0.45253576  0.83777260  -0.00336168  1
  Ta  Ta83  1  0.47766970  0.85974947  0.50301245  1
  Ta  Ta84  1  0.84041810  0.11768813  -0.00226851  1
  Ta  Ta85  1  0.84619295  0.14041095  0.50224494  1
  Ta  Ta86  1  0.87140579  0.49725325  0.00371526  1
  Ta  Ta87  1  0.78322159  0.49324802  0.49888973  1
  Ta  Ta88  1  0.82183658  0.85086649  -0.00260417  1
  Ta  Ta89  1  0.82866539  0.86937321  0.50554168  1
  Ta  Ta90  1  0.13616642  0.17058621  0.24800046  1
  Ta  Ta91  1  0.17611875  0.13805678  0.74883273  1
  Ta  Ta92  1  0.20693113  0.49767474  0.25167009  1
  Ta  Ta93  1  0.17783204  0.48053361  0.75176585  1
  Ta  Ta94  1  0.15443265  0.83425212  0.24717607  1
  Ta  Ta95  1  0.15132604  0.85367951  0.74908762  1
  Ta  Ta96  1  0.52347262  0.14854951  0.24788674  1
  Ta  Ta97  1  0.52555269  0.19618552  0.74748984  1
  Ta  Ta98  1  0.45379842  0.50626431  0.25054749  1
  Ta  Ta99  1  0.49554602  0.54788773  0.74594446  1
  Ta  Ta100  1  0.50173142  0.88721996  0.24678454  1
  Ta  Ta101  1  0.51066312  0.80847314  0.74990747  1
  Ta  Ta102  1  0.87239820  0.16615778  0.24705125  1
  Ta  Ta103  1  0.83084067  0.21171714  0.74864658  1
  Ta  Ta104  1  0.83354622  0.55239570  0.25451104  1
  Ta  Ta105  1  0.82563826  0.42597688  0.75490266  1
  Ta  Ta106  1  0.83333180  0.78949435  0.25325061  1
  Ta  Ta107  1  0.78845405  0.82638275  0.74822535  1
  Ta  Ta108  1  0.00674346  0.03778482  0.24706195  1
  Ta  Ta109  1  0.04369501  -0.00189956  0.75012098  1
  Ta  Ta110  1  0.00433189  0.28874418  0.24871804  1
  Ta  Ta111  1  -0.04392133  0.32762589  0.75127108  1
  Ta  Ta112  1  -0.03015903  0.67381352  0.25292421  1
  Ta  Ta113  1  0.01356297  0.67787241  0.75428023  1
  Ta  Ta114  1  0.38983993  0.00356811  0.24733072  1
  Ta  Ta115  1  0.27117275  0.00022077  0.75197083  1
  Ta  Ta116  1  0.32062280  0.37427270  0.25172631  1
  Ta  Ta117  1  0.30383900  0.34010774  0.75017336  1
  Ta  Ta118  1  0.33326333  0.62582408  0.25307309  1
  Ta  Ta119  1  0.37657874  0.66709129  0.75372101  1
  Ta  Ta120  1  0.63777670  0.00521544  0.24272324  1
  Ta  Ta121  1  0.67121930  -0.04926493  0.74898096  1
  Ta  Ta122  1  0.65423540  0.30909324  0.24759129  1
  Ta  Ta123  1  0.67862757  0.31622985  0.75042349  1
  Ta  Ta124  1  0.71300363  0.67029488  0.25125963  1
  Ta  Ta125  1  0.64133536  0.68399851  0.74904905  1
  Ta  Ta126  1  -0.03948434  -0.00112335  0.00239824  1
  Ta  Ta127  1  -0.03596997  -0.00447480  0.50016103  1
  Ta  Ta128  1  -0.00818732  0.37673090  0.00746856  1
  Ta  Ta129  1  -0.01853566  0.32290616  0.49021436  1
  Ta  Ta130  1  0.00265190  0.61382740  0.00761644  1
  Ta  Ta131  1  0.04362998  0.66887339  0.49915977  1
  Ta  Ta132  1  0.33060410  -0.02954650  -0.00537709  1
  Ta  Ta133  1  0.34640546  0.03385470  0.49967608  1
  Ta  Ta134  1  0.34525235  0.32199799  0.00513391  1
  Ta  Ta135  1  0.32735251  0.29449942  0.49542118  1
  Ta  Ta136  1  0.33749489  0.70618615  -0.00095924  1
  Ta  Ta137  1  0.29526971  0.67244476  0.49351356  1
  Ta  Ta138  1  0.71020368  -0.00948868  -0.00604047  1
  Ta  Ta139  1  0.71169691  -0.00839624  0.50804956  1
  Ta  Ta140  1  0.62420184  0.33594506  0.00402028  1
  Ta  Ta141  1  0.65432268  0.37218661  0.49346468  1
  Ta  Ta142  1  0.68778549  0.67017471  0.00055526  1
  Ta  Ta143  1  0.66880975  0.62484632  0.50060155  1
  N  N144  1  0.50115711  0.51594084  0.62632722  1
  N  N145  1  0.67506313  0.66395168  0.12957914  1
  N  N146  1  0.66580124  0.65956140  0.62279041  1
  N  N147  1  0.32765346  0.33413111  0.37712426  1
  N  N148  1  0.48783309  0.83506284  0.87599418  1
  N  N149  1  0.67068021  -0.00247662  0.12408721  1
  N  N150  1  0.83625421  0.16857575  0.62584062  1
  N  N151  1  0.31527993  -0.00676981  0.87120324  1
  N  N152  1  -0.00477619  0.33737450  0.37082125  1
  N  N153  1  0.00209641  0.65344441  0.12755526  1
  N  N154  1  0.16111791  0.82812046  0.62788729  1
  N  N155  1  0.65982327  0.33426862  0.36766110  1
  N  N156  1  -0.00091588  0.00307986  0.12169709  1
  N  N157  1  0.17343521  0.83484873  0.12689780  1
  N  N158  1  0.16754137  0.50493831  0.37915543  1
  N  N159  1  0.66871642  -0.01329813  0.87525916  1
  N  N160  1  0.49465539  0.50987733  0.37753207  1
  N  N161  1  0.00139219  -0.00093597  0.86862845  1
  N  N162  1  0.49863266  0.17509780  0.37536245  1
  N  N163  1  0.67327926  -0.00657108  0.62535007  1
  N  N164  1  0.16850461  0.49991328  0.12154583  1
  N  N165  1  -0.00530408  0.33593668  0.13131536  1
  N  N166  1  0.32821894  0.33709997  0.12515511  1
  N  N167  1  -0.00214960  0.00474123  0.37406266  1
  N  N168  1  0.32879133  0.66607506  0.37403278  1
  N  N169  1  0.50549726  0.17538830  0.12106596  1
  N  N170  1  0.66842874  0.66030541  0.87322662  1
  N  N171  1  0.34165429  0.67051155  0.87325718  1
  N  N172  1  0.49461527  0.50221022  0.12444301  1
  N  N173  1  0.49094689  0.84493510  0.62392796  1
  N  N174  1  0.00330259  0.00059648  0.62284506  1
  N  N175  1  0.16383530  0.49585471  0.87284621  1
  N  N176  1  0.00288644  0.66792869  0.37939640  1
  O  O177  1  0.85068177  0.15669766  0.36842658  1
  O  O178  1  0.84922334  0.16039219  0.12065661  1
  O  O179  1  0.80920387  0.47196025  0.62444234  1
  O  O180  1  0.82821435  0.82881731  0.12370698  1
  O  O181  1  0.18187089  0.16035311  0.87922523  1
  O  O182  1  0.68003874  0.33204277  0.12265313  1
  O  O183  1  0.50646945  0.19203128  0.62250205  1
  O  O184  1  0.01271105  0.67049574  0.63079616  1
  O  O185  1  0.49622481  0.85955317  0.12069712  1
  O  O186  1  0.33447275  0.66727471  0.12309658  1
  O  O187  1  0.31636452  0.00970774  0.62362426  1
  O  O188  1  0.18304080  0.16905977  0.12855626  1
  O  O189  1  0.81871188  0.82921267  0.86939688  1
  O  O190  1  -0.02028817  0.33250713  0.88615234  1
  O  O191  1  0.17172473  0.83318778  0.88234891  1
  O  O192  1  0.83711394  0.46813267  0.87617414  1
  O  O193  1  0.33428815  0.66988592  0.62015134  1
  O  O194  1  0.66285466  0.32702218  0.88044510  1
  O  O195  1  0.16196625  0.83649424  0.38151462  1
  O  O196  1  0.50456937  0.86460647  0.37701959  1
  O  O197  1  0.36018788  0.00014857  0.12489641  1
  O  O198  1  0.31389554  0.32579575  0.62604896  1
  O  O199  1  0.19025477  0.15551008  0.61927179  1
  O  O200  1  0.82862222  0.83007245  0.37969335  1
  O  O201  1  0.49998416  0.50479717  0.88212824  1
  O  O202  1  0.17259078  0.50143354  0.62202578  1
  O  O203  1  0.18326468  0.15915671  0.37123348  1
  O  O204  1  0.80952273  0.50544095  0.37383870  1
  O  O205  1  0.84551989  0.51189893  0.13289563  1
  O  O206  1  0.00574827  0.65601947  0.87789448  1
  O  O207  1  0.81170445  0.81476302  0.62197622  1
  O  O208  1  0.66268773  0.33554473  0.62350416  1
  O  O209  1  -0.02249240  0.33014955  0.62313364  1
  O  O210  1  0.67587738  -0.00668078  0.37034979  1
  O  O211  1  0.67492186  0.67168866  0.38045562  1
  O  O212  1  0.50891092  0.19640367  0.87066504  1
  O  O213  1  0.83495796  0.16669160  0.87253486  1
  O  O214  1  0.36670582  0.01972533  0.37657071  1
  O  O215  1  0.32347870  0.33521043  0.87243389  1
