# generated using pymatgen
data_Sr24Ta24N11O13
_symmetry_space_group_name_H-M   'P 1'
_cell_length_a   16.75183518
_cell_length_b   16.78578628
_cell_length_c   15.73264375
_cell_angle_alpha   90.17558433
_cell_angle_beta   89.87028738
_cell_angle_gamma   89.92254141
_symmetry_Int_Tables_number   1
_chemical_formula_structural   Sr24Ta24N11O13
_chemical_formula_sum   'Sr72 Ta72 N33 O39'
_cell_volume   4423.86877799
_cell_formula_units_Z   3
loop_
 _symmetry_equiv_pos_site_id
 _symmetry_equiv_pos_as_xyz
  1  'x, y, z'
loop_
 _atom_site_type_symbol
 _atom_site_label
 _atom_site_symmetry_multiplicity
 _atom_site_fract_x
 _atom_site_fract_y
 _atom_site_fract_z
 _atom_site_occupancy
  Sr  Sr0  1  0.00607920  0.15811252  0.12929565  1
  Sr  Sr1  1  -0.00099000  0.14869238  0.65091444  1
  Sr  Sr2  1  -0.00577169  0.51695147  0.17338025  1
  Sr  Sr3  1  0.01617518  0.49268491  0.61088666  1
  Sr  Sr4  1  -0.00839462  0.82299768  0.09152460  1
  Sr  Sr5  1  0.01453292  0.82878303  0.61734414  1
  Sr  Sr6  1  0.33160709  0.17239819  0.12000870  1
  Sr  Sr7  1  0.34055447  0.15860953  0.58963499  1
  Sr  Sr8  1  0.33145435  0.50145194  0.11862510  1
  Sr  Sr9  1  0.36830725  0.47086358  0.70580563  1
  Sr  Sr10  1  0.33289673  0.84522527  0.13214725  1
  Sr  Sr11  1  0.32749112  0.83814148  0.65373218  1
  Sr  Sr12  1  0.66773812  0.16375318  0.10928752  1
  Sr  Sr13  1  0.66341261  0.17585094  0.66686064  1
  Sr  Sr14  1  0.67249889  0.51046499  0.11810421  1
  Sr  Sr15  1  0.65729931  0.47998506  0.58676389  1
  Sr  Sr16  1  0.68285516  0.82689042  0.17157368  1
  Sr  Sr17  1  0.65908188  0.85638246  0.60514608  1
  Sr  Sr18  1  0.16917474  0.00902767  0.16399400  1
  Sr  Sr19  1  0.17152646  -0.00312059  0.62849780  1
  Sr  Sr20  1  0.18043357  0.31650010  0.06746865  1
  Sr  Sr21  1  0.16758963  0.34115014  0.63652620  1
  Sr  Sr22  1  0.18766301  0.66719831  0.14098111  1
  Sr  Sr23  1  0.15497596  0.66806738  0.58408308  1
  Sr  Sr24  1  0.51382337  -0.00725227  0.12415233  1
  Sr  Sr25  1  0.49412086  0.00727889  0.59278023  1
  Sr  Sr26  1  0.49276291  0.33467878  0.16596491  1
  Sr  Sr27  1  0.50615231  0.32878909  0.61867937  1
  Sr  Sr28  1  0.50397044  0.61549046  0.05079270  1
  Sr  Sr29  1  0.50627332  0.68454746  0.63232249  1
  Sr  Sr30  1  0.84751358  -0.00730811  0.09751132  1
  Sr  Sr31  1  0.82604370  0.01678930  0.62899619  1
  Sr  Sr32  1  0.83628911  0.32523973  0.13233332  1
  Sr  Sr33  1  0.83447069  0.35556907  0.58985426  1
  Sr  Sr34  1  0.81931830  0.66015467  0.12269190  1
  Sr  Sr35  1  0.87063030  0.66370418  0.68089484  1
  Sr  Sr36  1  -0.00690759  0.14970204  0.34952885  1
  Sr  Sr37  1  0.01220467  0.16283342  0.86901772  1
  Sr  Sr38  1  -0.00257652  0.49190154  0.38314657  1
  Sr  Sr39  1  -0.01244845  0.50031188  0.82910605  1
  Sr  Sr40  1  0.01007432  0.83785111  0.41176759  1
  Sr  Sr41  1  -0.00204876  0.81805376  0.88642935  1
  Sr  Sr42  1  0.33107159  0.18162063  0.38106021  1
  Sr  Sr43  1  0.33708441  0.16220196  0.90437731  1
  Sr  Sr44  1  0.31600719  0.51600255  0.34617331  1
  Sr  Sr45  1  0.32577654  0.51154002  0.89969245  1
  Sr  Sr46  1  0.31609405  0.81713038  0.33651641  1
  Sr  Sr47  1  0.33391640  0.84579679  0.86861523  1
  Sr  Sr48  1  0.66472946  0.18559279  0.33382880  1
  Sr  Sr49  1  0.66716569  0.17010503  0.87974404  1
  Sr  Sr50  1  0.65363302  0.51853495  0.38516415  1
  Sr  Sr51  1  0.67914694  0.51432103  0.91239836  1
  Sr  Sr52  1  0.65935233  0.82235942  0.38941586  1
  Sr  Sr53  1  0.66485806  0.81095379  0.81544341  1
  Sr  Sr54  1  0.17016011  0.00704911  0.36974142  1
  Sr  Sr55  1  0.16734400  -0.01270213  0.84172451  1
  Sr  Sr56  1  0.16637133  0.36284616  0.41590751  1
  Sr  Sr57  1  0.16632319  0.33746053  0.86007975  1
  Sr  Sr58  1  0.14898338  0.65096587  0.36799138  1
  Sr  Sr59  1  0.17095044  0.67398036  0.92421912  1
  Sr  Sr60  1  0.51713916  -0.01524858  0.36876447  1
  Sr  Sr61  1  0.49209747  0.01593663  0.91628233  1
  Sr  Sr62  1  0.49850865  0.34815060  0.37982435  1
  Sr  Sr63  1  0.50784938  0.32804302  0.82607581  1
  Sr  Sr64  1  0.51724425  0.66759361  0.41236413  1
  Sr  Sr65  1  0.48750299  0.67604416  0.84506520  1
  Sr  Sr66  1  0.83469357  -0.01677227  0.40315923  1
  Sr  Sr67  1  0.81725142  0.01491840  0.86991435  1
  Sr  Sr68  1  0.84819469  0.31761578  0.36481910  1
  Sr  Sr69  1  0.81550201  0.34227933  0.90324400  1
  Sr  Sr70  1  0.80081499  0.66513484  0.34390967  1
  Sr  Sr71  1  0.83580638  0.66278435  0.88516398  1
  Ta  Ta72  1  0.16500741  0.12621244  0.00014195  1
  Ta  Ta73  1  0.14169761  0.16874404  0.49915818  1
  Ta  Ta74  1  0.09974167  0.49253966  -0.00500108  1
  Ta  Ta75  1  0.26520023  0.51430528  0.54909379  1
  Ta  Ta76  1  0.17253024  0.86492487  0.00796339  1
  Ta  Ta77  1  0.20302056  0.84098804  0.49122065  1
  Ta  Ta78  1  0.50260699  0.22119316  -0.00628017  1
  Ta  Ta79  1  0.53458288  0.17152164  0.49994919  1
  Ta  Ta80  1  0.49935051  0.43785756  -0.01293924  1
  Ta  Ta81  1  0.44535239  0.50506560  0.50683459  1
  Ta  Ta82  1  0.51296952  0.82207352  -0.00615992  1
  Ta  Ta83  1  0.44656364  0.83647483  0.49253950  1
  Ta  Ta84  1  0.85375276  0.17558866  -0.00722330  1
  Ta  Ta85  1  0.81152740  0.17112784  0.50015533  1
  Ta  Ta86  1  0.87920928  0.49707530  0.00402994  1
  Ta  Ta87  1  0.83666412  0.54627040  0.51167322  1
  Ta  Ta88  1  0.79943158  0.83050243  -0.00420870  1
  Ta  Ta89  1  0.83879023  0.78438764  0.50544112  1
  Ta  Ta90  1  0.17108879  0.21938517  0.24585702  1
  Ta  Ta91  1  0.20358035  0.16351767  0.75420270  1
  Ta  Ta92  1  0.16311881  0.43214705  0.23063096  1
  Ta  Ta93  1  0.17582125  0.54057417  0.75043256  1
  Ta  Ta94  1  0.12258947  0.83052741  0.24844397  1
  Ta  Ta95  1  0.16024755  0.79809850  0.76002236  1
  Ta  Ta96  1  0.48775050  0.14949710  0.24746079  1
  Ta  Ta97  1  0.47987232  0.14256049  0.75077634  1
  Ta  Ta98  1  0.50068501  0.52358789  0.25332661  1
  Ta  Ta99  1  0.55398642  0.50459471  0.75639914  1
  Ta  Ta100  1  0.49871578  0.80223531  0.24573078  1
  Ta  Ta101  1  0.49618437  0.88858872  0.75196907  1
  Ta  Ta102  1  0.82630804  0.12344305  0.24999208  1
  Ta  Ta103  1  0.83720224  0.21521443  0.74576383  1
  Ta  Ta104  1  0.81323806  0.48331587  0.25439391  1
  Ta  Ta105  1  0.80543116  0.48741878  0.75034885  1
  Ta  Ta106  1  0.86775016  0.83919467  0.25500011  1
  Ta  Ta107  1  0.85097393  0.85238820  0.74447916  1
  Ta  Ta108  1  -0.01506170  -0.03723901  0.25146856  1
  Ta  Ta109  1  -0.01548013  -0.03083562  0.74996456  1
  Ta  Ta110  1  0.03285050  0.32473143  0.25191956  1
  Ta  Ta111  1  -0.03587125  0.32614977  0.74534451  1
  Ta  Ta112  1  -0.01593685  0.70818519  0.25497172  1
  Ta  Ta113  1  0.05269677  0.66991866  0.75788140  1
  Ta  Ta114  1  0.35881582  0.02243511  0.24534803  1
  Ta  Ta115  1  0.35278943  0.02411386  0.75486022  1
  Ta  Ta116  1  0.30171674  0.33565389  0.24765446  1
  Ta  Ta117  1  0.33353827  0.28073665  0.75363937  1
  Ta  Ta118  1  0.40215984  0.66406716  0.23525620  1
  Ta  Ta119  1  0.28921254  0.66508883  0.75322969  1
  Ta  Ta120  1  0.69189423  0.00955138  0.24664612  1
  Ta  Ta121  1  0.62470072  -0.00164238  0.75287094  1
  Ta  Ta122  1  0.67506152  0.36522667  0.25427437  1
  Ta  Ta123  1  0.68858583  0.36064580  0.75016996  1
  Ta  Ta124  1  0.58646268  0.66599785  0.21746358  1
  Ta  Ta125  1  0.67990346  0.62496818  0.73992549  1
  Ta  Ta126  1  0.03805567  -0.00119501  0.00466387  1
  Ta  Ta127  1  0.01479398  0.02248737  0.50100310  1
  Ta  Ta128  1  -0.00793911  0.35429261  -0.00024875  1
  Ta  Ta129  1  0.00621278  0.28168772  0.49744094  1
  Ta  Ta130  1  -0.00137477  0.62925809  0.00042547  1
  Ta  Ta131  1  -0.04315867  0.66377810  0.49275295  1
  Ta  Ta132  1  0.29663842  -0.00225786  0.00270284  1
  Ta  Ta133  1  0.32783139  -0.03458955  0.49115980  1
  Ta  Ta134  1  0.37171862  0.33503169  -0.01288484  1
  Ta  Ta135  1  0.33885093  0.37099682  0.50832471  1
  Ta  Ta136  1  0.34852301  0.70221818  -0.00053789  1
  Ta  Ta137  1  0.33975609  0.67245694  0.50122596  1
  Ta  Ta138  1  0.66629690  -0.07477391  -0.00491148  1
  Ta  Ta139  1  0.66658617  0.06624514  0.49852097  1
  Ta  Ta140  1  0.63209001  0.33672079  -0.00357345  1
  Ta  Ta141  1  0.66919336  0.28751672  0.50174467  1
  Ta  Ta142  1  0.65978392  0.72647096  -0.00334753  1
  Ta  Ta143  1  0.71908827  0.66949058  0.55177928  1
  N  N144  1  0.48178209  0.50749606  0.38547032  1
  N  N145  1  0.48761576  0.82866333  0.37596201  1
  N  N146  1  0.65059907  0.66938983  0.10345382  1
  N  N147  1  0.33922822  0.00430031  0.12349555  1
  N  N148  1  0.66902969  0.32843193  0.61810313  1
  N  N149  1  0.66392495  0.33492518  0.87267425  1
  N  N150  1  0.00547947  0.66102651  0.87473683  1
  N  N151  1  0.00594939  0.32020149  0.37742884  1
  N  N152  1  0.00056282  -0.00622065  0.37902389  1
  N  N153  1  0.33533845  0.33653643  0.86216389  1
  N  N154  1  0.83503136  0.15538583  0.36812913  1
  N  N155  1  0.83783070  0.50105911  0.88552987  1
  N  N156  1  0.50095082  0.16699717  0.62256198  1
  N  N157  1  0.16152789  0.82723733  0.88034845  1
  N  N158  1  0.17531380  0.49814030  0.63371060  1
  N  N159  1  0.83425227  0.17290836  0.87300880  1
  N  N160  1  0.00519740  -0.00789958  0.12418746  1
  N  N161  1  0.16161610  0.82737436  0.12804151  1
  N  N162  1  0.16993727  0.17194566  0.13022455  1
  N  N163  1  0.50331144  0.17478918  0.87683776  1
  N  N164  1  0.33279593  0.00422071  0.87611395  1
  N  N165  1  0.83791317  0.49707806  0.13273142  1
  N  N166  1  0.84564119  0.50672483  0.63309818  1
  N  N167  1  0.49482767  0.84484360  0.87083702  1
  N  N168  1  0.16417479  0.82913522  0.37505693  1
  N  N169  1  0.32954744  0.67308009  0.87241045  1
  N  N170  1  0.50820829  0.49614630  0.87070480  1
  N  N171  1  0.17371191  0.15926388  0.87526402  1
  N  N172  1  -0.01315698  0.65804514  0.36736336  1
  N  N173  1  0.66157709  0.71076986  0.65901334  1
  N  N174  1  0.00098782  -0.01146752  0.62549619  1
  N  N175  1  0.83406337  0.17500247  0.62716278  1
  N  N176  1  0.35300212  0.66134111  0.11703862  1
  O  O177  1  0.01098268  0.66674633  0.62876095  1
  O  O178  1  -0.01572508  0.34005045  0.86779125  1
  O  O179  1  0.84970500  0.84218817  0.61796184  1
  O  O180  1  0.14483203  0.49568484  0.87370280  1
  O  O181  1  0.16835226  0.17554799  0.37411034  1
  O  O182  1  0.33144762  0.68642962  0.62807667  1
  O  O183  1  0.33117672  0.33420318  0.12053555  1
  O  O184  1  0.33179287  -0.01213575  0.36361071  1
  O  O185  1  -0.01353315  0.66600642  0.12805664  1
  O  O186  1  0.32130322  0.35375075  0.37639602  1
  O  O187  1  0.67785803  0.66988160  0.87326774  1
  O  O188  1  0.66499251  0.34150172  0.37979127  1
  O  O189  1  0.33287594  -0.00348130  0.61690463  1
  O  O190  1  0.35951419  0.66579325  0.37314011  1
  O  O191  1  -0.00086148  0.33092411  0.12138880  1
  O  O192  1  0.50133083  0.17888910  0.12459662  1
  O  O193  1  -0.00903472  0.32469580  0.61765996  1
  O  O194  1  0.83796012  0.15358755  0.12151550  1
  O  O195  1  0.67183355  0.02713104  0.37155518  1
  O  O196  1  0.82345422  0.51460250  0.37980726  1
  O  O197  1  0.64835614  0.02045139  0.62741990  1
  O  O198  1  0.65411677  -0.02784167  0.87747138  1
  O  O199  1  0.82402191  0.82048774  0.37745111  1
  O  O200  1  0.65789481  0.35133950  0.13079969  1
  O  O201  1  0.16780404  0.16251302  0.62294216  1
  O  O202  1  0.14983663  0.50307271  0.32576341  1
  O  O203  1  0.67479985  -0.02573432  0.12385244  1
  O  O204  1  0.49040346  0.84742074  0.12630527  1
  O  O205  1  0.34354170  0.32630284  0.63298277  1
  O  O206  1  0.48093928  0.84848886  0.62351919  1
  O  O207  1  0.00869134  -0.01366817  0.87416782  1
  O  O208  1  0.82711190  0.83559665  0.86546912  1
  O  O209  1  0.50190451  0.50204647  0.63488298  1
  O  O210  1  0.17388301  0.82247493  0.61805844  1
  O  O211  1  0.14983920  0.47611915  0.11170168  1
  O  O212  1  0.48865930  0.47972189  0.12608100  1
  O  O213  1  0.83089421  0.83446121  0.12967318  1
  O  O214  1  0.66375282  0.67030819  0.44289847  1
  O  O215  1  0.49255947  0.16320261  0.37256215  1
