# generated using pymatgen
data_Sr24Ta24N11O13
_symmetry_space_group_name_H-M   'P 1'
_cell_length_a   16.83804866
_cell_length_b   16.75613280
_cell_length_c   15.76719824
_cell_angle_alpha   90.17947003
_cell_angle_beta   90.12785759
_cell_angle_gamma   89.81118795
_symmetry_Int_Tables_number   1
_chemical_formula_structural   Sr24Ta24N11O13
_chemical_formula_sum   'Sr72 Ta72 N33 O39'
_cell_volume   4448.50949218
_cell_formula_units_Z   3
loop_
 _symmetry_equiv_pos_site_id
 _symmetry_equiv_pos_as_xyz
  1  'x, y, z'
loop_
 _atom_site_type_symbol
 _atom_site_label
 _atom_site_symmetry_multiplicity
 _atom_site_fract_x
 _atom_site_fract_y
 _atom_site_fract_z
 _atom_site_occupancy
  Sr  Sr0  1  0.00664298  0.18047889  0.16550504  1
  Sr  Sr1  1  0.00316111  0.15833471  0.61708478  1
  Sr  Sr2  1  0.00118481  0.49065650  0.08426054  1
  Sr  Sr3  1  -0.00871617  0.50559747  0.63761943  1
  Sr  Sr4  1  0.00480759  0.84129911  0.11734437  1
  Sr  Sr5  1  0.04114649  0.84129783  0.65696440  1
  Sr  Sr6  1  0.34039804  0.16730514  0.10618668  1
  Sr  Sr7  1  0.34074763  0.16704031  0.62961974  1
  Sr  Sr8  1  0.32812578  0.50214650  0.12757481  1
  Sr  Sr9  1  0.33986135  0.50761535  0.67071101  1
  Sr  Sr10  1  0.35181428  0.84007510  0.12290472  1
  Sr  Sr11  1  0.33488331  0.81296394  0.58223617  1
  Sr  Sr12  1  0.68835191  0.16779301  0.09679895  1
  Sr  Sr13  1  0.67957707  0.19138239  0.62598269  1
  Sr  Sr14  1  0.67519998  0.49696981  0.13645202  1
  Sr  Sr15  1  0.64714657  0.50495643  0.57390501  1
  Sr  Sr16  1  0.67243691  0.84003141  0.13134102  1
  Sr  Sr17  1  0.68661425  0.83475931  0.64265829  1
  Sr  Sr18  1  0.15990512  -0.00342717  0.11021843  1
  Sr  Sr19  1  0.15474826  0.01350209  0.66365616  1
  Sr  Sr20  1  0.16331484  0.34098835  0.11913780  1
  Sr  Sr21  1  0.14607942  0.32730123  0.58704874  1
  Sr  Sr22  1  0.15721286  0.66790714  0.14653264  1
  Sr  Sr23  1  0.16359042  0.65831362  0.62699245  1
  Sr  Sr24  1  0.50019370  -0.00455418  0.16310761  1
  Sr  Sr25  1  0.47170092  -0.01330264  0.61683647  1
  Sr  Sr26  1  0.48171484  0.32894552  0.15949199  1
  Sr  Sr27  1  0.49418275  0.32867655  0.61800614  1
  Sr  Sr28  1  0.49170744  0.66329782  0.08459095  1
  Sr  Sr29  1  0.49309644  0.66160788  0.62804052  1
  Sr  Sr30  1  0.81951277  -0.00437116  0.09175445  1
  Sr  Sr31  1  0.82845558  -0.00325179  0.60664678  1
  Sr  Sr32  1  0.83031173  0.34866586  0.11441854  1
  Sr  Sr33  1  0.84543269  0.32421294  0.67746304  1
  Sr  Sr34  1  0.81871185  0.68299835  0.17695611  1
  Sr  Sr35  1  0.82565734  0.65461130  0.61215993  1
  Sr  Sr36  1  0.00165315  0.16836384  0.38126815  1
  Sr  Sr37  1  -0.00038037  0.16601504  0.83722724  1
  Sr  Sr38  1  0.01408669  0.51466850  0.42250849  1
  Sr  Sr39  1  -0.00929934  0.50135612  0.86929008  1
  Sr  Sr40  1  0.01916170  0.82246134  0.33228543  1
  Sr  Sr41  1  0.01502277  0.84740153  0.89240509  1
  Sr  Sr42  1  0.35850349  0.16806210  0.38700278  1
  Sr  Sr43  1  0.33616140  0.15965449  0.86866370  1
  Sr  Sr44  1  0.31570192  0.49634839  0.33432928  1
  Sr  Sr45  1  0.33916856  0.50640083  0.87467529  1
  Sr  Sr46  1  0.34746981  0.83945445  0.37770346  1
  Sr  Sr47  1  0.34705394  0.83016379  0.91307453  1
  Sr  Sr48  1  0.68348120  0.16265625  0.40140600  1
  Sr  Sr49  1  0.68040779  0.18911247  0.87729770  1
  Sr  Sr50  1  0.68385316  0.50073835  0.36059817  1
  Sr  Sr51  1  0.66512414  0.50260785  0.91237125  1
  Sr  Sr52  1  0.68803607  0.83802820  0.36121069  1
  Sr  Sr53  1  0.66150162  0.82151773  0.85946761  1
  Sr  Sr54  1  0.13672404  0.00236355  0.34543988  1
  Sr  Sr55  1  0.16886367  -0.00395141  0.88228821  1
  Sr  Sr56  1  0.15151003  0.32949306  0.37866327  1
  Sr  Sr57  1  0.16970009  0.34416303  0.91199058  1
  Sr  Sr58  1  0.17228281  0.67422369  0.37701622  1
  Sr  Sr59  1  0.15176309  0.65813621  0.85095434  1
  Sr  Sr60  1  0.49117916  -0.00888063  0.36860771  1
  Sr  Sr61  1  0.50212635  -0.00790561  0.84117313  1
  Sr  Sr62  1  0.50881160  0.33062495  0.38783868  1
  Sr  Sr63  1  0.48019858  0.31497412  0.84080423  1
  Sr  Sr64  1  0.48828185  0.66415705  0.40425299  1
  Sr  Sr65  1  0.50002710  0.66340506  0.87673505  1
  Sr  Sr66  1  0.83048316  0.01122967  0.40570522  1
  Sr  Sr67  1  0.81584218  -0.02266754  0.89048198  1
  Sr  Sr68  1  0.84095271  0.32533052  0.33318272  1
  Sr  Sr69  1  0.83286134  0.35599483  0.88933037  1
  Sr  Sr70  1  0.83069518  0.65900004  0.38870430  1
  Sr  Sr71  1  0.82201068  0.66387505  0.84417175  1
  Ta  Ta72  1  0.13085537  0.16827206  -0.00243803  1
  Ta  Ta73  1  0.18148490  0.13432853  0.50329134  1
  Ta  Ta74  1  0.17690043  0.52705580  -0.00162262  1
  Ta  Ta75  1  0.20719706  0.49820052  0.50834927  1
  Ta  Ta76  1  0.18071351  0.80145046  -0.00389246  1
  Ta  Ta77  1  0.15582683  0.85916425  0.49300422  1
  Ta  Ta78  1  0.51062468  0.14657023  -0.00681247  1
  Ta  Ta79  1  0.52508986  0.13904766  0.50597217  1
  Ta  Ta80  1  0.49462050  0.46125394  -0.00004395  1
  Ta  Ta81  1  0.44557233  0.49475530  0.50287665  1
  Ta  Ta82  1  0.51776947  0.86639857  0.00363189  1
  Ta  Ta83  1  0.53970077  0.83288967  0.50007180  1
  Ta  Ta84  1  0.87709906  0.17046259  -0.00249875  1
  Ta  Ta85  1  0.84247183  0.20545801  0.50404845  1
  Ta  Ta86  1  0.83186982  0.55820714  0.01522912  1
  Ta  Ta87  1  0.83611064  0.46026210  0.50087983  1
  Ta  Ta88  1  0.83444360  0.78752443  0.00645593  1
  Ta  Ta89  1  0.88371248  0.83273516  0.49614932  1
  Ta  Ta90  1  0.19899215  0.16899067  0.24859146  1
  Ta  Ta91  1  0.16991099  0.21049001  0.74720597  1
  Ta  Ta92  1  0.12652948  0.49690427  0.24740820  1
  Ta  Ta93  1  0.16220270  0.46352475  0.75062837  1
  Ta  Ta94  1  0.20608253  0.84120091  0.24791846  1
  Ta  Ta95  1  0.21967544  0.82838567  0.75649000  1
  Ta  Ta96  1  0.55023683  0.16535731  0.25735701  1
  Ta  Ta97  1  0.53191296  0.14640277  0.74000870  1
  Ta  Ta98  1  0.49859132  0.53020379  0.25108323  1
  Ta  Ta99  1  0.53941687  0.49376182  0.74491557  1
  Ta  Ta100  1  0.50657875  0.79196058  0.24687716  1
  Ta  Ta101  1  0.45514365  0.82597265  0.74748484  1
  Ta  Ta102  1  0.82296919  0.14010432  0.25283459  1
  Ta  Ta103  1  0.82823971  0.12873771  0.74803458  1
  Ta  Ta104  1  0.88048821  0.50514519  0.25487756  1
  Ta  Ta105  1  0.77590925  0.49894167  0.74158848  1
  Ta  Ta106  1  0.84441605  0.87873171  0.24518745  1
  Ta  Ta107  1  0.86758727  0.83324005  0.74948663  1
  Ta  Ta108  1  -0.04404542  0.00474234  0.24223820  1
  Ta  Ta109  1  -0.03890479  -0.00634785  0.75440956  1
  Ta  Ta110  1  0.00363943  0.37385388  0.24541145  1
  Ta  Ta111  1  0.03505479  0.33565562  0.75323013  1
  Ta  Ta112  1  -0.00283904  0.62806798  0.25184072  1
  Ta  Ta113  1  -0.01827864  0.68971029  0.75061990  1
  Ta  Ta114  1  0.30706348  0.01123236  0.24209943  1
  Ta  Ta115  1  0.33006030  -0.04995133  0.75110758  1
  Ta  Ta116  1  0.30668343  0.31131118  0.24760638  1
  Ta  Ta117  1  0.28739097  0.33158687  0.75257666  1
  Ta  Ta118  1  0.35823008  0.67835267  0.24432809  1
  Ta  Ta119  1  0.33376767  0.70267948  0.75935319  1
  Ta  Ta120  1  0.68817818  0.02121395  0.25526627  1
  Ta  Ta121  1  0.67335833  0.02609171  0.74588446  1
  Ta  Ta122  1  0.66123143  0.30076714  0.25091798  1
  Ta  Ta123  1  0.65733139  0.37211065  0.74584471  1
  Ta  Ta124  1  0.61877981  0.66414605  0.25167911  1
  Ta  Ta125  1  0.65558659  0.62852925  0.74977226  1
  Ta  Ta126  1  -0.00408711  0.04565139  -0.00189149  1
  Ta  Ta127  1  0.01178905  -0.03034926  0.50552905  1
  Ta  Ta128  1  -0.00290882  0.29520259  -0.00332871  1
  Ta  Ta129  1  -0.04739409  0.33370794  0.50834882  1
  Ta  Ta130  1  -0.03531744  0.67164244  0.01087833  1
  Ta  Ta131  1  0.00317187  0.71338635  0.49668954  1
  Ta  Ta132  1  0.38599978  0.00328505  0.00240858  1
  Ta  Ta133  1  0.28534942  -0.00030283  0.49843980  1
  Ta  Ta134  1  0.35724666  0.34395948  -0.00150830  1
  Ta  Ta135  1  0.32598224  0.37189454  0.50259552  1
  Ta  Ta136  1  0.29695536  0.66444522  -0.00048446  1
  Ta  Ta137  1  0.32605967  0.61525148  0.50166756  1
  Ta  Ta138  1  0.61932169  0.00064873  -0.00114932  1
  Ta  Ta139  1  0.63747916  -0.01141729  0.49956632  1
  Ta  Ta140  1  0.60828671  0.33618199  0.00024066  1
  Ta  Ta141  1  0.72974255  0.33594043  0.49966752  1
  Ta  Ta142  1  0.69431679  0.67530164  0.00194459  1
  Ta  Ta143  1  0.65199859  0.69684771  0.49478568  1
  N  N144  1  0.84103174  0.16836945  0.37182387  1
  N  N145  1  0.50896648  0.15887188  0.86913031  1
  N  N146  1  0.49483194  0.17338980  0.62431693  1
  N  N147  1  -0.01202778  0.01033175  0.12290568  1
  N  N148  1  0.66657794  -0.00441840  0.37553888  1
  N  N149  1  0.32572137  0.33179065  0.87658210  1
  N  N150  1  0.16532613  0.49866247  0.62617443  1
  N  N151  1  -0.00042368  -0.00461973  0.62603864  1
  N  N152  1  -0.00768518  0.33326634  0.62784861  1
  N  N153  1  0.66090375  0.66432252  0.37559432  1
  N  N154  1  0.50968809  0.83065867  0.12262273  1
  N  N155  1  0.33896395  0.00583783  0.12147483  1
  N  N156  1  -0.00716538  0.67042274  0.13363257  1
  N  N157  1  0.15996220  0.50274818  0.12639908  1
  N  N158  1  0.49331141  0.49739837  0.62662258  1
  N  N159  1  -0.00247688  0.00288419  0.87262818  1
  N  N160  1  0.33653595  0.66699577  0.12540856  1
  N  N161  1  0.32472838  0.33207904  0.12636732  1
  N  N162  1  0.51532056  0.16101080  0.37836786  1
  N  N163  1  -0.00502536  0.33563361  0.12744399  1
  N  N164  1  0.17819866  0.83637480  0.37049445  1
  N  N165  1  0.16891948  0.16778066  0.62212682  1
  N  N166  1  0.33853102  0.66449058  0.87804566  1
  N  N167  1  0.82123928  0.49757969  0.62745815  1
  N  N168  1  0.16144865  0.50136962  0.87632666  1
  N  N169  1  0.83752010  0.16258219  0.63075759  1
  N  N170  1  0.00552498  0.67073055  0.38145977  1
  N  N171  1  -0.00262098  0.33517438  0.87687729  1
  N  N172  1  0.17416158  0.83128848  0.87727773  1
  N  N173  1  0.83358678  0.51489354  0.12988114  1
  N  N174  1  0.83504632  0.83682979  0.12355310  1
  N  N175  1  0.84250778  0.49969548  0.37467922  1
  N  N176  1  0.66432937  0.66175448  0.87587333  1
  O  O177  1  0.84138066  0.16786982  0.12116327  1
  O  O178  1  0.48046245  0.51052920  0.37291613  1
  O  O179  1  -0.00465828  0.32702268  0.36775343  1
  O  O180  1  0.51404595  0.83238453  0.36855686  1
  O  O181  1  0.66049814  0.01051830  0.87272157  1
  O  O182  1  0.18522978  0.16611212  0.37459732  1
  O  O183  1  0.68753276  0.32190085  0.37238489  1
  O  O184  1  0.35009994  -0.01505676  0.88067626  1
  O  O185  1  0.33307163  0.65217196  0.37682854  1
  O  O186  1  0.50434684  0.83426349  0.86885074  1
  O  O187  1  0.86169731  0.84323718  0.37177232  1
  O  O188  1  -0.01565323  0.67469838  0.87420087  1
  O  O189  1  0.63614352  0.32074645  0.12230710  1
  O  O190  1  0.15402407  0.17034223  0.87124537  1
  O  O191  1  0.17838044  0.83673266  0.12235979  1
  O  O192  1  -0.01174155  0.01078943  0.38189221  1
  O  O193  1  0.00246725  0.67916946  0.62614198  1
  O  O194  1  0.67452843  -0.00641245  0.62512327  1
  O  O195  1  0.51906760  0.15644626  0.13404378  1
  O  O196  1  0.84231275  0.82256188  0.87616314  1
  O  O197  1  0.65374441  0.66288987  0.62163876  1
  O  O198  1  0.65955778  0.00680404  0.12283584  1
  O  O199  1  0.81532969  0.51151614  0.87247623  1
  O  O200  1  0.49759014  0.49917623  0.12930951  1
  O  O201  1  0.33345908  0.66076079  0.62417681  1
  O  O202  1  0.31185662  -0.02371440  0.62082975  1
  O  O203  1  0.63668302  0.34520432  0.87558654  1
  O  O204  1  0.31392878  0.34473699  0.37378570  1
  O  O205  1  0.30897651  0.00275610  0.37636220  1
  O  O206  1  0.67838718  0.34840857  0.61718066  1
  O  O207  1  0.50057353  0.83008985  0.62861374  1
  O  O208  1  0.32976569  0.34820579  0.62784372  1
  O  O209  1  0.83853283  0.16094478  0.87687387  1
  O  O210  1  0.16471177  0.49367313  0.37420103  1
  O  O211  1  0.85685405  0.83515088  0.62431466  1
  O  O212  1  0.50103625  0.48650489  0.87010660  1
  O  O213  1  0.18634007  0.83213379  0.61759405  1
  O  O214  1  0.65745562  0.66585939  0.12528166  1
  O  O215  1  0.16336112  0.16816710  0.12000779  1
