# generated using pymatgen
data_Sr24Ta24N11O13
_symmetry_space_group_name_H-M   'P 1'
_cell_length_a   16.79217396
_cell_length_b   16.97708120
_cell_length_c   15.73333083
_cell_angle_alpha   89.54941043
_cell_angle_beta   90.39698393
_cell_angle_gamma   89.73017739
_symmetry_Int_Tables_number   1
_chemical_formula_structural   Sr24Ta24N11O13
_chemical_formula_sum   'Sr72 Ta72 N33 O39'
_cell_volume   4484.99375199
_cell_formula_units_Z   3
loop_
 _symmetry_equiv_pos_site_id
 _symmetry_equiv_pos_as_xyz
  1  'x, y, z'
loop_
 _atom_site_type_symbol
 _atom_site_label
 _atom_site_symmetry_multiplicity
 _atom_site_fract_x
 _atom_site_fract_y
 _atom_site_fract_z
 _atom_site_occupancy
  Sr  Sr0  1  0.01241979  0.15498154  0.17188934  1
  Sr  Sr1  1  -0.00905531  0.17413608  0.61817063  1
  Sr  Sr2  1  -0.00013273  0.49817670  0.12875558  1
  Sr  Sr3  1  -0.01407248  0.48763408  0.60207358  1
  Sr  Sr4  1  -0.02063525  0.83811804  0.08729314  1
  Sr  Sr5  1  0.00248877  0.81887549  0.63472694  1
  Sr  Sr6  1  0.32082497  0.16131824  0.08853900  1
  Sr  Sr7  1  0.34331811  0.14889724  0.62052263  1
  Sr  Sr8  1  0.32588964  0.46990817  0.14823283  1
  Sr  Sr9  1  0.32688030  0.50398126  0.62278160  1
  Sr  Sr10  1  0.32900459  0.82289419  0.12622101  1
  Sr  Sr11  1  0.31014557  0.81513137  0.63262342  1
  Sr  Sr12  1  0.68363862  0.15412699  0.12344520  1
  Sr  Sr13  1  0.65608721  0.13608975  0.63982809  1
  Sr  Sr14  1  0.65083546  0.48265262  0.10684620  1
  Sr  Sr15  1  0.66264286  0.46518183  0.63256240  1
  Sr  Sr16  1  0.66657427  0.80121472  0.15908657  1
  Sr  Sr17  1  0.65978861  0.83626142  0.61190507  1
  Sr  Sr18  1  0.17661420  -0.00043278  0.12977393  1
  Sr  Sr19  1  0.17226962  0.03064621  0.59050577  1
  Sr  Sr20  1  0.16415337  0.34280536  0.11420388  1
  Sr  Sr21  1  0.16865941  0.33143335  0.66407671  1
  Sr  Sr22  1  0.18834697  0.68409356  0.12600275  1
  Sr  Sr23  1  0.16981610  0.66332273  0.62183650  1
  Sr  Sr24  1  0.51255743  0.04212799  0.10213547  1
  Sr  Sr25  1  0.50190453  0.00157520  0.62805074  1
  Sr  Sr26  1  0.50419387  0.34328741  0.16301347  1
  Sr  Sr27  1  0.48077030  0.35570840  0.60935964  1
  Sr  Sr28  1  0.50084006  0.68229361  0.11820169  1
  Sr  Sr29  1  0.52680705  0.69526317  0.62566516  1
  Sr  Sr30  1  0.83140706  0.00269710  0.11788563  1
  Sr  Sr31  1  0.86325863  0.01804565  0.64577204  1
  Sr  Sr32  1  0.82556894  0.34777357  0.08482769  1
  Sr  Sr33  1  0.83685321  0.33182571  0.63048375  1
  Sr  Sr34  1  0.85528834  0.67232756  0.14007481  1
  Sr  Sr35  1  0.83600790  0.69592586  0.62131914  1
  Sr  Sr36  1  -0.00562373  0.16136817  0.38654589  1
  Sr  Sr37  1  -0.00402304  0.17457373  0.83470515  1
  Sr  Sr38  1  -0.01083413  0.49823080  0.36170876  1
  Sr  Sr39  1  -0.00503332  0.48649765  0.91361477  1
  Sr  Sr40  1  -0.00475138  0.80758629  0.39832183  1
  Sr  Sr41  1  -0.00325846  0.83228870  0.86141960  1
  Sr  Sr42  1  0.33748148  0.15234542  0.41039020  1
  Sr  Sr43  1  0.33723856  0.15219333  0.87977447  1
  Sr  Sr44  1  0.33014584  0.48882984  0.38391516  1
  Sr  Sr45  1  0.31583545  0.48493158  0.84810702  1
  Sr  Sr46  1  0.31257568  0.83180375  0.34216526  1
  Sr  Sr47  1  0.32260423  0.81547539  0.89122574  1
  Sr  Sr48  1  0.65680882  0.15432342  0.34385541  1
  Sr  Sr49  1  0.67358707  0.13791815  0.90190469  1
  Sr  Sr50  1  0.65402286  0.46200254  0.39294688  1
  Sr  Sr51  1  0.66502705  0.48243144  0.87660128  1
  Sr  Sr52  1  0.67674235  0.82985709  0.38626389  1
  Sr  Sr53  1  0.64440185  0.81245589  0.85114028  1
  Sr  Sr54  1  0.17243206  0.00877656  0.36118067  1
  Sr  Sr55  1  0.18400167  0.00372440  0.90728533  1
  Sr  Sr56  1  0.14873480  0.34959431  0.32710097  1
  Sr  Sr57  1  0.17779033  0.33170356  0.88709815  1
  Sr  Sr58  1  0.18173768  0.67678923  0.39714378  1
  Sr  Sr59  1  0.17763976  0.67648003  0.84672859  1
  Sr  Sr60  1  0.50844915  0.01351817  0.40356149  1
  Sr  Sr61  1  0.50591314  0.01108131  0.85323026  1
  Sr  Sr62  1  0.47859213  0.34024628  0.38099259  1
  Sr  Sr63  1  0.49857313  0.36531403  0.84588299  1
  Sr  Sr64  1  0.51222665  0.70270213  0.35399578  1
  Sr  Sr65  1  0.50965243  0.67734055  0.90294704  1
  Sr  Sr66  1  0.83539210  0.02770459  0.34466811  1
  Sr  Sr67  1  0.85158654  0.00570398  0.88382208  1
  Sr  Sr68  1  0.84610274  0.34111760  0.41915250  1
  Sr  Sr69  1  0.82900205  0.33516272  0.87145556  1
  Sr  Sr70  1  0.83214755  0.66832085  0.36050905  1
  Sr  Sr71  1  0.85406932  0.68472910  0.86983229  1
  Ta  Ta72  1  0.12503710  0.17076853  0.00209485  1
  Ta  Ta73  1  0.15971826  0.21146686  0.49559345  1
  Ta  Ta74  1  0.17655677  0.53142226  0.00198935  1
  Ta  Ta75  1  0.15650780  0.47133994  0.50027736  1
  Ta  Ta76  1  0.14911008  0.82490918  -0.00117858  1
  Ta  Ta77  1  0.16237488  0.85838346  0.49481575  1
  Ta  Ta78  1  0.50327053  0.21542626  -0.00012619  1
  Ta  Ta79  1  0.52710118  0.18803887  0.50233219  1
  Ta  Ta80  1  0.46971587  0.49477814  0.00109623  1
  Ta  Ta81  1  0.50413573  0.55022503  0.50706866  1
  Ta  Ta82  1  0.50210185  0.86742270  0.00224909  1
  Ta  Ta83  1  0.45748435  0.83799728  0.49683911  1
  Ta  Ta84  1  0.88078413  0.17035338  0.00253401  1
  Ta  Ta85  1  0.79958225  0.16029591  0.50254723  1
  Ta  Ta86  1  0.81860504  0.53546466  0.00383850  1
  Ta  Ta87  1  0.82026477  0.53080538  0.49831560  1
  Ta  Ta88  1  0.78572165  0.82485888  0.00490313  1
  Ta  Ta89  1  0.84167539  0.88560080  0.49972155  1
  Ta  Ta90  1  0.20371868  0.17341852  0.24709879  1
  Ta  Ta91  1  0.17742607  0.14726024  0.75643072  1
  Ta  Ta92  1  0.16703397  0.53961238  0.24563420  1
  Ta  Ta93  1  0.12395710  0.49877977  0.75766991  1
  Ta  Ta94  1  0.12237280  0.83465553  0.24348871  1
  Ta  Ta95  1  0.16558165  0.87898369  0.74993133  1
  Ta  Ta96  1  0.46191576  0.16501884  0.25584967  1
  Ta  Ta97  1  0.50202150  0.19979854  0.74585461  1
  Ta  Ta98  1  0.50034337  0.52976525  0.25467680  1
  Ta  Ta99  1  0.50304186  0.54746352  0.74352372  1
  Ta  Ta100  1  0.49542243  0.88987601  0.24239582  1
  Ta  Ta101  1  0.46270569  0.83320857  0.75682844  1
  Ta  Ta102  1  0.83450843  0.21478667  0.25474353  1
  Ta  Ta103  1  0.80560282  0.17215778  0.75498624  1
  Ta  Ta104  1  0.80879999  0.47318851  0.25553682  1
  Ta  Ta105  1  0.84458170  0.51998713  0.74986859  1
  Ta  Ta106  1  0.85845012  0.85002431  0.24704263  1
  Ta  Ta107  1  0.81307008  0.85710489  0.75248875  1
  Ta  Ta108  1  0.00143308  -0.04100378  0.24703438  1
  Ta  Ta109  1  0.04968826  0.00303553  0.74587797  1
  Ta  Ta110  1  -0.04815808  0.33453297  0.24436374  1
  Ta  Ta111  1  -0.00102833  0.36564486  0.75096931  1
  Ta  Ta112  1  0.03252788  0.67629229  0.24204525  1
  Ta  Ta113  1  0.00144091  0.62072960  0.75082696  1
  Ta  Ta114  1  0.36019015  0.01783073  0.25201810  1
  Ta  Ta115  1  0.31520899  -0.01971968  0.74653251  1
  Ta  Ta116  1  0.32604931  0.28775495  0.24983578  1
  Ta  Ta117  1  0.34044814  0.30041311  0.75108241  1
  Ta  Ta118  1  0.34287830  0.63540995  0.24666809  1
  Ta  Ta119  1  0.37379957  0.66423451  0.74780690  1
  Ta  Ta120  1  0.64204708  -0.02481127  0.24367873  1
  Ta  Ta121  1  0.69616472  -0.01888317  0.75125497  1
  Ta  Ta122  1  0.71244966  0.33055138  0.25100542  1
  Ta  Ta123  1  0.66065162  0.28926652  0.75165785  1
  Ta  Ta124  1  0.66152971  0.60997850  0.25028656  1
  Ta  Ta125  1  0.68056063  0.63514964  0.75008139  1
  Ta  Ta126  1  0.00953271  0.03508511  0.00422542  1
  Ta  Ta127  1  -0.00086213  -0.02238243  0.49854183  1
  Ta  Ta128  1  -0.00011276  0.28862827  0.00611337  1
  Ta  Ta129  1  0.04452780  0.33456759  0.50166968  1
  Ta  Ta130  1  0.03748593  0.66586929  -0.00534932  1
  Ta  Ta131  1  -0.00607951  0.64065462  0.50408293  1
  Ta  Ta132  1  0.36346312  -0.02439295  -0.00382461  1
  Ta  Ta133  1  0.33241290  -0.04135097  0.49868117  1
  Ta  Ta134  1  0.36910373  0.33870318  0.00085676  1
  Ta  Ta135  1  0.27935339  0.32863823  0.49265060  1
  Ta  Ta136  1  0.33547850  0.61885628  0.00336232  1
  Ta  Ta137  1  0.37147511  0.67497588  0.50207809  1
  Ta  Ta138  1  0.66222468  -0.05369010  0.00690989  1
  Ta  Ta139  1  0.70500858  0.00341029  0.50213859  1
  Ta  Ta140  1  0.63103757  0.31355981  0.00184593  1
  Ta  Ta141  1  0.66386361  0.28507826  0.50052224  1
  Ta  Ta142  1  0.70086541  0.65764469  0.00294701  1
  Ta  Ta143  1  0.67179071  0.62665835  0.49953607  1
  N  N144  1  0.00457042  0.66120976  0.62332806  1
  N  N145  1  0.15821885  0.50053961  0.87848598  1
  N  N146  1  0.00753122  0.66281649  0.86844508  1
  N  N147  1  0.34239117  -0.00524224  0.87470798  1
  N  N148  1  0.67008968  -0.00368589  0.12303785  1
  N  N149  1  0.16313500  0.50136707  0.13049648  1
  N  N150  1  0.00805002  0.66914395  0.12210183  1
  N  N151  1  0.34189416  0.66365994  0.62353267  1
  N  N152  1  0.33601047  0.32014185  0.12079339  1
  N  N153  1  0.67773663  -0.01125293  0.62321089  1
  N  N154  1  -0.00749065  0.32950094  0.12778879  1
  N  N155  1  0.49660154  0.16877090  0.62527926  1
  N  N156  1  0.16407486  0.84359701  0.87208023  1
  N  N157  1  0.34624594  0.65961998  0.12342617  1
  N  N158  1  0.33731620  -0.00428313  0.62042592  1
  N  N159  1  0.83102754  0.17174681  0.62845292  1
  N  N160  1  0.16721039  0.16949218  0.12705897  1
  N  N161  1  0.82732405  0.49739731  0.37814432  1
  N  N162  1  0.50225898  0.50755967  0.62648511  1
  N  N163  1  0.00746564  0.33454918  0.62964373  1
  N  N164  1  0.49507847  0.17195355  0.37475256  1
  N  N165  1  0.00353355  0.00257049  0.12395421  1
  N  N166  1  0.49146027  0.83676273  0.87811369  1
  N  N167  1  0.33707622  -0.00218377  0.37158447  1
  N  N168  1  0.33685157  0.32478681  0.87256059  1
  N  N169  1  0.16449586  0.16618315  0.87562563  1
  N  N170  1  0.31915476  0.32869866  0.37591445  1
  N  N171  1  0.82693855  0.83062995  0.12978723  1
  N  N172  1  0.84065530  0.16760865  0.87965985  1
  N  N173  1  0.01605104  0.00220825  0.61788202  1
  N  N174  1  0.83185731  0.17923874  0.37859489  1
  N  N175  1  0.16679342  0.84362257  0.12654307  1
  N  N176  1  0.15720619  0.83954827  0.37458887  1
  O  O177  1  0.49145723  0.51255822  0.87515767  1
  O  O178  1  0.49570003  0.19093066  0.13074701  1
  O  O179  1  0.32173752  0.32344469  0.62342873  1
  O  O180  1  0.49882410  0.51673235  0.38075820  1
  O  O181  1  0.83623462  0.52248915  0.87571093  1
  O  O182  1  0.67168174  -0.00949389  0.37031486  1
  O  O183  1  0.33803439  0.00556809  0.11753512  1
  O  O184  1  0.67992074  0.65419681  0.87344143  1
  O  O185  1  0.83854251  0.85745438  0.62821420  1
  O  O186  1  0.66695111  -0.01778535  0.88060613  1
  O  O187  1  0.81915126  0.83592757  0.88087313  1
  O  O188  1  0.00763103  0.65631569  0.37475946  1
  O  O189  1  0.83911562  0.17355594  0.12491033  1
  O  O190  1  0.34819298  0.65307547  0.87947550  1
  O  O191  1  0.66935390  0.30601894  0.62815976  1
  O  O192  1  -0.00153789  0.34203122  0.37584051  1
  O  O193  1  0.67276619  0.31138392  0.37137579  1
  O  O194  1  0.15699985  0.83013017  0.62964047  1
  O  O195  1  0.16280962  0.50014691  0.37500263  1
  O  O196  1  0.49079315  0.83269527  0.13244843  1
  O  O197  1  0.49989973  0.18678642  0.87786858  1
  O  O198  1  -0.00499234  0.33047357  0.87488547  1
  O  O199  1  0.67255287  0.64259316  0.12607794  1
  O  O200  1  0.15647617  0.18705494  0.36737986  1
  O  O201  1  0.48037386  0.85224958  0.37078719  1
  O  O202  1  0.01072589  0.01471834  0.86713462  1
  O  O203  1  0.82842450  0.50095640  0.62730572  1
  O  O204  1  0.66692015  0.62923096  0.37058837  1
  O  O205  1  0.66082493  0.32607573  0.12778908  1
  O  O206  1  0.49143082  0.50130584  0.12593252  1
  O  O207  1  0.15707051  0.48791497  0.62549056  1
  O  O208  1  0.00349874  0.00569961  0.36563310  1
  O  O209  1  0.83329405  0.86621067  0.37616873  1
  O  O210  1  0.82169190  0.50549746  0.12506596  1
  O  O211  1  0.68165506  0.64842640  0.62710429  1
  O  O212  1  0.34156589  0.66397969  0.37326712  1
  O  O213  1  0.16460664  0.18209436  0.62448770  1
  O  O214  1  0.47749594  0.84118867  0.62424696  1
  O  O215  1  0.65560739  0.31490081  0.87903849  1
