# generated using pymatgen
data_Sr24Ta24N11O13
_symmetry_space_group_name_H-M   'P 1'
_cell_length_a   17.36452926
_cell_length_b   16.65796135
_cell_length_c   15.19727692
_cell_angle_alpha   90.38188001
_cell_angle_beta   90.93278772
_cell_angle_gamma   90.52514078
_symmetry_Int_Tables_number   1
_chemical_formula_structural   Sr24Ta24N11O13
_chemical_formula_sum   'Sr72 Ta72 N33 O39'
_cell_volume   4395.05947987
_cell_formula_units_Z   3
loop_
 _symmetry_equiv_pos_site_id
 _symmetry_equiv_pos_as_xyz
  1  'x, y, z'
loop_
 _atom_site_type_symbol
 _atom_site_label
 _atom_site_symmetry_multiplicity
 _atom_site_fract_x
 _atom_site_fract_y
 _atom_site_fract_z
 _atom_site_occupancy
  Sr  Sr0  1  -0.00841368  0.15648630  0.07052064  1
  Sr  Sr1  1  0.03161443  0.19048809  0.64452728  1
  Sr  Sr2  1  0.00180095  0.48223482  0.14253114  1
  Sr  Sr3  1  0.01061749  0.49314317  0.60135952  1
  Sr  Sr4  1  0.04110323  0.83165916  0.14578437  1
  Sr  Sr5  1  0.01395833  0.82487315  0.62727279  1
  Sr  Sr6  1  0.29202768  0.15542559  0.15338223  1
  Sr  Sr7  1  0.34119082  0.15787400  0.58538948  1
  Sr  Sr8  1  0.39114175  0.52390039  0.16916236  1
  Sr  Sr9  1  0.32773402  0.50050822  0.61753689  1
  Sr  Sr10  1  0.34078375  0.82372468  0.09832660  1
  Sr  Sr11  1  0.36755049  0.84397552  0.66957018  1
  Sr  Sr12  1  0.70818241  0.16154907  0.15884688  1
  Sr  Sr13  1  0.67036766  0.15688781  0.63682026  1
  Sr  Sr14  1  0.67441578  0.48083232  0.09471553  1
  Sr  Sr15  1  0.72148160  0.49938793  0.66740031  1
  Sr  Sr16  1  0.66900703  0.83271432  0.14666972  1
  Sr  Sr17  1  0.67556653  0.81468714  0.60444094  1
  Sr  Sr18  1  0.15803657  -0.00650602  0.15572742  1
  Sr  Sr19  1  0.16974529  0.01748089  0.60627876  1
  Sr  Sr20  1  0.13949656  0.31131523  0.08577404  1
  Sr  Sr21  1  0.18402039  0.34925847  0.66210811  1
  Sr  Sr22  1  0.16054995  0.67521083  0.11933009  1
  Sr  Sr23  1  0.13261475  0.65131810  0.58967075  1
  Sr  Sr24  1  0.45343823  0.02030362  0.10603658  1
  Sr  Sr25  1  0.49291623  0.01226069  0.65806749  1
  Sr  Sr26  1  0.48800944  0.33400087  0.11880491  1
  Sr  Sr27  1  0.44096621  0.33545238  0.61080469  1
  Sr  Sr28  1  0.49247312  0.69350417  0.15251703  1
  Sr  Sr29  1  0.49909603  0.67452654  0.61298186  1
  Sr  Sr30  1  0.82668461  0.00030382  0.11964353  1
  Sr  Sr31  1  0.78674094  -0.01817609  0.59410908  1
  Sr  Sr32  1  0.82310423  0.34359673  0.14683886  1
  Sr  Sr33  1  0.85121335  0.34786446  0.60797699  1
  Sr  Sr34  1  0.77777244  0.66887803  0.07980365  1
  Sr  Sr35  1  0.83017077  0.68115041  0.65292635  1
  Sr  Sr36  1  0.00678370  0.16115812  0.41509676  1
  Sr  Sr37  1  -0.00075269  0.16884008  0.85924014  1
  Sr  Sr38  1  -0.00147688  0.49659952  0.36228459  1
  Sr  Sr39  1  0.04908575  0.50617962  0.93546699  1
  Sr  Sr40  1  0.01954596  0.84458276  0.37453018  1
  Sr  Sr41  1  0.01013164  0.81862025  0.85036369  1
  Sr  Sr42  1  0.31609233  0.16724894  0.36022934  1
  Sr  Sr43  1  0.37151491  0.18385017  0.96226010  1
  Sr  Sr44  1  0.34255861  0.50461544  0.38643850  1
  Sr  Sr45  1  0.34076602  0.48382452  0.83568945  1
  Sr  Sr46  1  0.37103276  0.80845669  0.38096489  1
  Sr  Sr47  1  0.33015988  0.82983624  0.88151629  1
  Sr  Sr48  1  0.69762552  0.17040646  0.39123671  1
  Sr  Sr49  1  0.67172982  0.14613990  0.84798194  1
  Sr  Sr50  1  0.70438005  0.46503489  0.39118395  1
  Sr  Sr51  1  0.66732457  0.49838932  0.88224535  1
  Sr  Sr52  1  0.65182877  0.82486985  0.37465684  1
  Sr  Sr53  1  0.71174997  0.83246552  0.92284689  1
  Sr  Sr54  1  0.16336921  0.00773707  0.38546417  1
  Sr  Sr55  1  0.14307765  -0.01619998  0.81448299  1
  Sr  Sr56  1  0.14865624  0.33940014  0.30986777  1
  Sr  Sr57  1  0.17785037  0.33816183  0.88045670  1
  Sr  Sr58  1  0.13589829  0.65872409  0.36158344  1
  Sr  Sr59  1  0.16143403  0.67745635  0.90905596  1
  Sr  Sr60  1  0.47070932  0.03195021  0.37867240  1
  Sr  Sr61  1  0.48439690  0.00728467  0.88047597  1
  Sr  Sr62  1  0.46346151  0.33242990  0.37307526  1
  Sr  Sr63  1  0.49919598  0.34542811  0.89305473  1
  Sr  Sr64  1  0.50093421  0.64870609  0.38640305  1
  Sr  Sr65  1  0.45885550  0.66257342  0.83336904  1
  Sr  Sr66  1  0.80442253  -0.01358317  0.35622779  1
  Sr  Sr67  1  0.83404898  0.00890068  0.90323055  1
  Sr  Sr68  1  0.85771106  0.32072660  0.38722599  1
  Sr  Sr69  1  0.79516817  0.32485226  0.82151987  1
  Sr  Sr70  1  0.80329552  0.69395059  0.36485871  1
  Sr  Sr71  1  0.83105942  0.67225328  0.86572687  1
  Ta  Ta72  1  0.16413497  0.11629920  -0.01431518  1
  Ta  Ta73  1  0.17250120  0.20977101  0.49287523  1
  Ta  Ta74  1  0.22551744  0.50113917  0.01909208  1
  Ta  Ta75  1  0.16962129  0.47087563  0.47564379  1
  Ta  Ta76  1  0.16500362  0.87400430  -0.01268904  1
  Ta  Ta77  1  0.21601297  0.82975931  0.51060543  1
  Ta  Ta78  1  0.56396716  0.16821927  0.01063661  1
  Ta  Ta79  1  0.52966037  0.17776221  0.51174461  1
  Ta  Ta80  1  0.49026350  0.52829139  -0.00710424  1
  Ta  Ta81  1  0.55193594  0.48538341  0.52607298  1
  Ta  Ta82  1  0.52824142  0.83266497  -0.01729521  1
  Ta  Ta83  1  0.50288578  0.87012932  0.51528421  1
  Ta  Ta84  1  0.81917070  0.20100915  -0.01115353  1
  Ta  Ta85  1  0.85883696  0.14149801  0.52847894  1
  Ta  Ta86  1  0.86232244  0.49042943  -0.02649336  1
  Ta  Ta87  1  0.84660308  0.54508504  0.50257075  1
  Ta  Ta88  1  0.89019842  0.83111622  0.01174810  1
  Ta  Ta89  1  0.86565329  0.83046367  0.49845027  1
  Ta  Ta90  1  0.10719951  0.16130838  0.24312304  1
  Ta  Ta91  1  0.20722956  0.16857642  0.75763637  1
  Ta  Ta92  1  0.20449015  0.50614474  0.22365614  1
  Ta  Ta93  1  0.15468910  0.52897715  0.76136302  1
  Ta  Ta94  1  0.21715306  0.82783835  0.26314524  1
  Ta  Ta95  1  0.18450292  0.79642944  0.73516663  1
  Ta  Ta96  1  0.53223521  0.17521511  0.24270959  1
  Ta  Ta97  1  0.48004295  0.18835778  0.76227017  1
  Ta  Ta98  1  0.55480258  0.48555920  0.25770335  1
  Ta  Ta99  1  0.53494461  0.48907922  0.72439357  1
  Ta  Ta100  1  0.49424391  0.87962402  0.24391185  1
  Ta  Ta101  1  0.55456089  0.83092567  0.77183296  1
  Ta  Ta102  1  0.88929411  0.16135092  0.24351694  1
  Ta  Ta103  1  0.84700950  0.13379858  0.73256766  1
  Ta  Ta104  1  0.82547984  0.53810161  0.23426882  1
  Ta  Ta105  1  0.90150967  0.49773129  0.77741187  1
  Ta  Ta106  1  0.86594175  0.82090118  0.21482573  1
  Ta  Ta107  1  0.83397663  0.86590981  0.75421844  1
  Ta  Ta108  1  -0.01498565  0.02442494  0.25011827  1
  Ta  Ta109  1  -0.04596380  -0.00072116  0.72833304  1
  Ta  Ta110  1  -0.00995675  0.28877983  0.23746961  1
  Ta  Ta111  1  0.00204096  0.37190884  0.77371953  1
  Ta  Ta112  1  -0.05097592  0.66752064  0.22350269  1
  Ta  Ta113  1  0.01066343  0.63168341  0.76529800  1
  Ta  Ta114  1  0.32509417  -0.04161695  0.26255587  1
  Ta  Ta115  1  0.32697945  0.06438680  0.77106207  1
  Ta  Ta116  1  0.30725301  0.36008950  0.21563458  1
  Ta  Ta117  1  0.33792581  0.27194140  0.78285696  1
  Ta  Ta118  1  0.30329047  0.67254776  0.25454987  1
  Ta  Ta119  1  0.28135616  0.66496732  0.74422692  1
  Ta  Ta120  1  0.61668951  0.00866976  0.24865590  1
  Ta  Ta121  1  0.66842980  -0.03952206  0.75790857  1
  Ta  Ta122  1  0.63520740  0.32820455  0.25653662  1
  Ta  Ta123  1  0.61335463  0.33468401  0.72243496  1
  Ta  Ta124  1  0.65762022  0.61877118  0.25460444  1
  Ta  Ta125  1  0.64406899  0.67851068  0.76914867  1
  Ta  Ta126  1  0.02113503  -0.02382995  -0.01617343  1
  Ta  Ta127  1  -0.04290145  -0.00151974  0.52002921  1
  Ta  Ta128  1  -0.05650285  0.34279224  -0.02898510  1
  Ta  Ta129  1  0.06595575  0.33678553  0.49372696  1
  Ta  Ta130  1  -0.03454068  0.66993741  0.01871872  1
  Ta  Ta131  1  -0.04256291  0.66968663  0.49283257  1
  Ta  Ta132  1  0.27925997  0.00278783  -0.01670033  1
  Ta  Ta133  1  0.33378066  -0.03810417  0.50305024  1
  Ta  Ta134  1  0.33117587  0.38275126  0.01960490  1
  Ta  Ta135  1  0.26289456  0.33900202  0.46339423  1
  Ta  Ta136  1  0.34186731  0.62918167  0.00172753  1
  Ta  Ta137  1  0.30442646  0.68292176  0.51105192  1
  Ta  Ta138  1  0.63665197  0.00472585  0.02162937  1
  Ta  Ta139  1  0.62014120  0.00352464  0.50033699  1
  Ta  Ta140  1  0.67100354  0.29681523  -0.00566960  1
  Ta  Ta141  1  0.62616368  0.32959514  0.52867570  1
  Ta  Ta142  1  0.60223551  0.67382007  -0.02006274  1
  Ta  Ta143  1  0.67510624  0.62581392  0.51344103  1
  N  N144  1  0.31997136  0.00741671  0.38682419  1
  N  N145  1  0.65905312  0.64930829  0.37990517  1
  N  N146  1  0.68561646  0.66073104  0.89698913  1
  N  N147  1  0.64775350  -0.00412339  0.63755072  1
  N  N148  1  0.03298712  0.33671974  0.89335245  1
  N  N149  1  0.51487997  0.83852216  0.63932408  1
  N  N150  1  0.68023563  -0.00555300  0.13962262  1
  N  N151  1  0.65386609  0.00348317  0.37498366  1
  N  N152  1  0.15833626  0.16450996  0.35851822  1
  N  N153  1  0.14451271  0.14963252  0.10815115  1
  N  N154  1  -0.00479390  -0.00486264  0.85967894  1
  N  N155  1  0.85401263  0.83558661  0.87924401  1
  N  N156  1  0.31108397  0.33034911  0.33970379  1
  N  N157  1  0.80723705  0.83429025  0.09879460  1
  N  N158  1  0.83976383  0.83071763  0.62221650  1
  N  N159  1  0.82937138  0.16140247  0.85395363  1
  N  N160  1  0.49529073  0.16659673  0.63211840  1
  N  N161  1  0.02066123  0.64268161  0.12851135  1
  N  N162  1  0.47408426  0.50593697  0.61699366  1
  N  N163  1  0.84688725  0.17122161  0.11083599  1
  N  N164  1  0.51734235  0.16787802  0.89403482  1
  N  N165  1  0.31580650  0.66012070  0.86717508  1
  N  N166  1  0.34343391  0.32816417  0.90447130  1
  N  N167  1  0.18263136  0.17827505  0.63096235  1
  N  N168  1  0.16952578  0.83032663  0.85665330  1
  N  N169  1  0.32177914  0.29336379  0.10514340  1
  N  N170  1  0.32881167  0.65690923  0.38923508  1
  N  N171  1  0.00272096  0.66226927  0.88871384  1
  N  N172  1  0.18760845  0.50362822  0.88260814  1
  N  N173  1  0.67154200  0.66018705  0.64229011  1
  N  N174  1  0.33843865  0.67111327  0.12472037  1
  N  N175  1  0.33165274  -0.01036539  0.86883458  1
  N  N176  1  0.16692029  0.50383811  0.34417194  1
  O  O177  1  0.30963115  -0.00357277  0.13358568  1
  O  O178  1  0.02922156  -0.01747031  0.63042850  1
  O  O179  1  0.53535600  0.48607248  0.38980220  1
  O  O180  1  0.86479723  0.50789560  0.63308565  1
  O  O181  1  -0.02572772  0.66777709  0.36087232  1
  O  O182  1  -0.01924137  0.32140755  0.10453693  1
  O  O183  1  0.85726355  0.16290336  0.39438776  1
  O  O184  1  0.50503534  0.86530597  0.37309153  1
  O  O185  1  0.16147093  0.86073999  0.62070603  1
  O  O186  1  0.83740034  0.53456892  0.36369414  1
  O  O187  1  -0.02275259  0.00465762  0.38819258  1
  O  O188  1  0.32785568  0.36940849  0.70979908  1
  O  O189  1  0.00641131  0.31849197  0.37674293  1
  O  O190  1  0.52778602  0.18026246  0.37121248  1
  O  O191  1  0.49631320  0.84987115  0.10947317  1
  O  O192  1  0.67388851  -0.00556387  0.89216152  1
  O  O193  1  0.63855457  0.32404536  0.38993211  1
  O  O194  1  0.86385557  0.83882594  0.34845213  1
  O  O195  1  0.82614709  0.50305126  0.10489671  1
  O  O196  1  0.81395494  0.20589465  0.62813941  1
  O  O197  1  0.70108241  0.33628569  0.63528568  1
  O  O198  1  0.13744928  0.49364550  0.10417522  1
  O  O199  1  0.14433253  0.18104079  0.87509262  1
  O  O200  1  0.52677690  0.49042958  0.11626200  1
  O  O201  1  0.18483511  0.83779540  0.11802531  1
  O  O202  1  0.35222123  0.65464990  0.63128734  1
  O  O203  1  0.00360842  0.00013137  0.12281481  1
  O  O204  1  0.63507376  0.66059266  0.11659073  1
  O  O205  1  0.16211114  0.50165770  0.62535386  1
  O  O206  1  0.80510550  0.49228901  0.85315283  1
  O  O207  1  0.48911756  0.17846318  0.11835968  1
  O  O208  1  0.51028882  0.50156848  0.86269545  1
  O  O209  1  0.32753087  0.01140258  0.63173931  1
  O  O210  1  0.67064067  0.32581548  0.13091699  1
  O  O211  1  0.03245744  0.34595021  0.63960301  1
  O  O212  1  0.47098685  0.84876017  0.86066595  1
  O  O213  1  -0.01215679  0.66738112  0.62615870  1
  O  O214  1  0.64947586  0.31988185  0.86011458  1
  O  O215  1  0.16679348  0.83179803  0.38246657  1
