# generated using pymatgen
data_Sr24Ta24N11O13
_symmetry_space_group_name_H-M   'P 1'
_cell_length_a   16.72769822
_cell_length_b   16.77359854
_cell_length_c   15.71656282
_cell_angle_alpha   90.01233372
_cell_angle_beta   90.03097931
_cell_angle_gamma   90.65248246
_symmetry_Int_Tables_number   1
_chemical_formula_structural   Sr24Ta24N11O13
_chemical_formula_sum   'Sr72 Ta72 N33 O39'
_cell_volume   4409.52456534
_cell_formula_units_Z   3
loop_
 _symmetry_equiv_pos_site_id
 _symmetry_equiv_pos_as_xyz
  1  'x, y, z'
loop_
 _atom_site_type_symbol
 _atom_site_label
 _atom_site_symmetry_multiplicity
 _atom_site_fract_x
 _atom_site_fract_y
 _atom_site_fract_z
 _atom_site_occupancy
  Sr  Sr0  1  -0.00149652  0.16735798  0.13894330  1
  Sr  Sr1  1  0.02053812  0.18409119  0.58436332  1
  Sr  Sr2  1  0.01057520  0.51041877  0.15203323  1
  Sr  Sr3  1  -0.00189961  0.49998211  0.64770125  1
  Sr  Sr4  1  -0.01172717  0.83391489  0.08644089  1
  Sr  Sr5  1  0.00813397  0.84268648  0.63887672  1
  Sr  Sr6  1  0.34966840  0.17561312  0.14045095  1
  Sr  Sr7  1  0.33496018  0.16922460  0.65225150  1
  Sr  Sr8  1  0.32750436  0.50291569  0.08619639  1
  Sr  Sr9  1  0.33711714  0.50712902  0.63328562  1
  Sr  Sr10  1  0.32518765  0.83009747  0.13223901  1
  Sr  Sr11  1  0.34114961  0.85348018  0.59480022  1
  Sr  Sr12  1  0.67330195  0.15998289  0.08897223  1
  Sr  Sr13  1  0.68334464  0.17766268  0.64020991  1
  Sr  Sr14  1  0.65904950  0.49428633  0.13423056  1
  Sr  Sr15  1  0.68507305  0.51270457  0.58649322  1
  Sr  Sr16  1  0.67225509  0.84595250  0.16601604  1
  Sr  Sr17  1  0.66560869  0.83769449  0.63194183  1
  Sr  Sr18  1  0.15220691  -0.02775807  0.08895718  1
  Sr  Sr19  1  0.17615486  0.00075170  0.63393298  1
  Sr  Sr20  1  0.15422649  0.32441863  0.13549000  1
  Sr  Sr21  1  0.17224950  0.33354335  0.58659140  1
  Sr  Sr22  1  0.16465997  0.65981435  0.14499052  1
  Sr  Sr23  1  0.15750428  0.64478280  0.65143873  1
  Sr  Sr24  1  0.48415403  -0.01063523  0.13808404  1
  Sr  Sr25  1  0.51406187  -0.00157658  0.58179729  1
  Sr  Sr26  1  0.50626434  0.33486948  0.15344706  1
  Sr  Sr27  1  0.49183862  0.32866570  0.64618038  1
  Sr  Sr28  1  0.48023122  0.64721850  0.08484766  1
  Sr  Sr29  1  0.48843304  0.66196049  0.63430302  1
  Sr  Sr30  1  0.83254271  -0.00234386  0.13466022  1
  Sr  Sr31  1  0.82566378  -0.00076277  0.66663793  1
  Sr  Sr32  1  0.81620347  0.31697535  0.08848442  1
  Sr  Sr33  1  0.83443128  0.33231673  0.63095940  1
  Sr  Sr34  1  0.81739652  0.65676305  0.13843300  1
  Sr  Sr35  1  0.83289369  0.67505421  0.58631130  1
  Sr  Sr36  1  -0.00326394  0.16074636  0.36505130  1
  Sr  Sr37  1  0.02224374  0.19046366  0.91441158  1
  Sr  Sr38  1  0.00747461  0.51300425  0.34868633  1
  Sr  Sr39  1  -0.00371274  0.49829832  0.85029030  1
  Sr  Sr40  1  -0.00180441  0.83051100  0.41130504  1
  Sr  Sr41  1  -0.00283824  0.83776997  0.86996968  1
  Sr  Sr42  1  0.34360758  0.17981850  0.34210575  1
  Sr  Sr43  1  0.33771832  0.16964889  0.86044694  1
  Sr  Sr44  1  0.32723640  0.49839154  0.41101947  1
  Sr  Sr45  1  0.33822147  0.51564010  0.86121288  1
  Sr  Sr46  1  0.32903618  0.82808154  0.36759339  1
  Sr  Sr47  1  0.34681955  0.85234269  0.90767046  1
  Sr  Sr48  1  0.66637275  0.16799342  0.41077368  1
  Sr  Sr49  1  0.67755460  0.16648902  0.86825155  1
  Sr  Sr50  1  0.65988689  0.49415192  0.36323925  1
  Sr  Sr51  1  0.68052234  0.51767541  0.91646278  1
  Sr  Sr52  1  0.67312504  0.84680524  0.36940694  1
  Sr  Sr53  1  0.65952371  0.83003059  0.84175954  1
  Sr  Sr54  1  0.15017025  -0.02165955  0.41281180  1
  Sr  Sr55  1  0.17370684  0.00167204  0.86086584  1
  Sr  Sr56  1  0.15637440  0.32222081  0.36314471  1
  Sr  Sr57  1  0.17949048  0.33148918  0.91747843  1
  Sr  Sr58  1  0.16464872  0.65918884  0.35111783  1
  Sr  Sr59  1  0.15549020  0.64366153  0.85006103  1
  Sr  Sr60  1  0.48941175  -0.01724699  0.36212214  1
  Sr  Sr61  1  0.49917345  0.00921854  0.91583248  1
  Sr  Sr62  1  0.50076231  0.33415134  0.35536067  1
  Sr  Sr63  1  0.49898954  0.32335103  0.84156199  1
  Sr  Sr64  1  0.47361178  0.64564546  0.40897842  1
  Sr  Sr65  1  0.49590324  0.67372095  0.86682237  1
  Sr  Sr66  1  0.83734530  0.00546202  0.34239403  1
  Sr  Sr67  1  0.82259058  -0.01463155  0.86593304  1
  Sr  Sr68  1  0.81788145  0.31492526  0.41212762  1
  Sr  Sr69  1  0.83196485  0.33728084  0.86613424  1
  Sr  Sr70  1  0.82414020  0.65764770  0.36685065  1
  Sr  Sr71  1  0.83380727  0.66484643  0.91470728  1
  Ta  Ta72  1  0.19869512  0.14836235  0.00283375  1
  Ta  Ta73  1  0.21189531  0.15884512  0.49471443  1
  Ta  Ta74  1  0.14082864  0.51054486  -0.00087685  1
  Ta  Ta75  1  0.14157484  0.51283692  0.50338884  1
  Ta  Ta76  1  0.16407168  0.78842931  -0.00492575  1
  Ta  Ta77  1  0.16661140  0.78694413  0.50532714  1
  Ta  Ta78  1  0.49474126  0.19902134  -0.00560792  1
  Ta  Ta79  1  0.47925283  0.18346693  0.49972233  1
  Ta  Ta80  1  0.49980296  0.45751111  -0.00346874  1
  Ta  Ta81  1  0.50482715  0.46777698  0.50384942  1
  Ta  Ta82  1  0.53778540  0.83153981  0.00258563  1
  Ta  Ta83  1  0.51895936  0.81236598  0.49290053  1
  Ta  Ta84  1  0.85038048  0.14027040  -0.00275778  1
  Ta  Ta85  1  0.84019232  0.12889490  0.50487205  1
  Ta  Ta86  1  0.87237808  0.49333457  0.00277732  1
  Ta  Ta87  1  0.87122057  0.49214344  0.49622129  1
  Ta  Ta88  1  0.79297074  0.83638436  0.00006139  1
  Ta  Ta89  1  0.82885002  0.87137951  0.50509907  1
  Ta  Ta90  1  0.16551543  0.11177556  0.24855690  1
  Ta  Ta91  1  0.15092026  0.19753923  0.75509655  1
  Ta  Ta92  1  0.20949188  0.48977966  0.24488314  1
  Ta  Ta93  1  0.16891716  0.44921889  0.75272552  1
  Ta  Ta94  1  0.13660128  0.84120545  0.24454215  1
  Ta  Ta95  1  0.19675863  0.82238597  0.75605556  1
  Ta  Ta96  1  0.54858077  0.16035520  0.24890340  1
  Ta  Ta97  1  0.50752563  0.12440829  0.75126058  1
  Ta  Ta98  1  0.47229035  0.51496992  0.25016540  1
  Ta  Ta99  1  0.55192584  0.50560666  0.74666958  1
  Ta  Ta100  1  0.49351571  0.78142223  0.25020976  1
  Ta  Ta101  1  0.48344585  0.86355628  0.75414062  1
  Ta  Ta102  1  0.81068962  0.18343730  0.25188398  1
  Ta  Ta103  1  0.89315841  0.17408968  0.74716314  1
  Ta  Ta104  1  0.82939945  0.45124329  0.24801191  1
  Ta  Ta105  1  0.81170251  0.52971692  0.75571052  1
  Ta  Ta106  1  0.87695356  0.83034651  0.25183181  1
  Ta  Ta107  1  0.83134225  0.78989238  0.75546262  1
  Ta  Ta108  1  0.01785759  -0.02671094  0.25074348  1
  Ta  Ta109  1  0.00887977  0.05388836  0.74887845  1
  Ta  Ta110  1  -0.05179729  0.33510167  0.24507931  1
  Ta  Ta111  1  0.03046663  0.31525840  0.75015509  1
  Ta  Ta112  1  -0.00828392  0.71086986  0.25164587  1
  Ta  Ta113  1  -0.04731140  0.67181621  0.75317161  1
  Ta  Ta114  1  0.28369345  -0.00356499  0.24988151  1
  Ta  Ta115  1  0.37399401  -0.00839436  0.74490457  1
  Ta  Ta116  1  0.33069527  0.38031496  0.24826054  1
  Ta  Ta117  1  0.29493866  0.33820687  0.74651074  1
  Ta  Ta118  1  0.34591305  0.64349083  0.24825341  1
  Ta  Ta119  1  0.32741972  0.71717888  0.75106200  1
  Ta  Ta120  1  0.66215084  0.04496472  0.25194221  1
  Ta  Ta121  1  0.62447191  0.00335916  0.75152670  1
  Ta  Ta122  1  0.68496003  0.30869148  0.25212599  1
  Ta  Ta123  1  0.67152581  0.38713726  0.74583813  1
  Ta  Ta124  1  0.60659284  0.66430049  0.24896081  1
  Ta  Ta125  1  0.69191683  0.64879060  0.75073659  1
  Ta  Ta126  1  -0.02074843  0.01789890  -0.00047175  1
  Ta  Ta127  1  -0.04090048  0.00345504  0.50242019  1
  Ta  Ta128  1  -0.00580743  0.37475396  0.00769904  1
  Ta  Ta129  1  -0.00411549  0.37395188  0.49325091  1
  Ta  Ta130  1  0.01602219  0.64633750  -0.00340901  1
  Ta  Ta131  1  0.01832534  0.64799951  0.49708662  1
  Ta  Ta132  1  0.32215627  0.03283866  0.00763806  1
  Ta  Ta133  1  0.33584005  0.04454350  0.49714999  1
  Ta  Ta134  1  0.36900631  0.32591942  -0.00199165  1
  Ta  Ta135  1  0.35269899  0.30941811  0.50235323  1
  Ta  Ta136  1  0.29520534  0.67595789  -0.00628606  1
  Ta  Ta137  1  0.29285612  0.67517825  0.50439314  1
  Ta  Ta138  1  0.67120113  -0.03433413  -0.00199966  1
  Ta  Ta139  1  0.70799165  -0.00240408  0.50814510  1
  Ta  Ta140  1  0.63043036  0.33488207  -0.00238256  1
  Ta  Ta141  1  0.63190841  0.33672664  0.50494150  1
  Ta  Ta142  1  0.66026271  0.71631988  0.00636545  1
  Ta  Ta143  1  0.64748528  0.68827089  0.49465343  1
  N  N144  1  0.66971136  0.00295936  0.62621445  1
  N  N145  1  0.51054603  0.50362890  0.62662694  1
  N  N146  1  0.82438335  0.82466599  0.87764821  1
  N  N147  1  0.49506165  0.49168779  0.37384207  1
  N  N148  1  0.15458403  0.82011572  0.12251828  1
  N  N149  1  0.66114023  0.32998713  0.37581872  1
  N  N150  1  -0.00651560  -0.00192234  0.12244929  1
  N  N151  1  0.50622064  0.16599786  0.87514037  1
  N  N152  1  0.67283740  0.34494860  0.62518678  1
  N  N153  1  0.33002414  0.67703910  0.62787513  1
  N  N154  1  0.32148968  0.66280763  0.37635364  1
  N  N155  1  0.66020088  -0.00529266  0.87786845  1
  N  N156  1  0.32496109  0.66413322  0.12175385  1
  N  N157  1  0.17552649  0.17072935  0.87591013  1
  N  N158  1  -0.00602987  -0.00252439  0.37948241  1
  N  N159  1  0.50156050  0.84040492  0.87864039  1
  N  N160  1  -0.00492726  0.33594818  0.13091863  1
  N  N161  1  -0.00358898  0.67056654  0.37730844  1
  N  N162  1  0.16615036  0.48698012  0.87391550  1
  N  N163  1  0.66027500  0.32941549  0.11827283  1
  N  N164  1  0.83307092  0.16143321  0.37590153  1
  N  N165  1  0.34588170  0.01015809  0.62077300  1
  N  N166  1  0.32562184  0.00249001  0.12955317  1
  N  N167  1  0.83603473  0.50463319  0.87708208  1
  N  N168  1  0.83351815  0.15805156  0.11905431  1
  N  N169  1  0.49323649  0.82434313  0.37069465  1
  N  N170  1  0.85162413  0.17116440  0.62770042  1
  N  N171  1  0.16117597  0.49032881  0.62262534  1
  N  N172  1  0.16950639  0.49268327  0.12620097  1
  N  N173  1  0.33032984  0.33304549  0.62288155  1
  N  N174  1  0.49585279  0.49101279  0.11686742  1
  N  N175  1  -0.00735097  0.66519694  0.87595000  1
  N  N176  1  0.33704268  0.67573403  0.87404902  1
  O  O177  1  0.83112778  0.83456064  0.13113027  1
  O  O178  1  0.84515894  0.50917238  0.62056441  1
  O  O179  1  0.17289615  0.14179260  0.37542374  1
  O  O180  1  0.67365458  0.67070356  0.87780277  1
  O  O181  1  0.33880903  0.33976807  0.37148772  1
  O  O182  1  0.01073021  0.33829247  0.88321199  1
  O  O183  1  0.34016365  0.32734833  0.87273038  1
  O  O184  1  0.16875198  0.50204020  0.36958557  1
  O  O185  1  -0.00109652  0.67177265  0.12855654  1
  O  O186  1  0.01096182  0.02767473  0.62323162  1
  O  O187  1  0.01547368  0.03074539  0.87250004  1
  O  O188  1  0.65170084  0.67027097  0.37043394  1
  O  O189  1  0.65456280  0.67692912  0.12862267  1
  O  O190  1  0.51178553  0.49838917  0.87041288  1
  O  O191  1  0.84015492  0.48266389  0.37102245  1
  O  O192  1  0.15728777  0.13729340  0.12566220  1
  O  O193  1  0.01096653  0.34132332  0.61670577  1
  O  O194  1  0.34941308  0.33612375  0.12520255  1
  O  O195  1  0.50211248  0.83918589  0.61852653  1
  O  O196  1  0.67809099  0.00935384  0.37501690  1
  O  O197  1  0.50083240  0.82820576  0.12890156  1
  O  O198  1  -0.01463443  0.66036261  0.62819471  1
  O  O199  1  0.18056622  0.17196685  0.61985516  1
  O  O200  1  0.16679317  0.81127121  0.63447019  1
  O  O201  1  0.82755675  0.83822673  0.62893512  1
  O  O202  1  0.82153498  0.47834033  0.12197980  1
  O  O203  1  0.67103116  0.35113796  0.87151009  1
  O  O204  1  0.83874457  0.84954568  0.37736828  1
  O  O205  1  0.50179189  0.17440003  0.37227026  1
  O  O206  1  0.33925092  0.01106330  0.87176261  1
  O  O207  1  0.33091762  0.00609836  0.37090902  1
  O  O208  1  0.85227530  0.17576867  0.87079776  1
  O  O209  1  -0.00121806  0.35342161  0.36677453  1
  O  O210  1  0.17456214  0.84604053  0.88209393  1
  O  O211  1  0.67332214  0.67026776  0.61804369  1
  O  O212  1  0.15620373  0.81526449  0.38031974  1
  O  O213  1  0.66922517  0.00197620  0.13010513  1
  O  O214  1  0.51176743  0.17328256  0.12616473  1
  O  O215  1  0.49329286  0.16392985  0.62445817  1
