# generated using pymatgen
data_Sr24Ta24N11O13
_symmetry_space_group_name_H-M   'P 1'
_cell_length_a   16.76217262
_cell_length_b   16.82659671
_cell_length_c   15.61904267
_cell_angle_alpha   89.25772882
_cell_angle_beta   90.13295452
_cell_angle_gamma   89.92063012
_symmetry_Int_Tables_number   1
_chemical_formula_structural   Sr24Ta24N11O13
_chemical_formula_sum   'Sr72 Ta72 N33 O39'
_cell_volume   4404.97000902
_cell_formula_units_Z   3
loop_
 _symmetry_equiv_pos_site_id
 _symmetry_equiv_pos_as_xyz
  1  'x, y, z'
loop_
 _atom_site_type_symbol
 _atom_site_label
 _atom_site_symmetry_multiplicity
 _atom_site_fract_x
 _atom_site_fract_y
 _atom_site_fract_z
 _atom_site_occupancy
  Sr  Sr0  1  -0.00749435  0.17007291  0.11880982  1
  Sr  Sr1  1  0.01851549  0.14752777  0.67525093  1
  Sr  Sr2  1  0.00523728  0.48941192  0.10338205  1
  Sr  Sr3  1  -0.00627985  0.50997586  0.62969597  1
  Sr  Sr4  1  -0.00568038  0.80489437  0.14298954  1
  Sr  Sr5  1  -0.00269027  0.83698471  0.58808429  1
  Sr  Sr6  1  0.34338241  0.18733694  0.13991709  1
  Sr  Sr7  1  0.32814767  0.15985240  0.57771437  1
  Sr  Sr8  1  0.32108267  0.50408484  0.08367260  1
  Sr  Sr9  1  0.33807346  0.48455954  0.62660725  1
  Sr  Sr10  1  0.32890976  0.80712944  0.15209923  1
  Sr  Sr11  1  0.32715225  0.83017072  0.63340954  1
  Sr  Sr12  1  0.68687758  0.12269697  0.18260531  1
  Sr  Sr13  1  0.68183824  0.16807165  0.61573893  1
  Sr  Sr14  1  0.66096058  0.49623078  0.12313699  1
  Sr  Sr15  1  0.66210102  0.48367387  0.65767087  1
  Sr  Sr16  1  0.65503823  0.83925088  0.08146710  1
  Sr  Sr17  1  0.67778980  0.82301140  0.63885832  1
  Sr  Sr18  1  0.18275015  0.04304848  0.07162607  1
  Sr  Sr19  1  0.17464946  -0.00555884  0.62962985  1
  Sr  Sr20  1  0.15974066  0.32292150  0.17590338  1
  Sr  Sr21  1  0.17990238  0.33992512  0.61292089  1
  Sr  Sr22  1  0.16240158  0.65840462  0.10200663  1
  Sr  Sr23  1  0.17110602  0.67923823  0.65475623  1
  Sr  Sr24  1  0.49530916  0.00187138  0.13693177  1
  Sr  Sr25  1  0.50985202  0.04142467  0.59951995  1
  Sr  Sr26  1  0.48991949  0.35526504  0.10873799  1
  Sr  Sr27  1  0.51476575  0.34435138  0.66619903  1
  Sr  Sr28  1  0.50234558  0.68331104  0.13490623  1
  Sr  Sr29  1  0.48501958  0.68493892  0.59849110  1
  Sr  Sr30  1  0.83976075  -0.02367608  0.11866266  1
  Sr  Sr31  1  0.82691406  0.01379454  0.65270162  1
  Sr  Sr32  1  0.83084799  0.35430575  0.11333299  1
  Sr  Sr33  1  0.83627511  0.33033681  0.59471339  1
  Sr  Sr34  1  0.82499469  0.65758793  0.16457001  1
  Sr  Sr35  1  0.84429784  0.67171994  0.60855681  1
  Sr  Sr36  1  0.00666538  0.16349784  0.34201678  1
  Sr  Sr37  1  -0.01180352  0.14902409  0.89352591  1
  Sr  Sr38  1  0.00211915  0.47735517  0.41331106  1
  Sr  Sr39  1  0.00041017  0.49921610  0.86940583  1
  Sr  Sr40  1  -0.01347538  0.83226637  0.36314269  1
  Sr  Sr41  1  -0.00316357  0.81732450  0.91168880  1
  Sr  Sr42  1  0.34434622  0.18571197  0.36136348  1
  Sr  Sr43  1  0.34379874  0.15214421  0.92391682  1
  Sr  Sr44  1  0.33757947  0.50555204  0.41125879  1
  Sr  Sr45  1  0.33426776  0.48330179  0.86773739  1
  Sr  Sr46  1  0.33692909  0.82616281  0.35993643  1
  Sr  Sr47  1  0.31314365  0.82774211  0.84714194  1
  Sr  Sr48  1  0.68508142  0.16596028  0.40000585  1
  Sr  Sr49  1  0.65095165  0.16208001  0.83882939  1
  Sr  Sr50  1  0.66488090  0.49945891  0.33219784  1
  Sr  Sr51  1  0.66525075  0.47474469  0.88830728  1
  Sr  Sr52  1  0.66168418  0.79846854  0.42606250  1
  Sr  Sr53  1  0.67185187  0.83228437  0.86770992  1
  Sr  Sr54  1  0.16691126  -0.00582720  0.40665600  1
  Sr  Sr55  1  0.17117082  0.00768571  0.86147970  1
  Sr  Sr56  1  0.18421678  0.33831626  0.39116129  1
  Sr  Sr57  1  0.15207436  0.32523452  0.82576925  1
  Sr  Sr58  1  0.15999120  0.70706273  0.31473393  1
  Sr  Sr59  1  0.16876238  0.66752180  0.88745577  1
  Sr  Sr60  1  0.50741431  0.03253957  0.36556235  1
  Sr  Sr61  1  0.49874860  0.01476926  0.90027323  1
  Sr  Sr62  1  0.50847803  0.35802393  0.34325097  1
  Sr  Sr63  1  0.49136002  0.33241636  0.88685819  1
  Sr  Sr64  1  0.48475472  0.67043200  0.37836128  1
  Sr  Sr65  1  0.50018038  0.70619788  0.85939070  1
  Sr  Sr66  1  0.84187722  0.02048084  0.34567637  1
  Sr  Sr67  1  0.83460157  -0.01031494  0.88492474  1
  Sr  Sr68  1  0.82621723  0.33800889  0.39232324  1
  Sr  Sr69  1  0.84696666  0.33448106  0.91698531  1
  Sr  Sr70  1  0.84293585  0.66742892  0.38745726  1
  Sr  Sr71  1  0.82230361  0.64984649  0.82477883  1
  Ta  Ta72  1  0.16698073  0.21921775  0.00357779  1
  Ta  Ta73  1  0.13070176  0.16428963  0.50713071  1
  Ta  Ta74  1  0.16238436  0.43672279  -0.00438068  1
  Ta  Ta75  1  0.16696575  0.54739742  0.50072072  1
  Ta  Ta76  1  0.17242471  0.85574148  0.01954840  1
  Ta  Ta77  1  0.17183394  0.81289076  0.49232108  1
  Ta  Ta78  1  0.55026428  0.17035513  0.01751909  1
  Ta  Ta79  1  0.51151166  0.22605710  0.49738475  1
  Ta  Ta80  1  0.49964318  0.54577845  -0.00811453  1
  Ta  Ta81  1  0.52556868  0.48428026  0.50336545  1
  Ta  Ta82  1  0.46053218  0.84100510  -0.00231763  1
  Ta  Ta83  1  0.48907607  0.87300014  0.50030915  1
  Ta  Ta84  1  0.78862667  0.15963285  0.00306011  1
  Ta  Ta85  1  0.88014232  0.15664616  0.50626967  1
  Ta  Ta86  1  0.82862153  0.54502691  -0.00405407  1
  Ta  Ta87  1  0.78843449  0.50343604  0.50855070  1
  Ta  Ta88  1  0.82490262  0.76879030  -0.00644284  1
  Ta  Ta89  1  0.82766115  0.87995364  0.50222706  1
  Ta  Ta90  1  0.17423819  0.12347886  0.24631537  1
  Ta  Ta91  1  0.22970465  0.16251741  0.74736622  1
  Ta  Ta92  1  0.17356815  0.50698285  0.25232376  1
  Ta  Ta93  1  0.17363891  0.51480883  0.74373132  1
  Ta  Ta94  1  0.16660131  0.89615798  0.22304815  1
  Ta  Ta95  1  0.11871365  0.83412754  0.75726044  1
  Ta  Ta96  1  0.53222977  0.20169607  0.24979944  1
  Ta  Ta97  1  0.45198444  0.16401469  0.75174871  1
  Ta  Ta98  1  0.45862286  0.51670959  0.24378905  1
  Ta  Ta99  1  0.49464897  0.54366837  0.74505289  1
  Ta  Ta100  1  0.54484361  0.83620262  0.25614008  1
  Ta  Ta101  1  0.50031977  0.88849865  0.75108826  1
  Ta  Ta102  1  0.83623044  0.21018165  0.25408618  1
  Ta  Ta103  1  0.83500996  0.19762824  0.75662110  1
  Ta  Ta104  1  0.86604434  0.49001070  0.25868462  1
  Ta  Ta105  1  0.83241062  0.46077819  0.75318795  1
  Ta  Ta106  1  0.78510773  0.82542982  0.25460245  1
  Ta  Ta107  1  0.86901861  0.83133715  0.75008389  1
  Ta  Ta108  1  0.03983019  -0.00286050  0.23161852  1
  Ta  Ta109  1  0.00077291  -0.04613257  0.76099742  1
  Ta  Ta110  1  -0.02577757  0.34637705  0.25068535  1
  Ta  Ta111  1  -0.04133338  0.32929353  0.75319484  1
  Ta  Ta112  1  0.00198337  0.60913873  0.25946252  1
  Ta  Ta113  1  0.00291157  0.69887508  0.74241694  1
  Ta  Ta114  1  0.30352776  0.00191031  0.23950993  1
  Ta  Ta115  1  0.35497810  0.02198293  0.75381057  1
  Ta  Ta116  1  0.33556025  0.38645694  0.24849865  1
  Ta  Ta117  1  0.33775564  0.29212588  0.74886558  1
  Ta  Ta118  1  0.32350620  0.61963730  0.24415364  1
  Ta  Ta119  1  0.33869156  0.64337308  0.74798554  1
  Ta  Ta120  1  0.66796607  -0.05381251  0.26175492  1
  Ta  Ta121  1  0.64180172  -0.00938703  0.74312798  1
  Ta  Ta122  1  0.67669279  0.30726486  0.24853750  1
  Ta  Ta123  1  0.72371164  0.32393939  0.75628810  1
  Ta  Ta124  1  0.65853063  0.70402069  0.25589322  1
  Ta  Ta125  1  0.64003585  0.64829428  0.74175004  1
  Ta  Ta126  1  0.02306319  -0.02837451  0.01199853  1
  Ta  Ta127  1  -0.01175603  0.02101130  0.50163126  1
  Ta  Ta128  1  0.03693554  0.32651807  -0.00071987  1
  Ta  Ta129  1  0.01169958  0.28485368  0.50648123  1
  Ta  Ta130  1  -0.04309503  0.65524220  -0.00107783  1
  Ta  Ta131  1  0.04869091  0.66834402  0.49247036  1
  Ta  Ta132  1  0.33203934  -0.04842518  -0.00077671  1
  Ta  Ta133  1  0.35000039  -0.02607006  0.49476946  1
  Ta  Ta134  1  0.29331636  0.33032093  -0.00147867  1
  Ta  Ta135  1  0.38358060  0.33607944  0.50063931  1
  Ta  Ta136  1  0.35762509  0.67868870  -0.00539024  1
  Ta  Ta137  1  0.28126339  0.67694239  0.48755454  1
  Ta  Ta138  1  0.66524552  0.03252854  0.00849798  1
  Ta  Ta139  1  0.67695072  -0.02156288  0.49046020  1
  Ta  Ta140  1  0.66531979  0.28133827  0.01143906  1
  Ta  Ta141  1  0.64652123  0.35798312  0.49502145  1
  Ta  Ta142  1  0.68198799  0.65371546  -0.00204725  1
  Ta  Ta143  1  0.65885396  0.61207368  0.49581658  1
  N  N144  1  0.83600964  0.84258240  0.62027820  1
  N  N145  1  0.00323413  0.66273270  0.36928581  1
  N  N146  1  0.82869870  0.16143250  0.88491450  1
  N  N147  1  0.82826485  0.49890262  0.88096126  1
  N  N148  1  0.32686261  0.66663581  0.86832541  1
  N  N149  1  0.33360630  0.32471897  0.87848023  1
  N  N150  1  -0.00243628  0.32254707  0.86990732  1
  N  N151  1  0.67028585  0.01289742  0.36479174  1
  N  N152  1  0.34209576  0.34706853  0.37522170  1
  N  N153  1  0.16879443  0.17888543  0.13374595  1
  N  N154  1  0.33129566  -0.00638355  0.88015924  1
  N  N155  1  0.49244024  0.85588207  0.87367338  1
  N  N156  1  0.16391890  0.80918003  0.13516746  1
  N  N157  1  0.32945686  0.34343286  0.13144477  1
  N  N158  1  0.49870324  0.50486157  0.62430957  1
  N  N159  1  0.65750118  0.65159905  0.37072705  1
  N  N160  1  0.31799879  0.66867607  0.36722766  1
  N  N161  1  0.16555560  0.49943091  0.62114714  1
  N  N162  1  0.84491130  0.17727097  0.37429386  1
  N  N163  1  0.51311554  0.18970088  0.37495857  1
  N  N164  1  0.82809185  0.50015709  0.62665213  1
  N  N165  1  0.84410959  0.16803986  0.62690199  1
  N  N166  1  -0.01038610  0.01817638  0.12007526  1
  N  N167  1  0.17728265  0.15856410  0.62687984  1
  N  N168  1  0.83047157  0.81118083  0.87527546  1
  N  N169  1  0.34416747  0.32974375  0.62226856  1
  N  N170  1  0.00749367  0.67431305  0.61918890  1
  N  N171  1  -0.00062903  -0.01065343  0.88246400  1
  N  N172  1  -0.00257322  0.33398041  0.13011167  1
  N  N173  1  0.67129556  0.34049111  0.37020664  1
  N  N174  1  0.32412754  0.65805054  0.11926427  1
  N  N175  1  0.66653740  -0.01468927  0.12617200  1
  N  N176  1  0.66440080  0.00343365  0.62058899  1
  O  O177  1  0.49507851  0.18636066  0.63126112  1
  O  O178  1  0.00725450  0.30419098  0.63339812  1
  O  O179  1  -0.01633670  0.66165740  0.87219375  1
  O  O180  1  0.00542163  0.31950648  0.38058688  1
  O  O181  1  0.16685946  0.49518556  0.37924462  1
  O  O182  1  0.32956886  0.67647773  0.61626341  1
  O  O183  1  0.49775799  0.15786977  0.13487287  1
  O  O184  1  0.50440491  0.53010480  0.12018950  1
  O  O185  1  0.84311235  0.50555352  0.12905706  1
  O  O186  1  0.16040028  0.14736712  0.37867479  1
  O  O187  1  0.17522869  0.84765786  0.36358747  1
  O  O188  1  0.48965411  0.85464210  0.62498065  1
  O  O189  1  0.16418095  0.47753160  0.86846558  1
  O  O190  1  0.49707079  0.84370855  0.37510684  1
  O  O191  1  0.00719201  0.00712046  0.37222262  1
  O  O192  1  0.50481182  0.84044490  0.12867921  1
  O  O193  1  0.15607630  0.82846490  0.88412314  1
  O  O194  1  0.33606810  0.01490165  0.11616209  1
  O  O195  1  0.83940192  0.49482945  0.38541888  1
  O  O196  1  0.49991360  0.51149744  0.87409059  1
  O  O197  1  0.82067955  0.82807242  0.38107275  1
  O  O198  1  0.66411929  0.65583993  0.86494500  1
  O  O199  1  0.68194925  0.32875028  0.63139624  1
  O  O200  1  0.66628429  0.66358745  0.12698827  1
  O  O201  1  0.19196750  0.17353542  0.87110315  1
  O  O202  1  0.15497723  0.83182597  0.61942091  1
  O  O203  1  0.67736510  0.31332634  0.87846325  1
  O  O204  1  0.49763968  0.17141077  0.87826171  1
  O  O205  1  0.32658853  -0.01443591  0.36425340  1
  O  O206  1  0.16319366  0.48239616  0.12670344  1
  O  O207  1  0.65715761  0.00814319  0.87634203  1
  O  O208  1  -0.01893566  0.64816727  0.13256534  1
  O  O209  1  0.49728413  0.51309866  0.36896515  1
  O  O210  1  -0.00097614  -0.00321878  0.62758719  1
  O  O211  1  0.64336390  0.66294570  0.61539968  1
  O  O212  1  0.33643261  -0.00949752  0.62034318  1
  O  O213  1  0.80584553  0.81065486  0.12515996  1
  O  O214  1  0.83344776  0.17131480  0.12830975  1
  O  O215  1  0.67189652  0.34526474  0.11769047  1
