# generated using pymatgen
data_Sr24Ta24N11O13
_symmetry_space_group_name_H-M   'P 1'
_cell_length_a   17.16871909
_cell_length_b   17.01479721
_cell_length_c   15.51374435
_cell_angle_alpha   89.56898980
_cell_angle_beta   91.20930625
_cell_angle_gamma   89.48439344
_symmetry_Int_Tables_number   1
_chemical_formula_structural   Sr24Ta24N11O13
_chemical_formula_sum   'Sr72 Ta72 N33 O39'
_cell_volume   4530.58259650
_cell_formula_units_Z   3
loop_
 _symmetry_equiv_pos_site_id
 _symmetry_equiv_pos_as_xyz
  1  'x, y, z'
loop_
 _atom_site_type_symbol
 _atom_site_label
 _atom_site_symmetry_multiplicity
 _atom_site_fract_x
 _atom_site_fract_y
 _atom_site_fract_z
 _atom_site_occupancy
  Sr  Sr0  1  -0.02475948  0.15269337  0.06807738  1
  Sr  Sr1  1  0.05123461  0.22709944  0.62632263  1
  Sr  Sr2  1  0.00474765  0.50621215  0.11751948  1
  Sr  Sr3  1  0.05773502  0.48050269  0.53483678  1
  Sr  Sr4  1  0.00286838  0.83714319  0.16510207  1
  Sr  Sr5  1  -0.02403953  0.77972537  0.61113097  1
  Sr  Sr6  1  0.34875010  0.18476877  0.08774540  1
  Sr  Sr7  1  0.33597497  0.11452064  0.64526600  1
  Sr  Sr8  1  0.34772374  0.48631232  0.16140253  1
  Sr  Sr9  1  0.30302604  0.49956826  0.61503689  1
  Sr  Sr10  1  0.30964028  0.81451714  0.15079269  1
  Sr  Sr11  1  0.33059015  0.87143024  0.61159862  1
  Sr  Sr12  1  0.70636438  0.20326180  0.11927129  1
  Sr  Sr13  1  0.63214715  0.18072671  0.59471611  1
  Sr  Sr14  1  0.61925651  0.52464422  0.01473921  1
  Sr  Sr15  1  0.67411703  0.47756368  0.63784853  1
  Sr  Sr16  1  0.64467738  0.79806117  0.12749879  1
  Sr  Sr17  1  0.65041876  0.84931932  0.59424230  1
  Sr  Sr18  1  0.16169529  -0.03270706  0.14149556  1
  Sr  Sr19  1  0.16857173  -0.00909394  0.57981462  1
  Sr  Sr20  1  0.16965594  0.34237604  0.16500552  1
  Sr  Sr21  1  0.24186479  0.30021245  0.63148980  1
  Sr  Sr22  1  0.15192187  0.66921998  0.08087554  1
  Sr  Sr23  1  0.18396286  0.66780675  0.61718465  1
  Sr  Sr24  1  0.54020360  0.10424822  0.21194115  1
  Sr  Sr25  1  0.50443215  0.00570219  0.66227010  1
  Sr  Sr26  1  0.49941247  0.31315217  0.15065443  1
  Sr  Sr27  1  0.45550990  0.33501417  0.61697017  1
  Sr  Sr28  1  0.45778242  0.67828644  0.17453979  1
  Sr  Sr29  1  0.48840325  0.58357109  0.78731192  1
  Sr  Sr30  1  0.82848161  0.01051073  0.11057680  1
  Sr  Sr31  1  0.91495916  0.06739372  0.66985065  1
  Sr  Sr32  1  0.84785604  0.35046900  0.09376704  1
  Sr  Sr33  1  0.84501092  0.31904575  0.68749662  1
  Sr  Sr34  1  0.85508514  0.68426886  0.18451033  1
  Sr  Sr35  1  0.78465109  0.66420689  0.60453700  1
  Sr  Sr36  1  0.00447721  0.14025877  0.44157145  1
  Sr  Sr37  1  -0.00378095  0.17691504  0.84996103  1
  Sr  Sr38  1  -0.02765500  0.49462928  0.33675626  1
  Sr  Sr39  1  0.01059386  0.53428321  0.90050481  1
  Sr  Sr40  1  -0.03062014  0.82815253  0.35740140  1
  Sr  Sr41  1  -0.01591685  0.84176790  0.81438208  1
  Sr  Sr42  1  0.23836148  0.13930941  0.24840975  1
  Sr  Sr43  1  0.33378919  0.14462160  0.87206454  1
  Sr  Sr44  1  0.33147324  0.48075145  0.39293343  1
  Sr  Sr45  1  0.30433123  0.52256353  0.81985477  1
  Sr  Sr46  1  0.34627982  0.87424790  0.37468047  1
  Sr  Sr47  1  0.27622289  0.82490072  0.93614363  1
  Sr  Sr48  1  0.66872509  0.17558892  0.37158752  1
  Sr  Sr49  1  0.63974382  0.08849740  0.88981235  1
  Sr  Sr50  1  0.66367400  0.49572612  0.39849123  1
  Sr  Sr51  1  0.71712759  0.51764266  0.83910521  1
  Sr  Sr52  1  0.64646055  0.77386292  0.37683043  1
  Sr  Sr53  1  0.65416474  0.86136620  0.89314325  1
  Sr  Sr54  1  0.15174973  -0.01739918  0.36469149  1
  Sr  Sr55  1  0.15651419  0.03227722  0.94391237  1
  Sr  Sr56  1  0.13505139  0.33018577  0.39383854  1
  Sr  Sr57  1  0.18172575  0.32944740  0.83301653  1
  Sr  Sr58  1  0.31670751  0.69367093  0.44510801  1
  Sr  Sr59  1  0.15263049  0.66830943  0.85207235  1
  Sr  Sr60  1  0.53701838  -0.01003825  0.44571018  1
  Sr  Sr61  1  0.44148521  -0.06809912  0.85148143  1
  Sr  Sr62  1  0.52660844  0.34611207  0.39568076  1
  Sr  Sr63  1  0.51839855  0.26544135  0.95653258  1
  Sr  Sr64  1  0.50200581  0.61427015  0.37999152  1
  Sr  Sr65  1  0.47993053  0.72734496  0.94168735  1
  Sr  Sr66  1  0.83785834  0.03263420  0.35617681  1
  Sr  Sr67  1  0.82776999  -0.01904327  0.87030572  1
  Sr  Sr68  1  0.80211086  0.32954765  0.32389487  1
  Sr  Sr69  1  0.87571128  0.38004213  0.88661714  1
  Sr  Sr70  1  0.82635178  0.64792259  0.39199325  1
  Sr  Sr71  1  0.85091639  0.70487581  0.81226702  1
  Ta  Ta72  1  0.15688128  0.21539815  0.00101338  1
  Ta  Ta73  1  0.20337195  0.15727492  0.48023522  1
  Ta  Ta74  1  0.18944045  0.47650803  -0.01220010  1
  Ta  Ta75  1  0.16463322  0.59414906  0.39702669  1
  Ta  Ta76  1  0.08829786  0.82654709  -0.02022545  1
  Ta  Ta77  1  0.13072420  0.81401592  0.49202713  1
  Ta  Ta78  1  0.49085381  0.07654296  -0.00024576  1
  Ta  Ta79  1  0.45940692  0.16840644  0.50668343  1
  Ta  Ta80  1  0.43341245  0.46064655  -0.03550833  1
  Ta  Ta81  1  0.50029678  0.52403327  0.58042157  1
  Ta  Ta82  1  0.48550052  0.91402952  0.07456597  1
  Ta  Ta83  1  0.48630468  0.79418556  0.50331834  1
  Ta  Ta84  1  0.79976666  0.19612931  -0.08225561  1
  Ta  Ta85  1  0.82659083  0.18854185  0.50383353  1
  Ta  Ta86  1  0.84170477  0.55867482  0.00303049  1
  Ta  Ta87  1  0.83789322  0.46921698  0.49049174  1
  Ta  Ta88  1  0.86015490  0.82137956  0.02200131  1
  Ta  Ta89  1  0.81828201  0.86838730  0.46996226  1
  Ta  Ta90  1  0.07586895  0.17034104  0.25240552  1
  Ta  Ta91  1  0.16996782  0.12720371  0.75057747  1
  Ta  Ta92  1  0.16104324  0.52657426  0.24320813  1
  Ta  Ta93  1  0.12627644  0.50020209  0.73943998  1
  Ta  Ta94  1  0.16355377  0.75173401  0.32196816  1
  Ta  Ta95  1  0.17345913  0.84485467  0.74373878  1
  Ta  Ta96  1  0.41404393  0.17169751  0.32265117  1
  Ta  Ta97  1  0.50623176  0.19543522  0.76531805  1
  Ta  Ta98  1  0.54123699  0.49203439  0.19938657  1
  Ta  Ta99  1  0.53467017  0.39530594  0.79994933  1
  Ta  Ta100  1  0.50914716  0.88777049  0.26170125  1
  Ta  Ta101  1  0.49575288  0.78357758  0.69557681  1
  Ta  Ta102  1  0.90569469  0.18053463  0.26489971  1
  Ta  Ta103  1  0.76288410  0.14783165  0.74233682  1
  Ta  Ta104  1  0.79956807  0.50326963  0.22682689  1
  Ta  Ta105  1  0.88762066  0.51282919  0.72445558  1
  Ta  Ta106  1  0.79567506  0.86344577  0.26071248  1
  Ta  Ta107  1  0.82418500  0.90045230  0.65507796  1
  Ta  Ta108  1  -0.00779461  0.02592170  0.24812909  1
  Ta  Ta109  1  0.07551819  -0.00457094  0.75435550  1
  Ta  Ta110  1  -0.01305670  0.31276055  0.24794697  1
  Ta  Ta111  1  0.01081935  0.40097443  0.73053479  1
  Ta  Ta112  1  0.04747494  0.65919123  0.25529138  1
  Ta  Ta113  1  0.00767850  0.60354358  0.68951997  1
  Ta  Ta114  1  0.37544872  0.01015269  0.22510269  1
  Ta  Ta115  1  0.25230439  -0.02028634  0.78078132  1
  Ta  Ta116  1  0.34033931  0.30956401  0.26519227  1
  Ta  Ta117  1  0.38138619  0.33916952  0.82937684  1
  Ta  Ta118  1  0.26854991  0.64239043  0.24653476  1
  Ta  Ta119  1  0.33653632  0.72140400  0.77048387  1
  Ta  Ta120  1  0.66922022  -0.03202300  0.27942278  1
  Ta  Ta121  1  0.69916545  0.01021937  0.69582188  1
  Ta  Ta122  1  0.67258050  0.41475056  0.17904842  1
  Ta  Ta123  1  0.66288173  0.28767203  0.76955822  1
  Ta  Ta124  1  0.66359265  0.59987615  0.20984120  1
  Ta  Ta125  1  0.63996658  0.70090493  0.75734411  1
  Ta  Ta126  1  -0.01089115  -0.04525247  -0.00209418  1
  Ta  Ta127  1  -0.02266566  -0.04486309  0.50413171  1
  Ta  Ta128  1  0.04963177  0.34345356  -0.00823671  1
  Ta  Ta129  1  -0.07062889  0.33368392  0.48687381  1
  Ta  Ta130  1  -0.04198487  0.70135476  0.01429103  1
  Ta  Ta131  1  0.03508329  0.67085087  0.44529569  1
  Ta  Ta132  1  0.34674096  -0.00422272  0.03512463  1
  Ta  Ta133  1  0.34025946  0.07051397  0.42196889  1
  Ta  Ta134  1  0.30992678  0.35427253  0.00677598  1
  Ta  Ta135  1  0.32911299  0.25006456  0.44158505  1
  Ta  Ta136  1  0.32672279  0.61394686  0.00191329  1
  Ta  Ta137  1  0.41414625  0.66918413  0.61711645  1
  Ta  Ta138  1  0.63449344  -0.00893067  0.08929019  1
  Ta  Ta139  1  0.72957342  0.01534305  0.51434944  1
  Ta  Ta140  1  0.69136257  0.33250929  -0.05838921  1
  Ta  Ta141  1  0.74284408  0.33237622  0.51598342  1
  Ta  Ta142  1  0.74921169  0.68968552  -0.00896749  1
  Ta  Ta143  1  0.57429038  0.66873411  0.58456876  1
  N  N144  1  0.63468866  0.01380990  0.58346912  1
  N  N145  1  0.16089231  0.82352322  0.61182150  1
  N  N146  1  0.13183884  0.81537527  0.86507207  1
  N  N147  1  0.16465243  0.17620713  0.88066006  1
  N  N148  1  0.86004737  0.51208071  0.11782048  1
  N  N149  1  -0.00413793  -0.00630442  0.11703772  1
  N  N150  1  0.84788617  0.17912970  0.38086302  1
  N  N151  1  0.85149034  0.12972286  0.83119958  1
  N  N152  1  0.36255366  0.27447395  0.93990051  1
  N  N153  1  0.68079196  0.36066976  0.06253146  1
  N  N154  1  0.00253778  0.67333416  0.13720747  1
  N  N155  1  0.82019591  0.49385012  0.36449525  1
  N  N156  1  -0.02146328  0.34413824  0.37531558  1
  N  N157  1  -0.00624687  -0.01160310  0.38608722  1
  N  N158  1  0.83975972  0.84539869  0.14993293  1
  N  N159  1  0.18536203  0.15343054  0.60811703  1
  N  N160  1  0.31026303  0.65165430  0.12018163  1
  N  N161  1  0.01456216  0.63179172  0.56581472  1
  N  N162  1  0.16043788  0.50065281  0.86904597  1
  N  N163  1  0.48019965  0.82357990  0.16175263  1
  N  N164  1  0.49302381  0.12785328  0.87297901  1
  N  N165  1  0.13336432  0.16192390  0.36556320  1
  N  N166  1  -0.03886620  0.66542719  0.33851181  1
  N  N167  1  0.52442974  0.46159009  0.68584318  1
  N  N168  1  0.68130901  0.02123151  0.39000426  1
  N  N169  1  0.33545774  0.33156790  0.14114284  1
  N  N170  1  0.81158727  0.80663649  0.57784443  1
  N  N171  1  0.33171269  0.67916926  0.88989787  1
  N  N172  1  0.32923231  0.62749480  0.69927928  1
  N  N173  1  0.47942552  0.17180011  0.64122071  1
  N  N174  1  0.50272424  0.84552516  0.39027575  1
  N  N175  1  0.49203025  0.87043178  0.59850310  1
  N  N176  1  0.29606453  0.04276343  0.13493970  1
  O  O177  1  0.12583756  0.18127667  0.12682791  1
  O  O178  1  0.73737549  0.37225362  0.82107983  1
  O  O179  1  0.49738546  0.17230443  0.07568617  1
  O  O180  1  0.17782801  0.82926764  0.06309545  1
  O  O181  1  0.32118501  0.38416883  0.73025444  1
  O  O182  1  0.29777474  -0.01893081  0.90562647  1
  O  O183  1  0.70087074  0.32999591  0.63937885  1
  O  O184  1  -0.01488089  0.35785367  0.60701576  1
  O  O185  1  0.84642842  0.85533630  0.76666418  1
  O  O186  1  -0.00459364  0.70193004  0.75378385  1
  O  O187  1  0.55552005  0.21011662  0.46367632  1
  O  O188  1  0.14168309  0.47851376  0.36381259  1
  O  O189  1  0.36647852  0.61548774  0.31226773  1
  O  O190  1  0.16081295  0.49290989  0.11771629  1
  O  O191  1  0.68918509  0.65789768  0.09458112  1
  O  O192  1  0.86395031  0.52871833  0.86654313  1
  O  O193  1  0.02896548  -0.01628482  0.62409544  1
  O  O194  1  0.64730779  0.63553032  0.32667505  1
  O  O195  1  0.21345956  0.85109728  0.41604347  1
  O  O196  1  0.80310192  0.78959542  0.36979834  1
  O  O197  1  0.69468058  0.60717245  0.72128674  1
  O  O198  1  0.00890414  0.34505344  0.11237907  1
  O  O199  1  0.82754016  0.16777249  0.03360005  1
  O  O200  1  0.70539711  0.71475745  0.86379011  1
  O  O201  1  0.67903278  0.06044623  0.18300241  1
  O  O202  1  0.67337784  0.33839025  0.41815817  1
  O  O203  1  0.52757123  0.48214603  0.46857216  1
  O  O204  1  0.02127956  0.36145079  0.86662729  1
  O  O205  1  0.35596219  -0.01772620  0.72265825  1
  O  O206  1  0.27197665  0.35148344  0.35445378  1
  O  O207  1  0.48726213  0.46170800  0.08048845  1
  O  O208  1  0.52450949  0.85813637  0.97007037  1
  O  O209  1  0.69724423  -0.02456583  0.98937051  1
  O  O210  1  0.02221443  -0.00616993  0.86965391  1
  O  O211  1  0.53694324  0.47985116  0.89240052  1
  O  O212  1  0.24328924  0.57239451  0.49074741  1
  O  O213  1  0.82742258  0.18095108  0.64405736  1
  O  O214  1  0.28962638  -0.00271712  0.31342748  1
  O  O215  1  0.82411604  0.51427449  0.61397855  1
