# generated using pymatgen
data_Sr24Ta24N11O13
_symmetry_space_group_name_H-M   'P 1'
_cell_length_a   16.79208672
_cell_length_b   16.85325727
_cell_length_c   15.77641900
_cell_angle_alpha   89.92231749
_cell_angle_beta   90.11688008
_cell_angle_gamma   90.00091718
_symmetry_Int_Tables_number   1
_chemical_formula_structural   Sr24Ta24N11O13
_chemical_formula_sum   'Sr72 Ta72 N33 O39'
_cell_volume   4464.73460205
_cell_formula_units_Z   3
loop_
 _symmetry_equiv_pos_site_id
 _symmetry_equiv_pos_as_xyz
  1  'x, y, z'
loop_
 _atom_site_type_symbol
 _atom_site_label
 _atom_site_symmetry_multiplicity
 _atom_site_fract_x
 _atom_site_fract_y
 _atom_site_fract_z
 _atom_site_occupancy
  Sr  Sr0  1  0.00078204  0.15954279  0.16389341  1
  Sr  Sr1  1  0.02055231  0.15577303  0.62197390  1
  Sr  Sr2  1  0.00709305  0.50118270  0.13529470  1
  Sr  Sr3  1  0.00170350  0.48335032  0.60106393  1
  Sr  Sr4  1  0.00032847  0.84410768  0.08149540  1
  Sr  Sr5  1  0.00969166  0.81503958  0.63478591  1
  Sr  Sr6  1  0.31570318  0.18340213  0.11054849  1
  Sr  Sr7  1  0.34826777  0.15798167  0.67537361  1
  Sr  Sr8  1  0.34090092  0.49888547  0.08855977  1
  Sr  Sr9  1  0.33205852  0.50656492  0.63733325  1
  Sr  Sr10  1  0.32755376  0.82381778  0.13821811  1
  Sr  Sr11  1  0.35383613  0.85311584  0.57610185  1
  Sr  Sr12  1  0.66951834  0.16649719  0.13063646  1
  Sr  Sr13  1  0.66113057  0.16590963  0.58418394  1
  Sr  Sr14  1  0.65756882  0.49142374  0.14143485  1
  Sr  Sr15  1  0.68496414  0.49336338  0.64277925  1
  Sr  Sr16  1  0.68364867  0.81681268  0.12904378  1
  Sr  Sr17  1  0.67382276  0.82813481  0.65058531  1
  Sr  Sr18  1  0.17117726  -0.02183856  0.09845923  1
  Sr  Sr19  1  0.17063222  0.00469889  0.63211917  1
  Sr  Sr20  1  0.15234199  0.33374518  0.13896625  1
  Sr  Sr21  1  0.16531951  0.34075346  0.58935936  1
  Sr  Sr22  1  0.16346584  0.66228499  0.15863395  1
  Sr  Sr23  1  0.14948027  0.65746116  0.63360594  1
  Sr  Sr24  1  0.49574977  0.02038459  0.09995607  1
  Sr  Sr25  1  0.50349932  0.00475357  0.62737617  1
  Sr  Sr26  1  0.51462324  0.32973449  0.16538305  1
  Sr  Sr27  1  0.49421218  0.33948020  0.62684583  1
  Sr  Sr28  1  0.47821881  0.66720659  0.10695967  1
  Sr  Sr29  1  0.48308752  0.67257486  0.60479919  1
  Sr  Sr30  1  0.82468563  0.01823738  0.14373964  1
  Sr  Sr31  1  0.82354901  0.01718018  0.61063789  1
  Sr  Sr32  1  0.82017231  0.34179623  0.08265641  1
  Sr  Sr33  1  0.83339030  0.34097417  0.63778876  1
  Sr  Sr34  1  0.83974805  0.68043002  0.11690076  1
  Sr  Sr35  1  0.81925888  0.68394589  0.64519499  1
  Sr  Sr36  1  0.01755840  0.15337444  0.37827723  1
  Sr  Sr37  1  -0.01352067  0.16816538  0.83249234  1
  Sr  Sr38  1  0.00738055  0.49461218  0.36932363  1
  Sr  Sr39  1  -0.00309321  0.48021275  0.90571725  1
  Sr  Sr40  1  0.00611973  0.82737887  0.40802098  1
  Sr  Sr41  1  0.01324684  0.81759171  0.86358577  1
  Sr  Sr42  1  0.32876047  0.19937214  0.33321252  1
  Sr  Sr43  1  0.32805457  0.16286367  0.88438081  1
  Sr  Sr44  1  0.35303407  0.48760926  0.41820519  1
  Sr  Sr45  1  0.33497968  0.50977644  0.86677126  1
  Sr  Sr46  1  0.32478268  0.82548616  0.35358433  1
  Sr  Sr47  1  0.34231978  0.82973428  0.90927146  1
  Sr  Sr48  1  0.65819775  0.16569815  0.37216650  1
  Sr  Sr49  1  0.67541284  0.15813448  0.91939564  1
  Sr  Sr50  1  0.66819230  0.50549646  0.35815198  1
  Sr  Sr51  1  0.67078304  0.47753004  0.85717013  1
  Sr  Sr52  1  0.69569532  0.82281229  0.35231044  1
  Sr  Sr53  1  0.67031518  0.82212581  0.86364719  1
  Sr  Sr54  1  0.17405027  -0.01705814  0.39838382  1
  Sr  Sr55  1  0.16800704  0.00812893  0.86485355  1
  Sr  Sr56  1  0.15308637  0.32562896  0.36571921  1
  Sr  Sr57  1  0.18029137  0.34094323  0.92402519  1
  Sr  Sr58  1  0.14600248  0.65991467  0.36443781  1
  Sr  Sr59  1  0.16747402  0.65248058  0.83881984  1
  Sr  Sr60  1  0.48701650  -0.00716495  0.39640968  1
  Sr  Sr61  1  0.50227242  0.01497715  0.86813946  1
  Sr  Sr62  1  0.50371055  0.33318010  0.37506538  1
  Sr  Sr63  1  0.49453786  0.34421205  0.83629360  1
  Sr  Sr64  1  0.48113646  0.67035255  0.38878268  1
  Sr  Sr65  1  0.48411931  0.66665121  0.89653157  1
  Sr  Sr66  1  0.82597362  0.01242881  0.36729358  1
  Sr  Sr67  1  0.82517727  0.01809143  0.88478397  1
  Sr  Sr68  1  0.82498804  0.35587882  0.41331450  1
  Sr  Sr69  1  0.83667600  0.33382233  0.86835457  1
  Sr  Sr70  1  0.81855215  0.66687526  0.34595726  1
  Sr  Sr71  1  0.84031156  0.68818889  0.87974936  1
  Ta  Ta72  1  0.11933353  0.16030342  -0.00598724  1
  Ta  Ta73  1  0.20553453  0.16584527  0.50404355  1
  Ta  Ta74  1  0.16568357  0.53328104  0.00629476  1
  Ta  Ta75  1  0.17834543  0.52112643  0.49441778  1
  Ta  Ta76  1  0.17138017  0.78726549  0.00031363  1
  Ta  Ta77  1  0.17928311  0.80437054  0.49568743  1
  Ta  Ta78  1  0.49655104  0.20626319  -0.00546502  1
  Ta  Ta79  1  0.46222270  0.17216561  0.49790142  1
  Ta  Ta80  1  0.51575482  0.47587587  -0.00126637  1
  Ta  Ta81  1  0.54022198  0.50118615  0.50149142  1
  Ta  Ta82  1  0.51785605  0.85480833  -0.00002803  1
  Ta  Ta83  1  0.55424914  0.83247507  0.49821620  1
  Ta  Ta84  1  0.87232824  0.16892741  0.00324016  1
  Ta  Ta85  1  0.85436976  0.18156798  0.49993949  1
  Ta  Ta86  1  0.80784775  0.52373791  0.00046258  1
  Ta  Ta87  1  0.82708317  0.53768173  0.49966572  1
  Ta  Ta88  1  0.82319190  0.86922378  0.00080689  1
  Ta  Ta89  1  0.83188730  0.84520807  0.49638639  1
  Ta  Ta90  1  0.17503814  0.11547103  0.25225838  1
  Ta  Ta91  1  0.16947166  0.21278542  0.75307331  1
  Ta  Ta92  1  0.21096977  0.49097222  0.25061200  1
  Ta  Ta93  1  0.15477689  0.46485125  0.75954558  1
  Ta  Ta94  1  0.12729243  0.83786933  0.24584996  1
  Ta  Ta95  1  0.21273650  0.83448582  0.74873450  1
  Ta  Ta96  1  0.49391739  0.13402390  0.25341887  1
  Ta  Ta97  1  0.55074806  0.16808839  0.75520214  1
  Ta  Ta98  1  0.47736958  0.51405667  0.24905502  1
  Ta  Ta99  1  0.50731913  0.52946586  0.74960885  1
  Ta  Ta100  1  0.52187358  0.84147376  0.25043856  1
  Ta  Ta101  1  0.47692737  0.82729852  0.74860122  1
  Ta  Ta102  1  0.83131702  0.21482109  0.24915466  1
  Ta  Ta103  1  0.79194708  0.16642782  0.75453349  1
  Ta  Ta104  1  0.83556969  0.47031678  0.25239671  1
  Ta  Ta105  1  0.85926607  0.51314315  0.74693617  1
  Ta  Ta106  1  0.88500164  0.84433192  0.24695458  1
  Ta  Ta107  1  0.84801746  0.87547442  0.75591407  1
  Ta  Ta108  1  0.01845235  -0.02802047  0.25017711  1
  Ta  Ta109  1  -0.02329454  -0.01597677  0.75134604  1
  Ta  Ta110  1  -0.04858120  0.33372913  0.25127775  1
  Ta  Ta111  1  0.03669342  0.34271113  0.75675682  1
  Ta  Ta112  1  -0.00915585  0.70625001  0.24596545  1
  Ta  Ta113  1  -0.01231391  0.62078625  0.75098888  1
  Ta  Ta114  1  0.33564729  0.02254983  0.24913160  1
  Ta  Ta115  1  0.34024175  -0.04647897  0.75155858  1
  Ta  Ta116  1  0.33952387  0.38493660  0.24930587  1
  Ta  Ta117  1  0.29048938  0.33712946  0.75502308  1
  Ta  Ta118  1  0.33376228  0.62030989  0.24814113  1
  Ta  Ta119  1  0.34161175  0.70771578  0.75171552  1
  Ta  Ta120  1  0.62707103  -0.01150137  0.24886488  1
  Ta  Ta121  1  0.67405823  0.02855803  0.75312051  1
  Ta  Ta122  1  0.70819292  0.33132785  0.24846010  1
  Ta  Ta123  1  0.66801967  0.28929023  0.75386025  1
  Ta  Ta124  1  0.61872362  0.66768562  0.24986908  1
  Ta  Ta125  1  0.62767329  0.65355063  0.74685496  1
  Ta  Ta126  1  -0.00867680  0.03299922  0.00021517  1
  Ta  Ta127  1  -0.01360026  -0.01201172  0.50390664  1
  Ta  Ta128  1  0.00117553  0.28768132  -0.00000396  1
  Ta  Ta129  1  -0.01530681  0.30730860  0.49651736  1
  Ta  Ta130  1  0.03663043  0.66107830  -0.00576777  1
  Ta  Ta131  1  -0.03147361  0.65615453  0.50342262  1
  Ta  Ta132  1  0.34302864  -0.00731770  -0.00690912  1
  Ta  Ta133  1  0.33321520  0.06372636  0.50044522  1
  Ta  Ta134  1  0.39136580  0.33643443  -0.00036652  1
  Ta  Ta135  1  0.33777465  0.28686856  0.50575455  1
  Ta  Ta136  1  0.28836332  0.66640018  0.00074257  1
  Ta  Ta137  1  0.29591442  0.66839361  0.49780269  1
  Ta  Ta138  1  0.66231794  -0.03367640  -0.00404762  1
  Ta  Ta139  1  0.66375410  -0.03992542  0.49903470  1
  Ta  Ta140  1  0.62860606  0.33568734  -0.00145995  1
  Ta  Ta141  1  0.65567541  0.35328696  0.50598613  1
  Ta  Ta142  1  0.66586189  0.63344439  -0.00194476  1
  Ta  Ta143  1  0.66484702  0.65914415  0.50039181  1
  N  N144  1  -0.00910264  0.65773462  0.62359967  1
  N  N145  1  0.64948070  0.66750366  0.36573640  1
  N  N146  1  0.82990058  0.17409977  0.87350487  1
  N  N147  1  0.16576554  0.82173192  0.37438763  1
  N  N148  1  0.50632580  0.50115689  0.38453279  1
  N  N149  1  0.17112576  0.49166464  0.37622022  1
  N  N150  1  0.66235001  -0.00690406  0.87136953  1
  N  N151  1  0.83529709  0.17787763  0.12366241  1
  N  N152  1  0.16932560  0.49311260  0.12443259  1
  N  N153  1  0.00768620  0.32519927  0.87729857  1
  N  N154  1  0.49583249  0.16559618  0.37371561  1
  N  N155  1  0.16538044  0.49220762  0.87898257  1
  N  N156  1  0.32469188  0.65968140  0.13155621  1
  N  N157  1  -0.00682643  0.32974697  0.37419996  1
  N  N158  1  0.84266343  0.84287553  0.87675967  1
  N  N159  1  0.83384301  0.50656947  0.37089831  1
  N  N160  1  0.33488819  0.00092462  0.87135619  1
  N  N161  1  0.15769697  0.16986675  0.87728257  1
  N  N162  1  0.17353718  0.15352460  0.36862029  1
  N  N163  1  0.84452447  0.84775770  0.12572217  1
  N  N164  1  0.66933044  0.32936670  0.12833421  1
  N  N165  1  0.50156306  0.50051655  0.12513987  1
  N  N166  1  0.50435975  0.17452875  0.87374319  1
  N  N167  1  0.16218376  0.82166569  0.12569615  1
  N  N168  1  0.00692873  0.65534564  0.87325137  1
  N  N169  1  0.49962175  0.50645271  0.86932005  1
  N  N170  1  0.66630094  0.32934109  0.62431138  1
  N  N171  1  0.84623691  0.84223851  0.37482610  1
  N  N172  1  0.66570048  0.32495302  0.88149858  1
  N  N173  1  0.32822379  0.67426132  0.87020813  1
  N  N174  1  0.83921397  0.50199064  0.62198490  1
  N  N175  1  0.17706284  0.17525727  0.62968237  1
  N  N176  1  0.65526160  0.66956087  0.62837190  1
  O  O177  1  0.32260942  0.67530412  0.62289647  1
  O  O178  1  -0.00216192  0.68368101  0.11852246  1
  O  O179  1  0.82719763  0.17397139  0.62269757  1
  O  O180  1  0.19239456  0.83316300  0.62573129  1
  O  O181  1  0.50697273  0.16310731  0.63170764  1
  O  O182  1  0.48409490  0.50259236  0.61820162  1
  O  O183  1  0.34214833  0.00599169  0.63190289  1
  O  O184  1  0.50687138  0.84165424  0.12186471  1
  O  O185  1  0.50129904  0.83710575  0.87156966  1
  O  O186  1  0.66772997  -0.01216037  0.62418067  1
  O  O187  1  0.82894099  0.51398695  0.87835521  1
  O  O188  1  0.00932962  0.32722284  0.62266347  1
  O  O189  1  0.33415410  0.02100216  0.37861490  1
  O  O190  1  0.64565427  0.65041112  0.12025004  1
  O  O191  1  0.65389182  -0.01301229  0.37158492  1
  O  O192  1  0.49800376  0.17304342  0.13158716  1
  O  O193  1  0.65861647  0.65241754  0.87605749  1
  O  O194  1  0.66549336  0.33181648  0.37292928  1
  O  O195  1  -0.00484255  0.32092596  0.12967706  1
  O  O196  1  0.82287762  0.50774746  0.12526379  1
  O  O197  1  0.00470739  -0.01269496  0.38105253  1
  O  O198  1  -0.01693122  0.67758506  0.37011349  1
  O  O199  1  0.33838551  0.33948736  0.87361273  1
  O  O200  1  -0.01161492  0.01082216  0.87151331  1
  O  O201  1  0.00406937  0.00500172  0.12119484  1
  O  O202  1  0.33840698  0.00383911  0.12646123  1
  O  O203  1  0.31728872  0.66710934  0.37012721  1
  O  O204  1  0.83819958  0.17255891  0.37544387  1
  O  O205  1  0.36075694  0.34678036  0.12715398  1
  O  O206  1  0.83108371  0.84388032  0.63321427  1
  O  O207  1  0.15608609  0.14549872  0.12656425  1
  O  O208  1  0.50402013  0.83054444  0.62214096  1
  O  O209  1  0.18143373  0.82459226  0.87231242  1
  O  O210  1  0.00360751  -0.01871262  0.62526977  1
  O  O211  1  0.51560544  0.83265575  0.37533524  1
  O  O212  1  0.34457165  0.33902151  0.38480400  1
  O  O213  1  0.65017805  -0.00645118  0.12629619  1
  O  O214  1  0.17361771  0.49615828  0.62206913  1
  O  O215  1  0.32656644  0.32382969  0.62902180  1
