# generated using pymatgen
data_Sr24Ta24N11O13
_symmetry_space_group_name_H-M   'P 1'
_cell_length_a   16.87853342
_cell_length_b   16.74543795
_cell_length_c   15.74645643
_cell_angle_alpha   90.01081157
_cell_angle_beta   90.13516454
_cell_angle_gamma   89.72026560
_symmetry_Int_Tables_number   1
_chemical_formula_structural   Sr24Ta24N11O13
_chemical_formula_sum   'Sr72 Ta72 N33 O39'
_cell_volume   4450.48828905
_cell_formula_units_Z   3
loop_
 _symmetry_equiv_pos_site_id
 _symmetry_equiv_pos_as_xyz
  1  'x, y, z'
loop_
 _atom_site_type_symbol
 _atom_site_label
 _atom_site_symmetry_multiplicity
 _atom_site_fract_x
 _atom_site_fract_y
 _atom_site_fract_z
 _atom_site_occupancy
  Sr  Sr0  1  0.00616204  0.17102485  0.14521576  1
  Sr  Sr1  1  0.01941937  0.15643158  0.58968486  1
  Sr  Sr2  1  -0.00304106  0.50969004  0.07879358  1
  Sr  Sr3  1  0.01063747  0.49696409  0.63875730  1
  Sr  Sr4  1  0.01326199  0.83984370  0.13469171  1
  Sr  Sr5  1  -0.00418540  0.84181732  0.65913231  1
  Sr  Sr6  1  0.35671125  0.15748397  0.14668235  1
  Sr  Sr7  1  0.34720336  0.17519789  0.64523811  1
  Sr  Sr8  1  0.33772776  0.51291108  0.13865332  1
  Sr  Sr9  1  0.35475761  0.49595529  0.59873823  1
  Sr  Sr10  1  0.32735745  0.83872525  0.08312923  1
  Sr  Sr11  1  0.34198736  0.82450492  0.63645763  1
  Sr  Sr12  1  0.67582051  0.18278193  0.09495547  1
  Sr  Sr13  1  0.68235615  0.15473089  0.63813372  1
  Sr  Sr14  1  0.69904311  0.49732622  0.15653647  1
  Sr  Sr15  1  0.67049897  0.50718067  0.62757474  1
  Sr  Sr16  1  0.65978346  0.82838979  0.13100831  1
  Sr  Sr17  1  0.68684247  0.82832568  0.59006023  1
  Sr  Sr18  1  0.16637841  0.00600940  0.12793406  1
  Sr  Sr19  1  0.16261590  0.00071926  0.59114800  1
  Sr  Sr20  1  0.13673352  0.33896163  0.10336646  1
  Sr  Sr21  1  0.16173318  0.31789159  0.64516742  1
  Sr  Sr22  1  0.16411431  0.66020984  0.15497062  1
  Sr  Sr23  1  0.17816392  0.66759255  0.61371612  1
  Sr  Sr24  1  0.50034638  0.00085153  0.15896839  1
  Sr  Sr25  1  0.48579289  -0.01226369  0.63313216  1
  Sr  Sr26  1  0.48185193  0.32789597  0.12549728  1
  Sr  Sr27  1  0.49389639  0.32978520  0.58919378  1
  Sr  Sr28  1  0.48418043  0.67939906  0.10348177  1
  Sr  Sr29  1  0.50811744  0.65242953  0.66110019  1
  Sr  Sr30  1  0.79934597  0.01003265  0.08627576  1
  Sr  Sr31  1  0.83098401  -0.00261748  0.63271832  1
  Sr  Sr32  1  0.82120147  0.32794145  0.13519315  1
  Sr  Sr33  1  0.81615188  0.33987678  0.66729292  1
  Sr  Sr34  1  0.83486438  0.68163135  0.13194714  1
  Sr  Sr35  1  0.81873552  0.65603391  0.58224700  1
  Sr  Sr36  1  -0.00758858  0.15953462  0.37132773  1
  Sr  Sr37  1  0.03644352  0.16399895  0.90509129  1
  Sr  Sr38  1  0.00081588  0.52111646  0.42163569  1
  Sr  Sr39  1  0.00011615  0.48812575  0.86596466  1
  Sr  Sr40  1  0.00374514  0.81650291  0.32925906  1
  Sr  Sr41  1  0.00268255  0.84262849  0.86548670  1
  Sr  Sr42  1  0.35965661  0.16827373  0.35751108  1
  Sr  Sr43  1  0.34374253  0.17343121  0.85461713  1
  Sr  Sr44  1  0.33860706  0.50929093  0.36322091  1
  Sr  Sr45  1  0.36271341  0.49739168  0.91215439  1
  Sr  Sr46  1  0.31571000  0.84137925  0.42061828  1
  Sr  Sr47  1  0.34276239  0.82070972  0.86324655  1
  Sr  Sr48  1  0.67440155  0.17421357  0.39738356  1
  Sr  Sr49  1  0.68345048  0.15370874  0.86854267  1
  Sr  Sr50  1  0.68760781  0.50428996  0.37958854  1
  Sr  Sr51  1  0.67198548  0.50559711  0.84183948  1
  Sr  Sr52  1  0.65973431  0.83196361  0.36356497  1
  Sr  Sr53  1  0.68294008  0.81803445  0.91438199  1
  Sr  Sr54  1  0.15212206  0.00427742  0.36232639  1
  Sr  Sr55  1  0.16834546  -0.00867401  0.91066384  1
  Sr  Sr56  1  0.12722951  0.32313728  0.39049421  1
  Sr  Sr57  1  0.16441567  0.33022096  0.86451016  1
  Sr  Sr58  1  0.17817891  0.66184715  0.38479451  1
  Sr  Sr59  1  0.14695272  0.66596427  0.83639132  1
  Sr  Sr60  1  0.49360544  -0.01397913  0.37175901  1
  Sr  Sr61  1  0.48563125  0.01023736  0.83763028  1
  Sr  Sr62  1  0.48234362  0.33683568  0.37636951  1
  Sr  Sr63  1  0.48955525  0.32307295  0.90963529  1
  Sr  Sr64  1  0.49110084  0.66251147  0.34311071  1
  Sr  Sr65  1  0.50039937  0.66434194  0.87962177  1
  Sr  Sr66  1  0.81919624  0.01899793  0.41909964  1
  Sr  Sr67  1  0.82454134  -0.00534288  0.86236828  1
  Sr  Sr68  1  0.82860501  0.32717059  0.34032975  1
  Sr  Sr69  1  0.81166950  0.33296032  0.86916832  1
  Sr  Sr70  1  0.81908489  0.67938700  0.36270675  1
  Sr  Sr71  1  0.83511319  0.66928926  0.91133029  1
  Ta  Ta72  1  0.21662025  0.17077346  -0.00282720  1
  Ta  Ta73  1  0.21262874  0.17031797  0.50305779  1
  Ta  Ta74  1  0.17808023  0.52138869  -0.00420672  1
  Ta  Ta75  1  0.18360830  0.47265971  0.50624973  1
  Ta  Ta76  1  0.15619813  0.79561111  -0.00288299  1
  Ta  Ta77  1  0.11903061  0.83260045  0.49177330  1
  Ta  Ta78  1  0.49876828  0.13271932  0.00404602  1
  Ta  Ta79  1  0.50405669  0.13842158  0.50183648  1
  Ta  Ta80  1  0.54600188  0.49866811  0.00454701  1
  Ta  Ta81  1  0.51450739  0.52647527  0.49114563  1
  Ta  Ta82  1  0.50158803  0.87669943  -0.00072432  1
  Ta  Ta83  1  0.50411204  0.80054178  0.49957018  1
  Ta  Ta84  1  0.86496078  0.17438432  0.00178960  1
  Ta  Ta85  1  0.83827470  0.21228301  0.50623467  1
  Ta  Ta86  1  0.81391585  0.48734079  -0.00279970  1
  Ta  Ta87  1  0.83520436  0.45316596  0.50889395  1
  Ta  Ta88  1  0.86921302  0.84851963  0.00841443  1
  Ta  Ta89  1  0.87292082  0.83447800  0.49628126  1
  Ta  Ta90  1  0.18808461  0.18934003  0.25016811  1
  Ta  Ta91  1  0.16249751  0.13122670  0.74897496  1
  Ta  Ta92  1  0.13586398  0.48362624  0.25213113  1
  Ta  Ta93  1  0.22661959  0.49647355  0.75260700  1
  Ta  Ta94  1  0.20551464  0.83541097  0.25255781  1
  Ta  Ta95  1  0.17242679  0.86759019  0.74561214  1
  Ta  Ta96  1  0.54697241  0.17225329  0.25247842  1
  Ta  Ta97  1  0.51898644  0.20096877  0.74680930  1
  Ta  Ta98  1  0.53255535  0.49412824  0.24594132  1
  Ta  Ta99  1  0.49582549  0.46398151  0.75596176  1
  Ta  Ta100  1  0.45436092  0.83003155  0.24378995  1
  Ta  Ta101  1  0.54830425  0.82645496  0.75321596  1
  Ta  Ta102  1  0.81934639  0.13720920  0.25199569  1
  Ta  Ta103  1  0.88681879  0.16107769  0.74724883  1
  Ta  Ta104  1  0.87350741  0.50909467  0.24637423  1
  Ta  Ta105  1  0.84154346  0.54063630  0.75093565  1
  Ta  Ta106  1  0.82390253  0.88499658  0.24891854  1
  Ta  Ta107  1  0.81748270  0.80588933  0.74496926  1
  Ta  Ta108  1  -0.06280314  0.00106995  0.24942562  1
  Ta  Ta109  1  0.02007853  0.02312776  0.74881648  1
  Ta  Ta110  1  -0.00283207  0.39591593  0.24934472  1
  Ta  Ta111  1  -0.01123905  0.29238804  0.75077555  1
  Ta  Ta112  1  0.00183314  0.61871940  0.24749702  1
  Ta  Ta113  1  -0.05206319  0.67103681  0.74716252  1
  Ta  Ta114  1  0.32573651  -0.03956601  0.24807618  1
  Ta  Ta115  1  0.29071230  -0.00488395  0.74659241  1
  Ta  Ta116  1  0.28186356  0.33501176  0.25137556  1
  Ta  Ta117  1  0.34948161  0.36083681  0.75114927  1
  Ta  Ta118  1  0.33090506  0.71084011  0.24913581  1
  Ta  Ta119  1  0.33024717  0.62952568  0.75225717  1
  Ta  Ta120  1  0.68259274  0.01882218  0.25184655  1
  Ta  Ta121  1  0.66030908  -0.04803160  0.75368187  1
  Ta  Ta122  1  0.63934328  0.32943541  0.24833697  1
  Ta  Ta123  1  0.62210281  0.33121421  0.75261651  1
  Ta  Ta124  1  0.64490872  0.65377839  0.24313499  1
  Ta  Ta125  1  0.69070731  0.68858486  0.75136707  1
  Ta  Ta126  1  -0.02346409  -0.00114554  0.00411819  1
  Ta  Ta127  1  -0.00654820  -0.04855353  0.49206147  1
  Ta  Ta128  1  -0.03935676  0.32537756  0.00007790  1
  Ta  Ta129  1  -0.04183748  0.33679912  0.50387090  1
  Ta  Ta130  1  0.02348874  0.68897163  0.00397791  1
  Ta  Ta131  1  -0.00320216  0.71644678  0.50000221  1
  Ta  Ta132  1  0.35882269  0.01709181  0.00188141  1
  Ta  Ta133  1  0.33575519  0.03192128  0.50260997  1
  Ta  Ta134  1  0.30810262  0.32025835  0.00015643  1
  Ta  Ta135  1  0.30084451  0.32761375  0.50391364  1
  Ta  Ta136  1  0.28613483  0.66442198  -0.00392296  1
  Ta  Ta137  1  0.37607219  0.66742332  0.50105299  1
  Ta  Ta138  1  0.61820466  -0.00195862  -0.00796653  1
  Ta  Ta139  1  0.63618303  0.00362722  0.50935483  1
  Ta  Ta140  1  0.66255547  0.37584819  0.00398204  1
  Ta  Ta141  1  0.69328512  0.33948479  0.50333518  1
  Ta  Ta142  1  0.66424229  0.62458206  0.00313292  1
  Ta  Ta143  1  0.62578331  0.66474168  0.49518508  1
  N  N144  1  0.48799062  0.84197461  0.12148932  1
  N  N145  1  0.66495127  0.66611772  0.61685928  1
  N  N146  1  0.34450502  0.66147593  0.62696151  1
  N  N147  1  0.67095872  0.67179837  0.11677630  1
  N  N148  1  0.50602689  0.17139012  0.62627226  1
  N  N149  1  0.51318274  0.49168223  0.87592445  1
  N  N150  1  0.84752897  0.16881728  0.62439767  1
  N  N151  1  0.51264850  0.16304674  0.37268660  1
  N  N152  1  0.32993603  0.66525320  0.87857815  1
  N  N153  1  0.67170117  0.66191402  0.87309485  1
  N  N154  1  0.16123780  0.83044766  0.37177069  1
  N  N155  1  0.18732734  0.15990697  0.87678708  1
  N  N156  1  0.17769110  0.16265690  0.62370709  1
  N  N157  1  0.51235707  0.16075929  0.12439384  1
  N  N158  1  0.66294912  0.67162352  0.36798316  1
  N  N159  1  0.83819227  0.50384880  0.87180434  1
  N  N160  1  0.66063317  0.33752199  0.12643137  1
  N  N161  1  0.84789117  0.50650860  0.12242468  1
  N  N162  1  0.33196388  0.33171525  0.62655953  1
  N  N163  1  0.00665384  0.66418911  0.12569636  1
  N  N164  1  0.83389922  0.17292180  0.37415210  1
  N  N165  1  0.82989875  0.84554354  0.12520744  1
  N  N166  1  0.32373029  0.67406986  0.12350608  1
  N  N167  1  0.33580603  0.67450629  0.37809159  1
  N  N168  1  0.83901729  0.16723195  0.12240708  1
  N  N169  1  0.33128049  0.33241687  0.88004210  1
  N  N170  1  0.83752912  0.49748868  0.62471966  1
  N  N171  1  0.83821566  0.82960596  0.62388243  1
  N  N172  1  0.50630065  0.49559575  0.36996487  1
  N  N173  1  0.33387682  -0.00212741  0.12316861  1
  N  N174  1  0.32786068  0.00045534  0.62141718  1
  N  N175  1  0.66076617  -0.00796771  0.62761512  1
  N  N176  1  0.66224725  -0.00580178  0.87542804  1
  O  O177  1  -0.02124729  -0.00160159  0.37346649  1
  O  O178  1  0.84328452  0.15571985  0.86922169  1
  O  O179  1  -0.00825023  0.31857893  0.62807543  1
  O  O180  1  0.50442743  0.16606245  0.87208354  1
  O  O181  1  0.84095777  0.83427260  0.88234011  1
  O  O182  1  0.18300747  0.48837559  0.63095103  1
  O  O183  1  0.29525469  0.35193035  0.12919496  1
  O  O184  1  0.17746810  0.50119947  0.87225921  1
  O  O185  1  0.65613467  0.00647469  0.12607913  1
  O  O186  1  0.52286728  0.82635609  0.88005133  1
  O  O187  1  -0.01549337  0.32075824  0.87633406  1
  O  O188  1  0.15736604  0.48152888  0.38457023  1
  O  O189  1  0.17685063  0.17188246  0.37535341  1
  O  O190  1  0.84522292  0.49848014  0.38644014  1
  O  O191  1  0.31624509  0.33712220  0.37134094  1
  O  O192  1  0.18662424  0.16532874  0.12754147  1
  O  O193  1  0.00247146  0.66603952  0.36836304  1
  O  O194  1  0.00613006  -0.00347093  0.62320743  1
  O  O195  1  0.65980938  0.33826762  0.62384775  1
  O  O196  1  0.15865600  0.84782046  0.62094126  1
  O  O197  1  0.00426398  0.00656905  0.88015784  1
  O  O198  1  0.52038419  0.81515337  0.63032799  1
  O  O199  1  -0.01765706  0.00790117  0.12896806  1
  O  O200  1  -0.02040472  0.35960848  0.37769076  1
  O  O201  1  0.16789127  0.81891032  0.12581187  1
  O  O202  1  0.16011582  0.50081233  0.11958932  1
  O  O203  1  0.64943653  0.33613964  0.88161792  1
  O  O204  1  0.33446067  -0.00373950  0.37384838  1
  O  O205  1  -0.01487598  0.68544467  0.62622519  1
  O  O206  1  0.16282087  0.83337071  0.86792703  1
  O  O207  1  0.50917369  0.49438963  0.61976838  1
  O  O208  1  0.82668881  0.83968469  0.37112151  1
  O  O209  1  0.32813946  0.00137851  0.87041299  1
  O  O210  1  0.49299661  0.82572805  0.37539354  1
  O  O211  1  -0.00806705  0.68363644  0.86935505  1
  O  O212  1  0.49269421  0.48947225  0.12443021  1
  O  O213  1  0.67633650  0.33848386  0.37816251  1
  O  O214  1  -0.01798153  0.35031840  0.12428450  1
  O  O215  1  0.66661972  0.00669648  0.37799985  1
