# generated using pymatgen
data_Sr24Ta24N11O13
_symmetry_space_group_name_H-M   'P 1'
_cell_length_a   16.80366116
_cell_length_b   16.76645006
_cell_length_c   15.69457627
_cell_angle_alpha   89.87211663
_cell_angle_beta   89.80300975
_cell_angle_gamma   89.76063201
_symmetry_Int_Tables_number   1
_chemical_formula_structural   Sr24Ta24N11O13
_chemical_formula_sum   'Sr72 Ta72 N33 O39'
_cell_volume   4421.67894310
_cell_formula_units_Z   3
loop_
 _symmetry_equiv_pos_site_id
 _symmetry_equiv_pos_as_xyz
  1  'x, y, z'
loop_
 _atom_site_type_symbol
 _atom_site_label
 _atom_site_symmetry_multiplicity
 _atom_site_fract_x
 _atom_site_fract_y
 _atom_site_fract_z
 _atom_site_occupancy
  Sr  Sr0  1  0.00751486  0.14612504  0.15750575  1
  Sr  Sr1  1  -0.00376323  0.18078660  0.60322146  1
  Sr  Sr2  1  0.00754318  0.48223579  0.11267126  1
  Sr  Sr3  1  -0.01461357  0.50257674  0.67281489  1
  Sr  Sr4  1  -0.00493381  0.84276468  0.08495434  1
  Sr  Sr5  1  0.00415291  0.82806456  0.62868330  1
  Sr  Sr6  1  0.33621542  0.16865090  0.12904238  1
  Sr  Sr7  1  0.35757646  0.15916316  0.58499738  1
  Sr  Sr8  1  0.33555581  0.48560377  0.09548935  1
  Sr  Sr9  1  0.34152213  0.49942949  0.63649303  1
  Sr  Sr10  1  0.34446891  0.82354799  0.12240327  1
  Sr  Sr11  1  0.34155115  0.83964968  0.64549435  1
  Sr  Sr12  1  0.68602367  0.14872818  0.10399093  1
  Sr  Sr13  1  0.66646811  0.17326257  0.67011325  1
  Sr  Sr14  1  0.65498478  0.49350264  0.13059906  1
  Sr  Sr15  1  0.67974412  0.48925096  0.57923907  1
  Sr  Sr16  1  0.68333743  0.82046203  0.16131523  1
  Sr  Sr17  1  0.66688955  0.83412427  0.61320387  1
  Sr  Sr18  1  0.17284650  0.00826122  0.15983866  1
  Sr  Sr19  1  0.14479423  0.01446282  0.62246536  1
  Sr  Sr20  1  0.16827213  0.33271053  0.10785216  1
  Sr  Sr21  1  0.15014571  0.35076255  0.65977072  1
  Sr  Sr22  1  0.16152950  0.68096576  0.13769334  1
  Sr  Sr23  1  0.18238167  0.66840030  0.58108841  1
  Sr  Sr24  1  0.48816462  0.00361052  0.08453045  1
  Sr  Sr25  1  0.49609013  -0.00147283  0.61738903  1
  Sr  Sr26  1  0.51979861  0.32132873  0.17752570  1
  Sr  Sr27  1  0.49543510  0.34618748  0.61402161  1
  Sr  Sr28  1  0.50814092  0.65041710  0.11510203  1
  Sr  Sr29  1  0.48548666  0.67436624  0.67358608  1
  Sr  Sr30  1  0.83060019  -0.00183971  0.11838123  1
  Sr  Sr31  1  0.80487507  0.02009566  0.64935339  1
  Sr  Sr32  1  0.82777631  0.34510242  0.07888726  1
  Sr  Sr33  1  0.82800285  0.33023772  0.62125650  1
  Sr  Sr34  1  0.83753224  0.66320913  0.15441591  1
  Sr  Sr35  1  0.82445804  0.68237557  0.61430252  1
  Sr  Sr36  1  -0.01150528  0.16906116  0.38029099  1
  Sr  Sr37  1  0.03962653  0.15668841  0.83178687  1
  Sr  Sr38  1  0.01005977  0.51853503  0.32607706  1
  Sr  Sr39  1  0.00177771  0.48242753  0.88469913  1
  Sr  Sr40  1  0.00615581  0.82591621  0.42395459  1
  Sr  Sr41  1  0.00084092  0.84016084  0.87211903  1
  Sr  Sr42  1  0.34465329  0.17111878  0.36943672  1
  Sr  Sr43  1  0.33579465  0.16053091  0.91573926  1
  Sr  Sr44  1  0.32167217  0.49997972  0.41873460  1
  Sr  Sr45  1  0.34897539  0.49299306  0.86081560  1
  Sr  Sr46  1  0.32870286  0.82175545  0.35108221  1
  Sr  Sr47  1  0.34875646  0.83066256  0.87845501  1
  Sr  Sr48  1  0.66960997  0.16663499  0.33850149  1
  Sr  Sr49  1  0.66793171  0.15878013  0.87987435  1
  Sr  Sr50  1  0.64299755  0.47759715  0.36726820  1
  Sr  Sr51  1  0.66980737  0.50018152  0.91624934  1
  Sr  Sr52  1  0.66575031  0.83993018  0.38143529  1
  Sr  Sr53  1  0.67994800  0.80155488  0.84018636  1
  Sr  Sr54  1  0.14195385  0.01477619  0.38212819  1
  Sr  Sr55  1  0.16006834  -0.00879131  0.84096292  1
  Sr  Sr56  1  0.13602270  0.34369626  0.35408257  1
  Sr  Sr57  1  0.17957540  0.33494213  0.88371516  1
  Sr  Sr58  1  0.16961616  0.67101814  0.37116979  1
  Sr  Sr59  1  0.15788621  0.68967662  0.91389094  1
  Sr  Sr60  1  0.49429249  -0.01195893  0.41121683  1
  Sr  Sr61  1  0.48977726  0.00998568  0.88582236  1
  Sr  Sr62  1  0.47592229  0.34408801  0.39645720  1
  Sr  Sr63  1  0.50505981  0.32926706  0.83566830  1
  Sr  Sr64  1  0.49941110  0.68036770  0.33588413  1
  Sr  Sr65  1  0.50148242  0.65114190  0.88919380  1
  Sr  Sr66  1  0.81405784  0.01950733  0.33748493  1
  Sr  Sr67  1  0.82164446  0.00469646  0.89051007  1
  Sr  Sr68  1  0.83377758  0.33333561  0.40978119  1
  Sr  Sr69  1  0.81721999  0.33667626  0.88002249  1
  Sr  Sr70  1  0.82377954  0.67394605  0.38872775  1
  Sr  Sr71  1  0.84970921  0.67355980  0.83833799  1
  Ta  Ta72  1  0.15089219  0.14346540  -0.00178972  1
  Ta  Ta73  1  0.17802889  0.19407084  0.50332893  1
  Ta  Ta74  1  0.17462131  0.52703926  0.00283419  1
  Ta  Ta75  1  0.12924510  0.49029569  0.49778578  1
  Ta  Ta76  1  0.17743220  0.86650786  0.00458754  1
  Ta  Ta77  1  0.19738289  0.85422791  0.49745817  1
  Ta  Ta78  1  0.50769253  0.20416762  0.00047261  1
  Ta  Ta79  1  0.55045476  0.16631256  0.50039402  1
  Ta  Ta80  1  0.50014800  0.45307394  0.00298440  1
  Ta  Ta81  1  0.49822798  0.54663052  0.50417258  1
  Ta  Ta82  1  0.54439869  0.82180260  0.00200819  1
  Ta  Ta83  1  0.49168251  0.80111796  0.50125187  1
  Ta  Ta84  1  0.88269946  0.16627030  -0.01056232  1
  Ta  Ta85  1  0.80451384  0.15412766  0.50198683  1
  Ta  Ta86  1  0.84211892  0.54579370  -0.00550965  1
  Ta  Ta87  1  0.88594603  0.50577220  0.49975014  1
  Ta  Ta88  1  0.81449077  0.81166716  0.00369800  1
  Ta  Ta89  1  0.82976832  0.88554839  0.49998562  1
  Ta  Ta90  1  0.18266386  0.18973131  0.24778939  1
  Ta  Ta91  1  0.22420992  0.17032336  0.75284715  1
  Ta  Ta92  1  0.20832818  0.50223450  0.25312849  1
  Ta  Ta93  1  0.16816747  0.54696112  0.75075610  1
  Ta  Ta94  1  0.12094491  0.84022617  0.25769138  1
  Ta  Ta95  1  0.16838276  0.79816889  0.74829546  1
  Ta  Ta96  1  0.50092626  0.12119057  0.24901376  1
  Ta  Ta97  1  0.46659424  0.15828668  0.75405412  1
  Ta  Ta98  1  0.45420678  0.49966516  0.25523797  1
  Ta  Ta99  1  0.54481885  0.50001556  0.75036978  1
  Ta  Ta100  1  0.50182945  0.87152106  0.25057232  1
  Ta  Ta101  1  0.51515015  0.85704444  0.75153248  1
  Ta  Ta102  1  0.83818020  0.20782773  0.24093399  1
  Ta  Ta103  1  0.85967090  0.17343697  0.75937963  1
  Ta  Ta104  1  0.82759317  0.47373225  0.24801267  1
  Ta  Ta105  1  0.79543653  0.49610131  0.75330498  1
  Ta  Ta106  1  0.87210339  0.83545946  0.25436215  1
  Ta  Ta107  1  0.84215045  0.86338167  0.74276844  1
  Ta  Ta108  1  -0.01032546  -0.04681051  0.25829957  1
  Ta  Ta109  1  -0.03695968  -0.00014503  0.74691087  1
  Ta  Ta110  1  -0.04683301  0.33204890  0.24211569  1
  Ta  Ta111  1  -0.02639731  0.31791818  0.75976281  1
  Ta  Ta112  1  -0.00119914  0.72277972  0.25445282  1
  Ta  Ta113  1  0.05488457  0.67245359  0.74851011  1
  Ta  Ta114  1  0.36781497  -0.00083617  0.24441636  1
  Ta  Ta115  1  0.33740731  0.02921009  0.75384476  1
  Ta  Ta116  1  0.31712092  0.35482106  0.25630778  1
  Ta  Ta117  1  0.33774523  0.29065573  0.74798517  1
  Ta  Ta118  1  0.33141276  0.62023393  0.25043554  1
  Ta  Ta119  1  0.29096469  0.66854406  0.75275421  1
  Ta  Ta120  1  0.62168438  -0.00348892  0.23808925  1
  Ta  Ta121  1  0.64494509  -0.02018696  0.75984300  1
  Ta  Ta122  1  0.72469237  0.33502771  0.24391719  1
  Ta  Ta123  1  0.67245400  0.37318798  0.75155814  1
  Ta  Ta124  1  0.67382803  0.64239851  0.25297171  1
  Ta  Ta125  1  0.67050497  0.61718687  0.75187651  1
  Ta  Ta126  1  0.01640961  0.02571544  -0.00809375  1
  Ta  Ta127  1  -0.05603161  0.00396591  0.49841618  1
  Ta  Ta128  1  0.00271246  0.27993903  -0.01109752  1
  Ta  Ta129  1  0.00388223  0.37814535  0.50872858  1
  Ta  Ta130  1  -0.02194955  0.65797175  0.00067468  1
  Ta  Ta131  1  0.00168616  0.62208794  0.50162260  1
  Ta  Ta132  1  0.29150584  -0.00934192  0.00054099  1
  Ta  Ta133  1  0.30767115  -0.01817702  0.49622692  1
  Ta  Ta134  1  0.39009324  0.32610607  0.00273145  1
  Ta  Ta135  1  0.28127032  0.32720842  0.50250162  1
  Ta  Ta136  1  0.31976951  0.65254589  -0.00314514  1
  Ta  Ta137  1  0.36981471  0.67882004  0.50645068  1
  Ta  Ta138  1  0.66180415  -0.05661757  -0.00511349  1
  Ta  Ta139  1  0.67391475  0.02624248  0.50565290  1
  Ta  Ta140  1  0.62711132  0.32407577  -0.00395060  1
  Ta  Ta141  1  0.66033672  0.28642450  0.49859439  1
  Ta  Ta142  1  0.69356030  0.68072748  -0.00016909  1
  Ta  Ta143  1  0.61573714  0.66749452  0.50533375  1
  N  N144  1  0.82077918  0.16524112  0.87656116  1
  N  N145  1  -0.00587963  0.34445354  0.63172743  1
  N  N146  1  0.16268386  0.50377389  0.37565339  1
  N  N147  1  0.31631224  0.33963244  0.38085091  1
  N  N148  1  0.49524841  0.48609239  0.12599422  1
  N  N149  1  0.33241873  0.00005508  0.12545133  1
  N  N150  1  0.50358422  0.50556840  0.62277358  1
  N  N151  1  0.67097376  0.65502512  0.13127358  1
  N  N152  1  0.49922338  0.83615444  0.37283998  1
  N  N153  1  0.82943698  0.17395015  0.36513470  1
  N  N154  1  0.49785461  0.16809231  0.87269960  1
  N  N155  1  0.50026040  0.83793651  0.62956194  1
  N  N156  1  0.82878355  0.17328365  0.62411787  1
  N  N157  1  -0.01747178  -0.00214255  0.37820361  1
  N  N158  1  0.17531934  0.17147301  0.12635749  1
  N  N159  1  0.83823228  0.83003884  0.12368286  1
  N  N160  1  -0.00216946  -0.00062934  0.87033454  1
  N  N161  1  0.18605317  0.16599821  0.87428068  1
  N  N162  1  0.33392204  0.66857714  0.62710501  1
  N  N163  1  0.33501779  0.66604345  0.87594045  1
  N  N164  1  0.82856508  0.84115256  0.62034952  1
  N  N165  1  0.32617574  0.00122834  0.87428197  1
  N  N166  1  0.02374204  0.32596779  0.87635602  1
  N  N167  1  0.50616933  0.49268955  0.87094879  1
  N  N168  1  0.84334513  0.16813719  0.10968871  1
  N  N169  1  0.65341421  0.00645642  0.62618917  1
  N  N170  1  0.66112267  0.33399868  0.87266349  1
  N  N171  1  0.48835186  0.50366309  0.37565442  1
  N  N172  1  0.83229782  0.50879064  0.87537347  1
  N  N173  1  0.67367802  0.65379007  0.87568989  1
  N  N174  1  0.66057529  -0.00982760  0.11775444  1
  N  N175  1  0.16132692  0.83596753  0.37867346  1
  N  N176  1  0.66118264  0.00151062  0.88572264  1
  O  O177  1  0.16485521  0.51668311  0.62544680  1
  O  O178  1  0.65986319  0.00331775  0.36542783  1
  O  O179  1  0.85100724  0.49174032  0.37075922  1
  O  O180  1  0.83724332  0.83086940  0.86965687  1
  O  O181  1  0.32094196  0.00317728  0.62100486  1
  O  O182  1  -0.01881278  0.34544498  0.36872602  1
  O  O183  1  0.00354768  0.67071830  0.37975661  1
  O  O184  1  0.50111226  0.15717210  0.12690342  1
  O  O185  1  -0.01932618  0.32926105  0.11584443  1
  O  O186  1  -0.00812581  0.68582060  0.12341883  1
  O  O187  1  0.65871018  0.66605063  0.38117052  1
  O  O188  1  0.34706556  0.31708962  0.87675313  1
  O  O189  1  0.16270710  0.52435973  0.87933871  1
  O  O190  1  0.02070698  0.66462995  0.62237263  1
  O  O191  1  0.68388545  0.32197322  0.36780970  1
  O  O192  1  -0.00405961  -0.00713914  0.11884308  1
  O  O193  1  0.83190186  0.50035368  0.12068366  1
  O  O194  1  0.16189596  0.84864383  0.12995388  1
  O  O195  1  -0.00799758  0.01900208  0.62129891  1
  O  O196  1  0.52190188  0.81266124  0.87737210  1
  O  O197  1  0.16541973  0.17865437  0.37921930  1
  O  O198  1  0.33379731  0.31451459  0.62109500  1
  O  O199  1  0.16910884  0.82105094  0.61848751  1
  O  O200  1  0.00563810  0.66404842  0.87494960  1
  O  O201  1  0.16541554  0.51159261  0.12931329  1
  O  O202  1  0.33139517  0.66345788  0.13019564  1
  O  O203  1  0.34507086  0.33111012  0.12359612  1
  O  O204  1  0.67626412  0.33286690  0.12362806  1
  O  O205  1  0.33443614  0.66339532  0.37454231  1
  O  O206  1  0.83750477  0.50147454  0.62060529  1
  O  O207  1  0.82657478  0.83471472  0.38218063  1
  O  O208  1  0.66508920  0.65873414  0.62293514  1
  O  O209  1  0.17951434  0.17091939  0.62767461  1
  O  O210  1  0.51531499  0.82497664  0.12615526  1
  O  O211  1  0.50935816  0.14162705  0.37804550  1
  O  O212  1  0.17134716  0.83735296  0.87827884  1
  O  O213  1  0.50879960  0.15982747  0.62379413  1
  O  O214  1  0.33083924  -0.00721533  0.37284680  1
  O  O215  1  0.66603308  0.32984259  0.62372611  1
