# generated using pymatgen
data_Sr24Ta24N11O13
_symmetry_space_group_name_H-M   'P 1'
_cell_length_a   20.22389298
_cell_length_b   15.82294333
_cell_length_c   13.93363726
_cell_angle_alpha   90.03036221
_cell_angle_beta   89.84533895
_cell_angle_gamma   90.03919467
_symmetry_Int_Tables_number   1
_chemical_formula_structural   Sr24Ta24N11O13
_chemical_formula_sum   'Sr72 Ta72 N33 O39'
_cell_volume   4458.76709224
_cell_formula_units_Z   3
loop_
 _symmetry_equiv_pos_site_id
 _symmetry_equiv_pos_as_xyz
  1  'x, y, z'
loop_
 _atom_site_type_symbol
 _atom_site_label
 _atom_site_symmetry_multiplicity
 _atom_site_fract_x
 _atom_site_fract_y
 _atom_site_fract_z
 _atom_site_occupancy
  Sr  Sr0  1  0.00463837  0.16955360  0.14869765  1
  Sr  Sr1  1  0.01829729  0.14888683  0.64828968  1
  Sr  Sr2  1  0.00590920  0.50213173  0.14593712  1
  Sr  Sr3  1  0.00765580  0.49686956  0.64409961  1
  Sr  Sr4  1  0.00783408  0.82776801  0.14983151  1
  Sr  Sr5  1  0.00332872  0.85437520  0.64850735  1
  Sr  Sr6  1  0.36908876  0.16872054  0.15766140  1
  Sr  Sr7  1  0.37059640  0.16626081  0.65124193  1
  Sr  Sr8  1  0.36920368  0.50132408  0.15838985  1
  Sr  Sr9  1  0.37194506  0.50179848  0.65055687  1
  Sr  Sr10  1  0.37255588  0.83232102  0.15602793  1
  Sr  Sr11  1  0.37536516  0.83080154  0.65878486  1
  Sr  Sr12  1  0.71037968  0.16929385  0.06884186  1
  Sr  Sr13  1  0.71143389  0.16433112  0.56721712  1
  Sr  Sr14  1  0.72753449  0.49723734  0.08639112  1
  Sr  Sr15  1  0.72155308  0.50256471  0.58033073  1
  Sr  Sr16  1  0.72166347  0.83623177  0.07948490  1
  Sr  Sr17  1  0.72279680  0.83439754  0.57578976  1
  Sr  Sr18  1  0.11930017  0.00033039  0.14918219  1
  Sr  Sr19  1  0.12838293  -0.00339998  0.64714147  1
  Sr  Sr20  1  0.11294740  0.33288364  0.14625619  1
  Sr  Sr21  1  0.11497094  0.32994115  0.64646377  1
  Sr  Sr22  1  0.11702081  0.66527204  0.14408871  1
  Sr  Sr23  1  0.11022046  0.67108200  0.64612221  1
  Sr  Sr24  1  0.46086272  -0.00091737  0.06807150  1
  Sr  Sr25  1  0.46596942  -0.00077643  0.57497356  1
  Sr  Sr26  1  0.46323385  0.33411159  0.07699611  1
  Sr  Sr27  1  0.46348948  0.33458878  0.56819865  1
  Sr  Sr28  1  0.46674672  0.66683667  0.07517938  1
  Sr  Sr29  1  0.46552829  0.66576541  0.57663319  1
  Sr  Sr30  1  0.81285914  0.01433357  0.15533740  1
  Sr  Sr31  1  0.81907942  -0.00395622  0.64781641  1
  Sr  Sr32  1  0.82576976  0.31865304  0.15036894  1
  Sr  Sr33  1  0.81038302  0.33774848  0.65206545  1
  Sr  Sr34  1  0.82225363  0.66891641  0.14518560  1
  Sr  Sr35  1  0.82003817  0.66895404  0.64607400  1
  Sr  Sr36  1  0.04975608  0.16626458  0.39433367  1
  Sr  Sr37  1  0.04908646  0.16228167  0.89599834  1
  Sr  Sr38  1  0.04342407  0.49961959  0.39442556  1
  Sr  Sr39  1  0.04409311  0.49802447  0.89055484  1
  Sr  Sr40  1  0.03986227  0.83397678  0.39517120  1
  Sr  Sr41  1  0.04648497  0.83519090  0.89374796  1
  Sr  Sr42  1  0.33954994  0.19311362  0.40124343  1
  Sr  Sr43  1  0.34781338  0.15669539  0.90313258  1
  Sr  Sr44  1  0.33528378  0.50140832  0.40093358  1
  Sr  Sr45  1  0.34822365  0.50435843  0.90010810  1
  Sr  Sr46  1  0.36434478  0.81970463  0.40303632  1
  Sr  Sr47  1  0.33828768  0.83819344  0.90232883  1
  Sr  Sr48  1  0.68902035  0.16797084  0.32605361  1
  Sr  Sr49  1  0.68433960  0.16295764  0.82163451  1
  Sr  Sr50  1  0.68547201  0.50213485  0.33324255  1
  Sr  Sr51  1  0.68859839  0.49923641  0.83383281  1
  Sr  Sr52  1  0.69346473  0.83261142  0.32876851  1
  Sr  Sr53  1  0.68160639  0.83634575  0.83096065  1
  Sr  Sr54  1  0.14619496  -0.00236203  0.39877622  1
  Sr  Sr55  1  0.15636394  -0.00239941  0.90003962  1
  Sr  Sr56  1  0.14929636  0.33282028  0.39835809  1
  Sr  Sr57  1  0.15227447  0.33221841  0.89562423  1
  Sr  Sr58  1  0.15073083  0.67083701  0.39613526  1
  Sr  Sr59  1  0.15328426  0.66440165  0.89425090  1
  Sr  Sr60  1  0.45879332  0.01148503  0.32324057  1
  Sr  Sr61  1  0.50456952  -0.01085489  0.82374300  1
  Sr  Sr62  1  0.50006788  0.34060723  0.32352897  1
  Sr  Sr63  1  0.47459029  0.33180363  0.82696457  1
  Sr  Sr64  1  0.49326442  0.65467434  0.32870155  1
  Sr  Sr65  1  0.50424454  0.67610401  0.82758432  1
  Sr  Sr66  1  0.78346426  0.00199538  0.40672491  1
  Sr  Sr67  1  0.78407954  0.00061286  0.89858475  1
  Sr  Sr68  1  0.78736779  0.33302964  0.40479254  1
  Sr  Sr69  1  0.78771105  0.32883621  0.90767124  1
  Sr  Sr70  1  0.78398807  0.66682224  0.40079732  1
  Sr  Sr71  1  0.78669444  0.67016874  0.89574382  1
  Ta  Ta72  1  0.20680792  0.17114893  0.04701811  1
  Ta  Ta73  1  0.21035610  0.16260105  0.53781410  1
  Ta  Ta74  1  0.20805117  0.49592530  0.04006508  1
  Ta  Ta75  1  0.20100956  0.50295962  0.54524774  1
  Ta  Ta76  1  0.21001391  0.82720710  0.04291140  1
  Ta  Ta77  1  0.21560369  0.83709509  0.54232143  1
  Ta  Ta78  1  0.54840871  0.16765638  -0.02873137  1
  Ta  Ta79  1  0.54968693  0.16319306  0.46888712  1
  Ta  Ta80  1  0.55266847  0.49600891  -0.02757307  1
  Ta  Ta81  1  0.55653543  0.50104450  0.47963342  1
  Ta  Ta82  1  0.55752866  0.83457496  -0.01030510  1
  Ta  Ta83  1  0.54582234  0.83939275  0.45512201  1
  Ta  Ta84  1  0.88501258  0.16011187  -0.03142130  1
  Ta  Ta85  1  0.87870890  0.16924971  0.52925683  1
  Ta  Ta86  1  0.88424951  0.49972765  -0.00695951  1
  Ta  Ta87  1  0.88351918  0.50148529  0.49332348  1
  Ta  Ta88  1  0.87927184  0.83963895  0.00075849  1
  Ta  Ta89  1  0.88129015  0.83347005  0.49617390  1
  Ta  Ta90  1  0.20661386  0.16457839  0.25746430  1
  Ta  Ta91  1  0.21032076  0.16823067  0.75032139  1
  Ta  Ta92  1  0.20110145  0.49999039  0.24945374  1
  Ta  Ta93  1  0.20888025  0.49367874  0.74950106  1
  Ta  Ta94  1  0.20995578  0.83797495  0.25392231  1
  Ta  Ta95  1  0.20880735  0.83112234  0.75469713  1
  Ta  Ta96  1  0.55255041  0.16360403  0.18268316  1
  Ta  Ta97  1  0.55346143  0.17170314  0.68030932  1
  Ta  Ta98  1  0.56327230  0.50363670  0.17963303  1
  Ta  Ta99  1  0.55733716  0.49568281  0.68845178  1
  Ta  Ta100  1  0.54838258  0.83821156  0.20674712  1
  Ta  Ta101  1  0.56127958  0.82873707  0.66529986  1
  Ta  Ta102  1  0.88688447  0.16361665  0.34109822  1
  Ta  Ta103  1  0.87694995  0.16953987  0.76892957  1
  Ta  Ta104  1  0.87258753  0.50032513  0.28129853  1
  Ta  Ta105  1  0.87555222  0.49952846  0.78071180  1
  Ta  Ta106  1  0.86938136  0.83727341  0.28355190  1
  Ta  Ta107  1  0.87313116  0.83363403  0.78773606  1
  Ta  Ta108  1  -0.04880194  -0.00093342  0.27552784  1
  Ta  Ta109  1  -0.05426385  0.00526072  0.82104303  1
  Ta  Ta110  1  -0.04722261  0.33460390  0.29934782  1
  Ta  Ta111  1  -0.05189581  0.32436816  0.78735687  1
  Ta  Ta112  1  -0.05438088  0.66560121  0.29770678  1
  Ta  Ta113  1  -0.04957234  0.66495025  0.79281440  1
  Ta  Ta114  1  0.28456398  -0.00501647  0.26654289  1
  Ta  Ta115  1  0.28276278  -0.00127921  0.74862732  1
  Ta  Ta116  1  0.27225509  0.33932496  0.24204862  1
  Ta  Ta117  1  0.28655045  0.33320212  0.76324895  1
  Ta  Ta118  1  0.27906940  0.67109370  0.25423734  1
  Ta  Ta119  1  0.28207669  0.66336633  0.74756557  1
  Ta  Ta120  1  0.61959120  -0.00658030  0.20540054  1
  Ta  Ta121  1  0.63107617  -0.00180899  0.67088774  1
  Ta  Ta122  1  0.63459249  0.33531919  0.18226770  1
  Ta  Ta123  1  0.62788637  0.33652198  0.69032987  1
  Ta  Ta124  1  0.63071590  0.67281233  0.19762044  1
  Ta  Ta125  1  0.63963956  0.66499364  0.69269906  1
  Ta  Ta126  1  -0.04728909  -0.00569677  0.02118743  1
  Ta  Ta127  1  -0.05436225  0.01073821  0.47126423  1
  Ta  Ta128  1  -0.04432353  0.33253384  -0.00343078  1
  Ta  Ta129  1  -0.04920416  0.32145312  0.50622641  1
  Ta  Ta130  1  -0.04732047  0.66915542  -0.00073429  1
  Ta  Ta131  1  -0.04881636  0.66382780  0.50237624  1
  Ta  Ta132  1  0.28152439  0.00004157  0.05503895  1
  Ta  Ta133  1  0.28584353  -0.00752638  0.53432016  1
  Ta  Ta134  1  0.28510361  0.33247012  0.03036022  1
  Ta  Ta135  1  0.27311443  0.34249426  0.55220298  1
  Ta  Ta136  1  0.28017771  0.66467176  0.04286724  1
  Ta  Ta137  1  0.27862546  0.67261005  0.53776214  1
  Ta  Ta138  1  0.62451289  0.00302368  -0.01237573  1
  Ta  Ta139  1  0.61786959  -0.00815066  0.45934610  1
  Ta  Ta140  1  0.62014080  0.33780957  -0.02682475  1
  Ta  Ta141  1  0.62410986  0.33275776  0.48278085  1
  Ta  Ta142  1  0.62856459  0.65881275  -0.01646244  1
  Ta  Ta143  1  0.62357751  0.67703683  0.48238574  1
  N  N144  1  0.80653106  0.83233131  0.40859064  1
  N  N145  1  0.64792450  0.66334333  0.84568808  1
  N  N146  1  0.48966090  0.49936689  0.58323805  1
  N  N147  1  0.02114945  -0.00245721  0.37483289  1
  N  N148  1  0.84452108  0.83651524  0.14704296  1
  N  N149  1  0.69948755  0.66699325  0.57181307  1
  N  N150  1  0.69476603  0.33491343  0.57973491  1
  N  N151  1  0.48276511  0.16770744  0.07699241  1
  N  N152  1  0.80814224  0.16621033  0.87448187  1
  N  N153  1  0.29704065  0.66543622  0.39111637  1
  N  N154  1  0.85971496  0.49781131  0.64092701  1
  N  N155  1  0.65062652  0.66906085  0.33492249  1
  N  N156  1  0.80559099  0.17074000  0.42761086  1
  N  N157  1  0.01933991  0.33206557  0.40208727  1
  N  N158  1  0.13607556  0.50418949  0.65155754  1
  N  N159  1  0.69328162  -0.00285330  0.56166202  1
  N  N160  1  0.86070306  0.49718320  0.14087845  1
  N  N161  1  0.69761510  0.33482129  0.07110350  1
  N  N162  1  0.13677962  0.50031453  0.13738931  1
  N  N163  1  0.48566222  0.83358122  0.56925463  1
  N  N164  1  0.80628286  0.83595549  0.90480674  1
  N  N165  1  0.13866951  0.16789768  0.14918793  1
  N  N166  1  0.18365293  0.16668758  0.40024522  1
  N  N167  1  -0.00434285  0.00237749  0.14877155  1
  N  N168  1  0.34772267  0.66651403  0.64200276  1
  N  N169  1  0.35103673  0.00038863  0.15873958  1
  N  N170  1  0.85845242  0.83759481  0.64652904  1
  N  N171  1  0.18987802  0.83119492  0.89321999  1
  N  N172  1  0.32145055  0.33352619  0.89687384  1
  N  N173  1  0.66631708  0.00248241  0.32802337  1
  N  N174  1  0.14339193  0.16553655  0.64874933  1
  N  N175  1  0.48555789  0.16704300  0.57706839  1
  N  N176  1  0.48835938  0.83161761  0.08712708  1
  O  O177  1  0.83054529  0.16698587  0.08420078  1
  O  O178  1  0.28811529  -0.00066006  0.89741355  1
  O  O179  1  0.02684695  0.66666787  0.88948057  1
  O  O180  1  0.48772421  0.82324373  0.32354165  1
  O  O181  1  -0.02455943  0.66502461  0.64330249  1
  O  O182  1  0.64568534  0.33270049  0.33011879  1
  O  O183  1  0.55004423  0.83294156  0.83835317  1
  O  O184  1  0.53684329  0.50397975  0.83117184  1
  O  O185  1  0.13806327  0.83497572  0.63920798  1
  O  O186  1  0.63519660  0.00284732  0.83711604  1
  O  O187  1  0.35229951  0.33765155  0.15310590  1
  O  O188  1  0.55053914  0.49904564  0.32527353  1
  O  O189  1  0.80166211  0.50029684  0.40683512  1
  O  O190  1  0.35384197  0.00048376  0.64319554  1
  O  O191  1  0.81604325  0.16528501  0.65504395  1
  O  O192  1  -0.03792300  0.66764243  0.14448837  1
  O  O193  1  -0.04055174  0.32654001  0.14438089  1
  O  O194  1  0.17942712  0.83330833  0.39282467  1
  O  O195  1  0.18099394  0.50506795  0.39357575  1
  O  O196  1  0.69534619  0.00047219  0.09034180  1
  O  O197  1  0.48136521  0.50023161  0.08401673  1
  O  O198  1  0.28898118  0.66132743  0.89875617  1
  O  O199  1  0.70533815  0.67011236  0.08412872  1
  O  O200  1  0.02758869  0.32847838  0.89217459  1
  O  O201  1  0.35340336  0.33164017  0.64348001  1
  O  O202  1  0.02238395  0.00060197  0.72934385  1
  O  O203  1  0.53297169  0.17736279  0.32283288  1
  O  O204  1  0.33246592  -0.01196086  0.39274431  1
  O  O205  1  0.02494481  0.66604539  0.38844810  1
  O  O206  1  0.53749776  0.16175471  0.82606977  1
  O  O207  1  0.66618789  0.32946384  0.84398621  1
  O  O208  1  0.17171265  0.49697940  0.89642659  1
  O  O209  1  0.17731428  0.16604937  0.89743207  1
  O  O210  1  0.13439501  0.83065122  0.13799522  1
  O  O211  1  0.80338197  0.49876192  0.90713062  1
  O  O212  1  0.35532960  0.66334321  0.15192510  1
  O  O213  1  0.28265098  0.34221956  0.39986646  1
  O  O214  1  -0.01292442  0.33416815  0.65324262  1
  O  O215  1  0.03100676  -0.00136856  0.93283705  1
