# generated using pymatgen
data_Sr24Ta24N11O13
_symmetry_space_group_name_H-M   'P 1'
_cell_length_a   16.71351028
_cell_length_b   16.93410260
_cell_length_c   15.61275222
_cell_angle_alpha   89.48433512
_cell_angle_beta   90.43732163
_cell_angle_gamma   89.89867581
_symmetry_Int_Tables_number   1
_chemical_formula_structural   Sr24Ta24N11O13
_chemical_formula_sum   'Sr72 Ta72 N33 O39'
_cell_volume   4418.53555187
_cell_formula_units_Z   3
loop_
 _symmetry_equiv_pos_site_id
 _symmetry_equiv_pos_as_xyz
  1  'x, y, z'
loop_
 _atom_site_type_symbol
 _atom_site_label
 _atom_site_symmetry_multiplicity
 _atom_site_fract_x
 _atom_site_fract_y
 _atom_site_fract_z
 _atom_site_occupancy
  Sr  Sr0  1  -0.00215958  0.17522142  0.11732444  1
  Sr  Sr1  1  -0.01001878  0.17337524  0.65922673  1
  Sr  Sr2  1  -0.01549860  0.50656851  0.07628158  1
  Sr  Sr3  1  0.01603736  0.49583569  0.62973709  1
  Sr  Sr4  1  -0.00220023  0.82886380  0.14429570  1
  Sr  Sr5  1  0.01321525  0.83293090  0.61616444  1
  Sr  Sr6  1  0.33594634  0.18281599  0.15807193  1
  Sr  Sr7  1  0.31948678  0.17496453  0.59973548  1
  Sr  Sr8  1  0.32740873  0.48887332  0.13163187  1
  Sr  Sr9  1  0.34339273  0.54620465  0.59344287  1
  Sr  Sr10  1  0.32362946  0.87726991  0.10118408  1
  Sr  Sr11  1  0.34730952  0.83995666  0.65624151  1
  Sr  Sr12  1  0.65135548  0.17550513  0.08224734  1
  Sr  Sr13  1  0.66524058  0.16085565  0.63370815  1
  Sr  Sr14  1  0.67999322  0.48512703  0.17286854  1
  Sr  Sr15  1  0.66204014  0.51414116  0.62432585  1
  Sr  Sr16  1  0.65657471  0.87647165  0.13589777  1
  Sr  Sr17  1  0.64890947  0.82428649  0.59337538  1
  Sr  Sr18  1  0.14467509  0.00369810  0.07447682  1
  Sr  Sr19  1  0.17769000  -0.02187826  0.62395290  1
  Sr  Sr20  1  0.17797119  0.32121337  0.16421541  1
  Sr  Sr21  1  0.16134017  0.32502052  0.62288511  1
  Sr  Sr22  1  0.17028223  0.66405730  0.13996548  1
  Sr  Sr23  1  0.16308453  0.65746978  0.58594613  1
  Sr  Sr24  1  0.48110176  0.01280889  0.11862325  1
  Sr  Sr25  1  0.49788640  -0.03421586  0.65384979  1
  Sr  Sr26  1  0.48701131  0.32725488  0.10372952  1
  Sr  Sr27  1  0.50125799  0.30535293  0.64282767  1
  Sr  Sr28  1  0.50658013  0.60964902  0.15395739  1
  Sr  Sr29  1  0.50949171  0.67132252  0.62494653  1
  Sr  Sr30  1  0.85217863  0.00800561  0.17353021  1
  Sr  Sr31  1  0.82116791  -0.02173898  0.60677529  1
  Sr  Sr32  1  0.83560305  0.32827869  0.13136646  1
  Sr  Sr33  1  0.82599818  0.35015708  0.57777735  1
  Sr  Sr34  1  0.83730361  0.66620852  0.11550866  1
  Sr  Sr35  1  0.85237854  0.64558731  0.67123968  1
  Sr  Sr36  1  -0.02568709  0.18177725  0.32596515  1
  Sr  Sr37  1  0.00922959  0.16786848  0.88459410  1
  Sr  Sr38  1  0.00537797  0.48580530  0.41574709  1
  Sr  Sr39  1  0.00956270  0.50266111  0.86301365  1
  Sr  Sr40  1  0.00766982  0.82931014  0.37946125  1
  Sr  Sr41  1  -0.00343171  0.84219585  0.85715290  1
  Sr  Sr42  1  0.32558102  0.16025959  0.38123227  1
  Sr  Sr43  1  0.32468533  0.21260738  0.83075954  1
  Sr  Sr44  1  0.33607722  0.54004923  0.35752902  1
  Sr  Sr45  1  0.34981369  0.50729290  0.91083965  1
  Sr  Sr46  1  0.33344537  0.85518743  0.33255695  1
  Sr  Sr47  1  0.34748345  0.84281879  0.87650293  1
  Sr  Sr48  1  0.66951790  0.16876966  0.41978639  1
  Sr  Sr49  1  0.65514200  0.15650202  0.86393720  1
  Sr  Sr50  1  0.67115289  0.51715048  0.37591184  1
  Sr  Sr51  1  0.66229980  0.51169535  0.83176456  1
  Sr  Sr52  1  0.65504272  0.84705600  0.37282443  1
  Sr  Sr53  1  0.67964276  0.80853660  0.94098057  1
  Sr  Sr54  1  0.16415547  -0.00357641  0.41273282  1
  Sr  Sr55  1  0.16844154  -0.02971701  0.87065590  1
  Sr  Sr56  1  0.17007364  0.31810519  0.37600585  1
  Sr  Sr57  1  0.15813956  0.33678425  0.83016274  1
  Sr  Sr58  1  0.16767871  0.67983910  0.36364406  1
  Sr  Sr59  1  0.18124752  0.63838530  0.90860285  1
  Sr  Sr60  1  0.48185291  -0.00753886  0.32537032  1
  Sr  Sr61  1  0.51518812  -0.02061648  0.90606339  1
  Sr  Sr62  1  0.49069737  0.28455585  0.41555710  1
  Sr  Sr63  1  0.50347735  0.33213822  0.86929941  1
  Sr  Sr64  1  0.51393397  0.66606740  0.39044544  1
  Sr  Sr65  1  0.49494383  0.65419745  0.86850527  1
  Sr  Sr66  1  0.81699170  -0.00246033  0.38636992  1
  Sr  Sr67  1  0.83856625  0.04005220  0.81582150  1
  Sr  Sr68  1  0.81991744  0.34227832  0.36621740  1
  Sr  Sr69  1  0.85634462  0.32862475  0.92368519  1
  Sr  Sr70  1  0.83804287  0.66005464  0.33966710  1
  Sr  Sr71  1  0.84343150  0.66282802  0.88709901  1
  Ta  Ta72  1  0.18947501  0.19837350  -0.00524960  1
  Ta  Ta73  1  0.11350791  0.16256919  0.50189643  1
  Ta  Ta74  1  0.17151930  0.45221533  -0.00384653  1
  Ta  Ta75  1  0.19180500  0.47855975  0.49714167  1
  Ta  Ta76  1  0.15915179  0.80490589  -0.00080353  1
  Ta  Ta77  1  0.21361618  0.82756250  0.49694420  1
  Ta  Ta78  1  0.45249030  0.17048535  -0.01087795  1
  Ta  Ta79  1  0.49281857  0.10312638  0.50075792  1
  Ta  Ta80  1  0.55078264  0.49162593  -0.00549297  1
  Ta  Ta81  1  0.49837508  0.46477325  0.50227328  1
  Ta  Ta82  1  0.49238544  0.78004433  0.03407575  1
  Ta  Ta83  1  0.47409254  0.85548789  0.47008735  1
  Ta  Ta84  1  0.83404634  0.14065044  0.00552702  1
  Ta  Ta85  1  0.86404661  0.16972109  0.49622825  1
  Ta  Ta86  1  0.78248150  0.49537824  0.00466551  1
  Ta  Ta87  1  0.83356061  0.53741871  0.49680608  1
  Ta  Ta88  1  0.84928313  0.86861178  0.00216515  1
  Ta  Ta89  1  0.83539918  0.78055582  0.50513091  1
  Ta  Ta90  1  0.15831847  0.12856069  0.24932346  1
  Ta  Ta91  1  0.16493021  0.12968140  0.74395315  1
  Ta  Ta92  1  0.12146802  0.49550738  0.24519786  1
  Ta  Ta93  1  0.20237477  0.51878781  0.74648057  1
  Ta  Ta94  1  0.16348110  0.87331612  0.24600851  1
  Ta  Ta95  1  0.17511453  0.78514837  0.75069266  1
  Ta  Ta96  1  0.53047493  0.17306832  0.25483089  1
  Ta  Ta97  1  0.47673633  0.12838547  0.74301232  1
  Ta  Ta98  1  0.50460166  0.43840534  0.27645049  1
  Ta  Ta99  1  0.47155988  0.49076378  0.74249053  1
  Ta  Ta100  1  0.49994209  0.79777350  0.22699937  1
  Ta  Ta101  1  0.55960079  0.82268720  0.79070002  1
  Ta  Ta102  1  0.77842288  0.17440249  0.25048937  1
  Ta  Ta103  1  0.82906447  0.23449896  0.74827586  1
  Ta  Ta104  1  0.87667739  0.49626057  0.24859035  1
  Ta  Ta105  1  0.83533695  0.44481312  0.75298532  1
  Ta  Ta106  1  0.81575185  0.82532295  0.25526501  1
  Ta  Ta107  1  0.79743946  0.82925397  0.75498064  1
  Ta  Ta108  1  0.04395925  0.00660685  0.24953627  1
  Ta  Ta109  1  0.02052094  0.01024508  0.74678099  1
  Ta  Ta110  1  0.00071107  0.37678299  0.24178468  1
  Ta  Ta111  1  -0.03671530  0.33812138  0.74336437  1
  Ta  Ta112  1  0.00488168  0.62284021  0.25179815  1
  Ta  Ta113  1  0.04604243  0.66880951  0.74834752  1
  Ta  Ta114  1  0.27641406  0.01637639  0.24249972  1
  Ta  Ta115  1  0.33089439  0.03148760  0.74954447  1
  Ta  Ta116  1  0.36204161  0.34950316  0.27661500  1
  Ta  Ta117  1  0.33489124  0.39266825  0.73584742  1
  Ta  Ta118  1  0.35394657  0.70468032  0.22804003  1
  Ta  Ta119  1  0.31379471  0.66130230  0.75497585  1
  Ta  Ta120  1  0.66226768  0.04712786  0.25063214  1
  Ta  Ta121  1  0.67314163  -0.05524147  0.75801011  1
  Ta  Ta122  1  0.63991258  0.30367534  0.25378468  1
  Ta  Ta123  1  0.69967979  0.33673798  0.74661345  1
  Ta  Ta124  1  0.66851105  0.70056970  0.24863031  1
  Ta  Ta125  1  0.67889644  0.70303107  0.75319263  1
  Ta  Ta126  1  -0.05514998  -0.00061579  -0.00942886  1
  Ta  Ta127  1  -0.01200564  0.04763166  0.49676709  1
  Ta  Ta128  1  0.05270552  0.33263393  0.00432412  1
  Ta  Ta129  1  -0.00107374  0.29370049  0.49784291  1
  Ta  Ta130  1  0.01453581  0.69403116  0.00261141  1
  Ta  Ta131  1  -0.03289603  0.66437775  0.49852881  1
  Ta  Ta132  1  0.32197564  0.06388354  -0.01130772  1
  Ta  Ta133  1  0.35260018  -0.01884642  0.49414064  1
  Ta  Ta134  1  0.30268124  0.32325126  -0.00217067  1
  Ta  Ta135  1  0.33641112  0.37537489  0.49781986  1
  Ta  Ta136  1  0.34497569  0.69523686  0.02327572  1
  Ta  Ta137  1  0.34385899  0.72260457  0.48392907  1
  Ta  Ta138  1  0.74326515  0.00359721  -0.00271400  1
  Ta  Ta139  1  0.61844884  -0.00539602  0.49309867  1
  Ta  Ta140  1  0.66443042  0.36812304  -0.00209488  1
  Ta  Ta141  1  0.64092547  0.36004692  0.50274863  1
  Ta  Ta142  1  0.65799790  0.62243387  0.00731726  1
  Ta  Ta143  1  0.71472804  0.66787947  0.50160885  1
  N  N144  1  0.83064758  0.49908359  0.11961787  1
  N  N145  1  0.17020654  0.83933751  0.37291992  1
  N  N146  1  0.50786220  0.49500317  0.87000517  1
  N  N147  1  0.00955398  0.66189504  0.63002424  1
  N  N148  1  0.31193983  0.03064128  0.10871945  1
  N  N149  1  0.17306429  0.49895640  0.61847997  1
  N  N150  1  0.32988714  0.31423871  0.39288306  1
  N  N151  1  0.84013177  0.50137177  0.37861380  1
  N  N152  1  0.67970324  0.67054293  0.63309264  1
  N  N153  1  -0.00878798  0.00637014  0.86857324  1
  N  N154  1  0.00152142  0.66444813  0.12141387  1
  N  N155  1  0.51739254  0.81734776  0.91147062  1
  N  N156  1  0.49738501  0.14355032  0.37162319  1
  N  N157  1  0.33193459  0.00169433  0.62916753  1
  N  N158  1  0.49992986  0.83643633  0.34588047  1
  N  N159  1  -0.00386162  0.33499167  0.61478654  1
  N  N160  1  0.31866863  0.00689056  0.37380477  1
  N  N161  1  0.00562780  0.65859910  0.37879752  1
  N  N162  1  0.15971962  0.16257585  0.62445881  1
  N  N163  1  0.82555019  0.17068375  0.12828185  1
  N  N164  1  0.67239475  0.67488654  0.36987660  1
  N  N165  1  0.49720518  0.86635293  0.11705375  1
  N  N166  1  0.49494631  0.14948810  0.62081347  1
  N  N167  1  0.16597318  0.84333700  0.11976067  1
  N  N168  1  0.66229807  0.33372805  0.62276395  1
  N  N169  1  0.18241677  0.82206490  0.62264748  1
  N  N170  1  0.18137236  0.82222680  0.87166066  1
  N  N171  1  0.00421200  0.33418667  0.11909653  1
  N  N172  1  0.17685855  0.48882528  0.87363486  1
  N  N173  1  0.34230386  0.69374807  0.35309896  1
  N  N174  1  0.65465804  0.00586515  0.37138068  1
  N  N175  1  0.82409340  0.17128039  0.37380844  1
  N  N176  1  0.50389622  0.51165499  0.61582919  1
  O  O177  1  0.65980016  -0.02887170  0.62840929  1
  O  O178  1  -0.00371644  0.02619297  0.36966432  1
  O  O179  1  0.16898005  0.49287894  0.12456967  1
  O  O180  1  0.48654372  0.17108195  0.11714188  1
  O  O181  1  -0.00234652  0.00482031  0.12577915  1
  O  O182  1  0.82233165  0.82375467  0.62700428  1
  O  O183  1  0.32313781  0.35596621  0.86699621  1
  O  O184  1  0.82510734  0.47886601  0.87836856  1
  O  O185  1  0.52150976  0.46631216  0.14265512  1
  O  O186  1  0.82783962  0.82797351  0.38168038  1
  O  O187  1  -0.00027835  0.65846929  0.87451811  1
  O  O188  1  0.00816174  0.32883692  0.87850297  1
  O  O189  1  0.33134631  0.33320607  0.62577702  1
  O  O190  1  0.83384703  0.84345107  0.13239370  1
  O  O191  1  0.69466813  -0.00094075  0.87313693  1
  O  O192  1  0.83493763  0.49420174  0.63076598  1
  O  O193  1  0.67552366  0.65742271  0.88376484  1
  O  O194  1  0.69857726  0.01658022  0.11994877  1
  O  O195  1  0.66018979  0.31809384  0.38410127  1
  O  O196  1  0.16081763  0.48703345  0.36963710  1
  O  O197  1  0.82959487  0.19604384  0.62127960  1
  O  O198  1  0.83346475  0.18627785  0.87108585  1
  O  O199  1  0.17072985  0.17369278  0.12081485  1
  O  O200  1  0.83022899  0.83043175  0.87736371  1
  O  O201  1  -0.02159370  0.01818111  0.62446059  1
  O  O202  1  0.47765385  0.17798327  0.86210060  1
  O  O203  1  0.33311001  0.67144991  0.88382590  1
  O  O204  1  0.66355047  0.34953031  0.87139171  1
  O  O205  1  0.32345607  0.62958469  0.12965402  1
  O  O206  1  0.17201131  0.18503665  0.86354565  1
  O  O207  1  0.00050647  0.33276768  0.36999304  1
  O  O208  1  0.33910518  0.68849613  0.62885276  1
  O  O209  1  0.66277181  0.63772667  0.13592983  1
  O  O210  1  0.15593582  0.16095751  0.37884502  1
  O  O211  1  0.48962475  0.81077595  0.69582274  1
  O  O212  1  0.32185847  -0.00489263  0.88193021  1
  O  O213  1  0.33183911  0.33454090  0.14412322  1
  O  O214  1  0.65095496  0.33162526  0.12752606  1
  O  O215  1  0.50577960  0.51311749  0.37435009  1
