# generated using pymatgen
data_Sr24Ta24N11O13
_symmetry_space_group_name_H-M   'P 1'
_cell_length_a   16.89667282
_cell_length_b   16.73725296
_cell_length_c   15.68775743
_cell_angle_alpha   90.03763174
_cell_angle_beta   90.22804799
_cell_angle_gamma   90.17892628
_symmetry_Int_Tables_number   1
_chemical_formula_structural   Sr24Ta24N11O13
_chemical_formula_sum   'Sr72 Ta72 N33 O39'
_cell_volume   4436.50101525
_cell_formula_units_Z   3
loop_
 _symmetry_equiv_pos_site_id
 _symmetry_equiv_pos_as_xyz
  1  'x, y, z'
loop_
 _atom_site_type_symbol
 _atom_site_label
 _atom_site_symmetry_multiplicity
 _atom_site_fract_x
 _atom_site_fract_y
 _atom_site_fract_z
 _atom_site_occupancy
  Sr  Sr0  1  0.00085109  0.16971433  0.12109347  1
  Sr  Sr1  1  0.04642548  0.17302521  0.66678882  1
  Sr  Sr2  1  0.03457769  0.50073202  0.15343823  1
  Sr  Sr3  1  -0.00517742  0.49343707  0.61553589  1
  Sr  Sr4  1  0.01795289  0.83181338  0.10813387  1
  Sr  Sr5  1  -0.00884782  0.83904112  0.63197889  1
  Sr  Sr6  1  0.35671047  0.16198686  0.13493355  1
  Sr  Sr7  1  0.33175587  0.17125055  0.58375619  1
  Sr  Sr8  1  0.34234271  0.51712975  0.07521078  1
  Sr  Sr9  1  0.34455439  0.50063453  0.63496420  1
  Sr  Sr10  1  0.33641405  0.82659918  0.16150335  1
  Sr  Sr11  1  0.34897725  0.83874260  0.62317783  1
  Sr  Sr12  1  0.68921251  0.16849228  0.09517964  1
  Sr  Sr13  1  0.66842634  0.14995323  0.63911184  1
  Sr  Sr14  1  0.68111244  0.49053586  0.13020344  1
  Sr  Sr15  1  0.66837458  0.51650312  0.66786515  1
  Sr  Sr16  1  0.68095478  0.83838299  0.14006543  1
  Sr  Sr17  1  0.66763521  0.81698732  0.58437768  1
  Sr  Sr18  1  0.15732191  0.01499967  0.07442325  1
  Sr  Sr19  1  0.18084168  -0.01045896  0.63332132  1
  Sr  Sr20  1  0.15866787  0.32515709  0.15789531  1
  Sr  Sr21  1  0.15827746  0.35005733  0.63209731  1
  Sr  Sr22  1  0.16753217  0.68157997  0.13237247  1
  Sr  Sr23  1  0.12644471  0.66244460  0.58512992  1
  Sr  Sr24  1  0.52786217  -0.00523508  0.11117336  1
  Sr  Sr25  1  0.50665880  0.00902445  0.66365315  1
  Sr  Sr26  1  0.48914556  0.34149224  0.14056999  1
  Sr  Sr27  1  0.47988071  0.32108277  0.58540246  1
  Sr  Sr28  1  0.48384919  0.66750805  0.10070949  1
  Sr  Sr29  1  0.48780169  0.65852944  0.63219740  1
  Sr  Sr30  1  0.85195661  -0.00519241  0.16904676  1
  Sr  Sr31  1  0.81608743  -0.01362380  0.61090700  1
  Sr  Sr32  1  0.82257881  0.33086371  0.10683515  1
  Sr  Sr33  1  0.80069292  0.31983852  0.62408851  1
  Sr  Sr34  1  0.80967127  0.66507479  0.11621262  1
  Sr  Sr35  1  0.82878845  0.65439851  0.65802789  1
  Sr  Sr36  1  0.00098065  0.16769761  0.34083990  1
  Sr  Sr37  1  0.01786253  0.17017469  0.88599312  1
  Sr  Sr38  1  0.00146469  0.49719233  0.39373765  1
  Sr  Sr39  1  0.01098332  0.49582626  0.85354596  1
  Sr  Sr40  1  0.01262709  0.85231930  0.39367384  1
  Sr  Sr41  1  -0.00548081  0.82994946  0.87331549  1
  Sr  Sr42  1  0.33272221  0.18769526  0.36114013  1
  Sr  Sr43  1  0.34340518  0.15772342  0.91601070  1
  Sr  Sr44  1  0.36810226  0.51152058  0.41145101  1
  Sr  Sr45  1  0.32754454  0.50111163  0.86382084  1
  Sr  Sr46  1  0.33536355  0.83178602  0.37308054  1
  Sr  Sr47  1  0.34227657  0.84561570  0.82978379  1
  Sr  Sr48  1  0.69054082  0.17664666  0.42367750  1
  Sr  Sr49  1  0.67481355  0.15062025  0.86106990  1
  Sr  Sr50  1  0.66835615  0.49128359  0.33507064  1
  Sr  Sr51  1  0.68984035  0.49390804  0.87759112  1
  Sr  Sr52  1  0.67767832  0.83775294  0.36552356  1
  Sr  Sr53  1  0.65577106  0.82428591  0.92680832  1
  Sr  Sr54  1  0.18736139  0.00416813  0.41677164  1
  Sr  Sr55  1  0.15901029  -0.00294621  0.86224093  1
  Sr  Sr56  1  0.14605177  0.33983226  0.36292126  1
  Sr  Sr57  1  0.15441832  0.34051622  0.83702943  1
  Sr  Sr58  1  0.14820318  0.67880153  0.35559104  1
  Sr  Sr59  1  0.15643422  0.66051652  0.91453915  1
  Sr  Sr60  1  0.48663122  -0.00127816  0.32135663  1
  Sr  Sr61  1  0.51391965  0.00664489  0.88585885  1
  Sr  Sr62  1  0.50230656  0.33305453  0.36759398  1
  Sr  Sr63  1  0.46399786  0.33603636  0.90599711  1
  Sr  Sr64  1  0.48787719  0.68302564  0.40740922  1
  Sr  Sr65  1  0.48158861  0.65333935  0.85771688  1
  Sr  Sr66  1  0.83248816  -0.00861972  0.38824406  1
  Sr  Sr67  1  0.83046376  -0.00631333  0.84298864  1
  Sr  Sr68  1  0.82501270  0.33997009  0.39694973  1
  Sr  Sr69  1  0.81920639  0.31067788  0.89173203  1
  Sr  Sr70  1  0.79748994  0.65792756  0.35015803  1
  Sr  Sr71  1  0.82524574  0.67115590  0.88275215  1
  Ta  Ta72  1  0.17242226  0.21088023  -0.00343124  1
  Ta  Ta73  1  0.14520028  0.18534298  0.49279904  1
  Ta  Ta74  1  0.15766918  0.46856752  -0.00680243  1
  Ta  Ta75  1  0.19410614  0.50198662  0.49489052  1
  Ta  Ta76  1  0.21321637  0.84022747  -0.00159584  1
  Ta  Ta77  1  0.18474056  0.82071116  0.49922665  1
  Ta  Ta78  1  0.52394810  0.18285532  0.00522102  1
  Ta  Ta79  1  0.50562144  0.11986396  0.49231332  1
  Ta  Ta80  1  0.53167666  0.49782323  -0.00135707  1
  Ta  Ta81  1  0.54696628  0.50030798  0.50540098  1
  Ta  Ta82  1  0.45937552  0.83597619  -0.00109202  1
  Ta  Ta83  1  0.50172339  0.88027836  0.49495212  1
  Ta  Ta84  1  0.84654657  0.12081271  -0.00314341  1
  Ta  Ta85  1  0.88505114  0.16355905  0.51745760  1
  Ta  Ta86  1  0.88133564  0.49606819  0.00951502  1
  Ta  Ta87  1  0.80434594  0.51416648  0.49745432  1
  Ta  Ta88  1  0.84043563  0.86336829  0.00273288  1
  Ta  Ta89  1  0.84124729  0.79736526  0.49844414  1
  Ta  Ta90  1  0.17316529  0.12747728  0.24837007  1
  Ta  Ta91  1  0.22308254  0.16660232  0.75658825  1
  Ta  Ta92  1  0.22070695  0.51386262  0.24677874  1
  Ta  Ta93  1  0.16624880  0.54821225  0.74789739  1
  Ta  Ta94  1  0.16789603  0.88096665  0.24622889  1
  Ta  Ta95  1  0.15972871  0.78567376  0.74976231  1
  Ta  Ta96  1  0.56459813  0.17006587  0.25389114  1
  Ta  Ta97  1  0.47438253  0.19258090  0.74806632  1
  Ta  Ta98  1  0.48085808  0.52233347  0.24308517  1
  Ta  Ta99  1  0.50132260  0.44973863  0.74618233  1
  Ta  Ta100  1  0.51162751  0.80761798  0.24183528  1
  Ta  Ta101  1  0.53951005  0.83166036  0.75096265  1
  Ta  Ta102  1  0.81825718  0.18167567  0.25617271  1
  Ta  Ta103  1  0.86941163  0.16181430  0.73839031  1
  Ta  Ta104  1  0.86301544  0.49051531  0.24830176  1
  Ta  Ta105  1  0.84876793  0.46595128  0.75414667  1
  Ta  Ta106  1  0.87013137  0.81264757  0.25267794  1
  Ta  Ta107  1  0.79564071  0.82735451  0.75319137  1
  Ta  Ta108  1  0.04627170  -0.00311476  0.24413617  1
  Ta  Ta109  1  -0.01295072  0.01344520  0.75072369  1
  Ta  Ta110  1  -0.04205617  0.33708294  0.25083037  1
  Ta  Ta111  1  -0.04211951  0.32756044  0.75313928  1
  Ta  Ta112  1  -0.03052087  0.66559664  0.25250296  1
  Ta  Ta113  1  0.02180858  0.66546196  0.75102788  1
  Ta  Ta114  1  0.28599326  0.00241061  0.24366012  1
  Ta  Ta115  1  0.34082544  0.04620894  0.74744402  1
  Ta  Ta116  1  0.32898361  0.39678650  0.24549614  1
  Ta  Ta117  1  0.34200766  0.30515313  0.75092730  1
  Ta  Ta118  1  0.34086720  0.63722995  0.24349324  1
  Ta  Ta119  1  0.28322906  0.67054228  0.74411451  1
  Ta  Ta120  1  0.67704120  0.04338717  0.25488589  1
  Ta  Ta121  1  0.66692573  -0.05665043  0.75933007  1
  Ta  Ta122  1  0.67577217  0.29824119  0.25339408  1
  Ta  Ta123  1  0.61557031  0.32597960  0.74817757  1
  Ta  Ta124  1  0.61527486  0.66757816  0.24670501  1
  Ta  Ta125  1  0.65563966  0.70972253  0.75788234  1
  Ta  Ta126  1  -0.03586864  0.00142008  -0.00096166  1
  Ta  Ta127  1  0.01107360  0.04635816  0.50317314  1
  Ta  Ta128  1  0.01646725  0.35090920  -0.00265673  1
  Ta  Ta129  1  -0.00145725  0.29313006  0.50700843  1
  Ta  Ta130  1  -0.01724118  0.63614196  0.00009033  1
  Ta  Ta131  1  -0.05313146  0.66823970  0.50246274  1
  Ta  Ta132  1  0.33968611  -0.04087429  -0.00053427  1
  Ta  Ta133  1  0.38049278  -0.00036125  0.49863044  1
  Ta  Ta134  1  0.28419871  0.33715585  -0.00357461  1
  Ta  Ta135  1  0.29333605  0.35113522  0.49349475  1
  Ta  Ta136  1  0.32844919  0.71151438  -0.00941308  1
  Ta  Ta137  1  0.29648872  0.67192170  0.50965234  1
  Ta  Ta138  1  0.71586019  -0.00132125  0.00573529  1
  Ta  Ta139  1  0.62279005  -0.00215263  0.49158833  1
  Ta  Ta140  1  0.63247432  0.33265156  0.00488175  1
  Ta  Ta141  1  0.65743864  0.37779966  0.50050159  1
  Ta  Ta142  1  0.63932365  0.64180991  0.00085967  1
  Ta  Ta143  1  0.66494396  0.62936384  0.49573578  1
  N  N144  1  0.83404312  0.49350945  0.12163179  1
  N  N145  1  0.32360503  0.67319999  0.87144273  1
  N  N146  1  0.34931527  0.01093932  0.62623915  1
  N  N147  1  0.66223352  0.33264299  0.12717686  1
  N  N148  1  0.17879409  0.17109805  0.87428600  1
  N  N149  1  0.82953360  0.82909271  0.87907347  1
  N  N150  1  0.16868404  0.16883345  0.37040880  1
  N  N151  1  0.50066847  0.49796163  0.12166012  1
  N  N152  1  0.17439440  0.84108490  0.37904606  1
  N  N153  1  0.82194549  0.15872261  0.62362079  1
  N  N154  1  0.68447146  0.00329054  0.12774882  1
  N  N155  1  0.50397173  0.49138573  0.62505231  1
  N  N156  1  0.50214371  0.83546820  0.12210192  1
  N  N157  1  0.67091007  -0.01329307  0.87792289  1
  N  N158  1  0.00169072  -0.00133778  0.87102225  1
  N  N159  1  -0.00900558  0.32730418  0.87873700  1
  N  N160  1  -0.02058916  0.66291559  0.62579628  1
  N  N161  1  0.84310319  0.83292476  0.13001437  1
  N  N162  1  0.31735707  0.33307272  0.87115589  1
  N  N163  1  0.16866015  0.50514161  0.87379093  1
  N  N164  1  0.33553129  0.66596981  0.62618290  1
  N  N165  1  0.66813327  0.00017973  0.37363879  1
  N  N166  1  0.17631124  0.84357539  0.11743225  1
  N  N167  1  0.66469429  0.33713206  0.38157360  1
  N  N168  1  0.32783460  0.66923242  0.12351471  1
  N  N169  1  0.64612402  0.65948411  0.37658584  1
  N  N170  1  0.82418343  0.82377440  0.62480672  1
  N  N171  1  -0.00701225  0.66139412  0.87809359  1
  N  N172  1  0.65795760  0.66661850  0.87539875  1
  N  N173  1  0.83509362  0.83459762  0.37360622  1
  N  N174  1  0.65640540  0.66528588  0.12710836  1
  N  N175  1  0.00767548  0.00358627  0.12451387  1
  N  N176  1  0.82719938  0.49981681  0.37670495  1
  O  O177  1  0.66100564  -0.00801337  0.63415122  1
  O  O178  1  -0.01773651  0.32046023  0.37914186  1
  O  O179  1  0.18032908  0.50811775  0.11705812  1
  O  O180  1  0.49675058  0.48793503  0.86978667  1
  O  O181  1  -0.01495929  0.33007059  0.12737109  1
  O  O182  1  0.49635267  0.83880291  0.87468650  1
  O  O183  1  0.00561111  0.32193520  0.63100000  1
  O  O184  1  0.01724192  0.01728835  0.37827532  1
  O  O185  1  0.18075500  0.51312295  0.37018019  1
  O  O186  1  0.64013163  0.32482413  0.86997177  1
  O  O187  1  0.34694712  0.00122502  0.87470687  1
  O  O188  1  0.50127744  0.84836140  0.36846068  1
  O  O189  1  0.64029108  0.32522335  0.62190899  1
  O  O190  1  0.83988168  0.16039726  0.13017581  1
  O  O191  1  0.33568540  -0.00278590  0.37472651  1
  O  O192  1  0.02541548  0.01917567  0.62402684  1
  O  O193  1  -0.00341609  0.66145044  0.12907233  1
  O  O194  1  0.16572773  0.17060670  0.12173367  1
  O  O195  1  0.33382925  0.66466669  0.38341984  1
  O  O196  1  0.84112648  0.17308370  0.38457117  1
  O  O197  1  0.15635549  0.82986184  0.63029734  1
  O  O198  1  -0.01147150  0.65333807  0.37745010  1
  O  O199  1  0.82919327  0.48823032  0.63109750  1
  O  O200  1  0.17066955  0.83272729  0.86947925  1
  O  O201  1  0.32655069  0.36134456  0.12119219  1
  O  O202  1  0.49023894  0.16521138  0.61872073  1
  O  O203  1  0.50998650  0.49396132  0.36977478  1
  O  O204  1  0.32382466  0.00293731  0.11893612  1
  O  O205  1  0.18569211  0.17171543  0.61948683  1
  O  O206  1  0.65892727  0.66691975  0.63020747  1
  O  O207  1  0.83758755  0.15562306  0.86623972  1
  O  O208  1  0.16861579  0.50746158  0.62253916  1
  O  O209  1  0.51823508  0.16820438  0.37522686  1
  O  O210  1  0.31591702  0.33224240  0.61768945  1
  O  O211  1  0.30930234  0.34770566  0.36546209  1
  O  O212  1  0.84276990  0.47211808  0.88264516  1
  O  O213  1  0.50600511  0.85452216  0.62541477  1
  O  O214  1  0.51915485  0.16709690  0.13041640  1
  O  O215  1  0.49739760  0.18172885  0.88078345  1
