# generated using pymatgen
data_Sr24Ta24N11O13
_symmetry_space_group_name_H-M   'P 1'
_cell_length_a   16.65192873
_cell_length_b   16.94053911
_cell_length_c   15.55254238
_cell_angle_alpha   89.84475291
_cell_angle_beta   90.01096790
_cell_angle_gamma   89.14897051
_symmetry_Int_Tables_number   1
_chemical_formula_structural   Sr24Ta24N11O13
_chemical_formula_sum   'Sr72 Ta72 N33 O39'
_cell_volume   4386.75772309
_cell_formula_units_Z   3
loop_
 _symmetry_equiv_pos_site_id
 _symmetry_equiv_pos_as_xyz
  1  'x, y, z'
loop_
 _atom_site_type_symbol
 _atom_site_label
 _atom_site_symmetry_multiplicity
 _atom_site_fract_x
 _atom_site_fract_y
 _atom_site_fract_z
 _atom_site_occupancy
  Sr  Sr0  1  0.01056131  0.16504806  0.12946715  1
  Sr  Sr1  1  -0.01040958  0.16646696  0.67299894  1
  Sr  Sr2  1  -0.00899866  0.50679919  0.14043858  1
  Sr  Sr3  1  0.00976663  0.47106690  0.57101838  1
  Sr  Sr4  1  -0.01956975  0.85023701  0.07245352  1
  Sr  Sr5  1  0.00408348  0.83329597  0.63604689  1
  Sr  Sr6  1  0.32432200  0.21466524  0.09685177  1
  Sr  Sr7  1  0.32868864  0.15974232  0.63001710  1
  Sr  Sr8  1  0.33806273  0.50741751  0.15044543  1
  Sr  Sr9  1  0.35461756  0.53792498  0.63883716  1
  Sr  Sr10  1  0.32370096  0.83631583  0.13063253  1
  Sr  Sr11  1  0.33582565  0.84590456  0.59754393  1
  Sr  Sr12  1  0.65835677  0.16655909  0.13846414  1
  Sr  Sr13  1  0.68010017  0.17290946  0.58014070  1
  Sr  Sr14  1  0.65445181  0.53022896  0.08233917  1
  Sr  Sr15  1  0.68186202  0.50808723  0.64242787  1
  Sr  Sr16  1  0.67714186  0.83203446  0.15329094  1
  Sr  Sr17  1  0.66362467  0.84492979  0.61603293  1
  Sr  Sr18  1  0.15924164  -0.00418487  0.13937507  1
  Sr  Sr19  1  0.17926855  -0.01406456  0.59359897  1
  Sr  Sr20  1  0.15031306  0.33255632  0.08333384  1
  Sr  Sr21  1  0.17626030  0.31075964  0.64668292  1
  Sr  Sr22  1  0.18900832  0.65966038  0.17587154  1
  Sr  Sr23  1  0.15111598  0.66565281  0.62635180  1
  Sr  Sr24  1  0.49174936  -0.03304296  0.12377565  1
  Sr  Sr25  1  0.49380347  -0.00143098  0.65857095  1
  Sr  Sr26  1  0.49968043  0.34397464  0.13312194  1
  Sr  Sr27  1  0.49555038  0.28967400  0.59456262  1
  Sr  Sr28  1  0.49513021  0.66460447  0.07388608  1
  Sr  Sr29  1  0.52369675  0.66049594  0.62737882  1
  Sr  Sr30  1  0.83856541  0.00020291  0.08446355  1
  Sr  Sr31  1  0.84150349  -0.01082306  0.64103203  1
  Sr  Sr32  1  0.84809399  0.29961815  0.18693399  1
  Sr  Sr33  1  0.82784613  0.33769731  0.61991307  1
  Sr  Sr34  1  0.82738036  0.67617733  0.11586764  1
  Sr  Sr35  1  0.83798058  0.65858865  0.66296423  1
  Sr  Sr36  1  0.00661546  0.15839205  0.34049420  1
  Sr  Sr37  1  0.00093230  0.19036335  0.87157682  1
  Sr  Sr38  1  -0.01247609  0.50726922  0.35878710  1
  Sr  Sr39  1  0.00387194  0.49232660  0.92257026  1
  Sr  Sr40  1  -0.00460484  0.85138691  0.41385685  1
  Sr  Sr41  1  0.00344378  0.81527144  0.86124125  1
  Sr  Sr42  1  0.32003982  0.18564485  0.40515491  1
  Sr  Sr43  1  0.33608999  0.18850704  0.86237718  1
  Sr  Sr44  1  0.34556269  0.51354751  0.36336575  1
  Sr  Sr45  1  0.31186036  0.51623387  0.84059244  1
  Sr  Sr46  1  0.33129532  0.84922315  0.35385015  1
  Sr  Sr47  1  0.34592524  0.83497085  0.91416795  1
  Sr  Sr48  1  0.66605936  0.17342525  0.36270344  1
  Sr  Sr49  1  0.66483935  0.16982560  0.92074142  1
  Sr  Sr50  1  0.66174273  0.52374910  0.39417679  1
  Sr  Sr51  1  0.67741168  0.48475591  0.86648116  1
  Sr  Sr52  1  0.67042155  0.83172897  0.37503453  1
  Sr  Sr53  1  0.65152450  0.87907981  0.82480173  1
  Sr  Sr54  1  0.16802479  0.00605282  0.36688419  1
  Sr  Sr55  1  0.17968709  -0.04233120  0.91936319  1
  Sr  Sr56  1  0.16367725  0.33085381  0.42089646  1
  Sr  Sr57  1  0.16884617  0.32907433  0.86986838  1
  Sr  Sr58  1  0.13622226  0.65180073  0.37803440  1
  Sr  Sr59  1  0.17023750  0.66570381  0.84086787  1
  Sr  Sr60  1  0.51843130  -0.01399766  0.32209422  1
  Sr  Sr61  1  0.48764082  -0.00119065  0.87070664  1
  Sr  Sr62  1  0.48669596  0.32852628  0.35482132  1
  Sr  Sr63  1  0.50689350  0.31256812  0.90903607  1
  Sr  Sr64  1  0.50595509  0.67282347  0.41761790  1
  Sr  Sr65  1  0.49678404  0.63730326  0.85491732  1
  Sr  Sr66  1  0.82551781  -0.02156456  0.42386595  1
  Sr  Sr67  1  0.84263341  0.00623715  0.86651027  1
  Sr  Sr68  1  0.83415038  0.35372241  0.39498684  1
  Sr  Sr69  1  0.82639872  0.33470343  0.84686681  1
  Sr  Sr70  1  0.81702822  0.67235958  0.33311011  1
  Sr  Sr71  1  0.85148651  0.64255228  0.89891896  1
  Ta  Ta72  1  0.16806542  0.13968230  -0.00793444  1
  Ta  Ta73  1  0.12692985  0.15803509  0.51066844  1
  Ta  Ta74  1  0.18392438  0.52910483  0.00717680  1
  Ta  Ta75  1  0.20651055  0.50589576  0.50399856  1
  Ta  Ta76  1  0.16342400  0.78075467  0.00729871  1
  Ta  Ta77  1  0.17702093  0.80801909  0.49472416  1
  Ta  Ta78  1  0.48386761  0.13157769  0.01701088  1
  Ta  Ta79  1  0.49872342  0.11688874  0.48653938  1
  Ta  Ta80  1  0.46370589  0.48862928  -0.00786305  1
  Ta  Ta81  1  0.49884636  0.47087425  0.50017427  1
  Ta  Ta82  1  0.55171028  0.83033361  -0.00835042  1
  Ta  Ta83  1  0.49786145  0.87718546  0.48660782  1
  Ta  Ta84  1  0.84192794  0.19406413  0.00145877  1
  Ta  Ta85  1  0.87379359  0.15964828  0.50516346  1
  Ta  Ta86  1  0.82888971  0.45285284  0.02104463  1
  Ta  Ta87  1  0.83201960  0.54080992  0.49660332  1
  Ta  Ta88  1  0.78561041  0.83408669  -0.01762281  1
  Ta  Ta89  1  0.83079279  0.78999978  0.50881746  1
  Ta  Ta90  1  0.18566624  0.19264849  0.25028759  1
  Ta  Ta91  1  0.17070170  0.11242973  0.76314558  1
  Ta  Ta92  1  0.16685485  0.46002151  0.26117283  1
  Ta  Ta93  1  0.11654053  0.49224410  0.74777789  1
  Ta  Ta94  1  0.10993621  0.83182584  0.24002232  1
  Ta  Ta95  1  0.19422943  0.84692470  0.75248330  1
  Ta  Ta96  1  0.46503635  0.15493594  0.23236025  1
  Ta  Ta97  1  0.53965410  0.17400459  0.75376592  1
  Ta  Ta98  1  0.52132051  0.52842590  0.24576970  1
  Ta  Ta99  1  0.50923535  0.43952138  0.74321946  1
  Ta  Ta100  1  0.50392811  0.78814926  0.24254289  1
  Ta  Ta101  1  0.47548827  0.81750727  0.74416649  1
  Ta  Ta102  1  0.83717285  0.10495134  0.25605502  1
  Ta  Ta103  1  0.79054484  0.17086078  0.75100962  1
  Ta  Ta104  1  0.79755875  0.49244694  0.23855017  1
  Ta  Ta105  1  0.88693182  0.49446019  0.74359258  1
  Ta  Ta106  1  0.85721757  0.85740598  0.24979136  1
  Ta  Ta107  1  0.81896265  0.81464022  0.76313183  1
  Ta  Ta108  1  -0.02690258  -0.02153740  0.25533650  1
  Ta  Ta109  1  0.04888063  -0.00592967  0.76290987  1
  Ta  Ta110  1  0.04753308  0.33528249  0.25340727  1
  Ta  Ta111  1  0.00139082  0.36944180  0.75826356  1
  Ta  Ta112  1  -0.00848390  0.72222841  0.24047598  1
  Ta  Ta113  1  0.00064631  0.61400296  0.75121239  1
  Ta  Ta114  1  0.33250606  0.05488534  0.23266978  1
  Ta  Ta115  1  0.30897323  -0.01624915  0.75669479  1
  Ta  Ta116  1  0.28712892  0.34022549  0.25518345  1
  Ta  Ta117  1  0.36640616  0.35192987  0.74196230  1
  Ta  Ta118  1  0.39045730  0.67274944  0.24456219  1
  Ta  Ta119  1  0.33985689  0.72206120  0.74779750  1
  Ta  Ta120  1  0.71562194  -0.00079196  0.25373335  1
  Ta  Ta121  1  0.66633897  0.05770964  0.75127236  1
  Ta  Ta122  1  0.66925229  0.38976414  0.23986724  1
  Ta  Ta123  1  0.64451092  0.30216475  0.75129167  1
  Ta  Ta124  1  0.62336293  0.66115781  0.24364578  1
  Ta  Ta125  1  0.67738399  0.69936918  0.76968799  1
  Ta  Ta126  1  0.01682151  0.03077311  -0.02015337  1
  Ta  Ta127  1  0.00245392  0.04053517  0.50620985  1
  Ta  Ta128  1  -0.04468559  0.32854075  0.01196399  1
  Ta  Ta129  1  -0.00293714  0.27453472  0.50554147  1
  Ta  Ta130  1  0.05030749  0.66305684  0.01139520  1
  Ta  Ta131  1  -0.03943573  0.66602861  0.49730798  1
  Ta  Ta132  1  0.33462895  0.03860824  0.01556628  1
  Ta  Ta133  1  0.37915095  0.00732335  0.48445826  1
  Ta  Ta134  1  0.32839290  0.38788820  -0.01191754  1
  Ta  Ta135  1  0.33744964  0.37745299  0.51674975  1
  Ta  Ta136  1  0.30459387  0.64951368  0.00344510  1
  Ta  Ta137  1  0.30735548  0.67619605  0.49131717  1
  Ta  Ta138  1  0.65437492  -0.01841726  -0.00270945  1
  Ta  Ta139  1  0.62476518  0.00324527  0.49503441  1
  Ta  Ta140  1  0.71588206  0.33524222  0.01943187  1
  Ta  Ta141  1  0.64661001  0.35875619  0.49632157  1
  Ta  Ta142  1  0.66977094  0.71059911  -0.03004718  1
  Ta  Ta143  1  0.70795659  0.67614913  0.51416164  1
  N  N144  1  0.82657035  0.51040698  0.36773403  1
  N  N145  1  -0.00023099  0.32757973  0.13920164  1
  N  N146  1  0.84950644  0.49651587  0.62021756  1
  N  N147  1  0.82689665  0.84114687  0.10348799  1
  N  N148  1  0.83662643  0.82978775  0.63050512  1
  N  N149  1  0.50996413  0.81919853  0.10873394  1
  N  N150  1  0.16486869  0.16713259  0.37432637  1
  N  N151  1  0.16721467  0.17282155  0.11447464  1
  N  N152  1  0.83506776  0.82993655  0.37228894  1
  N  N153  1  0.16708339  0.82734683  0.61779296  1
  N  N154  1  0.34112966  0.66603852  0.12420308  1
  N  N155  1  0.82862179  0.17747333  0.87849984  1
  N  N156  1  0.16357268  0.49789828  0.38749281  1
  N  N157  1  -0.00727952  0.34172948  0.88478774  1
  N  N158  1  0.33424316  0.31537242  0.62062103  1
  N  N159  1  0.67071450  0.00129769  0.37381593  1
  N  N160  1  0.50342534  0.83255835  0.37155291  1
  N  N161  1  0.67677679  0.67659369  0.64594903  1
  N  N162  1  0.83233842  0.16505349  0.62579475  1
  N  N163  1  0.66459688  0.02059913  0.87963093  1
  N  N164  1  0.01242500  -0.03452733  0.88032525  1
  N  N165  1  0.32921576  0.34842937  0.86925311  1
  N  N166  1  0.49628012  0.50269091  0.11250928  1
  N  N167  1  0.85048162  0.85048196  0.87902092  1
  N  N168  1  0.17405284  0.17798092  0.86512484  1
  N  N169  1  0.16036188  0.83369054  0.12335892  1
  N  N170  1  0.17249878  0.81409846  0.87300922  1
  N  N171  1  -0.00440748  0.00193874  0.37893635  1
  N  N172  1  0.16574433  0.15169671  0.63268573  1
  N  N173  1  0.50234370  0.19543297  0.11700542  1
  N  N174  1  0.32052681  -0.00919276  0.12930027  1
  N  N175  1  0.82930770  0.52529741  0.11812497  1
  N  N176  1  0.50010619  0.49858404  0.37828544  1
  O  O177  1  0.84204987  0.15187818  0.13359146  1
  O  O178  1  0.65537013  0.32466806  0.61768615  1
  O  O179  1  0.49318134  0.83358414  0.61612707  1
  O  O180  1  0.50502232  0.14651050  0.62841239  1
  O  O181  1  0.31953254  0.34108258  0.38448330  1
  O  O182  1  0.65941069  0.32240233  0.13101739  1
  O  O183  1  0.51222468  0.50354922  0.63416150  1
  O  O184  1  0.17639079  0.50776897  0.13582724  1
  O  O185  1  0.33226637  0.01675529  0.36338932  1
  O  O186  1  -0.00362344  0.32040251  0.62735434  1
  O  O187  1  0.01668300  0.64165972  0.88550910  1
  O  O188  1  0.67334119  0.32732491  0.89177948  1
  O  O189  1  0.49571757  0.83943880  0.86987060  1
  O  O190  1  0.31736224  0.68581172  0.62131210  1
  O  O191  1  0.01170133  -0.00292851  0.63299514  1
  O  O192  1  0.65374574  0.01824663  0.62333268  1
  O  O193  1  0.52101026  0.47052333  0.87466744  1
  O  O194  1  -0.02224474  0.68174891  0.36897536  1
  O  O195  1  0.65227694  0.62845814  0.87441222  1
  O  O196  1  0.66126273  0.67386857  0.37229142  1
  O  O197  1  0.66504429  0.67610716  0.11834826  1
  O  O198  1  0.65840079  0.36547377  0.37030651  1
  O  O199  1  -0.00702556  0.64567240  0.61916687  1
  O  O200  1  0.00866567  0.31382996  0.37961696  1
  O  O201  1  0.84009845  0.49098684  0.88965161  1
  O  O202  1  0.14942041  0.82858530  0.36841547  1
  O  O203  1  0.50453532  0.14863883  0.35587989  1
  O  O204  1  0.15718437  0.50050491  0.62475282  1
  O  O205  1  -0.01196989  0.66572760  0.12634529  1
  O  O206  1  0.33151785  -0.00845224  0.88550324  1
  O  O207  1  0.33747008  -0.00214225  0.62721735  1
  O  O208  1  0.67947345  -0.00384815  0.12755086  1
  O  O209  1  0.15972352  0.50997677  0.87801519  1
  O  O210  1  -0.00347121  0.00268471  0.10726319  1
  O  O211  1  0.83338959  0.14141904  0.37867370  1
  O  O212  1  0.32970812  0.67814407  0.87089380  1
  O  O213  1  0.34507562  0.67274074  0.37202475  1
  O  O214  1  0.30597342  0.35834999  0.12465731  1
  O  O215  1  0.50529290  0.15677107  0.88358599  1
