# generated using pymatgen
data_Sr24Ta24N11O13
_symmetry_space_group_name_H-M   'P 1'
_cell_length_a   16.84333133
_cell_length_b   16.75930263
_cell_length_c   15.71611664
_cell_angle_alpha   89.83661802
_cell_angle_beta   89.78841667
_cell_angle_gamma   89.82230903
_symmetry_Int_Tables_number   1
_chemical_formula_structural   Sr24Ta24N11O13
_chemical_formula_sum   'Sr72 Ta72 N33 O39'
_cell_volume   4436.31501652
_cell_formula_units_Z   3
loop_
 _symmetry_equiv_pos_site_id
 _symmetry_equiv_pos_as_xyz
  1  'x, y, z'
loop_
 _atom_site_type_symbol
 _atom_site_label
 _atom_site_symmetry_multiplicity
 _atom_site_fract_x
 _atom_site_fract_y
 _atom_site_fract_z
 _atom_site_occupancy
  Sr  Sr0  1  -0.00933132  0.18060972  0.17512602  1
  Sr  Sr1  1  -0.00467652  0.15289517  0.61094647  1
  Sr  Sr2  1  -0.00738012  0.48798977  0.07437347  1
  Sr  Sr3  1  0.00221526  0.50300462  0.62518635  1
  Sr  Sr4  1  -0.00176654  0.83810639  0.12020797  1
  Sr  Sr5  1  -0.05230030  0.82706296  0.65665349  1
  Sr  Sr6  1  0.32335072  0.15733021  0.13873628  1
  Sr  Sr7  1  0.34622582  0.16671097  0.58703954  1
  Sr  Sr8  1  0.33688781  0.49508605  0.11849348  1
  Sr  Sr9  1  0.33057452  0.45823242  0.65464374  1
  Sr  Sr10  1  0.33054802  0.83229040  0.12216047  1
  Sr  Sr11  1  0.31929267  0.81426528  0.62832608  1
  Sr  Sr12  1  0.66453423  0.16224798  0.09643944  1
  Sr  Sr13  1  0.65598019  0.15478525  0.67230901  1
  Sr  Sr14  1  0.69105539  0.49804880  0.17420709  1
  Sr  Sr15  1  0.66305083  0.49416039  0.61211507  1
  Sr  Sr16  1  0.65173064  0.82431660  0.13379658  1
  Sr  Sr17  1  0.66079084  0.84243355  0.58769838  1
  Sr  Sr18  1  0.17876421  -0.01213466  0.08992663  1
  Sr  Sr19  1  0.19328676  -0.00379070  0.62549509  1
  Sr  Sr20  1  0.17875281  0.32909369  0.11131477  1
  Sr  Sr21  1  0.16106162  0.33348448  0.66588609  1
  Sr  Sr22  1  0.18311349  0.68019381  0.17493639  1
  Sr  Sr23  1  0.16977613  0.66483959  0.60295808  1
  Sr  Sr24  1  0.51218538  0.01537315  0.14600322  1
  Sr  Sr25  1  0.50133278  0.00643968  0.64980426  1
  Sr  Sr26  1  0.51495805  0.35444913  0.11897416  1
  Sr  Sr27  1  0.50408474  0.33370151  0.62846181  1
  Sr  Sr28  1  0.49012441  0.67908229  0.09253651  1
  Sr  Sr29  1  0.49695611  0.69200040  0.61938047  1
  Sr  Sr30  1  0.85142380  0.01228619  0.12952591  1
  Sr  Sr31  1  0.82847749  0.00413560  0.62671289  1
  Sr  Sr32  1  0.83673429  0.33363229  0.12683098  1
  Sr  Sr33  1  0.85874356  0.34722946  0.57197092  1
  Sr  Sr34  1  0.83026024  0.67391221  0.11305999  1
  Sr  Sr35  1  0.82956315  0.65248690  0.66448470  1
  Sr  Sr36  1  -0.01272832  0.16734978  0.38760775  1
  Sr  Sr37  1  0.00147169  0.16124914  0.83409458  1
  Sr  Sr38  1  0.00508395  0.50161603  0.41167321  1
  Sr  Sr39  1  -0.00572415  0.49872509  0.86757902  1
  Sr  Sr40  1  -0.01651594  0.81548420  0.33777276  1
  Sr  Sr41  1  -0.01242074  0.83464472  0.88848640  1
  Sr  Sr42  1  0.33805091  0.15560872  0.37228908  1
  Sr  Sr43  1  0.28223358  0.16018340  0.93344632  1
  Sr  Sr44  1  0.31680919  0.48794920  0.33903841  1
  Sr  Sr45  1  0.34459528  0.48513739  0.88866173  1
  Sr  Sr46  1  0.31499957  0.81683242  0.39461562  1
  Sr  Sr47  1  0.34954884  0.85243114  0.85353943  1
  Sr  Sr48  1  0.64687306  0.15229786  0.34932260  1
  Sr  Sr49  1  0.68191065  0.17596181  0.88633178  1
  Sr  Sr50  1  0.65297252  0.49450710  0.38741755  1
  Sr  Sr51  1  0.66869397  0.50647604  0.82936536  1
  Sr  Sr52  1  0.65327049  0.83493785  0.37575898  1
  Sr  Sr53  1  0.65820231  0.79393929  0.92665637  1
  Sr  Sr54  1  0.17596846  0.00309370  0.41573741  1
  Sr  Sr55  1  0.17975062  -0.01898040  0.87727454  1
  Sr  Sr56  1  0.17822829  0.31298678  0.32403087  1
  Sr  Sr57  1  0.16156288  0.34767370  0.88159686  1
  Sr  Sr58  1  0.16356919  0.66605066  0.38307234  1
  Sr  Sr59  1  0.19301637  0.69367186  0.84269518  1
  Sr  Sr60  1  0.49743701  0.00282606  0.35316648  1
  Sr  Sr61  1  0.51430032  0.01801881  0.87032893  1
  Sr  Sr62  1  0.49950941  0.34246369  0.39186358  1
  Sr  Sr63  1  0.52456239  0.34716736  0.85774552  1
  Sr  Sr64  1  0.50496579  0.67762828  0.41126897  1
  Sr  Sr65  1  0.48758951  0.68078884  0.88309065  1
  Sr  Sr66  1  0.83942377  0.00054509  0.38802065  1
  Sr  Sr67  1  0.83982291  0.01951883  0.85872346  1
  Sr  Sr68  1  0.83238326  0.33989633  0.36484409  1
  Sr  Sr69  1  0.83743852  0.33281246  0.90762172  1
  Sr  Sr70  1  0.81613495  0.67153994  0.32865345  1
  Sr  Sr71  1  0.83627769  0.66253766  0.87902004  1
  Ta  Ta72  1  0.10473712  0.16035302  0.01200605  1
  Ta  Ta73  1  0.16902364  0.19988302  0.49334979  1
  Ta  Ta74  1  0.17060638  0.55213651  0.00408198  1
  Ta  Ta75  1  0.18763297  0.46846004  0.49742637  1
  Ta  Ta76  1  0.16607608  0.79729678  0.00789530  1
  Ta  Ta77  1  0.10651684  0.83017911  0.50389942  1
  Ta  Ta78  1  0.47485286  0.17698192  -0.00413511  1
  Ta  Ta79  1  0.53112622  0.15810668  0.50827248  1
  Ta  Ta80  1  0.53527531  0.50474664  -0.00516512  1
  Ta  Ta81  1  0.45861469  0.50514690  0.49882192  1
  Ta  Ta82  1  0.49690420  0.87361053  0.00580053  1
  Ta  Ta83  1  0.48356098  0.86832993  0.50109340  1
  Ta  Ta84  1  0.88370047  0.16397653  0.00501316  1
  Ta  Ta85  1  0.78405040  0.16711875  0.49553105  1
  Ta  Ta86  1  0.80124721  0.50133853  -0.00449232  1
  Ta  Ta87  1  0.83261375  0.54750726  0.49736693  1
  Ta  Ta88  1  0.81853158  0.86122453  -0.00062752  1
  Ta  Ta89  1  0.83682167  0.79726802  0.49182932  1
  Ta  Ta90  1  0.16179299  0.11875470  0.24948700  1
  Ta  Ta91  1  0.18616588  0.15537828  0.75065883  1
  Ta  Ta92  1  0.12018699  0.49933174  0.24434228  1
  Ta  Ta93  1  0.16751849  0.52906875  0.75048940  1
  Ta  Ta94  1  0.16489999  0.86821299  0.25878802  1
  Ta  Ta95  1  0.12590473  0.83596753  0.72900183  1
  Ta  Ta96  1  0.49669496  0.20289546  0.24042629  1
  Ta  Ta97  1  0.46620822  0.17830005  0.76078853  1
  Ta  Ta98  1  0.49615599  0.53444697  0.25358735  1
  Ta  Ta99  1  0.49182600  0.53422950  0.74640075  1
  Ta  Ta100  1  0.48320321  0.81064795  0.25369879  1
  Ta  Ta101  1  0.55281964  0.83854299  0.76269935  1
  Ta  Ta102  1  0.80165057  0.16831809  0.24877505  1
  Ta  Ta103  1  0.83705185  0.22121655  0.73796034  1
  Ta  Ta104  1  0.88193724  0.50147788  0.24221356  1
  Ta  Ta105  1  0.83727657  0.45798884  0.74418121  1
  Ta  Ta106  1  0.80561607  0.85893656  0.24862261  1
  Ta  Ta107  1  0.76311468  0.83158162  0.75755961  1
  Ta  Ta108  1  0.03934779  -0.00352160  0.24902001  1
  Ta  Ta109  1  0.02690231  -0.01817753  0.74549074  1
  Ta  Ta110  1  0.00662191  0.37380825  0.24321171  1
  Ta  Ta111  1  -0.03100511  0.33391888  0.74988288  1
  Ta  Ta112  1  0.00090222  0.61998240  0.24543360  1
  Ta  Ta113  1  0.02879826  0.66950494  0.74823501  1
  Ta  Ta114  1  0.30668671  -0.01539504  0.25368659  1
  Ta  Ta115  1  0.33734600  0.06411414  0.76566650  1
  Ta  Ta116  1  0.36614180  0.31685934  0.24071615  1
  Ta  Ta117  1  0.32900591  0.26344938  0.76300216  1
  Ta  Ta118  1  0.36983124  0.66591699  0.25716459  1
  Ta  Ta119  1  0.34182387  0.63163312  0.73979033  1
  Ta  Ta120  1  0.69416252  -0.00506620  0.24205582  1
  Ta  Ta121  1  0.67072821  -0.03545704  0.76777517  1
  Ta  Ta122  1  0.66344659  0.30671094  0.24590211  1
  Ta  Ta123  1  0.71863452  0.33220873  0.74303734  1
  Ta  Ta124  1  0.62255270  0.66579260  0.24883603  1
  Ta  Ta125  1  0.65129739  0.68753659  0.75374235  1
  Ta  Ta126  1  0.00079662  0.02824788  0.00410814  1
  Ta  Ta127  1  -0.00256742  -0.04440551  0.49878661  1
  Ta  Ta128  1  0.00440758  0.29559300  -0.00119244  1
  Ta  Ta129  1  0.06529485  0.33372963  0.49576731  1
  Ta  Ta130  1  0.04996797  0.66901394  0.00430607  1
  Ta  Ta131  1  -0.03640626  0.68547720  0.49815310  1
  Ta  Ta132  1  0.37137678  0.00283277  0.00654565  1
  Ta  Ta133  1  0.36321316  -0.01324507  0.50221357  1
  Ta  Ta134  1  0.36851051  0.31147641  -0.00224159  1
  Ta  Ta135  1  0.29549721  0.33765250  0.49528518  1
  Ta  Ta136  1  0.30090370  0.66704964  0.00622538  1
  Ta  Ta137  1  0.33258977  0.61279788  0.49834841  1
  Ta  Ta138  1  0.67772421  -0.02438725  -0.00502966  1
  Ta  Ta139  1  0.65469520  0.02801371  0.50246126  1
  Ta  Ta140  1  0.67103501  0.39577440  -0.00187505  1
  Ta  Ta141  1  0.66616966  0.28742017  0.50313235  1
  Ta  Ta142  1  0.66449637  0.61166733  0.00464053  1
  Ta  Ta143  1  0.70211197  0.66488035  0.49426080  1
  N  N144  1  0.67124361  0.00631247  0.12136099  1
  N  N145  1  0.16144138  0.83085020  0.12784219  1
  N  N146  1  0.66204437  0.66433617  0.37438663  1
  N  N147  1  0.66504794  0.65339008  0.87233481  1
  N  N148  1  0.00556929  0.33762532  0.12434291  1
  N  N149  1  0.00132974  0.32989261  0.86945903  1
  N  N150  1  0.34110187  0.33322677  0.11953874  1
  N  N151  1  0.33837855  0.00175836  0.13143692  1
  N  N152  1  0.49421433  0.84422911  0.38058262  1
  N  N153  1  0.49239057  0.50226342  0.37401837  1
  N  N154  1  0.84337635  0.50380663  0.12426173  1
  N  N155  1  0.82475577  0.16839736  0.37637272  1
  N  N156  1  0.32382722  0.65158872  0.37146617  1
  N  N157  1  0.83449804  0.49768135  0.86296609  1
  N  N158  1  0.16791199  0.16153168  0.37490219  1
  N  N159  1  0.00883127  -0.00339683  0.12626976  1
  N  N160  1  0.50492347  0.17444963  0.11781053  1
  N  N161  1  0.16657011  0.82596428  0.61203698  1
  N  N162  1  0.33673507  0.01443196  0.87924276  1
  N  N163  1  0.83891800  0.50193819  0.61276541  1
  N  N164  1  0.65996169  0.65414830  0.12475913  1
  N  N165  1  0.14928199  0.82852539  0.37771519  1
  N  N166  1  0.15513866  0.15949287  0.12734772  1
  N  N167  1  0.33404182  0.66278403  0.12631049  1
  N  N168  1  0.83837625  0.17083038  0.12231688  1
  N  N169  1  0.50105963  0.17168419  0.63018446  1
  N  N170  1  0.49755296  0.84122776  0.13064424  1
  N  N171  1  0.50695344  0.84049869  0.87852476  1
  N  N172  1  0.67667241  0.02290997  0.87718131  1
  N  N173  1  0.82634344  0.83172708  0.36991673  1
  N  N174  1  0.33848665  -0.00304488  0.38176584  1
  N  N175  1  0.32817779  0.65666882  0.61984389  1
  N  N176  1  0.50377629  0.51018789  0.86610816  1
  O  O177  1  0.33584834  0.64545426  0.88039759  1
  O  O178  1  0.32822380  0.33122617  0.37074027  1
  O  O179  1  0.31501054  0.31440515  0.88056598  1
  O  O180  1  0.01785788  0.66588043  0.12676972  1
  O  O181  1  0.31205352  0.31191722  0.62561786  1
  O  O182  1  -0.01113411  0.67091190  0.62899529  1
  O  O183  1  0.85316067  0.50212985  0.37777856  1
  O  O184  1  -0.01059372  -0.01511858  0.62412452  1
  O  O185  1  0.84352439  0.17485531  0.87860285  1
  O  O186  1  0.02579350  0.34428513  0.37622935  1
  O  O187  1  -0.00529018  -0.02580270  0.37393087  1
  O  O188  1  0.16932948  0.51956976  0.12749905  1
  O  O189  1  0.49403876  0.51014008  0.11841900  1
  O  O190  1  0.50312390  0.49149474  0.61885098  1
  O  O191  1  0.51298303  0.84806460  0.63520587  1
  O  O192  1  0.16257755  0.49018815  0.36928379  1
  O  O193  1  0.16925135  0.53249423  0.87422043  1
  O  O194  1  0.14642558  0.15668909  0.87512881  1
  O  O195  1  0.17743747  0.16792629  0.62451784  1
  O  O196  1  0.67004211  0.34483657  0.12321402  1
  O  O197  1  0.66560258  0.31178847  0.62838492  1
  O  O198  1  0.52852741  0.18211118  0.87123760  1
  O  O199  1  0.34693993  0.02092118  0.63677874  1
  O  O200  1  0.66068409  0.31126345  0.37293382  1
  O  O201  1  0.66240188  0.00496659  0.63082305  1
  O  O202  1  0.14448319  0.83245204  0.88007328  1
  O  O203  1  0.17498361  0.49430587  0.62905686  1
  O  O204  1  0.83638731  0.17935401  0.61438604  1
  O  O205  1  0.66641632  0.00339687  0.37835700  1
  O  O206  1  0.67917833  0.35086789  0.87589525  1
  O  O207  1  0.01520016  0.34115885  0.61618707  1
  O  O208  1  0.81675936  0.83337969  0.87460095  1
  O  O209  1  0.83725851  0.84370523  0.12185583  1
  O  O210  1  0.03246902  0.67217950  0.87348647  1
  O  O211  1  0.80288119  0.82356944  0.63053967  1
  O  O212  1  0.01903190  -0.00608600  0.87224774  1
  O  O213  1  0.49816018  0.17822878  0.38248812  1
  O  O214  1  0.67198481  0.66790012  0.62150422  1
  O  O215  1  -0.01255311  0.66113994  0.36972783  1
