# generated using pymatgen
data_Sr24Ta24N11O13
_symmetry_space_group_name_H-M   'P 1'
_cell_length_a   16.83936079
_cell_length_b   16.77439919
_cell_length_c   15.76297113
_cell_angle_alpha   90.02039338
_cell_angle_beta   90.15181655
_cell_angle_gamma   89.88693393
_symmetry_Int_Tables_number   1
_chemical_formula_structural   Sr24Ta24N11O13
_chemical_formula_sum   'Sr72 Ta72 N33 O39'
_cell_volume   4452.54440110
_cell_formula_units_Z   3
loop_
 _symmetry_equiv_pos_site_id
 _symmetry_equiv_pos_as_xyz
  1  'x, y, z'
loop_
 _atom_site_type_symbol
 _atom_site_label
 _atom_site_symmetry_multiplicity
 _atom_site_fract_x
 _atom_site_fract_y
 _atom_site_fract_z
 _atom_site_occupancy
  Sr  Sr0  1  -0.00791991  0.14940094  0.07702944  1
  Sr  Sr1  1  0.00416287  0.18740538  0.64188993  1
  Sr  Sr2  1  0.00083269  0.49981748  0.13368236  1
  Sr  Sr3  1  -0.01661232  0.50700348  0.58345246  1
  Sr  Sr4  1  -0.00594505  0.84086980  0.16558159  1
  Sr  Sr5  1  -0.01489773  0.80866123  0.63615499  1
  Sr  Sr6  1  0.33375699  0.16471819  0.10939497  1
  Sr  Sr7  1  0.32926960  0.16071824  0.66883346  1
  Sr  Sr8  1  0.32602116  0.49681021  0.12220323  1
  Sr  Sr9  1  0.32400858  0.49990610  0.62330157  1
  Sr  Sr10  1  0.32401013  0.82830082  0.13421658  1
  Sr  Sr11  1  0.31516005  0.84654564  0.59351378  1
  Sr  Sr12  1  0.68581677  0.16562439  0.16827876  1
  Sr  Sr13  1  0.65781207  0.16330187  0.61485736  1
  Sr  Sr14  1  0.64175393  0.50269226  0.11475412  1
  Sr  Sr15  1  0.66728152  0.50380553  0.63315850  1
  Sr  Sr16  1  0.66766275  0.83653843  0.09355722  1
  Sr  Sr17  1  0.64217322  0.83865186  0.63181149  1
  Sr  Sr18  1  0.18808032  -0.00614444  0.13869983  1
  Sr  Sr19  1  0.16921768  -0.00228712  0.58905428  1
  Sr  Sr20  1  0.17633224  0.34616486  0.17137072  1
  Sr  Sr21  1  0.16854546  0.34562511  0.61206601  1
  Sr  Sr22  1  0.17905787  0.64632689  0.08113293  1
  Sr  Sr23  1  0.17776853  0.67849281  0.63998404  1
  Sr  Sr24  1  0.52380229  0.00178532  0.10748731  1
  Sr  Sr25  1  0.49202202  -0.00415101  0.63099857  1
  Sr  Sr26  1  0.49959965  0.32428411  0.11554027  1
  Sr  Sr27  1  0.50235155  0.34946521  0.58469516  1
  Sr  Sr28  1  0.51308524  0.67615757  0.12943183  1
  Sr  Sr29  1  0.51709994  0.65773100  0.66757078  1
  Sr  Sr30  1  0.83759976  -0.00046281  0.12803509  1
  Sr  Sr31  1  0.87042737  0.01380021  0.62560263  1
  Sr  Sr32  1  0.84441080  0.33501964  0.11598664  1
  Sr  Sr33  1  0.81624990  0.33133171  0.66832582  1
  Sr  Sr34  1  0.85562714  0.66740235  0.14649080  1
  Sr  Sr35  1  0.83111472  0.66327542  0.59442807  1
  Sr  Sr36  1  0.00870641  0.14863630  0.42526611  1
  Sr  Sr37  1  -0.00277016  0.16804755  0.86867548  1
  Sr  Sr38  1  -0.01809045  0.49102172  0.35790351  1
  Sr  Sr39  1  -0.00709475  0.51747948  0.91940927  1
  Sr  Sr40  1  -0.02588385  0.82234146  0.35890923  1
  Sr  Sr41  1  -0.00618936  0.82281932  0.84181435  1
  Sr  Sr42  1  0.30255996  0.16357643  0.32930241  1
  Sr  Sr43  1  0.34774131  0.16243830  0.88549833  1
  Sr  Sr44  1  0.32827054  0.48204381  0.38928952  1
  Sr  Sr45  1  0.31779174  0.50696315  0.86149133  1
  Sr  Sr46  1  0.34089304  0.84373222  0.36934674  1
  Sr  Sr47  1  0.29655591  0.83241303  0.89516986  1
  Sr  Sr48  1  0.67149369  0.16053662  0.37843321  1
  Sr  Sr49  1  0.66789332  0.16735418  0.84270000  1
  Sr  Sr50  1  0.65124018  0.50867865  0.38616813  1
  Sr  Sr51  1  0.65777651  0.49217022  0.87073777  1
  Sr  Sr52  1  0.65865201  0.82919364  0.39904028  1
  Sr  Sr53  1  0.65020331  0.84422421  0.87851576  1
  Sr  Sr54  1  0.17496221  -0.01668816  0.36308644  1
  Sr  Sr55  1  0.18031347  0.01678027  0.92292549  1
  Sr  Sr56  1  0.15192620  0.33560180  0.38668497  1
  Sr  Sr57  1  0.17577429  0.31771871  0.82207800  1
  Sr  Sr58  1  0.21427610  0.67555565  0.41745495  1
  Sr  Sr59  1  0.16264993  0.66825455  0.86609561  1
  Sr  Sr60  1  0.51970430  -0.00630238  0.40724461  1
  Sr  Sr61  1  0.50660452  0.01379440  0.85262305  1
  Sr  Sr62  1  0.50656175  0.32408436  0.38289816  1
  Sr  Sr63  1  0.48346388  0.34170611  0.91182134  1
  Sr  Sr64  1  0.49985275  0.66450969  0.33606539  1
  Sr  Sr65  1  0.52814859  0.66969697  0.87352651  1
  Sr  Sr66  1  0.84477939  0.00980595  0.36140497  1
  Sr  Sr67  1  0.85872129  0.00037603  0.88704586  1
  Sr  Sr68  1  0.82769654  0.32762481  0.34169189  1
  Sr  Sr69  1  0.84131825  0.33558039  0.88329340  1
  Sr  Sr70  1  0.83315529  0.65994126  0.38484004  1
  Sr  Sr71  1  0.84995060  0.67473883  0.87694320  1
  Ta  Ta72  1  0.16458123  0.22227023  0.00022031  1
  Ta  Ta73  1  0.20734217  0.16762337  0.50277911  1
  Ta  Ta74  1  0.16500118  0.44848865  -0.00325356  1
  Ta  Ta75  1  0.14397465  0.52243895  0.48686501  1
  Ta  Ta76  1  0.12506981  0.82678521  0.00481972  1
  Ta  Ta77  1  0.12320507  0.82518628  0.49483515  1
  Ta  Ta78  1  0.54947647  0.16630063  -0.00471494  1
  Ta  Ta79  1  0.45574814  0.16491084  0.50382019  1
  Ta  Ta80  1  0.47780689  0.52484449  -0.00658110  1
  Ta  Ta81  1  0.49487704  0.53802462  0.50367157  1
  Ta  Ta82  1  0.47188040  0.83408493  -0.00418835  1
  Ta  Ta83  1  0.49053052  0.79284757  0.50495797  1
  Ta  Ta84  1  0.79841509  0.17018625  0.00180730  1
  Ta  Ta85  1  0.83051793  0.19899362  0.50250146  1
  Ta  Ta86  1  0.80891797  0.51726667  0.00313650  1
  Ta  Ta87  1  0.81889219  0.45790677  0.49889925  1
  Ta  Ta88  1  0.86319711  0.82791569  0.00964061  1
  Ta  Ta89  1  0.83058466  0.86090814  0.49740633  1
  Ta  Ta90  1  0.11049338  0.17040660  0.24796124  1
  Ta  Ta91  1  0.16406166  0.11394761  0.75446795  1
  Ta  Ta92  1  0.17013017  0.54476690  0.26030752  1
  Ta  Ta93  1  0.12311131  0.50295262  0.74662728  1
  Ta  Ta94  1  0.16803752  0.77251693  0.25191499  1
  Ta  Ta95  1  0.16481649  0.87858476  0.74936615  1
  Ta  Ta96  1  0.48913637  0.15440505  0.24975037  1
  Ta  Ta97  1  0.50077811  0.21490658  0.75169892  1
  Ta  Ta98  1  0.49028065  0.47363423  0.25518078  1
  Ta  Ta99  1  0.49227708  0.46708832  0.74887280  1
  Ta  Ta100  1  0.51501578  0.85640986  0.25386656  1
  Ta  Ta101  1  0.44500207  0.83071584  0.74845243  1
  Ta  Ta102  1  0.88572764  0.16654898  0.25075572  1
  Ta  Ta103  1  0.82645606  0.14870791  0.75309627  1
  Ta  Ta104  1  0.78937354  0.50105525  0.25432524  1
  Ta  Ta105  1  0.85292956  0.51849593  0.74396092  1
  Ta  Ta106  1  0.79122669  0.83280434  0.25235476  1
  Ta  Ta107  1  0.80764007  0.83854623  0.75053454  1
  Ta  Ta108  1  0.01114170  0.03412749  0.25075569  1
  Ta  Ta109  1  0.04459807  -0.00100839  0.75689877  1
  Ta  Ta110  1  -0.00077059  0.29111788  0.24902926  1
  Ta  Ta111  1  -0.00738835  0.40025818  0.75154512  1
  Ta  Ta112  1  0.04788469  0.66015241  0.25777330  1
  Ta  Ta113  1  -0.00330692  0.61631203  0.74456136  1
  Ta  Ta114  1  0.38732793  0.00323519  0.24405150  1
  Ta  Ta115  1  0.30551855  -0.01885999  0.75290906  1
  Ta  Ta116  1  0.36266377  0.33365784  0.24422569  1
  Ta  Ta117  1  0.36818363  0.33693146  0.74574273  1
  Ta  Ta118  1  0.31007061  0.65727849  0.24333343  1
  Ta  Ta119  1  0.34807227  0.69280648  0.75760297  1
  Ta  Ta120  1  0.66405352  -0.02850963  0.25115109  1
  Ta  Ta121  1  0.71191242  -0.00490886  0.75051178  1
  Ta  Ta122  1  0.65563716  0.35746454  0.24987369  1
  Ta  Ta123  1  0.62070220  0.33304987  0.74558950  1
  Ta  Ta124  1  0.68488473  0.68191814  0.25320263  1
  Ta  Ta125  1  0.70641704  0.68056935  0.74508284  1
  Ta  Ta126  1  0.01044271  -0.05044278  0.00039072  1
  Ta  Ta127  1  0.00415503  -0.04527214  0.49208314  1
  Ta  Ta128  1  0.04111829  0.33545611  -0.00246762  1
  Ta  Ta129  1  -0.04488122  0.33389087  0.50350301  1
  Ta  Ta130  1  0.00343734  0.70935841  0.01206537  1
  Ta  Ta131  1  0.03236909  0.67020477  0.47976055  1
  Ta  Ta132  1  0.36735736  -0.01854596  -0.00140182  1
  Ta  Ta133  1  0.33786759  0.04444101  0.50069844  1
  Ta  Ta134  1  0.29344043  0.33708613  -0.00701824  1
  Ta  Ta135  1  0.33056636  0.28316246  0.50366926  1
  Ta  Ta136  1  0.36600347  0.67029652  -0.00661290  1
  Ta  Ta137  1  0.38715561  0.66634799  0.50759063  1
  Ta  Ta138  1  0.68026643  0.03812172  0.00260206  1
  Ta  Ta139  1  0.70866093  -0.00662373  0.49735303  1
  Ta  Ta140  1  0.67008048  0.30323162  -0.00232658  1
  Ta  Ta141  1  0.70033091  0.33486859  0.50451951  1
  Ta  Ta142  1  0.69718409  0.65599727  0.00605120  1
  Ta  Ta143  1  0.62811248  0.66791663  0.50173727  1
  N  N144  1  0.32792520  0.33165150  0.87157699  1
  N  N145  1  0.65964562  0.33206155  0.62391772  1
  N  N146  1  0.33130459  0.00639894  0.62008737  1
  N  N147  1  0.01302980  -0.00676728  0.37260069  1
  N  N148  1  -0.01358062  0.66233786  0.36686828  1
  N  N149  1  0.82407232  0.83361421  0.37649430  1
  N  N150  1  0.82172917  0.49562420  0.37224977  1
  N  N151  1  0.31543333  0.67339337  0.87708242  1
  N  N152  1  0.16511248  0.48802633  0.37100129  1
  N  N153  1  0.49057650  0.49606820  0.37466219  1
  N  N154  1  0.83745847  0.17324695  0.62604786  1
  N  N155  1  0.33086626  0.32695901  0.62304541  1
  N  N156  1  0.34620442  0.00147713  0.12701314  1
  N  N157  1  0.82802638  0.49912318  0.62338052  1
  N  N158  1  0.48065807  0.83399685  0.62727728  1
  N  N159  1  0.67467070  0.67195463  0.62644550  1
  N  N160  1  0.49576837  0.50214046  0.62501207  1
  N  N161  1  0.67805392  0.00331075  0.37573611  1
  N  N162  1  0.67861995  0.00594241  0.12466843  1
  N  N163  1  0.01146826  0.66882464  0.12908518  1
  N  N164  1  0.66880591  0.66859276  0.12317409  1
  N  N165  1  0.49611690  0.50564413  0.87349087  1
  N  N166  1  0.83564358  0.83515333  0.12870859  1
  N  N167  1  0.84596826  0.17018986  0.36944449  1
  N  N168  1  0.33484111  0.33014526  0.12396535  1
  N  N169  1  0.50908972  0.17697794  0.87816841  1
  N  N170  1  0.33642612  -0.00080565  0.87525547  1
  N  N171  1  0.84196408  0.17053747  0.11905269  1
  N  N172  1  0.01555129  -0.00668757  0.88230588  1
  N  N173  1  0.84007113  0.17475595  0.87581975  1
  N  N174  1  0.33686486  0.66778893  0.12301737  1
  N  N175  1  0.49772730  0.83116810  0.37225707  1
  N  N176  1  0.65861658  0.66755651  0.37923225  1
  O  O177  1  0.17415595  0.14896295  0.62735999  1
  O  O178  1  0.01779921  -0.01136129  0.61589292  1
  O  O179  1  0.48692417  0.49914968  0.12061565  1
  O  O180  1  0.49616869  0.83331004  0.12061534  1
  O  O181  1  0.16091393  0.81452627  0.13061049  1
  O  O182  1  0.15943922  0.82156323  0.36974283  1
  O  O183  1  0.14438050  0.50693654  0.61736883  1
  O  O184  1  0.33958582  0.66555764  0.63015333  1
  O  O185  1  0.34386140  0.00821106  0.36610482  1
  O  O186  1  -0.01468616  0.31957000  0.38174526  1
  O  O187  1  0.51532632  0.16483473  0.12686648  1
  O  O188  1  0.00445020  0.65693025  0.62187806  1
  O  O189  1  0.01191188  -0.00542824  0.12554960  1
  O  O190  1  -0.02555534  0.34979347  0.63094316  1
  O  O191  1  0.34346719  0.31411384  0.37088652  1
  O  O192  1  0.68601287  0.67157407  0.87294755  1
  O  O193  1  0.69889115  0.00404982  0.62793009  1
  O  O194  1  0.14523812  0.83565972  0.62872932  1
  O  O195  1  0.49276391  0.83552523  0.86953991  1
  O  O196  1  0.16493142  0.49458165  0.12260946  1
  O  O197  1  0.47980151  0.16475555  0.37370303  1
  O  O198  1  0.14694033  0.83326333  0.86949447  1
  O  O199  1  0.16031538  0.16841207  0.88030177  1
  O  O200  1  0.66443632  0.32628005  0.87398317  1
  O  O201  1  0.66348875  0.32987092  0.12748361  1
  O  O202  1  0.83345215  0.83474124  0.87617981  1
  O  O203  1  0.65980891  0.33815491  0.37559765  1
  O  O204  1  0.00285136  0.66445755  0.86817930  1
  O  O205  1  0.00326832  0.32130804  0.11906631  1
  O  O206  1  0.15737906  0.17166200  0.38270015  1
  O  O207  1  0.82915823  0.51448786  0.87934785  1
  O  O208  1  0.48306059  0.17082681  0.62885106  1
  O  O209  1  0.14992263  0.49264568  0.87667804  1
  O  O210  1  0.82847923  0.83430510  0.62782960  1
  O  O211  1  0.81532309  0.49469468  0.12587038  1
  O  O212  1  0.68677087  -0.00175138  0.87739671  1
  O  O213  1  0.35200400  0.66346539  0.36849781  1
  O  O214  1  0.15087721  0.18969245  0.12389234  1
  O  O215  1  -0.00217936  0.36066231  0.87459032  1
