# generated using pymatgen
data_Sr24Ta24N11O13
_symmetry_space_group_name_H-M   'P 1'
_cell_length_a   17.01911598
_cell_length_b   16.56607993
_cell_length_c   15.71582419
_cell_angle_alpha   89.98435915
_cell_angle_beta   90.07598964
_cell_angle_gamma   90.71802833
_symmetry_Int_Tables_number   1
_chemical_formula_structural   Sr24Ta24N11O13
_chemical_formula_sum   'Sr72 Ta72 N33 O39'
_cell_volume   4430.56805646
_cell_formula_units_Z   3
loop_
 _symmetry_equiv_pos_site_id
 _symmetry_equiv_pos_as_xyz
  1  'x, y, z'
loop_
 _atom_site_type_symbol
 _atom_site_label
 _atom_site_symmetry_multiplicity
 _atom_site_fract_x
 _atom_site_fract_y
 _atom_site_fract_z
 _atom_site_occupancy
  Sr  Sr0  1  -0.01267067  0.16618421  0.11644179  1
  Sr  Sr1  1  -0.04317554  0.16409928  0.65779129  1
  Sr  Sr2  1  -0.00849432  0.50726907  0.16484024  1
  Sr  Sr3  1  -0.02293353  0.49209844  0.61426920  1
  Sr  Sr4  1  -0.01689286  0.83375217  0.09871379  1
  Sr  Sr5  1  -0.01005151  0.83997354  0.60847167  1
  Sr  Sr6  1  0.32984821  0.17926597  0.14948710  1
  Sr  Sr7  1  0.32278118  0.16691368  0.63312022  1
  Sr  Sr8  1  0.30269123  0.51268530  0.10933455  1
  Sr  Sr9  1  0.32724948  0.51032190  0.60441540  1
  Sr  Sr10  1  0.33566374  0.83855606  0.11185122  1
  Sr  Sr11  1  0.29473107  0.84151078  0.65317038  1
  Sr  Sr12  1  0.64810314  0.16542142  0.10709897  1
  Sr  Sr13  1  0.65792431  0.17996819  0.59630710  1
  Sr  Sr14  1  0.67489808  0.50809738  0.10618404  1
  Sr  Sr15  1  0.64941844  0.48358655  0.66912831  1
  Sr  Sr16  1  0.66473030  0.84103011  0.17227142  1
  Sr  Sr17  1  0.66180584  0.81789938  0.60836774  1
  Sr  Sr18  1  0.20314912  0.00390281  0.16270779  1
  Sr  Sr19  1  0.15933082  -0.00873147  0.60716356  1
  Sr  Sr20  1  0.18102209  0.31424164  0.10110033  1
  Sr  Sr21  1  0.19408455  0.32309487  0.60653791  1
  Sr  Sr22  1  0.16854638  0.68564314  0.11397902  1
  Sr  Sr23  1  0.16908100  0.65564223  0.66136324  1
  Sr  Sr24  1  0.50863185  -0.00963144  0.10269227  1
  Sr  Sr25  1  0.53338340  -0.00662316  0.60781211  1
  Sr  Sr26  1  0.51280144  0.33726368  0.12998902  1
  Sr  Sr27  1  0.50410435  0.32538002  0.64955446  1
  Sr  Sr28  1  0.53790606  0.66517522  0.15123574  1
  Sr  Sr29  1  0.51631253  0.66014885  0.61583153  1
  Sr  Sr30  1  0.84113415  0.00847472  0.11263652  1
  Sr  Sr31  1  0.83978078  -0.01155202  0.67074726  1
  Sr  Sr32  1  0.86205121  0.34291787  0.16096452  1
  Sr  Sr33  1  0.82754409  0.33263744  0.62024087  1
  Sr  Sr34  1  0.84446293  0.66260477  0.10762746  1
  Sr  Sr35  1  0.84387936  0.67272287  0.59267426  1
  Sr  Sr36  1  -0.03203983  0.16411192  0.34753657  1
  Sr  Sr37  1  -0.01436675  0.17008077  0.88502404  1
  Sr  Sr38  1  -0.01765957  0.49117840  0.38200664  1
  Sr  Sr39  1  -0.00804458  0.49982670  0.83803933  1
  Sr  Sr40  1  -0.00622696  0.84305486  0.39415949  1
  Sr  Sr41  1  -0.02115584  0.83544160  0.89268402  1
  Sr  Sr42  1  0.31872777  0.16442459  0.37300248  1
  Sr  Sr43  1  0.32877364  0.17882424  0.85090740  1
  Sr  Sr44  1  0.32118660  0.50924458  0.39568570  1
  Sr  Sr45  1  0.30260576  0.51292863  0.89076060  1
  Sr  Sr46  1  0.30176317  0.84303649  0.35205040  1
  Sr  Sr47  1  0.33509799  0.83755900  0.88678651  1
  Sr  Sr48  1  0.65413800  0.17629513  0.39419468  1
  Sr  Sr49  1  0.65122629  0.15702086  0.91092967  1
  Sr  Sr50  1  0.63596047  0.49246097  0.32999563  1
  Sr  Sr51  1  0.67424069  0.49929301  0.88573986  1
  Sr  Sr52  1  0.67110682  0.82597504  0.38453614  1
  Sr  Sr53  1  0.66223184  0.84456212  0.82691300  1
  Sr  Sr54  1  0.16175358  -0.00184800  0.38878327  1
  Sr  Sr55  1  0.20752667  0.00022292  0.83055765  1
  Sr  Sr56  1  0.18885367  0.32383907  0.39808155  1
  Sr  Sr57  1  0.17941424  0.31252120  0.89298476  1
  Sr  Sr58  1  0.17403891  0.65622036  0.33784908  1
  Sr  Sr59  1  0.16926817  0.68403164  0.88495178  1
  Sr  Sr60  1  0.52821540  -0.01410048  0.39487702  1
  Sr  Sr61  1  0.50982797  -0.01274233  0.89253297  1
  Sr  Sr62  1  0.50363111  0.32131712  0.35018119  1
  Sr  Sr63  1  0.51601654  0.33966365  0.87743106  1
  Sr  Sr64  1  0.51151218  0.67016650  0.38866095  1
  Sr  Sr65  1  0.53833479  0.66589573  0.85211084  1
  Sr  Sr66  1  0.84142418  -0.00480789  0.32937048  1
  Sr  Sr67  1  0.83910904  0.00720059  0.88792595  1
  Sr  Sr68  1  0.83277710  0.32795808  0.38916106  1
  Sr  Sr69  1  0.84875612  0.34576008  0.83836500  1
  Sr  Sr70  1  0.85817766  0.66737687  0.39585755  1
  Sr  Sr71  1  0.83871531  0.66272818  0.90379701  1
  Ta  Ta72  1  0.17227162  0.11797593  -0.00695710  1
  Ta  Ta73  1  0.09969558  0.16260890  0.50893175  1
  Ta  Ta74  1  0.11065588  0.48812222  0.00007364  1
  Ta  Ta75  1  0.14719627  0.51597837  0.50060109  1
  Ta  Ta76  1  0.16406114  0.89089814  -0.00190815  1
  Ta  Ta77  1  0.16474563  0.79374084  0.49907772  1
  Ta  Ta78  1  0.46002243  0.17281525  0.00359944  1
  Ta  Ta79  1  0.47110390  0.16663226  0.50469612  1
  Ta  Ta80  1  0.47392013  0.51133793  -0.00045899  1
  Ta  Ta81  1  0.51592474  0.47906705  0.50548244  1
  Ta  Ta82  1  0.53023834  0.81163436  0.00353918  1
  Ta  Ta83  1  0.44086734  0.83131779  0.51196025  1
  Ta  Ta84  1  0.82494473  0.21352518  0.00303412  1
  Ta  Ta85  1  0.83264734  0.12866309  0.49457268  1
  Ta  Ta86  1  0.85952627  0.47594061  0.00071675  1
  Ta  Ta87  1  0.78711716  0.49507290  0.49881626  1
  Ta  Ta88  1  0.79425699  0.83888010  0.00098788  1
  Ta  Ta89  1  0.82956873  0.88258623  0.49594367  1
  Ta  Ta90  1  0.13801810  0.17533789  0.25164515  1
  Ta  Ta91  1  0.13448605  0.16752123  0.74883910  1
  Ta  Ta92  1  0.16276972  0.45852504  0.24925966  1
  Ta  Ta93  1  0.16471672  0.46159384  0.74867898  1
  Ta  Ta94  1  0.12279930  0.83817983  0.24980376  1
  Ta  Ta95  1  0.11798467  0.83572996  0.74972720  1
  Ta  Ta96  1  0.50714767  0.13452176  0.24728109  1
  Ta  Ta97  1  0.52090440  0.14406360  0.75059150  1
  Ta  Ta98  1  0.45052906  0.50898057  0.25301477  1
  Ta  Ta99  1  0.45570774  0.50706923  0.74943546  1
  Ta  Ta100  1  0.47733534  0.83753954  0.25276029  1
  Ta  Ta101  1  0.47339497  0.83470285  0.73405521  1
  Ta  Ta102  1  0.78690480  0.17247691  0.24394123  1
  Ta  Ta103  1  0.78354493  0.16688354  0.76274299  1
  Ta  Ta104  1  0.81264439  0.52176366  0.25555465  1
  Ta  Ta105  1  0.82453416  0.54036702  0.74632550  1
  Ta  Ta106  1  0.84509235  0.80550949  0.24992075  1
  Ta  Ta107  1  0.83949362  0.79579149  0.75194428  1
  Ta  Ta108  1  0.02335285  -0.01236745  0.23400389  1
  Ta  Ta109  1  0.02536560  -0.00369628  0.76166020  1
  Ta  Ta110  1  0.04674606  0.32889382  0.25452392  1
  Ta  Ta111  1  0.04381009  0.32585952  0.73829833  1
  Ta  Ta112  1  -0.00271954  0.69574467  0.24882089  1
  Ta  Ta113  1  -0.01844152  0.68353115  0.74790511  1
  Ta  Ta114  1  0.38554801  -0.00012580  0.24753166  1
  Ta  Ta115  1  0.38883801  -0.00104529  0.75000870  1
  Ta  Ta116  1  0.32647848  0.36728070  0.25100369  1
  Ta  Ta117  1  0.32986899  0.36908521  0.75054974  1
  Ta  Ta118  1  0.36416858  0.66719470  0.25066330  1
  Ta  Ta119  1  0.36550183  0.66846958  0.74903054  1
  Ta  Ta120  1  0.66011393  0.02992190  0.25162258  1
  Ta  Ta121  1  0.66441662  0.03832771  0.75226224  1
  Ta  Ta122  1  0.68612610  0.31507587  0.24750472  1
  Ta  Ta123  1  0.67069486  0.29160677  0.76217510  1
  Ta  Ta124  1  0.71711217  0.66347139  0.25727153  1
  Ta  Ta125  1  0.71144487  0.66590354  0.74497064  1
  Ta  Ta126  1  0.04644921  0.00446871  -0.00673740  1
  Ta  Ta127  1  -0.02622184  0.02203934  0.50872858  1
  Ta  Ta128  1  -0.00601027  0.35570368  -0.00253634  1
  Ta  Ta129  1  0.01664727  0.30851122  0.51351039  1
  Ta  Ta130  1  0.01034864  0.62296013  0.00293771  1
  Ta  Ta131  1  0.04421638  0.65788044  0.49401918  1
  Ta  Ta132  1  0.32812146  0.02735193  -0.00110311  1
  Ta  Ta133  1  0.35973696  -0.00509630  0.50283176  1
  Ta  Ta134  1  0.36294094  0.33471566  0.00003756  1
  Ta  Ta135  1  0.37683102  0.33011992  0.50052842  1
  Ta  Ta136  1  0.39951396  0.66808441  -0.00010848  1
  Ta  Ta137  1  0.31577623  0.69665323  0.50224335  1
  Ta  Ta138  1  0.67143425  -0.05732390  0.00131977  1
  Ta  Ta139  1  0.71477680  0.00233393  0.49522002  1
  Ta  Ta140  1  0.71594139  0.33466405  -0.00035940  1
  Ta  Ta141  1  0.65244196  0.37483033  0.49396161  1
  Ta  Ta142  1  0.66961138  0.72669007  0.00107640  1
  Ta  Ta143  1  0.67027487  0.60226616  0.49732800  1
  N  N144  1  0.83535393  0.50406149  0.87346863  1
  N  N145  1  0.15129974  0.82875956  0.37357212  1
  N  N146  1  0.35636631  0.00374185  0.87132656  1
  N  N147  1  0.83105378  0.17220553  0.12785835  1
  N  N148  1  0.16328596  0.15520471  0.86939780  1
  N  N149  1  -0.00374542  0.00495446  0.11545384  1
  N  N150  1  0.67613986  0.33860994  0.87740504  1
  N  N151  1  0.34095263  0.33662570  0.37749432  1
  N  N152  1  0.00773472  0.66254064  0.12086539  1
  N  N153  1  0.33433609  0.34200712  0.12550571  1
  N  N154  1  0.49473993  0.49899215  0.62747532  1
  N  N155  1  0.82659014  0.17073313  0.87953679  1
  N  N156  1  0.33309264  0.34208889  0.87596769  1
  N  N157  1  0.50625575  0.82801586  0.13404309  1
  N  N158  1  0.01215659  0.66308801  0.37265742  1
  N  N159  1  -0.01108503  0.00419298  0.88089827  1
  N  N160  1  0.50162218  0.16300715  0.62626482  1
  N  N161  1  -0.00889677  0.00385525  0.63081787  1
  N  N162  1  0.82241136  0.49716591  0.62815198  1
  N  N163  1  0.83630600  0.50044454  0.12419788  1
  N  N164  1  0.82774762  0.83378126  0.86764865  1
  N  N165  1  0.66359668  0.33862833  0.37126603  1
  N  N166  1  0.83029261  0.83741644  0.13174382  1
  N  N167  1  0.35183912  0.00265101  0.12678972  1
  N  N168  1  0.49334555  0.16572585  0.12536966  1
  N  N169  1  0.14472409  0.82532047  0.62842248  1
  N  N170  1  0.50690312  0.82388948  0.61303331  1
  N  N171  1  0.81902602  0.16237974  0.37625974  1
  N  N172  1  0.83219972  0.84103847  0.37911969  1
  N  N173  1  -0.01671382  0.33161337  0.63313244  1
  N  N174  1  0.67729280  0.00041226  0.36944898  1
  N  N175  1  0.82938755  0.49179538  0.37535569  1
  N  N176  1  0.34391766  0.33785481  0.62430422  1
  O  O177  1  0.49564764  0.15874864  0.37772380  1
  O  O178  1  0.50955779  0.82598599  0.85843083  1
  O  O179  1  0.33274198  0.67946456  0.37180625  1
  O  O180  1  0.37823105  0.67845985  0.87171473  1
  O  O181  1  0.16109613  0.49258388  0.37583179  1
  O  O182  1  0.02920029  0.32817707  0.38097162  1
  O  O183  1  0.32310012  0.67385360  0.62586085  1
  O  O184  1  0.47827071  0.82745209  0.38996761  1
  O  O185  1  0.01374849  0.33510139  0.12362505  1
  O  O186  1  -0.00021679  0.66993800  0.62241597  1
  O  O187  1  0.16308391  0.84840254  0.12070597  1
  O  O188  1  0.66416419  -0.00442410  0.87557134  1
  O  O189  1  0.00350475  0.33878510  0.86817986  1
  O  O190  1  0.16187334  0.84367639  0.87692781  1
  O  O191  1  0.81254127  0.16717555  0.62198313  1
  O  O192  1  0.16018846  0.15118923  0.61685482  1
  O  O193  1  0.35086339  0.00157757  0.37635144  1
  O  O194  1  0.68030057  0.02312014  0.62596500  1
  O  O195  1  0.37822385  0.67281960  0.12086608  1
  O  O196  1  0.49265404  0.50336775  0.87060314  1
  O  O197  1  0.66278201  0.64964548  0.37374659  1
  O  O198  1  0.15366927  0.47310032  0.87531292  1
  O  O199  1  0.46742758  0.50401894  0.12350432  1
  O  O200  1  0.83511311  0.83965462  0.62348065  1
  O  O201  1  0.15439470  0.47176360  0.12023973  1
  O  O202  1  0.66113868  0.33152227  0.63473570  1
  O  O203  1  0.68154249  0.65295739  0.61698199  1
  O  O204  1  0.34647306  0.00618683  0.62663543  1
  O  O205  1  0.16068513  0.15815992  0.12670885  1
  O  O206  1  0.47928484  0.50635418  0.37660571  1
  O  O207  1  0.66452277  -0.01133402  0.12182929  1
  O  O208  1  0.68450532  0.68529548  0.13140951  1
  O  O209  1  0.16170303  0.49589989  0.62278917  1
  O  O210  1  0.67115691  0.35045382  0.12300224  1
  O  O211  1  0.49604745  0.16434114  0.88058682  1
  O  O212  1  -0.00478341  0.66002685  0.87301097  1
  O  O213  1  -0.00516354  0.00601590  0.36057839  1
  O  O214  1  0.12935638  0.15814585  0.37876087  1
  O  O215  1  0.68606014  0.68752791  0.87198197  1
