# generated using pymatgen
data_Sr24Ta24N11O13
_symmetry_space_group_name_H-M   'P 1'
_cell_length_a   16.98558522
_cell_length_b   16.68167463
_cell_length_c   15.71897919
_cell_angle_alpha   90.22396093
_cell_angle_beta   90.20932816
_cell_angle_gamma   90.44883513
_symmetry_Int_Tables_number   1
_chemical_formula_structural   Sr24Ta24N11O13
_chemical_formula_sum   'Sr72 Ta72 N33 O39'
_cell_volume   4453.74050077
_cell_formula_units_Z   3
loop_
 _symmetry_equiv_pos_site_id
 _symmetry_equiv_pos_as_xyz
  1  'x, y, z'
loop_
 _atom_site_type_symbol
 _atom_site_label
 _atom_site_symmetry_multiplicity
 _atom_site_fract_x
 _atom_site_fract_y
 _atom_site_fract_z
 _atom_site_occupancy
  Sr  Sr0  1  -0.01281346  0.16787772  0.13181489  1
  Sr  Sr1  1  -0.00466366  0.17167891  0.58786338  1
  Sr  Sr2  1  -0.00517722  0.50761290  0.16691732  1
  Sr  Sr3  1  0.01665019  0.49833206  0.61216954  1
  Sr  Sr4  1  -0.01773246  0.82135761  0.08289672  1
  Sr  Sr5  1  -0.00330106  0.84976642  0.64320087  1
  Sr  Sr6  1  0.32025310  0.16620199  0.15087317  1
  Sr  Sr7  1  0.30961164  0.18178073  0.63055052  1
  Sr  Sr8  1  0.30692495  0.49603654  0.11423122  1
  Sr  Sr9  1  0.33829080  0.50792361  0.66268502  1
  Sr  Sr10  1  0.31465698  0.83223428  0.12715431  1
  Sr  Sr11  1  0.33293764  0.83202262  0.59227625  1
  Sr  Sr12  1  0.62508781  0.16315012  0.09135405  1
  Sr  Sr13  1  0.67282355  0.16730803  0.63090300  1
  Sr  Sr14  1  0.67222987  0.49346602  0.12356740  1
  Sr  Sr15  1  0.65312245  0.51429041  0.58936092  1
  Sr  Sr16  1  0.65575424  0.84793339  0.13965969  1
  Sr  Sr17  1  0.64500212  0.83330717  0.65994254  1
  Sr  Sr18  1  0.18038313  0.00554425  0.16205271  1
  Sr  Sr19  1  0.17977516  -0.01310933  0.64079041  1
  Sr  Sr20  1  0.16384227  0.31749994  0.08522119  1
  Sr  Sr21  1  0.17979228  0.35053581  0.64598836  1
  Sr  Sr22  1  0.16825598  0.66754155  0.13154306  1
  Sr  Sr23  1  0.19341266  0.67570855  0.60166407  1
  Sr  Sr24  1  0.49857798  -0.01418986  0.09648457  1
  Sr  Sr25  1  0.51899015  0.00208928  0.63807460  1
  Sr  Sr26  1  0.49389409  0.32865033  0.13731053  1
  Sr  Sr27  1  0.52412101  0.32750355  0.58896568  1
  Sr  Sr28  1  0.53893032  0.66056100  0.14531834  1
  Sr  Sr29  1  0.50464864  0.66000289  0.63370989  1
  Sr  Sr30  1  0.84262149  0.00010129  0.13572909  1
  Sr  Sr31  1  0.85491469  0.01274927  0.58901586  1
  Sr  Sr32  1  0.84973393  0.33750060  0.12757585  1
  Sr  Sr33  1  0.83422038  0.33022303  0.66083082  1
  Sr  Sr34  1  0.84323346  0.67140032  0.09565397  1
  Sr  Sr35  1  0.86258515  0.66844202  0.62917867  1
  Sr  Sr36  1  -0.02074825  0.15867696  0.36103386  1
  Sr  Sr37  1  -0.01069459  0.18196316  0.91737226  1
  Sr  Sr38  1  0.00945847  0.50489437  0.38545648  1
  Sr  Sr39  1  -0.01464989  0.48723519  0.82645410  1
  Sr  Sr40  1  -0.03713461  0.83915136  0.41216557  1
  Sr  Sr41  1  0.00723699  0.84017899  0.86545182  1
  Sr  Sr42  1  0.32335060  0.17553990  0.36845713  1
  Sr  Sr43  1  0.30438740  0.16461567  0.85241239  1
  Sr  Sr44  1  0.32081347  0.50249505  0.34892837  1
  Sr  Sr45  1  0.32113094  0.49988825  0.87900499  1
  Sr  Sr46  1  0.31960607  0.82698152  0.37742594  1
  Sr  Sr47  1  0.32993092  0.83799393  0.90694148  1
  Sr  Sr48  1  0.64520455  0.15927997  0.41155452  1
  Sr  Sr49  1  0.66432978  0.16681064  0.85286223  1
  Sr  Sr50  1  0.65184738  0.48792455  0.36315822  1
  Sr  Sr51  1  0.66747070  0.51361036  0.90699488  1
  Sr  Sr52  1  0.66012493  0.84259541  0.34075342  1
  Sr  Sr53  1  0.64383873  0.84372460  0.86359769  1
  Sr  Sr54  1  0.18606079  -0.01077238  0.36102504  1
  Sr  Sr55  1  0.17617452  -0.00599527  0.84649750  1
  Sr  Sr56  1  0.14889973  0.32327336  0.42756808  1
  Sr  Sr57  1  0.16801270  0.33857408  0.86852593  1
  Sr  Sr58  1  0.17578843  0.65768047  0.35715867  1
  Sr  Sr59  1  0.18949240  0.68049618  0.91722368  1
  Sr  Sr60  1  0.50486190  -0.01269855  0.39243456  1
  Sr  Sr61  1  0.50304299  0.00775343  0.87814900  1
  Sr  Sr62  1  0.48403975  0.32195264  0.36321984  1
  Sr  Sr63  1  0.52383633  0.33157034  0.90353203  1
  Sr  Sr64  1  0.52239779  0.66305736  0.37584449  1
  Sr  Sr65  1  0.51540551  0.65475114  0.84807390  1
  Sr  Sr66  1  0.82562337  0.00352260  0.36802649  1
  Sr  Sr67  1  0.86761962  0.00466674  0.89713370  1
  Sr  Sr68  1  0.84630282  0.34180708  0.33174909  1
  Sr  Sr69  1  0.84218553  0.32928339  0.87117820  1
  Sr  Sr70  1  0.84622043  0.66078386  0.40644316  1
  Sr  Sr71  1  0.85182216  0.67737530  0.87215851  1
  Ta  Ta72  1  0.16458115  0.12831851  0.00658975  1
  Ta  Ta73  1  0.16422697  0.12923358  0.49693615  1
  Ta  Ta74  1  0.12614207  0.49906808  0.00031491  1
  Ta  Ta75  1  0.20334637  0.50673387  0.50303732  1
  Ta  Ta76  1  0.15955991  0.87448218  0.00492315  1
  Ta  Ta77  1  0.14099249  0.83687681  0.50159453  1
  Ta  Ta78  1  0.44173797  0.16976994  0.00410872  1
  Ta  Ta79  1  0.46340909  0.15070051  0.49839971  1
  Ta  Ta80  1  0.48001305  0.51239067  -0.00067556  1
  Ta  Ta81  1  0.45869573  0.49917449  0.50159548  1
  Ta  Ta82  1  0.50247968  0.79292959  0.00294266  1
  Ta  Ta83  1  0.52851004  0.82380618  0.50509299  1
  Ta  Ta84  1  0.80083823  0.17041692  -0.00052132  1
  Ta  Ta85  1  0.82427134  0.20520603  0.49489619  1
  Ta  Ta86  1  0.86288317  0.49726359  0.00118956  1
  Ta  Ta87  1  0.82991039  0.46113851  0.49837666  1
  Ta  Ta88  1  0.79173301  0.84638697  0.00202939  1
  Ta  Ta89  1  0.78366795  0.83497320  0.49953132  1
  Ta  Ta90  1  0.15384544  0.20502562  0.25111765  1
  Ta  Ta91  1  0.12060338  0.16599709  0.75142055  1
  Ta  Ta92  1  0.15990121  0.44810007  0.25842261  1
  Ta  Ta93  1  0.16536757  0.54769339  0.75130611  1
  Ta  Ta94  1  0.11273542  0.82820802  0.24740487  1
  Ta  Ta95  1  0.18369794  0.80625941  0.75451460  1
  Ta  Ta96  1  0.50376663  0.13657050  0.25007524  1
  Ta  Ta97  1  0.48061842  0.18758321  0.75064514  1
  Ta  Ta98  1  0.47329800  0.50855808  0.24747419  1
  Ta  Ta99  1  0.51738513  0.46632490  0.74389155  1
  Ta  Ta100  1  0.47202684  0.82945304  0.24638331  1
  Ta  Ta101  1  0.45458387  0.83223364  0.74904718  1
  Ta  Ta102  1  0.77710553  0.16884573  0.25078699  1
  Ta  Ta103  1  0.85669952  0.14911586  0.74660363  1
  Ta  Ta104  1  0.82305823  0.53645717  0.24767657  1
  Ta  Ta105  1  0.79204676  0.50730219  0.74764325  1
  Ta  Ta106  1  0.84625429  0.81338401  0.24907959  1
  Ta  Ta107  1  0.81869327  0.85168105  0.74751759  1
  Ta  Ta108  1  0.00260334  -0.04462941  0.24913290  1
  Ta  Ta109  1  0.00254395  0.04440961  0.74541830  1
  Ta  Ta110  1  0.03801299  0.33081582  0.25143224  1
  Ta  Ta111  1  0.00633823  0.28978744  0.75187475  1
  Ta  Ta112  1  -0.01249404  0.70423229  0.24969928  1
  Ta  Ta113  1  0.05153911  0.67024830  0.75475113  1
  Ta  Ta114  1  0.37177334  -0.00851446  0.25014598  1
  Ta  Ta115  1  0.35227324  -0.02639884  0.75388916  1
  Ta  Ta116  1  0.28350575  0.33599875  0.25799754  1
  Ta  Ta117  1  0.38696383  0.33341678  0.74555426  1
  Ta  Ta118  1  0.36948161  0.66719795  0.24225874  1
  Ta  Ta119  1  0.32772044  0.69235956  0.75535797  1
  Ta  Ta120  1  0.65388295  0.03389618  0.25467467  1
  Ta  Ta121  1  0.72857664  -0.00166180  0.74203241  1
  Ta  Ta122  1  0.66759473  0.29692241  0.25110107  1
  Ta  Ta123  1  0.66086025  0.37029661  0.74381127  1
  Ta  Ta124  1  0.71672645  0.66679898  0.24560997  1
  Ta  Ta125  1  0.69516987  0.65275166  0.75222840  1
  Ta  Ta126  1  0.04820445  0.00063382  0.00374186  1
  Ta  Ta127  1  0.04453426  -0.00106434  0.50018804  1
  Ta  Ta128  1  -0.00025767  0.38010365  0.00024506  1
  Ta  Ta129  1  -0.04801397  0.33858192  0.49565443  1
  Ta  Ta130  1  0.00826876  0.61019939  -0.00398259  1
  Ta  Ta131  1  0.03443231  0.68448687  0.50034346  1
  Ta  Ta132  1  0.31231438  0.02016210  0.00465138  1
  Ta  Ta133  1  0.33353006  0.02387920  0.49763217  1
  Ta  Ta134  1  0.34604759  0.31818098  -0.00100204  1
  Ta  Ta135  1  0.33656985  0.36700906  0.50381264  1
  Ta  Ta136  1  0.38500396  0.65959368  0.00041798  1
  Ta  Ta137  1  0.35291261  0.63701806  0.50232482  1
  Ta  Ta138  1  0.69529761  -0.00014486  -0.00415622  1
  Ta  Ta139  1  0.67088001  -0.03496962  0.50466010  1
  Ta  Ta140  1  0.69736001  0.32173202  0.00005684  1
  Ta  Ta141  1  0.71463904  0.33647363  0.49861445  1
  Ta  Ta142  1  0.66826205  0.70183333  -0.00083706  1
  Ta  Ta143  1  0.67147546  0.70816905  0.49987775  1
  N  N144  1  0.67939953  0.66954171  0.87304410  1
  N  N145  1  0.49308369  0.83029392  0.62412341  1
  N  N146  1  0.82488916  0.83952775  0.12196701  1
  N  N147  1  0.83031958  0.16674617  0.88030738  1
  N  N148  1  0.33830825  0.33760917  0.63259309  1
  N  N149  1  0.48545125  0.16329881  0.37833468  1
  N  N150  1  0.83756609  0.50432111  0.12426383  1
  N  N151  1  0.49763178  0.82711413  0.12321947  1
  N  N152  1  0.66445851  0.00326204  0.37473973  1
  N  N153  1  0.16532537  0.83358684  0.62303004  1
  N  N154  1  0.34775147  0.66515376  0.62345338  1
  N  N155  1  0.81932760  0.16862191  0.36789507  1
  N  N156  1  0.33563778  -0.00450651  0.12690727  1
  N  N157  1  0.15288381  0.83214143  0.12644729  1
  N  N158  1  0.67672232  0.34300637  0.62295238  1
  N  N159  1  0.68210370  0.00546817  0.62506620  1
  N  N160  1  0.47702143  0.16156627  0.12451401  1
  N  N161  1  0.34649795  0.66473156  0.88003829  1
  N  N162  1  0.33623189  -0.00116243  0.87350874  1
  N  N163  1  0.68776643  0.67079047  0.12297871  1
  N  N164  1  0.00485776  0.33958959  0.11809700  1
  N  N165  1  0.33724186  -0.00286435  0.37545616  1
  N  N166  1  0.00150625  0.33419296  0.86915231  1
  N  N167  1  -0.00491215  0.33135088  0.38061520  1
  N  N168  1  0.17454892  0.51090823  0.63110897  1
  N  N169  1  0.83435515  0.17164101  0.62298160  1
  N  N170  1  0.16397079  0.49020530  0.38165341  1
  N  N171  1  0.01176172  0.00792392  0.62447268  1
  N  N172  1  0.50102330  0.49317386  0.62307667  1
  N  N173  1  0.81614306  0.83288581  0.37524399  1
  N  N174  1  0.16819503  0.83793132  0.87711815  1
  N  N175  1  0.31751751  0.33517586  0.37900493  1
  N  N176  1  0.15593497  0.16503538  0.13165513  1
  O  O177  1  0.82913060  0.50115908  0.37355782  1
  O  O178  1  0.47730324  0.16785365  0.87587051  1
  O  O179  1  0.66720439  0.32573385  0.37357358  1
  O  O180  1  0.16460918  0.15119611  0.37114052  1
  O  O181  1  0.46942579  0.48905976  0.12580986  1
  O  O182  1  0.83397168  0.82973692  0.62467619  1
  O  O183  1  0.16485764  0.83258565  0.36550995  1
  O  O184  1  0.14815721  0.16725922  0.88405866  1
  O  O185  1  0.15396474  0.49938823  0.87125453  1
  O  O186  1  0.33044373  0.66131544  0.12088468  1
  O  O187  1  0.67043165  0.00959084  0.11989312  1
  O  O188  1  -0.01273102  0.32635005  0.62639966  1
  O  O189  1  0.50068648  0.49560361  0.87669775  1
  O  O190  1  0.36194291  0.66736615  0.36915037  1
  O  O191  1  0.49169405  0.50021785  0.37218157  1
  O  O192  1  0.82550086  0.83840175  0.87340469  1
  O  O193  1  0.81080337  0.50176321  0.62089934  1
  O  O194  1  0.67455084  0.67938251  0.62313492  1
  O  O195  1  0.15363113  0.15438074  0.62102451  1
  O  O196  1  0.82838502  0.16173860  0.13233245  1
  O  O197  1  0.67305196  0.32245073  0.12558610  1
  O  O198  1  0.82246130  0.50289631  0.87162125  1
  O  O199  1  0.03005647  0.67524247  0.62494434  1
  O  O200  1  0.00870487  -0.01647353  0.37341765  1
  O  O201  1  0.49287027  0.82489010  0.87307598  1
  O  O202  1  0.48832753  0.17077077  0.62700266  1
  O  O203  1  0.68038570  0.33992942  0.87582157  1
  O  O204  1  0.01215615  0.67233672  0.37436387  1
  O  O205  1  -0.00045815  -0.02201027  0.12323903  1
  O  O206  1  0.49511696  0.82220611  0.37988478  1
  O  O207  1  0.69153487  0.00718982  0.86731202  1
  O  O208  1  0.00177194  0.66080917  0.12699877  1
  O  O209  1  0.15131328  0.49132347  0.12806334  1
  O  O210  1  0.34816559  0.33766144  0.87375715  1
  O  O211  1  0.32057153  0.33085638  0.12342053  1
  O  O212  1  0.02301055  0.66038343  0.87948162  1
  O  O213  1  0.33595149  -0.00505476  0.62511398  1
  O  O214  1  0.01530154  0.00188102  0.87466386  1
  O  O215  1  0.67712077  0.68522070  0.37267541  1
