# generated using pymatgen
data_Sr24Ta24N11O13
_symmetry_space_group_name_H-M   'P 1'
_cell_length_a   16.80622544
_cell_length_b   16.81697385
_cell_length_c   15.70180040
_cell_angle_alpha   89.86958757
_cell_angle_beta   89.90362751
_cell_angle_gamma   89.98228667
_symmetry_Int_Tables_number   1
_chemical_formula_structural   Sr24Ta24N11O13
_chemical_formula_sum   'Sr72 Ta72 N33 O39'
_cell_volume   4437.77956942
_cell_formula_units_Z   3
loop_
 _symmetry_equiv_pos_site_id
 _symmetry_equiv_pos_as_xyz
  1  'x, y, z'
loop_
 _atom_site_type_symbol
 _atom_site_label
 _atom_site_symmetry_multiplicity
 _atom_site_fract_x
 _atom_site_fract_y
 _atom_site_fract_z
 _atom_site_occupancy
  Sr  Sr0  1  -0.01580286  0.15127321  0.13318495  1
  Sr  Sr1  1  0.00588354  0.15848168  0.64158837  1
  Sr  Sr2  1  -0.01169939  0.49990426  0.09543714  1
  Sr  Sr3  1  -0.01724854  0.49070364  0.64947235  1
  Sr  Sr4  1  -0.01014070  0.82027761  0.17352255  1
  Sr  Sr5  1  0.01228400  0.82423083  0.60894078  1
  Sr  Sr6  1  0.33873298  0.15411265  0.12801802  1
  Sr  Sr7  1  0.32488882  0.15909478  0.58411637  1
  Sr  Sr8  1  0.32766548  0.48525580  0.17094991  1
  Sr  Sr9  1  0.32585943  0.51183627  0.60694245  1
  Sr  Sr10  1  0.32302743  0.82478074  0.11357500  1
  Sr  Sr11  1  0.34880277  0.85385180  0.67369216  1
  Sr  Sr12  1  0.66207177  0.15203188  0.09494438  1
  Sr  Sr13  1  0.65511248  0.16356029  0.63551048  1
  Sr  Sr14  1  0.65340742  0.47881388  0.14010154  1
  Sr  Sr15  1  0.66518792  0.48915563  0.60752888  1
  Sr  Sr16  1  0.66053202  0.82953200  0.11903060  1
  Sr  Sr17  1  0.67021883  0.81661632  0.59871035  1
  Sr  Sr18  1  0.17969521  0.00643152  0.08177834  1
  Sr  Sr19  1  0.16157978  -0.00417683  0.63757255  1
  Sr  Sr20  1  0.18394644  0.32705991  0.12936706  1
  Sr  Sr21  1  0.18708665  0.34664639  0.63445498  1
  Sr  Sr22  1  0.17152107  0.66595922  0.13627620  1
  Sr  Sr23  1  0.16685495  0.66803589  0.58484817  1
  Sr  Sr24  1  0.48513852  -0.01473976  0.17499175  1
  Sr  Sr25  1  0.51451590  0.00673768  0.60990492  1
  Sr  Sr26  1  0.50845662  0.31207291  0.09654960  1
  Sr  Sr27  1  0.51120295  0.33820210  0.66312826  1
  Sr  Sr28  1  0.49855142  0.67949821  0.08048590  1
  Sr  Sr29  1  0.48909633  0.66949318  0.62728651  1
  Sr  Sr30  1  0.82787816  0.00828867  0.10833561  1
  Sr  Sr31  1  0.82611902  0.03893885  0.66613522  1
  Sr  Sr32  1  0.84278593  0.34934358  0.14680941  1
  Sr  Sr33  1  0.83691331  0.34728102  0.59327043  1
  Sr  Sr34  1  0.83230375  0.68128097  0.13136068  1
  Sr  Sr35  1  0.84367733  0.68059445  0.64233951  1
  Sr  Sr36  1  -0.01020622  0.17229876  0.36083918  1
  Sr  Sr37  1  -0.00308399  0.14137643  0.86690541  1
  Sr  Sr38  1  -0.02400549  0.47053780  0.38485772  1
  Sr  Sr39  1  -0.00404322  0.50916426  0.88001135  1
  Sr  Sr40  1  0.00846361  0.83215470  0.38776360  1
  Sr  Sr41  1  -0.00287433  0.82200949  0.84029754  1
  Sr  Sr42  1  0.33938517  0.15463263  0.37526691  1
  Sr  Sr43  1  0.32423798  0.18224120  0.91957860  1
  Sr  Sr44  1  0.32987555  0.50825764  0.38398672  1
  Sr  Sr45  1  0.34157253  0.48117906  0.82190143  1
  Sr  Sr46  1  0.34163841  0.84156705  0.33443162  1
  Sr  Sr47  1  0.31748408  0.84101217  0.88707326  1
  Sr  Sr48  1  0.66162084  0.15663453  0.39972430  1
  Sr  Sr49  1  0.65698352  0.15736775  0.86314965  1
  Sr  Sr50  1  0.66884150  0.48770520  0.36581010  1
  Sr  Sr51  1  0.64714411  0.48373080  0.89008963  1
  Sr  Sr52  1  0.65263140  0.83889090  0.38506290  1
  Sr  Sr53  1  0.68542412  0.81466864  0.89740909  1
  Sr  Sr54  1  0.15746839  0.01394136  0.42304779  1
  Sr  Sr55  1  0.16078657  -0.00297421  0.86629484  1
  Sr  Sr56  1  0.19939043  0.33707442  0.37421544  1
  Sr  Sr57  1  0.16740288  0.34248344  0.85975060  1
  Sr  Sr58  1  0.17178281  0.67727026  0.36439069  1
  Sr  Sr59  1  0.16944309  0.66764542  0.91308193  1
  Sr  Sr60  1  0.50616789  -0.00069006  0.38373938  1
  Sr  Sr61  1  0.49549841  -0.00855253  0.83238206  1
  Sr  Sr62  1  0.50844124  0.36888913  0.32021972  1
  Sr  Sr63  1  0.50474223  0.32188801  0.88078799  1
  Sr  Sr64  1  0.50971471  0.66252934  0.42001435  1
  Sr  Sr65  1  0.47457168  0.67598910  0.87014741  1
  Sr  Sr66  1  0.85848940  0.01070082  0.33597206  1
  Sr  Sr67  1  0.82196361  0.01308166  0.89060811  1
  Sr  Sr68  1  0.82141206  0.33184625  0.37827929  1
  Sr  Sr69  1  0.84965332  0.36725961  0.89115802  1
  Sr  Sr70  1  0.84077565  0.70145210  0.37372007  1
  Sr  Sr71  1  0.84472543  0.67097168  0.86387953  1
  Ta  Ta72  1  0.13731015  0.18638827  -0.00661607  1
  Ta  Ta73  1  0.14091397  0.19393891  0.50626452  1
  Ta  Ta74  1  0.19358158  0.49021609  -0.00074954  1
  Ta  Ta75  1  0.12476056  0.49198300  0.50328959  1
  Ta  Ta76  1  0.11209674  0.83297769  0.00435760  1
  Ta  Ta77  1  0.21592725  0.84185715  0.50547188  1
  Ta  Ta78  1  0.49593588  0.11453026  -0.00374386  1
  Ta  Ta79  1  0.49945859  0.20821850  0.50104316  1
  Ta  Ta80  1  0.47020859  0.49900674  -0.00086072  1
  Ta  Ta81  1  0.50162347  0.46783379  0.49350897  1
  Ta  Ta82  1  0.49372300  0.87238208  0.00449270  1
  Ta  Ta83  1  0.46288658  0.83659056  0.49991619  1
  Ta  Ta84  1  0.83881718  0.20449111  -0.00740861  1
  Ta  Ta85  1  0.83994992  0.14574680  0.50053641  1
  Ta  Ta86  1  0.80173917  0.52095181  0.00506505  1
  Ta  Ta87  1  0.83194127  0.53652960  0.49756006  1
  Ta  Ta88  1  0.87617978  0.83574878  -0.00372999  1
  Ta  Ta89  1  0.83892809  0.88384706  0.50027752  1
  Ta  Ta90  1  0.16522377  0.14598965  0.25052036  1
  Ta  Ta91  1  0.20123498  0.16897146  0.75070032  1
  Ta  Ta92  1  0.12767670  0.49398189  0.25093294  1
  Ta  Ta93  1  0.16256981  0.54242541  0.74553390  1
  Ta  Ta94  1  0.16642032  0.87503386  0.25353343  1
  Ta  Ta95  1  0.16915277  0.79303417  0.74743392  1
  Ta  Ta96  1  0.51492163  0.17605735  0.24766225  1
  Ta  Ta97  1  0.45527977  0.16444219  0.75066179  1
  Ta  Ta98  1  0.50014221  0.56348354  0.25228002  1
  Ta  Ta99  1  0.52219615  0.51891750  0.75081673  1
  Ta  Ta100  1  0.50511168  0.78340043  0.25046287  1
  Ta  Ta101  1  0.54266877  0.82367418  0.74490924  1
  Ta  Ta102  1  0.79408778  0.16898310  0.23967155  1
  Ta  Ta103  1  0.83488542  0.22045770  0.76064832  1
  Ta  Ta104  1  0.84027499  0.52950632  0.25805000  1
  Ta  Ta105  1  0.79753334  0.49929805  0.75069505  1
  Ta  Ta106  1  0.80342299  0.85574008  0.25244263  1
  Ta  Ta107  1  0.82578652  0.86235800  0.74890399  1
  Ta  Ta108  1  0.05297955  0.00000254  0.25439552  1
  Ta  Ta109  1  -0.01858855  -0.02234236  0.75121033  1
  Ta  Ta110  1  0.02843138  0.34578778  0.24513682  1
  Ta  Ta111  1  -0.01450604  0.31819212  0.76126707  1
  Ta  Ta112  1  -0.00019659  0.62373112  0.26090672  1
  Ta  Ta113  1  0.04290131  0.66173232  0.75072649  1
  Ta  Ta114  1  0.27845262  0.00395014  0.25669623  1
  Ta  Ta115  1  0.32892610  0.05146133  0.75286955  1
  Ta  Ta116  1  0.35548299  0.30305803  0.24783990  1
  Ta  Ta117  1  0.33936324  0.28686768  0.75001813  1
  Ta  Ta118  1  0.36591167  0.66542262  0.24815892  1
  Ta  Ta119  1  0.29488940  0.66554600  0.75046255  1
  Ta  Ta120  1  0.67835787  0.00806975  0.25521365  1
  Ta  Ta121  1  0.67146920  -0.04555756  0.74419312  1
  Ta  Ta122  1  0.66661192  0.28610703  0.24714679  1
  Ta  Ta123  1  0.70006013  0.33728062  0.74803976  1
  Ta  Ta124  1  0.64908471  0.66649509  0.25294947  1
  Ta  Ta125  1  0.65361759  0.64695774  0.74590589  1
  Ta  Ta126  1  -0.00165793  -0.04174734  0.00169795  1
  Ta  Ta127  1  -0.03617848  0.01153971  0.49909187  1
  Ta  Ta128  1  0.00851412  0.30300412  -0.00725617  1
  Ta  Ta129  1  0.03262463  0.32248657  0.50517023  1
  Ta  Ta130  1  -0.00193311  0.70027033  0.00266379  1
  Ta  Ta131  1  -0.00667119  0.63077423  0.49135269  1
  Ta  Ta132  1  0.37688793  -0.00433852  -0.00078188  1
  Ta  Ta133  1  0.33526708  -0.03810567  0.49816554  1
  Ta  Ta134  1  0.33248492  0.38130659  -0.00818005  1
  Ta  Ta135  1  0.38956539  0.33622366  0.49441231  1
  Ta  Ta136  1  0.32958771  0.59028980  0.00097064  1
  Ta  Ta137  1  0.33652092  0.72504720  0.50070447  1
  Ta  Ta138  1  0.61722090  -0.01259639  -0.00148965  1
  Ta  Ta139  1  0.71666485  0.00002283  0.50222237  1
  Ta  Ta140  1  0.69990530  0.32355046  0.00387913  1
  Ta  Ta141  1  0.62345269  0.32952587  0.49069012  1
  Ta  Ta142  1  0.68119881  0.63853148  0.00057290  1
  Ta  Ta143  1  0.69576517  0.64410384  0.50161164  1
  N  N144  1  0.15770299  0.50492643  0.62289509  1
  N  N145  1  0.49434801  0.83134143  0.12651126  1
  N  N146  1  0.49230193  0.15900414  0.87811449  1
  N  N147  1  0.82898851  0.16547797  0.86968969  1
  N  N148  1  0.82814123  0.50842671  0.13153955  1
  N  N149  1  0.16116792  0.16661892  0.87459302  1
  N  N150  1  0.01000143  0.66858676  0.87768103  1
  N  N151  1  0.00918468  0.00416100  0.37729382  1
  N  N152  1  0.82893659  0.50751162  0.62740218  1
  N  N153  1  0.17799856  0.83374515  0.63091017  1
  N  N154  1  0.32506022  -0.00121163  0.37590206  1
  N  N155  1  0.49384031  0.50007286  0.86961236  1
  N  N156  1  0.00920022  0.35302458  0.87613823  1
  N  N157  1  0.35427005  0.33468166  0.36704802  1
  N  N158  1  0.82252814  0.48900301  0.37645545  1
  N  N159  1  0.50422455  0.83310612  0.62866389  1
  N  N160  1  0.50110665  0.15287925  0.12854095  1
  N  N161  1  0.49718738  0.51443663  0.37468042  1
  N  N162  1  0.82874003  0.16925705  0.12017368  1
  N  N163  1  0.49776600  0.82668601  0.36744473  1
  N  N164  1  0.67091239  0.00236787  0.37837256  1
  N  N165  1  0.49514386  0.17214945  0.62175377  1
  N  N166  1  0.83882442  0.84052771  0.87504255  1
  N  N167  1  0.66746759  0.32465864  0.12133478  1
  N  N168  1  0.82757550  0.51560992  0.87491464  1
  N  N169  1  0.00701249  0.67419391  0.37438763  1
  N  N170  1  0.83576819  0.85387677  0.37169295  1
  N  N171  1  0.66626144  0.66038931  0.62072800  1
  N  N172  1  0.66320629  0.32621604  0.37365205  1
  N  N173  1  0.16328161  0.17052570  0.62580518  1
  N  N174  1  0.33919114  0.33406053  0.87704024  1
  N  N175  1  -0.00461463  -0.01280602  0.87349351  1
  N  N176  1  0.67332452  -0.00583447  0.62382242  1
  O  O177  1  0.33784133  0.63845365  0.12147012  1
  O  O178  1  0.82797918  0.16274301  0.37405523  1
  O  O179  1  0.32967972  0.00800312  0.62913695  1
  O  O180  1  0.31911920  0.63684298  0.87412295  1
  O  O181  1  0.01207444  -0.00692604  0.13065327  1
  O  O182  1  0.02865228  0.32560501  0.36955978  1
  O  O183  1  0.34327564  0.68469421  0.37326605  1
  O  O184  1  0.49846578  0.15363606  0.38340031  1
  O  O185  1  0.34003621  0.33860700  0.12220264  1
  O  O186  1  0.67621642  0.33028262  0.87268564  1
  O  O187  1  0.64741517  -0.01898120  0.87281293  1
  O  O188  1  0.15971944  0.85017824  0.12315782  1
  O  O189  1  0.50439662  0.49798072  0.62353906  1
  O  O190  1  0.33905328  0.00177804  0.87277346  1
  O  O191  1  0.84134246  0.83449164  0.61981196  1
  O  O192  1  0.17152994  0.50096112  0.87155032  1
  O  O193  1  0.00354955  0.32522189  0.63077211  1
  O  O194  1  0.00153702  0.66398820  0.13065395  1
  O  O195  1  0.32793593  -0.00015629  0.13325846  1
  O  O196  1  0.01379712  0.33894671  0.11946972  1
  O  O197  1  0.00209144  -0.00415402  0.62035614  1
  O  O198  1  0.66471103  0.66972607  0.37937352  1
  O  O199  1  0.34896148  0.32338852  0.62444500  1
  O  O200  1  0.14996870  0.49280826  0.37498316  1
  O  O201  1  0.00616307  0.66309145  0.62051826  1
  O  O202  1  0.64334714  -0.00665973  0.12406423  1
  O  O203  1  0.15897990  0.82526340  0.88110985  1
  O  O204  1  0.15995194  0.49305384  0.12234911  1
  O  O205  1  0.67090164  0.33053577  0.62171031  1
  O  O206  1  0.49760157  0.52435629  0.12855005  1
  O  O207  1  0.15673861  0.16884465  0.37498533  1
  O  O208  1  0.83888973  0.18184650  0.62483177  1
  O  O209  1  0.49856996  0.83261034  0.86612121  1
  O  O210  1  0.32284070  0.68154233  0.62684728  1
  O  O211  1  0.17029214  0.85033075  0.38059118  1
  O  O212  1  0.66595368  0.65990247  0.12863158  1
  O  O213  1  0.67064293  0.65515961  0.87875248  1
  O  O214  1  0.83684441  0.84365711  0.12707206  1
  O  O215  1  0.16021727  0.16233466  0.12384572  1
