# generated using pymatgen
data_Sr24Ta24N11O13
_symmetry_space_group_name_H-M   'P 1'
_cell_length_a   16.56144801
_cell_length_b   17.24691409
_cell_length_c   15.47171899
_cell_angle_alpha   91.30438280
_cell_angle_beta   89.12538350
_cell_angle_gamma   89.07598849
_symmetry_Int_Tables_number   1
_chemical_formula_structural   Sr24Ta24N11O13
_chemical_formula_sum   'Sr72 Ta72 N33 O39'
_cell_volume   4416.98716303
_cell_formula_units_Z   3
loop_
 _symmetry_equiv_pos_site_id
 _symmetry_equiv_pos_as_xyz
  1  'x, y, z'
loop_
 _atom_site_type_symbol
 _atom_site_label
 _atom_site_symmetry_multiplicity
 _atom_site_fract_x
 _atom_site_fract_y
 _atom_site_fract_z
 _atom_site_occupancy
  Sr  Sr0  1  -0.01535311  0.17171457  0.18859568  1
  Sr  Sr1  1  -0.00421572  0.18823266  0.62322794  1
  Sr  Sr2  1  -0.00953895  0.49426581  0.11221953  1
  Sr  Sr3  1  -0.01434650  0.51999987  0.67691339  1
  Sr  Sr4  1  0.00466034  0.84598143  0.14021889  1
  Sr  Sr5  1  0.01882442  0.82326495  0.58409361  1
  Sr  Sr6  1  0.32202722  0.14165780  0.11245590  1
  Sr  Sr7  1  0.33487613  0.18926434  0.67826437  1
  Sr  Sr8  1  0.32133795  0.55918400  0.20016414  1
  Sr  Sr9  1  0.32191690  0.48340941  0.62555576  1
  Sr  Sr10  1  0.33763445  0.85425497  0.10951721  1
  Sr  Sr11  1  0.35061019  0.86405007  0.64845723  1
  Sr  Sr12  1  0.71748235  0.14160957  0.00423033  1
  Sr  Sr13  1  0.65689747  0.18360447  0.62806575  1
  Sr  Sr14  1  0.64609903  0.52767962  0.14311666  1
  Sr  Sr15  1  0.69569409  0.50755352  0.56374823  1
  Sr  Sr16  1  0.65038965  0.84273423  0.16331276  1
  Sr  Sr17  1  0.67546132  0.85404856  0.62184968  1
  Sr  Sr18  1  0.18661950  -0.01350906  0.09357426  1
  Sr  Sr19  1  0.16037318  0.03863558  0.66740995  1
  Sr  Sr20  1  0.16375877  0.29536018  0.14811629  1
  Sr  Sr21  1  0.16163977  0.34205076  0.59643976  1
  Sr  Sr22  1  0.13455973  0.68271503  0.19241518  1
  Sr  Sr23  1  0.17102800  0.64359617  0.62768005  1
  Sr  Sr24  1  0.49115225  -0.00050747  0.13980631  1
  Sr  Sr25  1  0.52017902  -0.00340540  0.59053912  1
  Sr  Sr26  1  0.49873927  0.27099364  0.08405152  1
  Sr  Sr27  1  0.48530681  0.33524532  0.67574911  1
  Sr  Sr28  1  0.46322532  0.67482955  0.10216723  1
  Sr  Sr29  1  0.50044864  0.57832765  0.51133536  1
  Sr  Sr30  1  0.83462340  -0.00317750  0.11227784  1
  Sr  Sr31  1  0.82764141  -0.00210925  0.67392124  1
  Sr  Sr32  1  0.83541739  0.33793182  0.13740183  1
  Sr  Sr33  1  0.81849381  0.32559187  0.62865392  1
  Sr  Sr34  1  0.84352857  0.65368950  0.06832996  1
  Sr  Sr35  1  0.82735718  0.67979677  0.63169902  1
  Sr  Sr36  1  0.01051464  0.16603592  0.40345003  1
  Sr  Sr37  1  0.00531467  0.13105458  0.82498885  1
  Sr  Sr38  1  0.00054086  0.53180072  0.33070858  1
  Sr  Sr39  1  -0.00702341  0.50790892  0.89286087  1
  Sr  Sr40  1  0.00407144  0.82422302  0.37149020  1
  Sr  Sr41  1  -0.01006912  0.83734039  0.92630733  1
  Sr  Sr42  1  0.33442585  0.17349073  0.34278320  1
  Sr  Sr43  1  0.32408723  0.19944915  0.90694810  1
  Sr  Sr44  1  0.31962297  0.50044164  0.40786090  1
  Sr  Sr45  1  0.33528223  0.52672779  0.88004613  1
  Sr  Sr46  1  0.35017829  0.89052268  0.42019659  1
  Sr  Sr47  1  0.32340867  0.80223376  0.86720066  1
  Sr  Sr48  1  0.65941148  0.15939271  0.39824257  1
  Sr  Sr49  1  0.63575204  0.24715734  0.84671520  1
  Sr  Sr50  1  0.66746583  0.47165602  0.35809681  1
  Sr  Sr51  1  0.60414114  0.53515840  0.92252532  1
  Sr  Sr52  1  0.66874518  0.85531199  0.37878200  1
  Sr  Sr53  1  0.69096450  0.80800136  0.82222801  1
  Sr  Sr54  1  0.15280781  -0.01929314  0.46008949  1
  Sr  Sr55  1  0.19806241  -0.02250763  0.87973096  1
  Sr  Sr56  1  0.17010740  0.31876858  0.38196751  1
  Sr  Sr57  1  0.16231679  0.35375287  0.93895710  1
  Sr  Sr58  1  0.17239203  0.64766396  0.38738838  1
  Sr  Sr59  1  0.18300757  0.65292262  0.84102103  1
  Sr  Sr60  1  0.49619425  0.01701819  0.36303200  1
  Sr  Sr61  1  0.51956239  -0.09677968  0.79552866  1
  Sr  Sr62  1  0.49744535  0.26509661  0.31849759  1
  Sr  Sr63  1  0.46910266  0.37271910  0.88777415  1
  Sr  Sr64  1  0.51426982  0.63295676  0.31153686  1
  Sr  Sr65  1  0.48609073  0.68221426  0.85792095  1
  Sr  Sr66  1  0.86108899  0.00569097  0.33416379  1
  Sr  Sr67  1  0.83127990  -0.00975365  0.88878366  1
  Sr  Sr68  1  0.82389569  0.30881220  0.38621002  1
  Sr  Sr69  1  0.84615381  0.32435307  0.86937837  1
  Sr  Sr70  1  0.82996777  0.68807708  0.41910938  1
  Sr  Sr71  1  0.84055843  0.66433017  0.86408242  1
  Ta  Ta72  1  0.11031035  0.15971402  0.00906961  1
  Ta  Ta73  1  0.20384394  0.17082576  0.51912513  1
  Ta  Ta74  1  0.17783863  0.53558361  0.02443963  1
  Ta  Ta75  1  0.09992801  0.49645283  0.49784916  1
  Ta  Ta76  1  0.16516108  0.79578768  0.00791071  1
  Ta  Ta77  1  0.20889013  0.79604519  0.50491194  1
  Ta  Ta78  1  0.52665726  0.09485763  -0.05367231  1
  Ta  Ta79  1  0.47441295  0.20621890  0.51926878  1
  Ta  Ta80  1  0.46348070  0.46311267  0.08996147  1
  Ta  Ta81  1  0.48432083  0.39642582  0.47375723  1
  Ta  Ta82  1  0.52414778  0.84219627  0.01034422  1
  Ta  Ta83  1  0.50213231  0.78824163  0.47803211  1
  Ta  Ta84  1  0.91097952  0.16298792  0.00214858  1
  Ta  Ta85  1  0.83039285  0.12955047  0.51294474  1
  Ta  Ta86  1  0.79585151  0.47944382  -0.00372979  1
  Ta  Ta87  1  0.88963964  0.50139495  0.49420466  1
  Ta  Ta88  1  0.78943120  0.82818197  -0.00263436  1
  Ta  Ta89  1  0.84090526  0.87937073  0.50594654  1
  Ta  Ta90  1  0.16268056  0.12511232  0.25894491  1
  Ta  Ta91  1  0.16147561  0.23504278  0.76694575  1
  Ta  Ta92  1  0.16643644  0.46134365  0.25530355  1
  Ta  Ta93  1  0.15932768  0.45872517  0.76459429  1
  Ta  Ta94  1  0.18717047  0.86076006  0.27863016  1
  Ta  Ta95  1  0.13146305  0.82570741  0.75695943  1
  Ta  Ta96  1  0.61553322  0.14434525  0.17746359  1
  Ta  Ta97  1  0.50240910  0.13286593  0.77211855  1
  Ta  Ta98  1  0.48287542  0.44129305  0.26943931  1
  Ta  Ta99  1  0.51256064  0.53064889  0.71161898  1
  Ta  Ta100  1  0.47525513  0.82126488  0.26906851  1
  Ta  Ta101  1  0.54009646  0.72537124  0.64829751  1
  Ta  Ta102  1  0.78294323  0.16479665  0.22971338  1
  Ta  Ta103  1  0.80593684  0.15735581  0.76943847  1
  Ta  Ta104  1  0.82519257  0.53805039  0.24483466  1
  Ta  Ta105  1  0.79200808  0.50440978  0.75205478  1
  Ta  Ta106  1  0.83180301  0.81031991  0.24359274  1
  Ta  Ta107  1  0.88373134  0.83201924  0.74955134  1
  Ta  Ta108  1  0.06769415  -0.00076272  0.26882719  1
  Ta  Ta109  1  0.00583966  -0.05448231  0.75192180  1
  Ta  Ta110  1  0.00472752  0.35728039  0.27049324  1
  Ta  Ta111  1  0.03175004  0.34479436  0.76334532  1
  Ta  Ta112  1  -0.06692652  0.67923853  0.23844799  1
  Ta  Ta113  1  0.00689465  0.70832916  0.75924016  1
  Ta  Ta114  1  0.26148299  0.00150255  0.28621221  1
  Ta  Ta115  1  0.37342796  0.02954000  0.76909335  1
  Ta  Ta116  1  0.33327836  0.36438518  0.23977810  1
  Ta  Ta117  1  0.28416408  0.35332823  0.76568065  1
  Ta  Ta118  1  0.32512624  0.73732972  0.28056110  1
  Ta  Ta119  1  0.37835881  0.66746502  0.66169938  1
  Ta  Ta120  1  0.67811486  0.01768666  0.23632101  1
  Ta  Ta121  1  0.65241362  0.04328114  0.78150434  1
  Ta  Ta122  1  0.66442546  0.30236522  0.24167861  1
  Ta  Ta123  1  0.65604954  0.41864189  0.74258085  1
  Ta  Ta124  1  0.72963495  0.67972966  0.24424611  1
  Ta  Ta125  1  0.65841833  0.61291350  0.73848606  1
  Ta  Ta126  1  0.01296916  0.02796372  0.00924517  1
  Ta  Ta127  1  -0.04152195  0.00402285  0.51990262  1
  Ta  Ta128  1  -0.00416238  0.29870276  0.01631242  1
  Ta  Ta129  1  -0.00994620  0.37088279  0.49548541  1
  Ta  Ta130  1  0.05135885  0.66810806  0.00390094  1
  Ta  Ta131  1  0.00087383  0.63898474  0.50789799  1
  Ta  Ta132  1  0.40756062  -0.01776827  -0.05186542  1
  Ta  Ta133  1  0.33599579  0.07037820  0.51771485  1
  Ta  Ta134  1  0.32112510  0.39398339  0.05234175  1
  Ta  Ta135  1  0.34250542  0.30500853  0.50984871  1
  Ta  Ta136  1  0.26084675  0.67240491  0.03777527  1
  Ta  Ta137  1  0.35199539  0.70059623  0.46597305  1
  Ta  Ta138  1  0.64162250  -0.04652409  -0.01497683  1
  Ta  Ta139  1  0.72289253  0.00806567  0.50515100  1
  Ta  Ta140  1  0.66594200  0.37665003  0.00464587  1
  Ta  Ta141  1  0.62642390  0.33012449  0.50041554  1
  Ta  Ta142  1  0.65690046  0.71810948  -0.00022601  1
  Ta  Ta143  1  0.64496614  0.69241879  0.49400622  1
  N  N144  1  0.00319103  0.66627368  0.63091590  1
  N  N145  1  -0.00225817  0.32917498  0.14138736  1
  N  N146  1  0.00797389  0.66875461  0.88624934  1
  N  N147  1  0.34008795  0.64161478  0.35280939  1
  N  N148  1  0.67328777  -0.04133337  0.85479741  1
  N  N149  1  0.15808126  0.14898940  0.12528997  1
  N  N150  1  0.49396004  0.48497737  0.38630181  1
  N  N151  1  0.82162073  0.50399769  0.11975343  1
  N  N152  1  0.85206490  0.15569570  0.88791243  1
  N  N153  1  0.32189112  0.33524735  0.63776617  1
  N  N154  1  0.83936230  0.15842049  0.11844673  1
  N  N155  1  0.83801317  0.82848696  0.88302739  1
  N  N156  1  0.32187323  0.03123593  0.39970999  1
  N  N157  1  0.84321551  0.83447528  0.62146674  1
  N  N158  1  -0.00199895  0.30959241  0.38472236  1
  N  N159  1  0.16420499  0.18986252  0.64169555  1
  N  N160  1  0.65700194  0.66330372  0.61828251  1
  N  N161  1  0.51149075  0.86900066  0.37658734  1
  N  N162  1  0.65314975  0.35971396  0.63161906  1
  N  N163  1  -0.00907037  0.66682402  0.12637874  1
  N  N164  1  0.16702789  0.82575715  0.87972573  1
  N  N165  1  0.55788824  0.13408760  0.05918066  1
  N  N166  1  0.36074359  -0.06370826  0.83224927  1
  N  N167  1  0.49370921  0.83855652  0.13611258  1
  N  N168  1  0.30571592  0.70012741  0.16040031  1
  N  N169  1  0.66009253  0.31556149  0.37177354  1
  N  N170  1  0.82798137  0.16089107  0.63774893  1
  N  N171  1  0.48181151  0.53676461  0.18929883  1
  N  N172  1  0.51544126  0.83477818  0.59414994  1
  N  N173  1  0.00609961  -0.00311386  0.63471853  1
  N  N174  1  0.15503911  0.83049193  0.40160378  1
  N  N175  1  0.15863338  0.49305214  0.37857469  1
  N  N176  1  0.66622159  -0.00537144  0.10958626  1
  O  O177  1  0.00885773  -0.01358085  0.88357134  1
  O  O178  1  0.00525019  0.34225141  0.63416480  1
  O  O179  1  0.84461135  0.51725207  0.37693716  1
  O  O180  1  0.17588736  0.80408882  0.62997372  1
  O  O181  1  0.55880818  0.77274526  0.76086276  1
  O  O182  1  0.50534367  0.15176237  0.41230301  1
  O  O183  1  0.64915440  0.66722401  0.87668493  1
  O  O184  1  0.83948961  0.84408952  0.37216658  1
  O  O185  1  0.36307444  0.01952597  0.63570689  1
  O  O186  1  0.67969316  0.68009713  0.11977214  1
  O  O187  1  0.03119694  -0.00620194  0.13404082  1
  O  O188  1  0.16667508  0.17232973  0.39295758  1
  O  O189  1  0.17298952  0.50386140  0.89616603  1
  O  O190  1  0.68996637  0.00771476  0.37825845  1
  O  O191  1  0.32229967  0.31881297  0.35974917  1
  O  O192  1  0.62709951  0.38921086  0.87799339  1
  O  O193  1  0.31607697  0.37516546  0.91527960  1
  O  O194  1  0.33737180  0.66916528  0.77850128  1
  O  O195  1  0.47566880  0.52048972  0.83069725  1
  O  O196  1  0.47688272  0.46602905  0.60253459  1
  O  O197  1  0.83461469  0.50784722  0.87362997  1
  O  O198  1  0.00656341  0.34668697  0.89243477  1
  O  O199  1  0.16020634  0.19188542  0.88803201  1
  O  O200  1  0.34636257  0.60686379  0.55134594  1
  O  O201  1  0.67069099  0.35837521  0.12895396  1
  O  O202  1  0.84087836  0.50366865  0.62226410  1
  O  O203  1  0.01343123  0.00334281  0.39212911  1
  O  O204  1  0.16066835  0.84107616  0.13415179  1
  O  O205  1  -0.02129844  0.67507616  0.36960130  1
  O  O206  1  0.67003294  0.01119156  0.62927277  1
  O  O207  1  0.13755875  0.49269484  0.62665695  1
  O  O208  1  0.68328516  0.69035649  0.36531813  1
  O  O209  1  0.81659135  0.15630289  0.36255993  1
  O  O210  1  0.49913291  0.18497485  0.64773306  1
  O  O211  1  0.32036035  0.29535115  0.12057042  1
  O  O212  1  0.48936392  0.19907650  0.88368686  1
  O  O213  1  0.14794324  0.52959874  0.15581440  1
  O  O214  1  0.33435891  0.00188502  0.04451392  1
  O  O215  1  0.84317668  0.84651280  0.11847379  1
