# generated using pymatgen
data_Sr24Ta24N11O13
_symmetry_space_group_name_H-M   'P 1'
_cell_length_a   16.86208145
_cell_length_b   16.81653062
_cell_length_c   15.64254331
_cell_angle_alpha   90.35785996
_cell_angle_beta   89.41403962
_cell_angle_gamma   89.67400201
_symmetry_Int_Tables_number   1
_chemical_formula_structural   Sr24Ta24N11O13
_chemical_formula_sum   'Sr72 Ta72 N33 O39'
_cell_volume   4435.23442003
_cell_formula_units_Z   3
loop_
 _symmetry_equiv_pos_site_id
 _symmetry_equiv_pos_as_xyz
  1  'x, y, z'
loop_
 _atom_site_type_symbol
 _atom_site_label
 _atom_site_symmetry_multiplicity
 _atom_site_fract_x
 _atom_site_fract_y
 _atom_site_fract_z
 _atom_site_occupancy
  Sr  Sr0  1  -0.00973404  0.15243196  0.12738789  1
  Sr  Sr1  1  -0.00496575  0.14872098  0.60432604  1
  Sr  Sr2  1  -0.01438026  0.46519713  0.10638746  1
  Sr  Sr3  1  -0.00511261  0.49359167  0.64192521  1
  Sr  Sr4  1  0.02537082  0.83044423  0.13506115  1
  Sr  Sr5  1  -0.00931735  0.80585371  0.60524772  1
  Sr  Sr6  1  0.32460619  0.16251867  0.12060704  1
  Sr  Sr7  1  0.31878808  0.17404026  0.66367889  1
  Sr  Sr8  1  0.31001053  0.50368521  0.15515356  1
  Sr  Sr9  1  0.31872318  0.48576001  0.59224878  1
  Sr  Sr10  1  0.36108220  0.82785738  0.07553251  1
  Sr  Sr11  1  0.32567572  0.82655355  0.63950699  1
  Sr  Sr12  1  0.66456698  0.15704411  0.11293691  1
  Sr  Sr13  1  0.65142077  0.17040506  0.63276987  1
  Sr  Sr14  1  0.66242156  0.50529821  0.11636529  1
  Sr  Sr15  1  0.62498425  0.48880933  0.64244632  1
  Sr  Sr16  1  0.64664768  0.83312443  0.17411265  1
  Sr  Sr17  1  0.67075032  0.83084321  0.61634067  1
  Sr  Sr18  1  0.16076366  0.00697551  0.17089042  1
  Sr  Sr19  1  0.17310642  0.00247275  0.61528420  1
  Sr  Sr20  1  0.17693664  0.33688784  0.10681120  1
  Sr  Sr21  1  0.17585784  0.34700120  0.64791648  1
  Sr  Sr22  1  0.17175419  0.67763379  0.13475368  1
  Sr  Sr23  1  0.19188880  0.66744399  0.60505522  1
  Sr  Sr24  1  0.50555626  0.01340003  0.13782338  1
  Sr  Sr25  1  0.49960546  -0.01993362  0.57259906  1
  Sr  Sr26  1  0.53830935  0.34182972  0.09120045  1
  Sr  Sr27  1  0.50235890  0.32317812  0.62920681  1
  Sr  Sr28  1  0.50950322  0.66225160  0.11870863  1
  Sr  Sr29  1  0.50530873  0.67545520  0.67128863  1
  Sr  Sr30  1  0.85314717  0.00217615  0.07640599  1
  Sr  Sr31  1  0.83083365  0.02230164  0.64863600  1
  Sr  Sr32  1  0.83756689  0.33695616  0.14242397  1
  Sr  Sr33  1  0.87139125  0.34402132  0.60100339  1
  Sr  Sr34  1  0.84976202  0.70911688  0.12964181  1
  Sr  Sr35  1  0.84369179  0.67476855  0.61888338  1
  Sr  Sr36  1  -0.00778652  0.16675102  0.38313263  1
  Sr  Sr37  1  -0.01704006  0.11896381  0.86770606  1
  Sr  Sr38  1  -0.03848451  0.47866908  0.40117769  1
  Sr  Sr39  1  0.00359010  0.48967697  0.85804272  1
  Sr  Sr40  1  0.00222540  0.81185244  0.35210118  1
  Sr  Sr41  1  -0.01086053  0.82273784  0.91354534  1
  Sr  Sr42  1  0.33090936  0.16111210  0.33148456  1
  Sr  Sr43  1  0.32033703  0.16981012  0.88035248  1
  Sr  Sr44  1  0.33390585  0.49932505  0.37465687  1
  Sr  Sr45  1  0.30406687  0.48300604  0.89320084  1
  Sr  Sr46  1  0.33419260  0.86208802  0.42835295  1
  Sr  Sr47  1  0.33613133  0.82181632  0.86412425  1
  Sr  Sr48  1  0.64984506  0.17177530  0.38501875  1
  Sr  Sr49  1  0.65987791  0.15993051  0.86824369  1
  Sr  Sr50  1  0.65288649  0.49344322  0.36486375  1
  Sr  Sr51  1  0.64698913  0.49671462  0.88849556  1
  Sr  Sr52  1  0.66570297  0.83351255  0.38576912  1
  Sr  Sr53  1  0.67086450  0.82327193  0.82712435  1
  Sr  Sr54  1  0.16605443  0.00520094  0.38190303  1
  Sr  Sr55  1  0.18407861  -0.00075409  0.82722245  1
  Sr  Sr56  1  0.20104703  0.34402858  0.35306122  1
  Sr  Sr57  1  0.16633739  0.33536089  0.88197101  1
  Sr  Sr58  1  0.18899943  0.66484227  0.37048206  1
  Sr  Sr59  1  0.17311917  0.68693870  0.89378787  1
  Sr  Sr60  1  0.51669694  0.01205286  0.35850497  1
  Sr  Sr61  1  0.47333927  -0.00075537  0.92148592  1
  Sr  Sr62  1  0.50857040  0.34610502  0.41503669  1
  Sr  Sr63  1  0.52602679  0.32776333  0.85420436  1
  Sr  Sr64  1  0.51456747  0.65754127  0.33274147  1
  Sr  Sr65  1  0.50157470  0.67244470  0.88336401  1
  Sr  Sr66  1  0.84808747  0.02384718  0.39834308  1
  Sr  Sr67  1  0.80331829  0.00175205  0.86409603  1
  Sr  Sr68  1  0.83089001  0.33374382  0.35974088  1
  Sr  Sr69  1  0.85077156  0.37384595  0.88235337  1
  Sr  Sr70  1  0.83330731  0.68835719  0.40011886  1
  Sr  Sr71  1  0.84641525  0.68413363  0.86334479  1
  Ta  Ta72  1  0.14898873  0.13919386  -0.00713233  1
  Ta  Ta73  1  0.18773810  0.18710583  0.50286389  1
  Ta  Ta74  1  0.14802989  0.52470204  0.00161239  1
  Ta  Ta75  1  0.13689746  0.49444489  0.49338301  1
  Ta  Ta76  1  0.17888623  0.86699532  0.00015017  1
  Ta  Ta77  1  0.14256165  0.83068472  0.49565899  1
  Ta  Ta78  1  0.48738895  0.18762034  0.00375621  1
  Ta  Ta79  1  0.46113837  0.16521672  0.49670984  1
  Ta  Ta80  1  0.45833784  0.49535345  0.00467222  1
  Ta  Ta81  1  0.49333712  0.54871190  0.50632602  1
  Ta  Ta82  1  0.55891331  0.83417265  -0.00554824  1
  Ta  Ta83  1  0.50009714  0.77878182  0.50406533  1
  Ta  Ta84  1  0.83298556  0.20136201  -0.01418214  1
  Ta  Ta85  1  0.80464488  0.18200553  0.50749312  1
  Ta  Ta86  1  0.83203404  0.54302945  0.00201955  1
  Ta  Ta87  1  0.78186297  0.50411612  0.50599893  1
  Ta  Ta88  1  0.76043932  0.84089931  0.00160969  1
  Ta  Ta89  1  0.83866835  0.87359797  0.50116004  1
  Ta  Ta90  1  0.14306817  0.18815919  0.25073326  1
  Ta  Ta91  1  0.13200375  0.17905514  0.74908536  1
  Ta  Ta92  1  0.11648045  0.49835100  0.26391578  1
  Ta  Ta93  1  0.17393618  0.53148300  0.74747120  1
  Ta  Ta94  1  0.22856661  0.83766108  0.25475680  1
  Ta  Ta95  1  0.13139722  0.82109603  0.74153689  1
  Ta  Ta96  1  0.50601840  0.21197518  0.24865620  1
  Ta  Ta97  1  0.49042392  0.12504183  0.74453674  1
  Ta  Ta98  1  0.49687464  0.46282145  0.24220752  1
  Ta  Ta99  1  0.44720634  0.49564717  0.75203982  1
  Ta  Ta100  1  0.45233247  0.83865197  0.25552390  1
  Ta  Ta101  1  0.49566509  0.87040318  0.74990308  1
  Ta  Ta102  1  0.82441200  0.14391118  0.24455000  1
  Ta  Ta103  1  0.83819416  0.21132515  0.75293001  1
  Ta  Ta104  1  0.82902331  0.53568805  0.25711013  1
  Ta  Ta105  1  0.79969847  0.51290773  0.74227526  1
  Ta  Ta106  1  0.82939633  0.88214154  0.25595158  1
  Ta  Ta107  1  0.86480378  0.84706391  0.74575814  1
  Ta  Ta108  1  -0.03346423  -0.00370627  0.24428239  1
  Ta  Ta109  1  0.00467563  -0.04912691  0.74872768  1
  Ta  Ta110  1  0.02673111  0.32227402  0.24505373  1
  Ta  Ta111  1  0.00013159  0.29509450  0.75589490  1
  Ta  Ta112  1  -0.00927856  0.61975234  0.25558888  1
  Ta  Ta113  1  0.03251651  0.67288906  0.74571254  1
  Ta  Ta114  1  0.33915459  -0.03614402  0.24764587  1
  Ta  Ta115  1  0.38109365  -0.00125525  0.74402332  1
  Ta  Ta116  1  0.38528686  0.33399727  0.24189744  1
  Ta  Ta117  1  0.34626801  0.35306113  0.75542811  1
  Ta  Ta118  1  0.34491679  0.70966300  0.24752874  1
  Ta  Ta119  1  0.32727078  0.62774060  0.75873558  1
  Ta  Ta120  1  0.71273013  0.01129115  0.25337530  1
  Ta  Ta121  1  0.60273640  -0.00217251  0.74815778  1
  Ta  Ta122  1  0.64731855  0.32757894  0.25576850  1
  Ta  Ta123  1  0.71659719  0.34188479  0.73906086  1
  Ta  Ta124  1  0.70173567  0.65496858  0.25241376  1
  Ta  Ta125  1  0.69039393  0.64135302  0.74749803  1
  Ta  Ta126  1  0.06479755  -0.00919214  0.00310483  1
  Ta  Ta127  1  0.00249516  -0.03985034  0.49605940  1
  Ta  Ta128  1  -0.00495262  0.28633739  -0.01181864  1
  Ta  Ta129  1  0.05099136  0.32784872  0.50248887  1
  Ta  Ta130  1  -0.00116125  0.63158389  0.00106977  1
  Ta  Ta131  1  0.03036056  0.64516341  0.50120789  1
  Ta  Ta132  1  0.27402858  0.00031156  0.00073665  1
  Ta  Ta133  1  0.33028049  0.06149226  0.49885297  1
  Ta  Ta134  1  0.36937002  0.33537734  0.01503680  1
  Ta  Ta135  1  0.33104929  0.29007904  0.49306801  1
  Ta  Ta136  1  0.33520707  0.63465521  0.00284092  1
  Ta  Ta137  1  0.37385318  0.66773321  0.50070957  1
  Ta  Ta138  1  0.65716308  -0.02877298  0.00173943  1
  Ta  Ta139  1  0.69291124  0.00802372  0.50038728  1
  Ta  Ta140  1  0.70505206  0.31548584  -0.01266724  1
  Ta  Ta141  1  0.69578556  0.33879277  0.51199150  1
  Ta  Ta142  1  0.68611266  0.69022212  0.00632817  1
  Ta  Ta143  1  0.64218775  0.64948342  0.49789967  1
  N  N144  1  0.17044064  0.83076050  0.62421762  1
  N  N145  1  0.67215710  0.00657189  0.37834910  1
  N  N146  1  0.00878460  0.33787202  0.87851453  1
  N  N147  1  0.16475226  0.15882500  0.87030215  1
  N  N148  1  0.83143766  0.84367838  0.37381687  1
  N  N149  1  0.16341644  0.50363719  0.62260974  1
  N  N150  1  0.66621974  0.66894271  0.37646308  1
  N  N151  1  0.66651154  0.33370790  0.37816672  1
  N  N152  1  0.67006789  0.67358567  0.13027877  1
  N  N153  1  0.15443495  0.50799228  0.87851623  1
  N  N154  1  0.49868663  0.50564421  0.12633078  1
  N  N155  1  0.32715834  0.33092140  0.13209254  1
  N  N156  1  0.49857236  0.82546090  0.61956968  1
  N  N157  1  0.47628679  0.50933880  0.62566794  1
  N  N158  1  0.00236432  0.65082581  0.62546170  1
  N  N159  1  0.16464549  0.16662063  0.62427594  1
  N  N160  1  0.65502065  0.33138841  0.63401071  1
  N  N161  1  0.68058302  0.33705788  0.86820167  1
  N  N162  1  0.00597639  0.31419798  0.12192016  1
  N  N163  1  0.50360625  0.16642016  0.12358613  1
  N  N164  1  0.01996487  0.32175059  0.62292554  1
  N  N165  1  0.17760805  0.50218122  0.36800561  1
  N  N166  1  0.18459978  0.83890043  0.37500172  1
  N  N167  1  0.49570196  0.17188946  0.36875854  1
  N  N168  1  0.49309605  0.16138057  0.62370326  1
  N  N169  1  0.82860981  0.83880950  0.62842307  1
  N  N170  1  0.51040958  0.83513263  0.88148360  1
  N  N171  1  0.83456197  0.17819541  0.62724589  1
  N  N172  1  0.01112347  -0.01173386  0.12769658  1
  N  N173  1  0.81383117  0.50976827  0.38444892  1
  N  N174  1  0.33625044  0.67319725  0.12563075  1
  N  N175  1  0.33404140  0.66749609  0.87566693  1
  N  N176  1  0.34919477  0.32485129  0.37533758  1
  O  O177  1  0.49283665  0.50774212  0.36829829  1
  O  O178  1  0.00484973  -0.02125805  0.62102188  1
  O  O179  1  0.32878714  0.01154627  0.37845666  1
  O  O180  1  0.17480464  0.84155883  0.86420174  1
  O  O181  1  0.67233396  0.66760880  0.62572181  1
  O  O182  1  0.49118485  0.49708088  0.87691707  1
  O  O183  1  -0.00433564  0.64085959  0.13259348  1
  O  O184  1  0.48738039  0.82311477  0.37881861  1
  O  O185  1  0.18223443  0.84076673  0.13277451  1
  O  O186  1  0.15188030  0.50278643  0.13725949  1
  O  O187  1  0.50555499  0.83451328  0.11990400  1
  O  O188  1  0.82874072  0.16273969  0.11716872  1
  O  O189  1  0.82355833  0.14892689  0.86315689  1
  O  O190  1  -0.01306312  0.64629521  0.38291997  1
  O  O191  1  0.64910503  -0.00164832  0.62475882  1
  O  O192  1  0.33695756  0.01786684  0.62317578  1
  O  O193  1  0.49623282  0.16143786  0.87671740  1
  O  O194  1  0.02757208  -0.02983175  0.87323914  1
  O  O195  1  0.34054711  0.33053342  0.88083477  1
  O  O196  1  0.81728996  0.52719163  0.87681898  1
  O  O197  1  0.15221488  0.16517964  0.37477002  1
  O  O198  1  0.33966292  0.32955413  0.62837486  1
  O  O199  1  0.81497617  0.84375304  0.86809098  1
  O  O200  1  0.32642583  0.00550202  0.87823601  1
  O  O201  1  0.15712057  0.16951780  0.12623416  1
  O  O202  1  0.82611879  0.17394543  0.36958779  1
  O  O203  1  0.35180481  0.66697723  0.37314478  1
  O  O204  1  0.80020752  0.85358549  0.12438502  1
  O  O205  1  0.83958595  0.51351710  0.61535721  1
  O  O206  1  0.34776097  0.66948024  0.63350766  1
  O  O207  1  0.00898675  -0.02194754  0.36645811  1
  O  O208  1  0.68548266  0.66173032  0.87173715  1
  O  O209  1  0.00277791  0.65932255  0.87391979  1
  O  O210  1  0.68483265  0.32410064  0.12420466  1
  O  O211  1  0.00334687  0.32263976  0.38331577  1
  O  O212  1  0.64602922  -0.00193377  0.87141915  1
  O  O213  1  0.66546364  -0.00154432  0.13433234  1
  O  O214  1  0.83162825  0.51981999  0.12372176  1
  O  O215  1  0.31677265  -0.00061684  0.12265451  1
