# generated using pymatgen
data_Sr24Ta24N11O13
_symmetry_space_group_name_H-M   'P 1'
_cell_length_a   17.73264029
_cell_length_b   16.60441897
_cell_length_c   15.03954839
_cell_angle_alpha   90.07808635
_cell_angle_beta   88.02188282
_cell_angle_gamma   90.83573111
_symmetry_Int_Tables_number   1
_chemical_formula_structural   Sr24Ta24N11O13
_chemical_formula_sum   'Sr72 Ta72 N33 O39'
_cell_volume   4425.13617786
_cell_formula_units_Z   3
loop_
 _symmetry_equiv_pos_site_id
 _symmetry_equiv_pos_as_xyz
  1  'x, y, z'
loop_
 _atom_site_type_symbol
 _atom_site_label
 _atom_site_symmetry_multiplicity
 _atom_site_fract_x
 _atom_site_fract_y
 _atom_site_fract_z
 _atom_site_occupancy
  Sr  Sr0  1  -0.01300964  0.17187540  0.12771724  1
  Sr  Sr1  1  0.04919617  0.17216942  0.57065672  1
  Sr  Sr2  1  0.04171774  0.50873639  0.09965334  1
  Sr  Sr3  1  0.00477892  0.48480900  0.64447203  1
  Sr  Sr4  1  0.02721213  0.79908049  0.11988475  1
  Sr  Sr5  1  0.01504466  0.82245972  0.62147456  1
  Sr  Sr6  1  0.36244881  0.16988626  0.11391746  1
  Sr  Sr7  1  0.34234217  0.14175061  0.64402564  1
  Sr  Sr8  1  0.36167993  0.46571636  0.10898198  1
  Sr  Sr9  1  0.32660892  0.50820104  0.62572503  1
  Sr  Sr10  1  0.32210101  0.85797711  0.13498192  1
  Sr  Sr11  1  0.37308173  0.84217112  0.56077406  1
  Sr  Sr12  1  0.69420846  0.14389976  0.11859407  1
  Sr  Sr13  1  0.67036047  0.15938244  0.61518913  1
  Sr  Sr14  1  0.65849327  0.49269105  0.12628401  1
  Sr  Sr15  1  0.70922981  0.49888823  0.58289300  1
  Sr  Sr16  1  0.70294573  0.84001076  0.10874763  1
  Sr  Sr17  1  0.66469670  0.82304358  0.65482602  1
  Sr  Sr18  1  0.13025180  0.03967178  0.13968027  1
  Sr  Sr19  1  0.16799290  0.00539737  0.62997883  1
  Sr  Sr20  1  0.13611710  0.32831716  0.14338611  1
  Sr  Sr21  1  0.16232900  0.35235220  0.60391176  1
  Sr  Sr22  1  0.18464914  0.67048057  0.11831010  1
  Sr  Sr23  1  0.13139637  0.65974080  0.68097820  1
  Sr  Sr24  1  0.48229775  0.00055347  0.13522911  1
  Sr  Sr25  1  0.49504841  0.01578848  0.60625358  1
  Sr  Sr26  1  0.50819305  0.33153027  0.12071788  1
  Sr  Sr27  1  0.44675176  0.33339866  0.68088670  1
  Sr  Sr28  1  0.45779257  0.70882730  0.12430965  1
  Sr  Sr29  1  0.49255416  0.66705263  0.62758630  1
  Sr  Sr30  1  0.83489797  0.00704222  0.12446116  1
  Sr  Sr31  1  0.78387790  -0.00140023  0.67677004  1
  Sr  Sr32  1  0.80040504  0.35891959  0.13551749  1
  Sr  Sr33  1  0.82786552  0.33327220  0.63004897  1
  Sr  Sr34  1  0.80826892  0.66077417  0.13590254  1
  Sr  Sr35  1  0.83457919  0.68234685  0.60340439  1
  Sr  Sr36  1  -0.00049452  0.16605660  0.35524404  1
  Sr  Sr37  1  0.00649609  0.14995493  0.89314284  1
  Sr  Sr38  1  0.04612986  0.49789870  0.34651175  1
  Sr  Sr39  1  0.00233208  0.49221501  0.85937360  1
  Sr  Sr40  1  0.00252974  0.81565352  0.40534159  1
  Sr  Sr41  1  0.04800056  0.82611191  0.84722147  1
  Sr  Sr42  1  0.38247060  0.16573516  0.34953430  1
  Sr  Sr43  1  0.34527701  0.16523058  0.85951744  1
  Sr  Sr44  1  0.34296018  0.48617466  0.40562080  1
  Sr  Sr45  1  0.38046659  0.49711313  0.83175785  1
  Sr  Sr46  1  0.33489636  0.82479370  0.34807751  1
  Sr  Sr47  1  0.34042838  0.82271574  0.91466006  1
  Sr  Sr48  1  0.67735533  0.15168384  0.40164347  1
  Sr  Sr49  1  0.72026970  0.16560401  0.82998319  1
  Sr  Sr50  1  0.65877081  0.49575424  0.35903883  1
  Sr  Sr51  1  0.67942940  0.48590056  0.89939990  1
  Sr  Sr52  1  0.70970732  0.82963222  0.34821529  1
  Sr  Sr53  1  0.68188373  0.83243907  0.86669851  1
  Sr  Sr54  1  0.11453283  0.00944819  0.41505615  1
  Sr  Sr55  1  0.15779134  0.01382947  0.84686973  1
  Sr  Sr56  1  0.15813448  0.33931948  0.38898016  1
  Sr  Sr57  1  0.11487208  0.33181423  0.91330332  1
  Sr  Sr58  1  0.15120515  0.68026658  0.34200388  1
  Sr  Sr59  1  0.16591132  0.66584323  0.89526400  1
  Sr  Sr60  1  0.49321512  0.00103227  0.38475840  1
  Sr  Sr61  1  0.45406399  0.00268312  0.89775867  1
  Sr  Sr62  1  0.48835485  0.35788271  0.35153635  1
  Sr  Sr63  1  0.49912504  0.34490027  0.89885512  1
  Sr  Sr64  1  0.46147443  0.66341103  0.40663968  1
  Sr  Sr65  1  0.49569958  0.67969325  0.84500987  1
  Sr  Sr66  1  0.82105039  0.01336471  0.35864695  1
  Sr  Sr67  1  0.82926470  0.00581775  0.89609129  1
  Sr  Sr68  1  0.78522319  0.33591283  0.41054717  1
  Sr  Sr69  1  0.82348858  0.34700654  0.84355308  1
  Sr  Sr70  1  0.82298982  0.66996473  0.38559087  1
  Sr  Sr71  1  0.79146748  0.66937269  0.90223221  1
  Ta  Ta72  1  0.19699342  0.17066453  0.00159775  1
  Ta  Ta73  1  0.22567126  0.16784393  0.48131260  1
  Ta  Ta74  1  0.22153014  0.48874792  -0.01800405  1
  Ta  Ta75  1  0.16580628  0.54379395  0.51055130  1
  Ta  Ta76  1  0.16715293  0.88235633  0.01118583  1
  Ta  Ta77  1  0.18891911  0.81988725  0.50663922  1
  Ta  Ta78  1  0.55850175  0.15798592  -0.02508429  1
  Ta  Ta79  1  0.49969914  0.20881602  0.51597193  1
  Ta  Ta80  1  0.50707430  0.54193286  -0.00263480  1
  Ta  Ta81  1  0.52024390  0.48218267  0.53630377  1
  Ta  Ta82  1  0.53254977  0.84132105  -0.00132468  1
  Ta  Ta83  1  0.55393678  0.82850077  0.48196281  1
  Ta  Ta84  1  0.83954900  0.20507951  0.00019958  1
  Ta  Ta85  1  0.86038550  0.15640877  0.51783500  1
  Ta  Ta86  1  0.86312249  0.50041814  -0.00270660  1
  Ta  Ta87  1  0.88673057  0.49698720  0.48325234  1
  Ta  Ta88  1  0.88858767  0.82677424  -0.01593132  1
  Ta  Ta89  1  0.83088509  0.87066526  0.51201126  1
  Ta  Ta90  1  0.20413257  0.17282193  0.28255849  1
  Ta  Ta91  1  0.16446218  0.20378736  0.74259892  1
  Ta  Ta92  1  0.21792313  0.49361054  0.24150766  1
  Ta  Ta93  1  0.18762493  0.47819681  0.78471637  1
  Ta  Ta94  1  0.15475797  0.87837076  0.25103180  1
  Ta  Ta95  1  0.22068243  0.83222522  0.74377604  1
  Ta  Ta96  1  0.55013845  0.16381421  0.24963177  1
  Ta  Ta97  1  0.53623041  0.16982949  0.76763465  1
  Ta  Ta98  1  0.49412530  0.54481227  0.23233732  1
  Ta  Ta99  1  0.55702318  0.49443319  0.73820752  1
  Ta  Ta100  1  0.54338838  0.83103447  0.26870141  1
  Ta  Ta101  1  0.47684938  0.85686911  0.73805670  1
  Ta  Ta102  1  0.82743427  0.20399967  0.26033393  1
  Ta  Ta103  1  0.89627816  0.15343098  0.71964510  1
  Ta  Ta104  1  0.87242735  0.50027388  0.27052157  1
  Ta  Ta105  1  0.82956491  0.53417317  0.74393978  1
  Ta  Ta106  1  0.88074963  0.83102238  0.25291829  1
  Ta  Ta107  1  0.87031053  0.83128600  0.77102807  1
  Ta  Ta108  1  -0.01108234  -0.04026842  0.25860230  1
  Ta  Ta109  1  -0.02961066  -0.00345834  0.72777128  1
  Ta  Ta110  1  -0.05347718  0.34503624  0.26400582  1
  Ta  Ta111  1  0.00296114  0.29672269  0.74145398  1
  Ta  Ta112  1  -0.03105345  0.65538091  0.25250685  1
  Ta  Ta113  1  -0.05041671  0.66896274  0.76681135  1
  Ta  Ta114  1  0.27458856  0.01451049  0.27438983  1
  Ta  Ta115  1  0.33158921  -0.05098439  0.73891621  1
  Ta  Ta116  1  0.30428532  0.32874238  0.25246060  1
  Ta  Ta117  1  0.27257456  0.33661788  0.77757461  1
  Ta  Ta118  1  0.33024160  0.62090168  0.25065145  1
  Ta  Ta119  1  0.32669511  0.71912910  0.73010750  1
  Ta  Ta120  1  0.64115003  -0.00486812  0.24823718  1
  Ta  Ta121  1  0.61075947  0.00446476  0.77010152  1
  Ta  Ta122  1  0.65398720  0.29494463  0.25351977  1
  Ta  Ta123  1  0.63548195  0.33718330  0.73716094  1
  Ta  Ta124  1  0.60563867  0.67553208  0.24512150  1
  Ta  Ta125  1  0.66890105  0.62807437  0.74784667  1
  Ta  Ta126  1  0.00448035  -0.03806154  -0.00681142  1
  Ta  Ta127  1  -0.06047502  0.00298542  0.53370210  1
  Ta  Ta128  1  -0.05528658  0.33724002  0.00052591  1
  Ta  Ta129  1  -0.03164122  0.34392189  0.47484316  1
  Ta  Ta130  1  -0.03502556  0.66307809  -0.02709319  1
  Ta  Ta131  1  0.01340588  0.63245788  0.50726484  1
  Ta  Ta132  1  0.28154400  0.01278571  0.00356065  1
  Ta  Ta133  1  0.29932010  0.00890704  0.46895326  1
  Ta  Ta134  1  0.29413823  0.32641076  -0.02438349  1
  Ta  Ta135  1  0.34029234  0.30165029  0.50390783  1
  Ta  Ta136  1  0.34057021  0.62576678  -0.01772898  1
  Ta  Ta137  1  0.27073277  0.67464018  0.51126140  1
  Ta  Ta138  1  0.63628462  0.00041136  -0.01809728  1
  Ta  Ta139  1  0.66671979  -0.03583469  0.50542700  1
  Ta  Ta140  1  0.67165155  0.29498333  -0.00914063  1
  Ta  Ta141  1  0.60836440  0.33540202  0.51591436  1
  Ta  Ta142  1  0.61473581  0.67596875  0.00320795  1
  Ta  Ta143  1  0.64251759  0.68057390  0.48870614  1
  N  N144  1  0.18927912  0.49276398  0.11780460  1
  N  N145  1  0.02784973  0.66504644  0.85664428  1
  N  N146  1  0.00011838  0.66323703  0.37366211  1
  N  N147  1  -0.02172311  0.32591640  0.86478399  1
  N  N148  1  0.65677057  0.32868351  0.11880678  1
  N  N149  1  0.50885148  0.83690577  0.61470137  1
  N  N150  1  0.69088911  -0.00250667  0.85423368  1
  N  N151  1  0.83342790  0.50073988  0.87385681  1
  N  N152  1  0.85069395  0.83445520  0.38798724  1
  N  N153  1  0.66464446  -0.00847576  0.10902710  1
  N  N154  1  0.34005169  0.33181954  0.37606565  1
  N  N155  1  0.14103432  0.17188402  0.39678138  1
  N  N156  1  0.81957494  0.84433427  0.88694520  1
  N  N157  1  0.35657717  0.32938959  0.86412270  1
  N  N158  1  0.18716068  0.17546268  0.61919663  1
  N  N159  1  0.83306037  0.17030131  0.39120314  1
  N  N160  1  0.65005100  0.66844428  0.86911123  1
  N  N161  1  0.46784804  0.50252290  0.65081133  1
  N  N162  1  -0.00934471  0.66293380  0.63373179  1
  N  N163  1  0.83988857  0.17363635  0.12659302  1
  N  N164  1  0.49773801  0.17323879  0.64692070  1
  N  N165  1  0.85377762  0.50363751  0.60894993  1
  N  N166  1  0.64325010  -0.00309096  0.63750482  1
  N  N167  1  0.81011676  0.16980849  0.64478826  1
  N  N168  1  0.67097825  -0.00338136  0.37507395  1
  N  N169  1  0.01878481  0.32781510  0.35770477  1
  N  N170  1  0.67116867  0.33146743  0.85688890  1
  N  N171  1  0.13624892  0.49731884  0.90234370  1
  N  N172  1  0.52151316  0.50490852  0.86579792  1
  N  N173  1  0.50954203  0.49078348  0.12044834  1
  N  N174  1  0.35403783  -0.01450149  0.35683099  1
  N  N175  1  0.17409487  0.83264153  0.13461190  1
  N  N176  1  0.64114365  0.33373309  0.38443247  1
  O  O177  1  0.31989386  -0.01323431  0.60400150  1
  O  O178  1  0.15690791  0.16689611  0.87894633  1
  O  O179  1  -0.00808172  -0.02122869  0.12226877  1
  O  O180  1  0.68934663  0.32406590  0.60822522  1
  O  O181  1  0.19365453  0.17837734  0.13558202  1
  O  O182  1  0.82156538  0.83411328  0.64316077  1
  O  O183  1  0.19009252  0.84086727  0.88429863  1
  O  O184  1  0.53368364  0.15684331  0.11683294  1
  O  O185  1  0.49105268  0.83727268  0.87718997  1
  O  O186  1  0.49074449  0.50870157  0.41081929  1
  O  O187  1  0.34005870  0.67044958  0.85458683  1
  O  O188  1  0.47443354  0.82320944  0.38629531  1
  O  O189  1  0.15841551  0.84090112  0.63311454  1
  O  O190  1  0.30947349  -0.00701254  0.87187613  1
  O  O191  1  0.66758257  0.67632540  0.11864991  1
  O  O192  1  0.00646849  -0.01104534  0.85984565  1
  O  O193  1  0.03083765  -0.01873200  0.60936805  1
  O  O194  1  0.35205432  0.67464496  0.60237066  1
  O  O195  1  0.80516857  0.51021310  0.38513318  1
  O  O196  1  0.85454480  0.50846956  0.13900344  1
  O  O197  1  -0.01433141  0.33134108  0.12668208  1
  O  O198  1  -0.02360851  -0.01287449  0.39060513  1
  O  O199  1  0.00579524  0.32986926  0.60572419  1
  O  O200  1  0.52926672  0.84786398  0.13295021  1
  O  O201  1  -0.02387112  0.65416739  0.10865248  1
  O  O202  1  0.31660069  0.65650557  0.37843045  1
  O  O203  1  0.65492036  0.66962090  0.61785286  1
  O  O204  1  0.33141503  0.62997580  0.11312288  1
  O  O205  1  0.18124031  0.82956034  0.37369435  1
  O  O206  1  0.31131995  0.34617819  0.62857973  1
  O  O207  1  0.31756005  0.31886088  0.11495982  1
  O  O208  1  0.47645446  0.18590535  0.89317708  1
  O  O209  1  0.18677763  0.50063247  0.38492679  1
  O  O210  1  0.30155972  0.01729170  0.13434019  1
  O  O211  1  0.86157233  0.16024618  0.86351983  1
  O  O212  1  0.66208795  0.65549790  0.35829676  1
  O  O213  1  0.17429281  0.50761881  0.64307874  1
  O  O214  1  0.85884872  0.82226582  0.12106150  1
  O  O215  1  0.52293926  0.16418796  0.38705646  1
