# generated using pymatgen
data_Sr24Ta24N11O13
_symmetry_space_group_name_H-M   'P 1'
_cell_length_a   16.82735499
_cell_length_b   16.77624090
_cell_length_c   15.73310574
_cell_angle_alpha   89.71003476
_cell_angle_beta   89.95443114
_cell_angle_gamma   89.94029082
_symmetry_Int_Tables_number   1
_chemical_formula_structural   Sr24Ta24N11O13
_chemical_formula_sum   'Sr72 Ta72 N33 O39'
_cell_volume   4441.39131661
_cell_formula_units_Z   3
loop_
 _symmetry_equiv_pos_site_id
 _symmetry_equiv_pos_as_xyz
  1  'x, y, z'
loop_
 _atom_site_type_symbol
 _atom_site_label
 _atom_site_symmetry_multiplicity
 _atom_site_fract_x
 _atom_site_fract_y
 _atom_site_fract_z
 _atom_site_occupancy
  Sr  Sr0  1  0.01390830  0.18500516  0.12273466  1
  Sr  Sr1  1  -0.00152197  0.16425735  0.67071687  1
  Sr  Sr2  1  -0.00162658  0.52420686  0.14160202  1
  Sr  Sr3  1  0.00168383  0.49807416  0.61411810  1
  Sr  Sr4  1  -0.00060865  0.83729097  0.08160281  1
  Sr  Sr5  1  0.02942320  0.83692429  0.63682143  1
  Sr  Sr6  1  0.33233031  0.16830395  0.08243008  1
  Sr  Sr7  1  0.34301586  0.15286651  0.64444625  1
  Sr  Sr8  1  0.32834150  0.47473649  0.15739666  1
  Sr  Sr9  1  0.34295867  0.49575958  0.61926052  1
  Sr  Sr10  1  0.32146341  0.85159635  0.14286377  1
  Sr  Sr11  1  0.34169802  0.82581825  0.59618437  1
  Sr  Sr12  1  0.66790977  0.15395246  0.13151269  1
  Sr  Sr13  1  0.68755951  0.17460768  0.58010472  1
  Sr  Sr14  1  0.66931498  0.50833406  0.11108028  1
  Sr  Sr15  1  0.67023446  0.47756992  0.67346554  1
  Sr  Sr16  1  0.69542226  0.82546758  0.16148785  1
  Sr  Sr17  1  0.66611695  0.83351601  0.62296970  1
  Sr  Sr18  1  0.16083688  0.00543790  0.15571246  1
  Sr  Sr19  1  0.17676236  -0.00772422  0.61003502  1
  Sr  Sr20  1  0.17122887  0.33104585  0.12808997  1
  Sr  Sr21  1  0.17821998  0.34422294  0.57588893  1
  Sr  Sr22  1  0.16490498  0.68849215  0.11062011  1
  Sr  Sr23  1  0.15889184  0.65330335  0.67332394  1
  Sr  Sr24  1  0.48897612  0.00791623  0.11026707  1
  Sr  Sr25  1  0.50200920  -0.00192059  0.66425303  1
  Sr  Sr26  1  0.50808101  0.34927552  0.16478459  1
  Sr  Sr27  1  0.50454699  0.32967716  0.62819288  1
  Sr  Sr28  1  0.49013406  0.66769428  0.09888999  1
  Sr  Sr29  1  0.49081141  0.67587192  0.60882203  1
  Sr  Sr30  1  0.82960589  0.00175689  0.13281192  1
  Sr  Sr31  1  0.80889853  0.00121224  0.60046561  1
  Sr  Sr32  1  0.81413256  0.33391739  0.07541279  1
  Sr  Sr33  1  0.84360951  0.33007156  0.63619717  1
  Sr  Sr34  1  0.81730079  0.65522658  0.14863073  1
  Sr  Sr35  1  0.82762066  0.67123266  0.60666931  1
  Sr  Sr36  1  0.00533405  0.14768749  0.32903990  1
  Sr  Sr37  1  0.00637032  0.19096950  0.87816577  1
  Sr  Sr38  1  -0.01755221  0.50189569  0.38642235  1
  Sr  Sr39  1  0.02311974  0.51564558  0.86217930  1
  Sr  Sr40  1  0.01250068  0.84336861  0.41257608  1
  Sr  Sr41  1  0.01398097  0.83601174  0.86952665  1
  Sr  Sr42  1  0.29406004  0.16482403  0.42798903  1
  Sr  Sr43  1  0.34225344  0.16137900  0.86383211  1
  Sr  Sr44  1  0.33812361  0.49044520  0.38276677  1
  Sr  Sr45  1  0.33516758  0.49388242  0.85167457  1
  Sr  Sr46  1  0.32505619  0.84020903  0.36558376  1
  Sr  Sr47  1  0.34475987  0.81434141  0.92282842  1
  Sr  Sr48  1  0.65509468  0.15960984  0.36192434  1
  Sr  Sr49  1  0.68090352  0.15175915  0.91879548  1
  Sr  Sr50  1  0.66329838  0.49461073  0.33535274  1
  Sr  Sr51  1  0.66601577  0.49961819  0.88749934  1
  Sr  Sr52  1  0.67880091  0.82387739  0.38960433  1
  Sr  Sr53  1  0.67007663  0.84178816  0.83694288  1
  Sr  Sr54  1  0.17372219  -0.01153148  0.38684504  1
  Sr  Sr55  1  0.14923645  0.01323544  0.82337992  1
  Sr  Sr56  1  0.15386093  0.33188849  0.36393398  1
  Sr  Sr57  1  0.17936225  0.32016896  0.91763588  1
  Sr  Sr58  1  0.17975808  0.66975768  0.33401798  1
  Sr  Sr59  1  0.15933134  0.68292644  0.88730634  1
  Sr  Sr60  1  0.48804576  -0.00628958  0.34174522  1
  Sr  Sr61  1  0.50008211  0.00351538  0.88350300  1
  Sr  Sr62  1  0.51423640  0.32318275  0.37649392  1
  Sr  Sr63  1  0.49248551  0.34781142  0.83445868  1
  Sr  Sr64  1  0.48641434  0.67890685  0.40876602  1
  Sr  Sr65  1  0.49373756  0.66507838  0.89874839  1
  Sr  Sr66  1  0.81780169  0.01521726  0.36723175  1
  Sr  Sr67  1  0.82782766  -0.01081981  0.89440432  1
  Sr  Sr68  1  0.82982932  0.32672489  0.40994215  1
  Sr  Sr69  1  0.83852692  0.33844241  0.86181143  1
  Sr  Sr70  1  0.83158490  0.65744244  0.37144043  1
  Sr  Sr71  1  0.80377086  0.67237757  0.85788122  1
  Ta  Ta72  1  0.16298789  0.12595411  -0.00767395  1
  Ta  Ta73  1  0.10261906  0.16528693  0.50186326  1
  Ta  Ta74  1  0.18171394  0.50424059  -0.00027138  1
  Ta  Ta75  1  0.16682054  0.54681506  0.50332293  1
  Ta  Ta76  1  0.16975504  0.88808898  -0.00631765  1
  Ta  Ta77  1  0.17468782  0.78437814  0.50298225  1
  Ta  Ta78  1  0.50376044  0.21732853  -0.00329199  1
  Ta  Ta79  1  0.49277917  0.14064248  0.50207642  1
  Ta  Ta80  1  0.48268378  0.47747576  -0.00218074  1
  Ta  Ta81  1  0.53476625  0.49409667  0.50794794  1
  Ta  Ta82  1  0.54610220  0.83711302  0.00137524  1
  Ta  Ta83  1  0.50489513  0.87386704  0.50126601  1
  Ta  Ta84  1  0.86410462  0.15444798  0.00368397  1
  Ta  Ta85  1  0.89379389  0.16335268  0.50460023  1
  Ta  Ta86  1  0.86149006  0.51427594  -0.00012262  1
  Ta  Ta87  1  0.79013045  0.49728273  0.49536748  1
  Ta  Ta88  1  0.81485731  0.81253982  0.00054318  1
  Ta  Ta89  1  0.85040618  0.84048685  0.49879049  1
  Ta  Ta90  1  0.19885002  0.16992324  0.24231683  1
  Ta  Ta91  1  0.17222422  0.21293585  0.74776578  1
  Ta  Ta92  1  0.14974523  0.49930430  0.25454514  1
  Ta  Ta93  1  0.17499980  0.45376118  0.74185937  1
  Ta  Ta94  1  0.12498420  0.83685024  0.24829538  1
  Ta  Ta95  1  0.21601511  0.83080448  0.75311184  1
  Ta  Ta96  1  0.46405953  0.16470439  0.24757616  1
  Ta  Ta97  1  0.55376646  0.16874831  0.75292390  1
  Ta  Ta98  1  0.49449458  0.54113200  0.25457036  1
  Ta  Ta99  1  0.49956129  0.53865499  0.75092172  1
  Ta  Ta100  1  0.51017166  0.81141241  0.24880129  1
  Ta  Ta101  1  0.47523681  0.81628581  0.76060587  1
  Ta  Ta102  1  0.83455005  0.21581766  0.24460192  1
  Ta  Ta103  1  0.81279028  0.14978735  0.74675293  1
  Ta  Ta104  1  0.83335822  0.45322654  0.24540542  1
  Ta  Ta105  1  0.85217455  0.51923899  0.74757475  1
  Ta  Ta106  1  0.88465263  0.83360918  0.24603783  1
  Ta  Ta107  1  0.85771675  0.84130961  0.75072995  1
  Ta  Ta108  1  -0.00483222  -0.03822370  0.24959912  1
  Ta  Ta109  1  -0.04625861  -0.00638832  0.74235114  1
  Ta  Ta110  1  -0.03182023  0.34398466  0.24698319  1
  Ta  Ta111  1  0.04680927  0.34472023  0.75099127  1
  Ta  Ta112  1  0.00055377  0.70364023  0.24811750  1
  Ta  Ta113  1  -0.03446919  0.67136159  0.74965137  1
  Ta  Ta114  1  0.32907923  0.05857727  0.25837300  1
  Ta  Ta115  1  0.33331797  -0.04832710  0.75020165  1
  Ta  Ta116  1  0.33569796  0.27442272  0.25013768  1
  Ta  Ta117  1  0.29478545  0.32923379  0.74528377  1
  Ta  Ta118  1  0.36527567  0.66088598  0.25295181  1
  Ta  Ta119  1  0.34660513  0.68408078  0.75949603  1
  Ta  Ta120  1  0.64547511  -0.02029242  0.24931508  1
  Ta  Ta121  1  0.67463248  0.03529494  0.75180190  1
  Ta  Ta122  1  0.70648000  0.32587169  0.24600236  1
  Ta  Ta123  1  0.67201682  0.28112450  0.75810281  1
  Ta  Ta124  1  0.61748273  0.66649462  0.24890950  1
  Ta  Ta125  1  0.63121044  0.66142900  0.75425004  1
  Ta  Ta126  1  0.01538752  0.01888805  -0.00524959  1
  Ta  Ta127  1  -0.01019270  0.02428634  0.50887178  1
  Ta  Ta128  1  -0.00232291  0.37506288  -0.00417292  1
  Ta  Ta129  1  -0.00100074  0.29591728  0.50147822  1
  Ta  Ta130  1  -0.04386263  0.66303555  -0.01107870  1
  Ta  Ta131  1  0.03293839  0.67094505  0.50498752  1
  Ta  Ta132  1  0.29522140  0.00152019  -0.00574315  1
  Ta  Ta133  1  0.37545714  0.00021194  0.50221641  1
  Ta  Ta134  1  0.37073398  0.34416101  0.00467359  1
  Ta  Ta135  1  0.36297556  0.32147192  0.50274740  1
  Ta  Ta136  1  0.31944039  0.61184484  0.00183393  1
  Ta  Ta137  1  0.29409404  0.65973186  0.49917364  1
  Ta  Ta138  1  0.66581518  -0.04334531  0.00322358  1
  Ta  Ta139  1  0.61994713  -0.00177243  0.49981330  1
  Ta  Ta140  1  0.62064670  0.33187587  -0.00535431  1
  Ta  Ta141  1  0.66565525  0.37944486  0.50388058  1
  Ta  Ta142  1  0.66725840  0.70317250  0.00280917  1
  Ta  Ta143  1  0.66146801  0.61077571  0.50310446  1
  N  N144  1  0.83268345  0.49650218  0.12022079  1
  N  N145  1  0.00330800  0.66703141  0.62544160  1
  N  N146  1  0.32905284  0.65698899  0.88018104  1
  N  N147  1  0.33981007  -0.01000136  0.62884331  1
  N  N148  1  -0.00013309  0.67860172  0.87617081  1
  N  N149  1  0.84619486  0.83044051  0.12511166  1
  N  N150  1  0.18374022  0.82019142  0.62542176  1
  N  N151  1  0.33474422  0.66538561  0.37256630  1
  N  N152  1  0.34243310  0.32218824  0.12680475  1
  N  N153  1  0.66688723  -0.00277373  0.87533336  1
  N  N154  1  0.01217256  0.35087193  0.87706416  1
  N  N155  1  0.00735862  -0.00192679  0.63347772  1
  N  N156  1  0.65809506  0.00193214  0.37355350  1
  N  N157  1  0.82263887  0.49105198  0.37157090  1
  N  N158  1  0.50341783  0.50006801  0.63034524  1
  N  N159  1  0.16837417  0.49864809  0.62116268  1
  N  N160  1  0.16582981  0.82718357  0.36892058  1
  N  N161  1  0.65693459  0.00591120  0.62476512  1
  N  N162  1  0.17431096  0.84145630  0.87761120  1
  N  N163  1  0.16256779  0.84787447  0.12167623  1
  N  N164  1  0.33171591  0.01590864  0.37840092  1
  N  N165  1  0.84010086  0.17347554  0.12296497  1
  N  N166  1  0.66775972  -0.00235370  0.12298485  1
  N  N167  1  0.34077549  0.32347533  0.62272062  1
  N  N168  1  0.66395865  0.32526367  0.87558802  1
  N  N169  1  0.83685980  0.83484908  0.87260000  1
  N  N170  1  0.65478954  0.66658108  0.12886304  1
  N  N171  1  0.17143867  0.16521853  0.11669203  1
  N  N172  1  0.84280824  0.16609652  0.62671484  1
  N  N173  1  0.65127164  0.67026249  0.87603679  1
  N  N174  1  0.16983576  0.16795715  0.86635149  1
  N  N175  1  0.49721925  0.50015635  0.87691580  1
  N  N176  1  0.50461866  0.83525447  0.87798162  1
  O  O177  1  0.15526244  0.50368673  0.37922293  1
  O  O178  1  0.33339476  0.33376131  0.87880232  1
  O  O179  1  -0.00750106  0.34804654  0.12498630  1
  O  O180  1  0.14880458  0.17125364  0.37697245  1
  O  O181  1  0.50362850  0.83236886  0.37414760  1
  O  O182  1  0.65292147  0.64617796  0.37853421  1
  O  O183  1  0.50342614  0.83835864  0.62839679  1
  O  O184  1  0.34696480  0.31012824  0.37487395  1
  O  O185  1  0.14825529  0.17557944  0.62089869  1
  O  O186  1  0.85749129  0.17531505  0.36597916  1
  O  O187  1  0.50836168  0.17390461  0.87493975  1
  O  O188  1  0.49391867  0.16118092  0.37453219  1
  O  O189  1  0.31835750  0.01158911  0.12269830  1
  O  O190  1  0.51100891  0.15826313  0.62695789  1
  O  O191  1  -0.01130324  0.32574054  0.37174572  1
  O  O192  1  0.83395581  0.50867681  0.62281179  1
  O  O193  1  0.33487263  0.64239947  0.12420275  1
  O  O194  1  -0.00802786  0.68195103  0.11795730  1
  O  O195  1  0.84435065  0.83221141  0.37416879  1
  O  O196  1  0.50173927  0.82607162  0.12490714  1
  O  O197  1  0.67533029  0.32980573  0.62474905  1
  O  O198  1  0.00500669  0.68273046  0.37220916  1
  O  O199  1  0.66275238  0.33129029  0.12351008  1
  O  O200  1  -0.00493497  -0.00647116  0.37477708  1
  O  O201  1  0.66992466  0.34107458  0.37889161  1
  O  O202  1  0.33425861  0.66419594  0.62301104  1
  O  O203  1  0.00527419  0.32562317  0.63053087  1
  O  O204  1  0.49447552  0.50889547  0.13071125  1
  O  O205  1  0.32124821  0.00320160  0.86808385  1
  O  O206  1  -0.00518324  0.01010753  0.86710160  1
  O  O207  1  0.49590094  0.52097751  0.38320799  1
  O  O208  1  0.83969172  0.16037903  0.87825830  1
  O  O209  1  0.16227846  0.50169812  0.13069794  1
  O  O210  1  0.17770315  0.48641561  0.87499090  1
  O  O211  1  0.00363305  -0.00556765  0.11860328  1
  O  O212  1  0.82746171  0.83319569  0.62034832  1
  O  O213  1  0.48844127  0.17378408  0.11916274  1
  O  O214  1  0.83484062  0.50091290  0.86908200  1
  O  O215  1  0.65786018  0.64606046  0.62307229  1
