# generated using pymatgen
data_Sr24Ta24N11O13
_symmetry_space_group_name_H-M   'P 1'
_cell_length_a   16.92152391
_cell_length_b   16.67189719
_cell_length_c   15.69770069
_cell_angle_alpha   89.70883014
_cell_angle_beta   89.99206063
_cell_angle_gamma   90.23472558
_symmetry_Int_Tables_number   1
_chemical_formula_structural   Sr24Ta24N11O13
_chemical_formula_sum   'Sr72 Ta72 N33 O39'
_cell_volume   4428.44526563
_cell_formula_units_Z   3
loop_
 _symmetry_equiv_pos_site_id
 _symmetry_equiv_pos_as_xyz
  1  'x, y, z'
loop_
 _atom_site_type_symbol
 _atom_site_label
 _atom_site_symmetry_multiplicity
 _atom_site_fract_x
 _atom_site_fract_y
 _atom_site_fract_z
 _atom_site_occupancy
  Sr  Sr0  1  -0.01813410  0.17768059  0.12058846  1
  Sr  Sr1  1  -0.00178205  0.18550934  0.58432992  1
  Sr  Sr2  1  -0.00313658  0.50962121  0.11259253  1
  Sr  Sr3  1  -0.01968667  0.49125403  0.67185137  1
  Sr  Sr4  1  -0.00393700  0.83620669  0.15914181  1
  Sr  Sr5  1  -0.01413185  0.81931196  0.61248786  1
  Sr  Sr6  1  0.33042820  0.16904021  0.11008574  1
  Sr  Sr7  1  0.29696359  0.16272895  0.66076086  1
  Sr  Sr8  1  0.33231782  0.51099032  0.15693171  1
  Sr  Sr9  1  0.32481084  0.49393595  0.61667567  1
  Sr  Sr10  1  0.30134484  0.84990567  0.10174936  1
  Sr  Sr11  1  0.32011825  0.84153492  0.61101284  1
  Sr  Sr12  1  0.66085388  0.17409401  0.16458998  1
  Sr  Sr13  1  0.64362101  0.16137289  0.61649811  1
  Sr  Sr14  1  0.64682740  0.49254459  0.09794314  1
  Sr  Sr15  1  0.66217521  0.49986298  0.60131186  1
  Sr  Sr16  1  0.66940029  0.83741555  0.11554238  1
  Sr  Sr17  1  0.63098416  0.81606452  0.65747322  1
  Sr  Sr18  1  0.17135948  0.02401231  0.11100287  1
  Sr  Sr19  1  0.17635776  -0.00800588  0.66633318  1
  Sr  Sr20  1  0.20360571  0.34406816  0.16774474  1
  Sr  Sr21  1  0.16851438  0.33200129  0.61572998  1
  Sr  Sr22  1  0.17316877  0.65187496  0.10567470  1
  Sr  Sr23  1  0.17256409  0.67706183  0.59052135  1
  Sr  Sr24  1  0.53108493  -0.00541301  0.14031408  1
  Sr  Sr25  1  0.50163334  -0.01508365  0.60946146  1
  Sr  Sr26  1  0.50923902  0.32701563  0.10511480  1
  Sr  Sr27  1  0.52301906  0.33528578  0.60074524  1
  Sr  Sr28  1  0.51661694  0.66834884  0.11859184  1
  Sr  Sr29  1  0.49001797  0.65747017  0.66568898  1
  Sr  Sr30  1  0.84302745  -0.00338134  0.09431323  1
  Sr  Sr31  1  0.85872474  0.00843298  0.62165800  1
  Sr  Sr32  1  0.83683092  0.34243500  0.11879500  1
  Sr  Sr33  1  0.83864621  0.33039884  0.65025773  1
  Sr  Sr34  1  0.85575954  0.67936536  0.16087811  1
  Sr  Sr35  1  0.82838343  0.66212892  0.61628666  1
  Sr  Sr36  1  -0.00966373  0.17683282  0.38251163  1
  Sr  Sr37  1  0.00418026  0.15550456  0.92306940  1
  Sr  Sr38  1  -0.03314100  0.50267752  0.33739954  1
  Sr  Sr39  1  0.00615095  0.50824136  0.88561350  1
  Sr  Sr40  1  -0.00880263  0.81600136  0.38623227  1
  Sr  Sr41  1  -0.01125248  0.84356252  0.83350149  1
  Sr  Sr42  1  0.30331228  0.16205186  0.34667745  1
  Sr  Sr43  1  0.32217702  0.17152581  0.88341624  1
  Sr  Sr44  1  0.33247445  0.48722710  0.38137978  1
  Sr  Sr45  1  0.33501497  0.50668263  0.84598526  1
  Sr  Sr46  1  0.32356990  0.84919910  0.39492901  1
  Sr  Sr47  1  0.30173124  0.83576058  0.88825156  1
  Sr  Sr48  1  0.64853170  0.15727272  0.38194322  1
  Sr  Sr49  1  0.68782590  0.17171566  0.82386537  1
  Sr  Sr50  1  0.66081717  0.49633546  0.39872848  1
  Sr  Sr51  1  0.65196224  0.48908663  0.90111657  1
  Sr  Sr52  1  0.63823994  0.82547375  0.34700224  1
  Sr  Sr53  1  0.66511021  0.83111498  0.88999605  1
  Sr  Sr54  1  0.17139832  -0.00385396  0.33457122  1
  Sr  Sr55  1  0.17513611  0.00353119  0.88320385  1
  Sr  Sr56  1  0.17471326  0.32819765  0.39416278  1
  Sr  Sr57  1  0.19436593  0.34747032  0.82406784  1
  Sr  Sr58  1  0.18533286  0.65628094  0.39247246  1
  Sr  Sr59  1  0.17158531  0.65802384  0.90388009  1
  Sr  Sr60  1  0.50461549  -0.01050181  0.38463653  1
  Sr  Sr61  1  0.53634535  -0.00296091  0.85496849  1
  Sr  Sr62  1  0.52122546  0.33126710  0.39387529  1
  Sr  Sr63  1  0.50772603  0.32432320  0.88951070  1
  Sr  Sr64  1  0.49682388  0.65900531  0.33772987  1
  Sr  Sr65  1  0.51738468  0.66494012  0.87974574  1
  Sr  Sr66  1  0.86185404  -0.00500177  0.40819806  1
  Sr  Sr67  1  0.84522168  0.00149704  0.88141290  1
  Sr  Sr68  1  0.84238257  0.32438478  0.34839619  1
  Sr  Sr69  1  0.84172759  0.34229989  0.88480506  1
  Sr  Sr70  1  0.82481162  0.66783934  0.38675535  1
  Sr  Sr71  1  0.85421313  0.67399305  0.83929450  1
  Ta  Ta72  1  0.17077373  0.24145632  -0.00036129  1
  Ta  Ta73  1  0.16981176  0.13154922  0.50142747  1
  Ta  Ta74  1  0.18579885  0.45962902  -0.00768990  1
  Ta  Ta75  1  0.11593718  0.49695175  0.50943466  1
  Ta  Ta76  1  0.11684693  0.83054710  -0.00583762  1
  Ta  Ta77  1  0.15386766  0.87513028  0.50323793  1
  Ta  Ta78  1  0.52496258  0.14803834  -0.00215850  1
  Ta  Ta79  1  0.43713153  0.15846321  0.50374114  1
  Ta  Ta80  1  0.45611770  0.50202247  0.00486329  1
  Ta  Ta81  1  0.49179227  0.53767256  0.49906975  1
  Ta  Ta82  1  0.47302551  0.83827633  -0.00672840  1
  Ta  Ta83  1  0.49467168  0.79213520  0.50055434  1
  Ta  Ta84  1  0.79759737  0.17028384  0.00050189  1
  Ta  Ta85  1  0.81282432  0.17640631  0.50747665  1
  Ta  Ta86  1  0.82848447  0.53914642  0.00276646  1
  Ta  Ta87  1  0.84668723  0.47861867  0.49681664  1
  Ta  Ta88  1  0.85387112  0.81436803  -0.00637975  1
  Ta  Ta89  1  0.77017025  0.83725074  0.50683046  1
  Ta  Ta90  1  0.12838025  0.17981628  0.24999942  1
  Ta  Ta91  1  0.11441173  0.17119513  0.74906914  1
  Ta  Ta92  1  0.14495601  0.50843056  0.25583360  1
  Ta  Ta93  1  0.16397378  0.53919618  0.74456871  1
  Ta  Ta94  1  0.17088927  0.80103971  0.25160660  1
  Ta  Ta95  1  0.16215656  0.79903313  0.74874153  1
  Ta  Ta96  1  0.47507558  0.16691136  0.25245463  1
  Ta  Ta97  1  0.47814266  0.16725968  0.74621290  1
  Ta  Ta98  1  0.51627383  0.47562826  0.25164294  1
  Ta  Ta99  1  0.51517350  0.47520871  0.74495379  1
  Ta  Ta100  1  0.45063713  0.83569067  0.24895355  1
  Ta  Ta101  1  0.45144134  0.83669190  0.75300595  1
  Ta  Ta102  1  0.83452987  0.12581232  0.25433293  1
  Ta  Ta103  1  0.89362439  0.16753747  0.75721627  1
  Ta  Ta104  1  0.78501751  0.50365710  0.24864562  1
  Ta  Ta105  1  0.79130918  0.50101337  0.75402059  1
  Ta  Ta106  1  0.82261994  0.86751526  0.25489599  1
  Ta  Ta107  1  0.80587708  0.84967914  0.74584367  1
  Ta  Ta108  1  -0.01573443  0.01932498  0.24428222  1
  Ta  Ta109  1  0.00602841  0.04079796  0.75526319  1
  Ta  Ta110  1  0.02962575  0.33634223  0.25098062  1
  Ta  Ta111  1  0.00630634  0.30072225  0.75245487  1
  Ta  Ta112  1  0.04333663  0.66178439  0.25096543  1
  Ta  Ta113  1  0.03901887  0.66585008  0.74785204  1
  Ta  Ta114  1  0.35836908  -0.00403208  0.23596984  1
  Ta  Ta115  1  0.36413372  -0.00500459  0.76020623  1
  Ta  Ta116  1  0.38412890  0.32361625  0.25040645  1
  Ta  Ta117  1  0.38330786  0.32392644  0.73670882  1
  Ta  Ta118  1  0.32026407  0.70424163  0.24708455  1
  Ta  Ta119  1  0.30541181  0.68471957  0.74584420  1
  Ta  Ta120  1  0.71579984  -0.00186755  0.24748529  1
  Ta  Ta121  1  0.70231756  -0.01714269  0.74980327  1
  Ta  Ta122  1  0.66557940  0.36124073  0.24357893  1
  Ta  Ta123  1  0.66394357  0.36209309  0.75028533  1
  Ta  Ta124  1  0.67432200  0.63361062  0.24686740  1
  Ta  Ta125  1  0.67504131  0.62990125  0.75404518  1
  Ta  Ta126  1  0.00858030  -0.04049525  -0.00084691  1
  Ta  Ta127  1  0.04422022  -0.00081461  0.50162255  1
  Ta  Ta128  1  0.04781197  0.34404474  -0.00245049  1
  Ta  Ta129  1  -0.01114855  0.37890173  0.50599562  1
  Ta  Ta130  1  -0.01319011  0.69568453  -0.00298738  1
  Ta  Ta131  1  -0.00433337  0.61490680  0.50705488  1
  Ta  Ta132  1  0.38754442  0.00096634  -0.01066260  1
  Ta  Ta133  1  0.31309235  0.02403502  0.50850649  1
  Ta  Ta134  1  0.32556733  0.35749863  0.00249475  1
  Ta  Ta135  1  0.34761276  0.29519926  0.50764663  1
  Ta  Ta136  1  0.35696913  0.66154058  -0.00702254  1
  Ta  Ta137  1  0.37211549  0.66930766  0.50291118  1
  Ta  Ta138  1  0.67437296  0.04787612  -0.00160132  1
  Ta  Ta139  1  0.68524903  -0.01882324  0.50158029  1
  Ta  Ta140  1  0.67440180  0.28414690  -0.00456817  1
  Ta  Ta141  1  0.71286670  0.32008136  0.50326040  1
  Ta  Ta142  1  0.72108194  0.66639564  -0.00416514  1
  Ta  Ta143  1  0.63524663  0.68046229  0.50625786  1
  N  N144  1  0.81891816  0.49621963  0.37483319  1
  N  N145  1  0.65673432  0.66266289  0.62703218  1
  N  N146  1  0.67080778  0.33039934  0.12430062  1
  N  N147  1  0.33084316  0.00459527  0.63097828  1
  N  N148  1  0.00709168  0.66747370  0.87632288  1
  N  N149  1  0.14989672  0.16557330  0.37073039  1
  N  N150  1  0.32878001  0.01100646  0.88336651  1
  N  N151  1  0.48972023  0.50081981  0.12449366  1
  N  N152  1  0.17304116  0.49708744  0.87429142  1
  N  N153  1  -0.00328119  0.65815486  0.62221365  1
  N  N154  1  0.68668272  0.00766189  0.87090178  1
  N  N155  1  0.49672307  0.49967892  0.37736953  1
  N  N156  1  0.47916988  0.82592836  0.63238113  1
  N  N157  1  0.32686527  0.33133114  0.63000388  1
  N  N158  1  0.33764175  0.66512264  0.87285052  1
  N  N159  1  0.67834401  0.32962577  0.62393741  1
  N  N160  1  0.48070425  0.82838053  0.37022103  1
  N  N161  1  0.00173309  0.00325352  0.12389114  1
  N  N162  1  0.35061907  0.33755437  0.13001433  1
  N  N163  1  0.01110496  0.66805609  0.13104889  1
  N  N164  1  0.15444205  0.83806394  0.62149617  1
  N  N165  1  0.67239960  0.32397269  0.87519487  1
  N  N166  1  0.15937222  0.49293001  0.63092713  1
  N  N167  1  0.67816191  0.66641635  0.87971894  1
  N  N168  1  0.83363590  0.83514376  0.87212244  1
  N  N169  1  0.34291063  0.00879657  0.11325552  1
  N  N170  1  0.50179751  0.49609129  0.62455263  1
  N  N171  1  0.00469946  0.00169199  0.87775285  1
  N  N172  1  0.33168713  0.66762978  0.62109457  1
  N  N173  1  -0.00108880  0.33879439  0.62620792  1
  N  N174  1  0.14985454  0.83186592  0.87257138  1
  N  N175  1  0.68349038  0.00817231  0.12232590  1
  N  N176  1  0.14812973  0.16342582  0.62110795  1
  O  O177  1  0.02063701  0.34578129  0.87309344  1
  O  O178  1  0.48701914  0.14926442  0.61825936  1
  O  O179  1  0.32594889  0.00524069  0.36376746  1
  O  O180  1  0.35301541  0.32917445  0.38118642  1
  O  O181  1  0.68096342  0.33245491  0.37623317  1
  O  O182  1  0.16729339  0.19439591  0.12133587  1
  O  O183  1  0.84533112  0.17001889  0.63060971  1
  O  O184  1  0.49154243  0.48957391  0.88087704  1
  O  O185  1  0.33400968  0.68409599  0.37325084  1
  O  O186  1  0.67519325  -0.00140133  0.37577185  1
  O  O187  1  0.16917251  0.49499261  0.12912605  1
  O  O188  1  0.47786013  0.15180845  0.37775834  1
  O  O189  1  0.00247929  0.65643047  0.37747506  1
  O  O190  1  0.81743777  0.50459655  0.88256134  1
  O  O191  1  0.81866978  0.49708939  0.62833435  1
  O  O192  1  0.32831762  0.68210495  0.12325726  1
  O  O193  1  0.67420279  0.65837259  0.12126309  1
  O  O194  1  0.50825586  0.16207361  0.86598661  1
  O  O195  1  0.15573531  0.49852915  0.38097311  1
  O  O196  1  0.66875799  0.00494933  0.62326458  1
  O  O197  1  0.83579784  0.84070090  0.13035251  1
  O  O198  1  0.16520235  0.83215952  0.37545165  1
  O  O199  1  0.34842936  0.33355122  0.86292433  1
  O  O200  1  0.01716679  0.00446269  0.37505929  1
  O  O201  1  0.82545756  0.14938366  0.37957232  1
  O  O202  1  0.50445824  0.15786303  0.12346507  1
  O  O203  1  0.82082210  0.81904213  0.61871950  1
  O  O204  1  0.81373919  0.84391353  0.38109878  1
  O  O205  1  0.47754400  0.82970296  0.11773363  1
  O  O206  1  0.82988956  0.15654248  0.12839522  1
  O  O207  1  0.84918588  0.17101658  0.87760724  1
  O  O208  1  0.66111963  0.65603795  0.37213766  1
  O  O209  1  0.16526259  0.19683251  0.87919325  1
  O  O210  1  0.01617038  0.00204390  0.62790742  1
  O  O211  1  0.50798000  0.82469861  0.87069785  1
  O  O212  1  0.15407186  0.81252173  0.12555039  1
  O  O213  1  0.02419938  0.34817968  0.12621829  1
  O  O214  1  0.00353865  0.34209980  0.37637810  1
  O  O215  1  0.83967340  0.52172669  0.13098411  1
