# generated using pymatgen
data_Sr24Ta24N11O13
_symmetry_space_group_name_H-M   'P 1'
_cell_length_a   16.75048529
_cell_length_b   16.70010473
_cell_length_c   15.77833996
_cell_angle_alpha   89.84935530
_cell_angle_beta   89.94017119
_cell_angle_gamma   90.46880157
_symmetry_Int_Tables_number   1
_chemical_formula_structural   Sr24Ta24N11O13
_chemical_formula_sum   'Sr72 Ta72 N33 O39'
_cell_volume   4413.58619399
_cell_formula_units_Z   3
loop_
 _symmetry_equiv_pos_site_id
 _symmetry_equiv_pos_as_xyz
  1  'x, y, z'
loop_
 _atom_site_type_symbol
 _atom_site_label
 _atom_site_symmetry_multiplicity
 _atom_site_fract_x
 _atom_site_fract_y
 _atom_site_fract_z
 _atom_site_occupancy
  Sr  Sr0  1  -0.00990316  0.15117730  0.10839729  1
  Sr  Sr1  1  -0.00223202  0.16439574  0.65870286  1
  Sr  Sr2  1  -0.01130197  0.51597439  0.07258754  1
  Sr  Sr3  1  0.02074746  0.49584787  0.63132546  1
  Sr  Sr4  1  -0.01129614  0.82309046  0.16664912  1
  Sr  Sr5  1  -0.00375746  0.84819358  0.61519944  1
  Sr  Sr6  1  0.33808025  0.16655949  0.10959442  1
  Sr  Sr7  1  0.31865188  0.15845126  0.61164317  1
  Sr  Sr8  1  0.34707755  0.48902738  0.13163101  1
  Sr  Sr9  1  0.36621799  0.51438029  0.58166169  1
  Sr  Sr10  1  0.31435507  0.83274436  0.11252321  1
  Sr  Sr11  1  0.34308396  0.82480096  0.66749018  1
  Sr  Sr12  1  0.65547650  0.16951094  0.13525859  1
  Sr  Sr13  1  0.68616472  0.16369836  0.62957142  1
  Sr  Sr14  1  0.68003046  0.50669608  0.16560667  1
  Sr  Sr15  1  0.68243227  0.49821250  0.63563885  1
  Sr  Sr16  1  0.67487969  0.83237520  0.10216679  1
  Sr  Sr17  1  0.65966427  0.83302552  0.59913894  1
  Sr  Sr18  1  0.14110967  -0.01970951  0.14364676  1
  Sr  Sr19  1  0.16189360  -0.00221300  0.58989834  1
  Sr  Sr20  1  0.17714067  0.34136127  0.16450780  1
  Sr  Sr21  1  0.15343724  0.31705668  0.63512525  1
  Sr  Sr22  1  0.15360851  0.65446188  0.09214359  1
  Sr  Sr23  1  0.17251691  0.67369415  0.63673645  1
  Sr  Sr24  1  0.50146450  0.01146929  0.15959811  1
  Sr  Sr25  1  0.48010291  0.00651368  0.63248805  1
  Sr  Sr26  1  0.48842902  0.32408347  0.08266057  1
  Sr  Sr27  1  0.50875346  0.35301282  0.63781077  1
  Sr  Sr28  1  0.48898157  0.65884987  0.13179730  1
  Sr  Sr29  1  0.50532618  0.67842962  0.59939680  1
  Sr  Sr30  1  0.81253114  -0.00265296  0.08499989  1
  Sr  Sr31  1  0.83688735  -0.00156431  0.63337237  1
  Sr  Sr32  1  0.82651017  0.32757918  0.14460499  1
  Sr  Sr33  1  0.83784470  0.35820034  0.57735866  1
  Sr  Sr34  1  0.82837167  0.67070890  0.12437415  1
  Sr  Sr35  1  0.82472749  0.65596802  0.67023785  1
  Sr  Sr36  1  -0.00052653  0.18906767  0.32207315  1
  Sr  Sr37  1  -0.00715997  0.15860672  0.88723018  1
  Sr  Sr38  1  0.00256453  0.49217081  0.41483218  1
  Sr  Sr39  1  0.01984414  0.50110918  0.86627605  1
  Sr  Sr40  1  0.00046863  0.83983285  0.38700978  1
  Sr  Sr41  1  -0.01851218  0.83758169  0.83599563  1
  Sr  Sr42  1  0.33570779  0.16029620  0.39886262  1
  Sr  Sr43  1  0.32689726  0.16636862  0.87946667  1
  Sr  Sr44  1  0.33629974  0.50041173  0.36345271  1
  Sr  Sr45  1  0.37357354  0.48174939  0.90119785  1
  Sr  Sr46  1  0.34641013  0.83463773  0.33243510  1
  Sr  Sr47  1  0.32579498  0.83261941  0.88314766  1
  Sr  Sr48  1  0.67328343  0.16553164  0.36904945  1
  Sr  Sr49  1  0.65885686  0.16354438  0.85213623  1
  Sr  Sr50  1  0.69535804  0.49466939  0.36716259  1
  Sr  Sr51  1  0.67257044  0.50455464  0.84449370  1
  Sr  Sr52  1  0.66528942  0.83512317  0.39614675  1
  Sr  Sr53  1  0.67015429  0.82753138  0.90381408  1
  Sr  Sr54  1  0.15474034  -0.01459815  0.37000359  1
  Sr  Sr55  1  0.17845904  0.00612459  0.92747772  1
  Sr  Sr56  1  0.16164926  0.32919191  0.36264347  1
  Sr  Sr57  1  0.15991575  0.32386521  0.83490754  1
  Sr  Sr58  1  0.14831273  0.65419777  0.41391994  1
  Sr  Sr59  1  0.17087880  0.67471553  0.86378923  1
  Sr  Sr60  1  0.48943393  0.01153761  0.36724763  1
  Sr  Sr61  1  0.48700838  0.00586828  0.83594291  1
  Sr  Sr62  1  0.47811782  0.33438454  0.41184439  1
  Sr  Sr63  1  0.52627753  0.33923673  0.86576692  1
  Sr  Sr64  1  0.48517395  0.65704322  0.36547626  1
  Sr  Sr65  1  0.49390777  0.68701001  0.90089058  1
  Sr  Sr66  1  0.81902889  -0.01645983  0.41955166  1
  Sr  Sr67  1  0.83293837  0.00938653  0.86427729  1
  Sr  Sr68  1  0.82420249  0.32098950  0.36084221  1
  Sr  Sr69  1  0.87092771  0.33852451  0.92625198  1
  Sr  Sr70  1  0.83721343  0.68050050  0.33426575  1
  Sr  Sr71  1  0.82587815  0.66050769  0.88103168  1
  Ta  Ta72  1  0.16447169  0.20480719  0.00381273  1
  Ta  Ta73  1  0.12297655  0.17180505  0.49355593  1
  Ta  Ta74  1  0.18870814  0.47491483  -0.00482072  1
  Ta  Ta75  1  0.18705385  0.47083645  0.50487648  1
  Ta  Ta76  1  0.11891772  0.82781060  -0.00006126  1
  Ta  Ta77  1  0.21120843  0.82837505  0.49970338  1
  Ta  Ta78  1  0.50239795  0.13566534  -0.00058480  1
  Ta  Ta79  1  0.52467603  0.16816835  0.50005441  1
  Ta  Ta80  1  0.55399157  0.50078711  0.00946217  1
  Ta  Ta81  1  0.55059041  0.50321602  0.49638893  1
  Ta  Ta82  1  0.49714063  0.87827356  -0.00469359  1
  Ta  Ta83  1  0.47193504  0.84860585  0.50309990  1
  Ta  Ta84  1  0.79864373  0.17595015  -0.00290430  1
  Ta  Ta85  1  0.87380728  0.16837908  0.49207849  1
  Ta  Ta86  1  0.79398313  0.49897613  0.00344108  1
  Ta  Ta87  1  0.83338994  0.55931496  0.50148325  1
  Ta  Ta88  1  0.86447022  0.82848130  -0.00302639  1
  Ta  Ta89  1  0.83141603  0.77748699  0.51006611  1
  Ta  Ta90  1  0.19256359  0.15098355  0.24675025  1
  Ta  Ta91  1  0.16834639  0.12155032  0.75332313  1
  Ta  Ta92  1  0.14454033  0.52004511  0.24996534  1
  Ta  Ta93  1  0.24175352  0.49168708  0.74503458  1
  Ta  Ta94  1  0.16298175  0.78627890  0.24996036  1
  Ta  Ta95  1  0.16108787  0.87134649  0.75882353  1
  Ta  Ta96  1  0.48824645  0.20174453  0.25283706  1
  Ta  Ta97  1  0.47182145  0.18948759  0.74637847  1
  Ta  Ta98  1  0.50609962  0.45310091  0.24862768  1
  Ta  Ta99  1  0.49782432  0.53726260  0.74404682  1
  Ta  Ta100  1  0.53405298  0.83287296  0.24790177  1
  Ta  Ta101  1  0.53045704  0.82809925  0.75131133  1
  Ta  Ta102  1  0.82515983  0.11342549  0.25335409  1
  Ta  Ta103  1  0.83785488  0.21524953  0.75444694  1
  Ta  Ta104  1  0.87812060  0.50220235  0.24468794  1
  Ta  Ta105  1  0.85068703  0.46681610  0.76157822  1
  Ta  Ta106  1  0.81223354  0.86659441  0.24665396  1
  Ta  Ta107  1  0.79356491  0.83119505  0.75112384  1
  Ta  Ta108  1  -0.05266365  -0.00139669  0.24758728  1
  Ta  Ta109  1  0.04771652  0.00222880  0.76181246  1
  Ta  Ta110  1  0.00307887  0.39804943  0.24339429  1
  Ta  Ta111  1  -0.04227031  0.33683975  0.74464752  1
  Ta  Ta112  1  0.01882768  0.63177997  0.24445191  1
  Ta  Ta113  1  -0.00317268  0.66583151  0.75513340  1
  Ta  Ta114  1  0.31477490  0.02105855  0.25204302  1
  Ta  Ta115  1  0.29100592  0.00381773  0.74978733  1
  Ta  Ta116  1  0.35979116  0.31654338  0.24955869  1
  Ta  Ta117  1  0.34078476  0.33551632  0.74665936  1
  Ta  Ta118  1  0.27863611  0.65901927  0.25675431  1
  Ta  Ta119  1  0.35171747  0.63300239  0.74292041  1
  Ta  Ta120  1  0.68336568  -0.01561045  0.25657550  1
  Ta  Ta121  1  0.66313025  -0.03514301  0.74825275  1
  Ta  Ta122  1  0.62162664  0.33119476  0.25227619  1
  Ta  Ta123  1  0.73307118  0.33696737  0.75475926  1
  Ta  Ta124  1  0.65353047  0.70014419  0.24722710  1
  Ta  Ta125  1  0.64284396  0.68903878  0.75681530  1
  Ta  Ta126  1  -0.00745010  -0.04250355  0.00085286  1
  Ta  Ta127  1  -0.00184659  0.05384844  0.49167986  1
  Ta  Ta128  1  0.06459718  0.33902611  0.00237056  1
  Ta  Ta129  1  0.00818820  0.29646926  0.49796190  1
  Ta  Ta130  1  -0.00925776  0.71072415  0.00156883  1
  Ta  Ta131  1  -0.03736675  0.67016875  0.50273699  1
  Ta  Ta132  1  0.37367214  0.00072259  -0.00318622  1
  Ta  Ta133  1  0.33122883  -0.04449225  0.50010096  1
  Ta  Ta134  1  0.28276441  0.33028225  0.00378459  1
  Ta  Ta135  1  0.29810800  0.34157253  0.49581749  1
  Ta  Ta136  1  0.32088712  0.64465903  0.00113092  1
  Ta  Ta137  1  0.32964895  0.70782920  0.49645924  1
  Ta  Ta138  1  0.62685932  0.01318406  -0.00979898  1
  Ta  Ta139  1  0.63174781  0.01398512  0.50534689  1
  Ta  Ta140  1  0.67875260  0.35506241  0.00815707  1
  Ta  Ta141  1  0.65046356  0.33296074  0.49709409  1
  Ta  Ta142  1  0.66160394  0.63240520  0.00404406  1
  Ta  Ta143  1  0.69168266  0.65202826  0.49906688  1
  N  N144  1  0.82862384  0.83845531  0.12856563  1
  N  N145  1  0.32778535  0.32906715  0.12232671  1
  N  N146  1  -0.00751741  0.32926002  0.61937005  1
  N  N147  1  0.32052095  0.66434918  0.37341344  1
  N  N148  1  0.34043918  0.66844906  0.62247821  1
  N  N149  1  0.82912986  0.82381451  0.62452938  1
  N  N150  1  0.83862803  0.49981087  0.12427614  1
  N  N151  1  0.83067429  0.17418614  0.88066923  1
  N  N152  1  0.32126403  0.32829818  0.37503249  1
  N  N153  1  0.52236355  0.51247148  0.62243405  1
  N  N154  1  0.15290793  0.81828484  0.13209759  1
  N  N155  1  0.66604889  0.33082488  0.37655085  1
  N  N156  1  0.32182903  -0.00834350  0.62685890  1
  N  N157  1  0.66565863  -0.00092992  0.62231956  1
  N  N158  1  0.66006214  0.66708953  0.87644113  1
  N  N159  1  0.49502556  0.83910489  0.62446654  1
  N  N160  1  -0.01811165  -0.00659967  0.12844077  1
  N  N161  1  0.82647449  0.83310021  0.87449310  1
  N  N162  1  0.66264750  -0.00533523  0.37757732  1
  N  N163  1  0.49882560  0.17160021  0.37865438  1
  N  N164  1  0.32613854  -0.00426138  0.37341320  1
  N  N165  1  0.49774051  0.16534442  0.12080546  1
  N  N166  1  0.66421477  0.67231424  0.12843827  1
  N  N167  1  0.00636904  0.00162310  0.88139187  1
  N  N168  1  0.83501870  0.15997140  0.37057829  1
  N  N169  1  0.66025451  0.00245100  0.87152681  1
  N  N170  1  -0.00397799  0.66552094  0.12663081  1
  N  N171  1  0.33244018  -0.00079372  0.87985641  1
  N  N172  1  0.16113679  0.83732840  0.87750234  1
  N  N173  1  0.84354043  0.49449782  0.88501399  1
  N  N174  1  0.49832398  0.84408338  0.87562481  1
  N  N175  1  0.51051602  0.49098977  0.12651691  1
  N  N176  1  0.66302337  0.33355831  0.12929205  1
  O  O177  1  0.84775019  0.52592726  0.37703993  1
  O  O178  1  0.51766509  0.84887909  0.12527960  1
  O  O179  1  0.31921416  0.32819242  0.87204805  1
  O  O180  1  0.16251560  0.49486553  0.38315705  1
  O  O181  1  0.52019543  0.49766838  0.86665047  1
  O  O182  1  0.84272881  0.17797844  0.61907169  1
  O  O183  1  0.69042039  0.34085472  0.62698494  1
  O  O184  1  0.00810623  0.01208040  0.61690026  1
  O  O185  1  0.17265843  0.83689886  0.62380927  1
  O  O186  1  0.16893422  0.49891643  0.11791789  1
  O  O187  1  0.65724026  0.00052225  0.11886124  1
  O  O188  1  0.51265711  0.49844077  0.37501413  1
  O  O189  1  0.48113153  0.18147451  0.62294020  1
  O  O190  1  0.15567992  0.15821913  0.62616571  1
  O  O191  1  0.20309191  0.48475340  0.86357095  1
  O  O192  1  0.00734810  0.34597127  0.36369997  1
  O  O193  1  0.19130100  0.48711601  0.63353871  1
  O  O194  1  0.31295928  0.64887087  0.12666625  1
  O  O195  1  0.83943600  0.50903109  0.62217894  1
  O  O196  1  0.67969478  0.66764136  0.36845873  1
  O  O197  1  -0.00863495  0.65796020  0.37638892  1
  O  O198  1  0.16088934  0.82474105  0.38088863  1
  O  O199  1  0.17454702  0.15502816  0.12209395  1
  O  O200  1  -0.00677497  0.00190595  0.37583753  1
  O  O201  1  0.34262227  0.00320013  0.12722741  1
  O  O202  1  0.50757704  0.83824924  0.37193306  1
  O  O203  1  0.33464664  0.64815116  0.87766820  1
  O  O204  1  0.81684151  0.15288236  0.12510891  1
  O  O205  1  0.16836709  0.16553238  0.87784512  1
  O  O206  1  -0.01419469  0.67030611  0.63291361  1
  O  O207  1  -0.00010523  0.66167293  0.88076274  1
  O  O208  1  0.82180683  0.82680904  0.38628262  1
  O  O209  1  0.16535883  0.16492814  0.36862093  1
  O  O210  1  0.66926875  0.66286495  0.62511236  1
  O  O211  1  0.48775012  0.17879564  0.87178456  1
  O  O212  1  0.68095620  0.34212027  0.86896052  1
  O  O213  1  0.01635008  0.34341539  0.87986237  1
  O  O214  1  0.02605985  0.36504546  0.11958417  1
  O  O215  1  0.33172145  0.32304903  0.62254467  1
