# generated using pymatgen
data_Sr24Ta24N11O13
_symmetry_space_group_name_H-M   'P 1'
_cell_length_a   16.78509501
_cell_length_b   16.80131174
_cell_length_c   15.67834929
_cell_angle_alpha   90.27602305
_cell_angle_beta   89.80440348
_cell_angle_gamma   90.07679744
_symmetry_Int_Tables_number   1
_chemical_formula_structural   Sr24Ta24N11O13
_chemical_formula_sum   'Sr72 Ta72 N33 O39'
_cell_volume   4421.39563967
_cell_formula_units_Z   3
loop_
 _symmetry_equiv_pos_site_id
 _symmetry_equiv_pos_as_xyz
  1  'x, y, z'
loop_
 _atom_site_type_symbol
 _atom_site_label
 _atom_site_symmetry_multiplicity
 _atom_site_fract_x
 _atom_site_fract_y
 _atom_site_fract_z
 _atom_site_occupancy
  Sr  Sr0  1  0.00460886  0.16606157  0.16048359  1
  Sr  Sr1  1  0.01300363  0.17889684  0.61820067  1
  Sr  Sr2  1  0.00012060  0.50241633  0.11575333  1
  Sr  Sr3  1  0.00703904  0.54214770  0.66727127  1
  Sr  Sr4  1  -0.05819643  0.86223606  0.14181254  1
  Sr  Sr5  1  -0.00154349  0.83548590  0.58965068  1
  Sr  Sr6  1  0.33158125  0.14813341  0.12020400  1
  Sr  Sr7  1  0.36179056  0.17457771  0.62088835  1
  Sr  Sr8  1  0.34969802  0.50337587  0.07621778  1
  Sr  Sr9  1  0.32456864  0.47965282  0.62796676  1
  Sr  Sr10  1  0.33818905  0.80727066  0.16381704  1
  Sr  Sr11  1  0.31757739  0.86202531  0.60434684  1
  Sr  Sr12  1  0.68136471  0.19871648  0.10737967  1
  Sr  Sr13  1  0.67725715  0.18236908  0.62522022  1
  Sr  Sr14  1  0.65260076  0.51592183  0.17395539  1
  Sr  Sr15  1  0.67999570  0.50697153  0.61033026  1
  Sr  Sr16  1  0.63456431  0.83173417  0.09462181  1
  Sr  Sr17  1  0.68442008  0.84666760  0.65249155  1
  Sr  Sr18  1  0.16152211  -0.01851716  0.08737526  1
  Sr  Sr19  1  0.15243183  -0.00514512  0.63243641  1
  Sr  Sr20  1  0.15464729  0.30967514  0.16644669  1
  Sr  Sr21  1  0.16687673  0.32598372  0.60478566  1
  Sr  Sr22  1  0.16991880  0.65809863  0.11052170  1
  Sr  Sr23  1  0.18558998  0.65158362  0.65716491  1
  Sr  Sr24  1  0.47219787  -0.03399308  0.14652845  1
  Sr  Sr25  1  0.50613267  0.00862480  0.60031867  1
  Sr  Sr26  1  0.50074101  0.33039377  0.11147115  1
  Sr  Sr27  1  0.51558338  0.31993660  0.67920746  1
  Sr  Sr28  1  0.50187201  0.67316930  0.12397746  1
  Sr  Sr29  1  0.47875024  0.58699417  0.53963788  1
  Sr  Sr30  1  0.80508540  0.02289955  0.12134663  1
  Sr  Sr31  1  0.84591214  0.02544999  0.67970640  1
  Sr  Sr32  1  0.84295560  0.34885170  0.09583570  1
  Sr  Sr33  1  0.83783044  0.33670278  0.60058654  1
  Sr  Sr34  1  0.82815744  0.65245812  0.17760364  1
  Sr  Sr35  1  0.83594745  0.68659759  0.61167897  1
  Sr  Sr36  1  0.01364263  0.18097608  0.38646865  1
  Sr  Sr37  1  0.01098463  0.15213781  0.83678484  1
  Sr  Sr38  1  0.01857185  0.51746231  0.33209723  1
  Sr  Sr39  1  -0.00683144  0.50340027  0.89123877  1
  Sr  Sr40  1  -0.02428436  0.83991547  0.37177343  1
  Sr  Sr41  1  0.02738562  0.83799518  0.94502016  1
  Sr  Sr42  1  0.35680499  0.17912384  0.33926970  1
  Sr  Sr43  1  0.34410705  0.16190744  0.89933829  1
  Sr  Sr44  1  0.32594141  0.49718590  0.41624482  1
  Sr  Sr45  1  0.33831525  0.50218010  0.86311131  1
  Sr  Sr46  1  0.34609797  0.83446857  0.37386077  1
  Sr  Sr47  1  0.31389101  0.83581230  0.80764327  1
  Sr  Sr48  1  0.68136525  0.17141441  0.37782036  1
  Sr  Sr49  1  0.67678717  0.19517703  0.88751592  1
  Sr  Sr50  1  0.65871340  0.50142752  0.38652909  1
  Sr  Sr51  1  0.66558021  0.52634302  0.83945216  1
  Sr  Sr52  1  0.65504169  0.86798143  0.44304897  1
  Sr  Sr53  1  0.65242503  0.82118432  0.86697205  1
  Sr  Sr54  1  0.14572556  -0.03275263  0.42095901  1
  Sr  Sr55  1  0.17063785  -0.00473613  0.87065490  1
  Sr  Sr56  1  0.17198765  0.33528903  0.38067727  1
  Sr  Sr57  1  0.14733494  0.31009229  0.85543868  1
  Sr  Sr58  1  0.17329559  0.66074720  0.35125935  1
  Sr  Sr59  1  0.15261164  0.65290174  0.88112526  1
  Sr  Sr60  1  0.48622032  0.00123351  0.38965542  1
  Sr  Sr61  1  0.49217365  -0.03152663  0.85719746  1
  Sr  Sr62  1  0.51865085  0.31982055  0.32510105  1
  Sr  Sr63  1  0.48638471  0.33799473  0.88722487  1
  Sr  Sr64  1  0.48463403  0.67040931  0.35139289  1
  Sr  Sr65  1  0.51368263  0.66819184  0.88646479  1
  Sr  Sr66  1  0.84763006  0.01852905  0.32910745  1
  Sr  Sr67  1  0.82432662  -0.01443667  0.89832334  1
  Sr  Sr68  1  0.83267419  0.33044182  0.40701951  1
  Sr  Sr69  1  0.84296697  0.34785479  0.90056113  1
  Sr  Sr70  1  0.83696053  0.68534295  0.39151742  1
  Sr  Sr71  1  0.80113489  0.66408413  0.82837522  1
  Ta  Ta72  1  0.14810365  0.17184946  0.00692177  1
  Ta  Ta73  1  0.20644906  0.15634639  0.48928101  1
  Ta  Ta74  1  0.16574295  0.44754434  0.00432011  1
  Ta  Ta75  1  0.13451747  0.51479047  0.49969160  1
  Ta  Ta76  1  0.23055305  0.81829132  -0.01092021  1
  Ta  Ta77  1  0.16459240  0.78270355  0.50404406  1
  Ta  Ta78  1  0.51154637  0.12129147  0.00530012  1
  Ta  Ta79  1  0.51122910  0.20630722  0.49675699  1
  Ta  Ta80  1  0.53938879  0.50655473  -0.00168318  1
  Ta  Ta81  1  0.49988272  0.40929137  0.50366581  1
  Ta  Ta82  1  0.41681383  0.82229861  -0.02721532  1
  Ta  Ta83  1  0.49240599  0.78144871  0.52528793  1
  Ta  Ta84  1  0.88252705  0.17016587  0.00074445  1
  Ta  Ta85  1  0.84653747  0.13983722  0.50608392  1
  Ta  Ta86  1  0.80838021  0.53406535  -0.00222957  1
  Ta  Ta87  1  0.89550851  0.51504036  0.49904446  1
  Ta  Ta88  1  0.80870764  0.78119883  0.00503638  1
  Ta  Ta89  1  0.83229047  0.89165770  0.50605130  1
  Ta  Ta90  1  0.17409192  0.11558412  0.25421318  1
  Ta  Ta91  1  0.20730156  0.16195103  0.74638197  1
  Ta  Ta92  1  0.20668945  0.49191471  0.25063273  1
  Ta  Ta93  1  0.16331832  0.46285370  0.74785688  1
  Ta  Ta94  1  0.15002848  0.83923400  0.24441222  1
  Ta  Ta95  1  0.12607333  0.82533019  0.75296443  1
  Ta  Ta96  1  0.53898830  0.13300884  0.24892146  1
  Ta  Ta97  1  0.51319868  0.13766367  0.74883330  1
  Ta  Ta98  1  0.46294038  0.49521653  0.24770227  1
  Ta  Ta99  1  0.49992396  0.51493812  0.73836490  1
  Ta  Ta100  1  0.55956940  0.83850442  0.29092374  1
  Ta  Ta101  1  0.48684925  0.80078919  0.71488393  1
  Ta  Ta102  1  0.83545579  0.21520522  0.24433462  1
  Ta  Ta103  1  0.83775658  0.21596680  0.75058000  1
  Ta  Ta104  1  0.83929011  0.46192249  0.25885910  1
  Ta  Ta105  1  0.84054699  0.47169241  0.74975039  1
  Ta  Ta106  1  0.76155120  0.84293010  0.26651492  1
  Ta  Ta107  1  0.86454162  0.83959746  0.75720493  1
  Ta  Ta108  1  0.04762753  -0.00352122  0.25853008  1
  Ta  Ta109  1  0.00003496  -0.05911169  0.76626562  1
  Ta  Ta110  1  -0.03377632  0.34255295  0.25398654  1
  Ta  Ta111  1  -0.01848701  0.35003889  0.75127757  1
  Ta  Ta112  1  0.01525324  0.69980150  0.24147808  1
  Ta  Ta113  1  -0.00807382  0.72810049  0.76067510  1
  Ta  Ta114  1  0.27745373  -0.01151774  0.24891818  1
  Ta  Ta115  1  0.33497145  0.03389151  0.74427822  1
  Ta  Ta116  1  0.33602090  0.37651092  0.24615505  1
  Ta  Ta117  1  0.30822605  0.31690786  0.75697993  1
  Ta  Ta118  1  0.33090494  0.61352419  0.24688712  1
  Ta  Ta119  1  0.39035426  0.66218954  0.71623186  1
  Ta  Ta120  1  0.65068885  -0.00976678  0.26115482  1
  Ta  Ta121  1  0.65547608  0.03209218  0.75643114  1
  Ta  Ta122  1  0.71039304  0.34344826  0.24620558  1
  Ta  Ta123  1  0.70726935  0.34934831  0.75006161  1
  Ta  Ta124  1  0.66225544  0.70565871  0.27105284  1
  Ta  Ta125  1  0.58618906  0.67389440  0.68665876  1
  Ta  Ta126  1  -0.00417045  0.04011890  0.00200048  1
  Ta  Ta127  1  -0.04466023  0.01062219  0.50070216  1
  Ta  Ta128  1  0.02194739  0.30694559  0.00515167  1
  Ta  Ta129  1  0.00622378  0.38711246  0.49636947  1
  Ta  Ta130  1  -0.07010788  0.67154820  -0.00133019  1
  Ta  Ta131  1  0.02063218  0.65406045  0.49240721  1
  Ta  Ta132  1  0.33852183  -0.03340873  -0.00708193  1
  Ta  Ta133  1  0.31434362  0.03455593  0.49163606  1
  Ta  Ta134  1  0.28486879  0.32736107  0.00207787  1
  Ta  Ta135  1  0.36072519  0.31589849  0.49022596  1
  Ta  Ta136  1  0.33528433  0.68564476  -0.02278642  1
  Ta  Ta137  1  0.31863539  0.68497045  0.49777823  1
  Ta  Ta138  1  0.63490471  0.01927866  0.00626194  1
  Ta  Ta139  1  0.73147221  0.02384208  0.50798276  1
  Ta  Ta140  1  0.66952821  0.39985871  0.00348904  1
  Ta  Ta141  1  0.64086091  0.33175015  0.50364496  1
  Ta  Ta142  1  0.69212835  0.64240603  0.02459102  1
  Ta  Ta143  1  0.64099052  0.68844872  0.50034065  1
  N  N144  1  0.51555597  0.16780223  0.62401455  1
  N  N145  1  0.84969679  0.18124599  0.63292140  1
  N  N146  1  0.84045198  0.18035756  0.12265477  1
  N  N147  1  0.49751036  0.46062505  0.62555387  1
  N  N148  1  0.16881077  0.15161637  0.12704636  1
  N  N149  1  0.67598022  0.34320821  0.62961766  1
  N  N150  1  0.15852303  0.82140445  0.62026908  1
  N  N151  1  0.81217935  0.85454668  0.37717094  1
  N  N152  1  0.00427685  0.67820543  0.36258917  1
  N  N153  1  -0.00383329  0.33533860  0.87308426  1
  N  N154  1  0.16265910  0.49303603  0.62791788  1
  N  N155  1  0.00490257  0.34337472  0.38018024  1
  N  N156  1  0.51752569  0.16410384  0.37018087  1
  N  N157  1  0.50670417  0.50337068  0.87210236  1
  N  N158  1  0.83083990  0.51069921  0.87016509  1
  N  N159  1  0.33269876  -0.00382916  0.86697284  1
  N  N160  1  0.67448352  0.35796250  0.12414915  1
  N  N161  1  0.49952415  0.50151120  0.12545547  1
  N  N162  1  0.17393749  0.82307729  0.88050612  1
  N  N163  1  0.33420597  0.01191961  0.61421027  1
  N  N164  1  0.33134491  0.65797050  0.36821322  1
  N  N165  1  0.31670158  -0.01725134  0.13109289  1
  N  N166  1  0.68558958  0.68875796  0.61242755  1
  N  N167  1  0.32785884  0.32839226  0.88115605  1
  N  N168  1  -0.00131504  0.00601215  0.37340019  1
  N  N169  1  0.00201546  -0.01206477  0.88998633  1
  N  N170  1  0.50063706  0.83026461  0.40930711  1
  N  N171  1  0.34155515  0.33345159  0.36670420  1
  N  N172  1  0.66589299  0.66930184  0.15225100  1
  N  N173  1  0.33527261  0.63252946  0.61131965  1
  N  N174  1  0.83709307  0.85127398  0.63602209  1
  N  N175  1  0.00098733  0.33468583  0.12632679  1
  N  N176  1  0.17188992  0.49740787  0.37383395  1
  O  O177  1  0.00951586  0.00323971  0.13064094  1
  O  O178  1  0.50404381  0.46780786  0.36957456  1
  O  O179  1  0.32904107  0.32376003  0.62710088  1
  O  O180  1  0.15767834  0.47293398  0.12904579  1
  O  O181  1  0.34950463  0.66110979  0.84786819  1
  O  O182  1  -0.02136650  0.68067782  0.88081614  1
  O  O183  1  0.67475828  0.34212203  0.37339639  1
  O  O184  1  0.68621482  0.02096339  0.63343792  1
  O  O185  1  0.50262718  0.14466143  0.88284125  1
  O  O186  1  0.18521348  0.82266253  0.12053650  1
  O  O187  1  0.48397360  0.81827986  0.19980126  1
  O  O188  1  0.48729638  0.12596191  0.13557652  1
  O  O189  1  0.84833384  0.18716065  0.87803631  1
  O  O190  1  0.79350288  0.82451474  0.12688388  1
  O  O191  1  0.15800417  0.47148572  0.88140899  1
  O  O192  1  0.84372280  0.50325776  0.13586693  1
  O  O193  1  0.33294285  -0.01142616  0.37127487  1
  O  O194  1  0.32822404  0.65392930  0.11989534  1
  O  O195  1  0.18589094  0.17911233  0.36428459  1
  O  O196  1  -0.00785273  0.68835110  0.63362454  1
  O  O197  1  -0.02517048  0.67075024  0.12323128  1
  O  O198  1  0.80736350  0.82021917  0.88188103  1
  O  O199  1  0.17755734  0.15659350  0.87243372  1
  O  O200  1  0.00372710  0.33422650  0.61329531  1
  O  O201  1  0.66682858  0.03014093  0.87977509  1
  O  O202  1  0.64650582  0.68189859  0.79605591  1
  O  O203  1  -0.00600821  -0.01326554  0.64229585  1
  O  O204  1  0.47279988  0.81941266  0.84576956  1
  O  O205  1  0.85504883  0.51120733  0.62406391  1
  O  O206  1  0.68038177  0.35706884  0.88118330  1
  O  O207  1  0.47400007  0.87007642  0.60930846  1
  O  O208  1  0.19026787  0.16541993  0.61638323  1
  O  O209  1  0.68413656  0.01599875  0.38446982  1
  O  O210  1  0.33506134  0.33816459  0.11954217  1
  O  O211  1  0.85052822  0.50807154  0.37934498  1
  O  O212  1  0.68626902  0.64642354  0.38719487  1
  O  O213  1  0.64837502  -0.01196443  0.12708351  1
  O  O214  1  0.15625608  0.82114814  0.37220104  1
  O  O215  1  0.84007831  0.17749359  0.37007998  1
