# generated using pymatgen
data_Sr24Ta24N11O13
_symmetry_space_group_name_H-M   'P 1'
_cell_length_a   16.97551618
_cell_length_b   16.73145559
_cell_length_c   15.69084333
_cell_angle_alpha   90.36157711
_cell_angle_beta   90.26619427
_cell_angle_gamma   90.03416104
_symmetry_Int_Tables_number   1
_chemical_formula_structural   Sr24Ta24N11O13
_chemical_formula_sum   'Sr72 Ta72 N33 O39'
_cell_volume   4456.45555923
_cell_formula_units_Z   3
loop_
 _symmetry_equiv_pos_site_id
 _symmetry_equiv_pos_as_xyz
  1  'x, y, z'
loop_
 _atom_site_type_symbol
 _atom_site_label
 _atom_site_symmetry_multiplicity
 _atom_site_fract_x
 _atom_site_fract_y
 _atom_site_fract_z
 _atom_site_occupancy
  Sr  Sr0  1  -0.01113313  0.16446118  0.08685445  1
  Sr  Sr1  1  -0.01125347  0.16362932  0.63175266  1
  Sr  Sr2  1  -0.02038189  0.50432187  0.12422341  1
  Sr  Sr3  1  -0.00272624  0.50415573  0.65911274  1
  Sr  Sr4  1  -0.01663217  0.83557789  0.15337595  1
  Sr  Sr5  1  -0.02061861  0.82030607  0.59342673  1
  Sr  Sr6  1  0.30730205  0.16566082  0.13193531  1
  Sr  Sr7  1  0.32319977  0.17789177  0.64780905  1
  Sr  Sr8  1  0.33733066  0.50466708  0.13487909  1
  Sr  Sr9  1  0.29794136  0.50362443  0.58906014  1
  Sr  Sr10  1  0.30624011  0.84201480  0.11634107  1
  Sr  Sr11  1  0.32292836  0.82366187  0.62553993  1
  Sr  Sr12  1  0.67228448  0.17417953  0.14409320  1
  Sr  Sr13  1  0.63913252  0.14802500  0.57849614  1
  Sr  Sr14  1  0.65164678  0.48414981  0.09965514  1
  Sr  Sr15  1  0.67069085  0.49751935  0.62938704  1
  Sr  Sr16  1  0.65529988  0.81878967  0.10698664  1
  Sr  Sr17  1  0.65022279  0.83852609  0.66978880  1
  Sr  Sr18  1  0.16828770  0.00377039  0.11815740  1
  Sr  Sr19  1  0.19736240  0.00419078  0.66773806  1
  Sr  Sr20  1  0.18653352  0.34753444  0.14773073  1
  Sr  Sr21  1  0.17644098  0.31653159  0.59230711  1
  Sr  Sr22  1  0.19444640  0.66696013  0.08672331  1
  Sr  Sr23  1  0.15600512  0.67511277  0.63260777  1
  Sr  Sr24  1  0.53378146  0.00800290  0.11882064  1
  Sr  Sr25  1  0.49962467  -0.00919920  0.60144576  1
  Sr  Sr26  1  0.52834738  0.32955722  0.09845336  1
  Sr  Sr27  1  0.51639790  0.32796664  0.63437550  1
  Sr  Sr28  1  0.50231695  0.67270183  0.14493356  1
  Sr  Sr29  1  0.52135488  0.66307029  0.64686750  1
  Sr  Sr30  1  0.84689281  0.01178604  0.14539402  1
  Sr  Sr31  1  0.83178888  -0.01003338  0.62007553  1
  Sr  Sr32  1  0.84942878  0.33413092  0.12645138  1
  Sr  Sr33  1  0.85721129  0.34970055  0.65716626  1
  Sr  Sr34  1  0.83897226  0.67573275  0.13510683  1
  Sr  Sr35  1  0.83346419  0.66006092  0.58469561  1
  Sr  Sr36  1  0.00160698  0.18143934  0.42075527  1
  Sr  Sr37  1  -0.02249415  0.16547698  0.86645633  1
  Sr  Sr38  1  -0.01584761  0.49396793  0.33239940  1
  Sr  Sr39  1  -0.01503306  0.50594794  0.87858997  1
  Sr  Sr40  1  -0.00690617  0.82925172  0.37581161  1
  Sr  Sr41  1  -0.02371109  0.82599559  0.87857851  1
  Sr  Sr42  1  0.30502657  0.17289418  0.35436853  1
  Sr  Sr43  1  0.32293770  0.16904525  0.85935637  1
  Sr  Sr44  1  0.32570477  0.50016337  0.36362902  1
  Sr  Sr45  1  0.31531323  0.50285519  0.91289838  1
  Sr  Sr46  1  0.33393082  0.83767115  0.38948400  1
  Sr  Sr47  1  0.29244577  0.82823742  0.86687659  1
  Sr  Sr48  1  0.68130046  0.17020923  0.35924029  1
  Sr  Sr49  1  0.64156129  0.16658827  0.90145852  1
  Sr  Sr50  1  0.66940355  0.50609505  0.41711502  1
  Sr  Sr51  1  0.65701621  0.47817158  0.85302711  1
  Sr  Sr52  1  0.63626280  0.80694258  0.33215458  1
  Sr  Sr53  1  0.66973558  0.83180495  0.88311392  1
  Sr  Sr54  1  0.18338918  -0.01102068  0.33241951  1
  Sr  Sr55  1  0.17245111  0.00959113  0.89171012  1
  Sr  Sr56  1  0.16874655  0.33620340  0.37303616  1
  Sr  Sr57  1  0.19219790  0.33572068  0.88780681  1
  Sr  Sr58  1  0.18187648  0.68046750  0.41854543  1
  Sr  Sr59  1  0.15745701  0.65888416  0.85811473  1
  Sr  Sr60  1  0.51120461  0.00702734  0.38120181  1
  Sr  Sr61  1  0.53343403  -0.00364227  0.89465212  1
  Sr  Sr62  1  0.53770574  0.32814148  0.39975546  1
  Sr  Sr63  1  0.50743826  0.32731686  0.86397088  1
  Sr  Sr64  1  0.49852203  0.65823872  0.35535347  1
  Sr  Sr65  1  0.51785538  0.67698787  0.85996174  1
  Sr  Sr66  1  0.84592790  0.01407145  0.39572011  1
  Sr  Sr67  1  0.84155737  -0.00590837  0.84353889  1
  Sr  Sr68  1  0.84534939  0.34068362  0.35223413  1
  Sr  Sr69  1  0.85429505  0.34009497  0.87103787  1
  Sr  Sr70  1  0.84620487  0.66586948  0.36300046  1
  Sr  Sr71  1  0.84209198  0.67562246  0.91660031  1
  Ta  Ta72  1  0.15447236  0.19292000  0.00471740  1
  Ta  Ta73  1  0.17319274  0.11930836  0.49944235  1
  Ta  Ta74  1  0.13546630  0.49510880  0.00882773  1
  Ta  Ta75  1  0.11431082  0.49748742  0.49276666  1
  Ta  Ta76  1  0.11972891  0.83363841  0.00741824  1
  Ta  Ta77  1  0.16382523  0.88208379  0.50614449  1
  Ta  Ta78  1  0.45960335  0.16358987  -0.00509569  1
  Ta  Ta79  1  0.44677381  0.17203949  0.50189705  1
  Ta  Ta80  1  0.49480477  0.52689184  0.00088304  1
  Ta  Ta81  1  0.47643834  0.50526744  0.50332909  1
  Ta  Ta82  1  0.46065643  0.83583944  -0.01372273  1
  Ta  Ta83  1  0.51266176  0.81192435  0.50842266  1
  Ta  Ta84  1  0.81066555  0.15687614  0.00271520  1
  Ta  Ta85  1  0.82316790  0.20337461  0.50363996  1
  Ta  Ta86  1  0.80237772  0.49857237  -0.00101467  1
  Ta  Ta87  1  0.85783065  0.48241139  0.49908262  1
  Ta  Ta88  1  0.83229649  0.87210247  0.00919606  1
  Ta  Ta89  1  0.78448375  0.82769361  0.49571295  1
  Ta  Ta90  1  0.11902947  0.16714349  0.25342305  1
  Ta  Ta91  1  0.14373251  0.18425548  0.74791630  1
  Ta  Ta92  1  0.16424659  0.55055460  0.24960514  1
  Ta  Ta93  1  0.17669700  0.47477312  0.74937647  1
  Ta  Ta94  1  0.16393236  0.79235218  0.25020165  1
  Ta  Ta95  1  0.11486399  0.84195516  0.74384119  1
  Ta  Ta96  1  0.47693332  0.17394777  0.24766391  1
  Ta  Ta97  1  0.50608328  0.13633761  0.74677522  1
  Ta  Ta98  1  0.52315700  0.47950495  0.24758413  1
  Ta  Ta99  1  0.44349190  0.50103014  0.75120020  1
  Ta  Ta100  1  0.47076630  0.85713062  0.24027501  1
  Ta  Ta101  1  0.47080699  0.85386748  0.76037125  1
  Ta  Ta102  1  0.87358731  0.16982096  0.25529701  1
  Ta  Ta103  1  0.78495797  0.16261692  0.74188759  1
  Ta  Ta104  1  0.79033519  0.50510793  0.24702536  1
  Ta  Ta105  1  0.82735898  0.54456662  0.75218027  1
  Ta  Ta106  1  0.80430594  0.85578782  0.25402483  1
  Ta  Ta107  1  0.82932967  0.79397693  0.74172527  1
  Ta  Ta108  1  0.00405252  0.04731244  0.25643519  1
  Ta  Ta109  1  0.02002891  -0.01873421  0.74670459  1
  Ta  Ta110  1  0.00853702  0.29393243  0.25049731  1
  Ta  Ta111  1  0.05018975  0.33261458  0.75650842  1
  Ta  Ta112  1  0.04469277  0.66878321  0.24747154  1
  Ta  Ta113  1  -0.02867921  0.67976834  0.74849846  1
  Ta  Ta114  1  0.36999379  0.00073735  0.23684636  1
  Ta  Ta115  1  0.37884414  -0.00514564  0.75966283  1
  Ta  Ta116  1  0.39697962  0.32952098  0.24789877  1
  Ta  Ta117  1  0.32976480  0.37430227  0.75019973  1
  Ta  Ta118  1  0.30968949  0.68105169  0.25210264  1
  Ta  Ta119  1  0.34083298  0.63534021  0.75032054  1
  Ta  Ta120  1  0.68771536  -0.02360215  0.25507958  1
  Ta  Ta121  1  0.66285620  0.03140374  0.73899754  1
  Ta  Ta122  1  0.67146494  0.36629164  0.25215271  1
  Ta  Ta123  1  0.68375621  0.28840007  0.74679052  1
  Ta  Ta124  1  0.66733803  0.61243982  0.25087289  1
  Ta  Ta125  1  0.71592356  0.66829054  0.75034062  1
  Ta  Ta126  1  -0.00781818  -0.02406800  0.00263020  1
  Ta  Ta127  1  0.04436511  -0.00219187  0.49880432  1
  Ta  Ta128  1  0.03689917  0.34077781  -0.00097171  1
  Ta  Ta129  1  -0.00306397  0.36868886  0.49667646  1
  Ta  Ta130  1  0.02228044  0.67098657  0.00800446  1
  Ta  Ta131  1  0.00466998  0.62470579  0.49441555  1
  Ta  Ta132  1  0.36463513  0.00413959  0.00184696  1
  Ta  Ta133  1  0.31986564  0.01866631  0.49868165  1
  Ta  Ta134  1  0.35522265  0.31727253  -0.00207527  1
  Ta  Ta135  1  0.36507061  0.33111677  0.49793794  1
  Ta  Ta136  1  0.37326597  0.67739884  0.00377165  1
  Ta  Ta137  1  0.37813087  0.66242370  0.49875950  1
  Ta  Ta138  1  0.71335573  0.00285970  -0.00048693  1
  Ta  Ta139  1  0.66399176  -0.06431541  0.50085145  1
  Ta  Ta140  1  0.70509013  0.32574226  -0.00174026  1
  Ta  Ta141  1  0.71819553  0.32863255  0.50351632  1
  Ta  Ta142  1  0.66218011  0.63728579  -0.00163704  1
  Ta  Ta143  1  0.65539895  0.71290447  0.49976889  1
  N  N144  1  0.00488462  0.66597692  0.37504093  1
  N  N145  1  0.68772281  0.33789138  0.37998090  1
  N  N146  1  0.51675023  0.83550766  0.87885998  1
  N  N147  1  0.83928583  0.17461960  0.38112635  1
  N  N148  1  0.83461850  0.16822721  0.12459049  1
  N  N149  1  0.83070212  0.50360000  0.87526379  1
  N  N150  1  -0.00812813  0.66705455  0.13153668  1
  N  N151  1  0.66141037  -0.00930541  0.62102527  1
  N  N152  1  0.82868553  0.50353019  0.12736680  1
  N  N153  1  -0.00308760  0.66158180  0.62277511  1
  N  N154  1  0.49391931  0.82655031  0.63153442  1
  N  N155  1  0.82623923  0.83568156  0.12868403  1
  N  N156  1  0.68271446  0.32961043  0.12821231  1
  N  N157  1  0.82927202  0.50494422  0.37890094  1
  N  N158  1  0.15800777  0.16203418  0.38407197  1
  N  N159  1  0.67963668  0.32045522  0.86796456  1
  N  N160  1  0.83302601  0.50535294  0.62826313  1
  N  N161  1  0.34279609  0.66925007  0.37879028  1
  N  N162  1  0.34609621  0.33974208  0.87501482  1
  N  N163  1  0.15661613  0.83650653  0.62088482  1
  N  N164  1  0.15130704  0.83158181  0.12722542  1
  N  N165  1  0.15542352  0.16894076  0.12421732  1
  N  N166  1  0.00901134  0.33528088  0.87421152  1
  N  N167  1  0.32502882  0.00808081  0.11914346  1
  N  N168  1  0.49696141  0.50176267  0.12363278  1
  N  N169  1  0.82039003  0.82723025  0.62164024  1
  N  N170  1  0.00851204  0.33547324  0.37633842  1
  N  N171  1  0.48338227  0.16296405  0.62081104  1
  N  N172  1  0.34688692  0.67255466  0.12541260  1
  N  N173  1  0.16206254  0.16106809  0.62773467  1
  N  N174  1  0.16312167  0.50635919  0.12875950  1
  N  N175  1  -0.00301876  0.66637379  0.87780466  1
  N  N176  1  0.48818240  0.16406301  0.87311612  1
  O  O177  1  0.48765112  0.83803569  0.36620014  1
  O  O178  1  0.49521899  0.84815446  0.11564374  1
  O  O179  1  0.83362582  0.14899198  0.62094737  1
  O  O180  1  0.01885438  0.00534494  0.62563206  1
  O  O181  1  0.49588850  0.16412169  0.12391770  1
  O  O182  1  0.65652203  0.66200358  0.37803522  1
  O  O183  1  0.16764290  0.83721683  0.37888598  1
  O  O184  1  0.13730906  0.82829575  0.87105323  1
  O  O185  1  0.67436162  0.66405377  0.87682784  1
  O  O186  1  0.00072501  0.00445191  0.12780108  1
  O  O187  1  0.67523718  0.34334967  0.62993727  1
  O  O188  1  0.66081115  -0.02500118  0.37848426  1
  O  O189  1  0.16445985  0.49664247  0.87481920  1
  O  O190  1  0.36058921  0.34230919  0.12817945  1
  O  O191  1  0.34032493  0.65906489  0.87341243  1
  O  O192  1  0.48330688  0.49964585  0.62873055  1
  O  O193  1  0.34344449  0.00516283  0.62587992  1
  O  O194  1  0.68875892  -0.00012072  0.12925408  1
  O  O195  1  0.68921432  0.00226157  0.87107967  1
  O  O196  1  0.16330913  0.16604350  0.87640339  1
  O  O197  1  0.33605588  0.01008326  0.37034787  1
  O  O198  1  0.34012009  0.34137039  0.62164538  1
  O  O199  1  0.48205530  0.49998058  0.87274959  1
  O  O200  1  0.82149067  0.15441832  0.86445666  1
  O  O201  1  0.32426427  0.00517057  0.87334738  1
  O  O202  1  -0.00291172  -0.01025119  0.87577698  1
  O  O203  1  0.67269360  0.67383028  0.62130453  1
  O  O204  1  0.36846750  0.34037434  0.36809938  1
  O  O205  1  0.83666809  0.82594955  0.37511636  1
  O  O206  1  0.15395935  0.48698539  0.62391469  1
  O  O207  1  0.65793946  0.64904492  0.12654223  1
  O  O208  1  0.02059105  -0.00206255  0.37078573  1
  O  O209  1  0.01020748  0.34427652  0.63316414  1
  O  O210  1  0.49751437  0.49737028  0.37960206  1
  O  O211  1  0.47797340  0.16264127  0.37479445  1
  O  O212  1  0.33746510  0.65676257  0.62338724  1
  O  O213  1  0.15541764  0.50133859  0.36963022  1
  O  O214  1  0.82713312  0.83645780  0.88050853  1
  O  O215  1  0.00904107  0.33224521  0.12715468  1
