# generated using pymatgen
data_Sr24Ta24N11O13
_symmetry_space_group_name_H-M   'P 1'
_cell_length_a   16.87534744
_cell_length_b   16.75958385
_cell_length_c   15.68678193
_cell_angle_alpha   90.13230979
_cell_angle_beta   90.14595135
_cell_angle_gamma   89.97589387
_symmetry_Int_Tables_number   1
_chemical_formula_structural   Sr24Ta24N11O13
_chemical_formula_sum   'Sr72 Ta72 N33 O39'
_cell_volume   4436.56867756
_cell_formula_units_Z   3
loop_
 _symmetry_equiv_pos_site_id
 _symmetry_equiv_pos_as_xyz
  1  'x, y, z'
loop_
 _atom_site_type_symbol
 _atom_site_label
 _atom_site_symmetry_multiplicity
 _atom_site_fract_x
 _atom_site_fract_y
 _atom_site_fract_z
 _atom_site_occupancy
  Sr  Sr0  1  0.02282817  0.15111588  0.15823500  1
  Sr  Sr1  1  0.01831857  0.16319689  0.61266318  1
  Sr  Sr2  1  0.02513833  0.48637667  0.12564595  1
  Sr  Sr3  1  -0.00267199  0.49371760  0.65862506  1
  Sr  Sr4  1  -0.01221600  0.82704323  0.08701147  1
  Sr  Sr5  1  0.01085549  0.83519338  0.62732199  1
  Sr  Sr6  1  0.34401454  0.16683143  0.12177241  1
  Sr  Sr7  1  0.34089642  0.14963797  0.58153315  1
  Sr  Sr8  1  0.34243127  0.48303920  0.11001989  1
  Sr  Sr9  1  0.33011435  0.50583580  0.62988783  1
  Sr  Sr10  1  0.32606533  0.82872093  0.11874051  1
  Sr  Sr11  1  0.33376337  0.84063152  0.65848903  1
  Sr  Sr12  1  0.67508534  0.15478840  0.10628685  1
  Sr  Sr13  1  0.66674639  0.17958058  0.65950473  1
  Sr  Sr14  1  0.66201644  0.49580854  0.12684546  1
  Sr  Sr15  1  0.68678455  0.49887412  0.58103889  1
  Sr  Sr16  1  0.68500845  0.82698118  0.16830831  1
  Sr  Sr17  1  0.66545764  0.82931242  0.61481803  1
  Sr  Sr18  1  0.18269677  -0.00232373  0.17277812  1
  Sr  Sr19  1  0.15978616  0.00232703  0.61348386  1
  Sr  Sr20  1  0.16567064  0.32371220  0.10352908  1
  Sr  Sr21  1  0.15092690  0.35237450  0.66829909  1
  Sr  Sr22  1  0.16165576  0.67854137  0.13461235  1
  Sr  Sr23  1  0.16965000  0.65881311  0.58907657  1
  Sr  Sr24  1  0.49072249  0.00862758  0.08828896  1
  Sr  Sr25  1  0.50165339  0.00673691  0.61565990  1
  Sr  Sr26  1  0.50890564  0.32589603  0.17161387  1
  Sr  Sr27  1  0.48889708  0.35099783  0.61288003  1
  Sr  Sr28  1  0.49003216  0.67339385  0.11335080  1
  Sr  Sr29  1  0.48307797  0.68189375  0.66324258  1
  Sr  Sr30  1  0.83083455  -0.00435027  0.11777311  1
  Sr  Sr31  1  0.80452799  0.01512340  0.65500958  1
  Sr  Sr32  1  0.80746820  0.33788190  0.08341985  1
  Sr  Sr33  1  0.82092376  0.33018521  0.62040041  1
  Sr  Sr34  1  0.82404338  0.65565080  0.14492926  1
  Sr  Sr35  1  0.82695143  0.67561336  0.61729329  1
  Sr  Sr36  1  -0.00249039  0.16546091  0.37985692  1
  Sr  Sr37  1  0.03762749  0.16555495  0.85875065  1
  Sr  Sr38  1  0.00816754  0.50805582  0.33468387  1
  Sr  Sr39  1  0.01283795  0.47632226  0.87485432  1
  Sr  Sr40  1  0.00716285  0.81776600  0.42420724  1
  Sr  Sr41  1  -0.00080155  0.83987576  0.87490831  1
  Sr  Sr42  1  0.34944839  0.16264671  0.37862454  1
  Sr  Sr43  1  0.33204052  0.16339901  0.90535239  1
  Sr  Sr44  1  0.32996895  0.50189427  0.40693034  1
  Sr  Sr45  1  0.34615379  0.48440541  0.85359868  1
  Sr  Sr46  1  0.31882932  0.82404249  0.33564572  1
  Sr  Sr47  1  0.33760792  0.83654822  0.88204237  1
  Sr  Sr48  1  0.67308383  0.16581148  0.35089144  1
  Sr  Sr49  1  0.66134608  0.16667364  0.87483808  1
  Sr  Sr50  1  0.67171662  0.49233051  0.37478483  1
  Sr  Sr51  1  0.68216276  0.50905923  0.91444734  1
  Sr  Sr52  1  0.66559814  0.83552792  0.38296545  1
  Sr  Sr53  1  0.67626847  0.80650231  0.83244870  1
  Sr  Sr54  1  0.16603916  0.00877565  0.38643376  1
  Sr  Sr55  1  0.16241493  -0.01003973  0.82907083  1
  Sr  Sr56  1  0.13298578  0.33904666  0.33557198  1
  Sr  Sr57  1  0.18419277  0.33219274  0.88739511  1
  Sr  Sr58  1  0.16613688  0.66299723  0.37218294  1
  Sr  Sr59  1  0.15136475  0.69879148  0.92099394  1
  Sr  Sr60  1  0.50396896  0.00266611  0.40691676  1
  Sr  Sr61  1  0.48785474  0.01592442  0.88780656  1
  Sr  Sr62  1  0.48258665  0.33993189  0.38192450  1
  Sr  Sr63  1  0.50154917  0.33252148  0.82886561  1
  Sr  Sr64  1  0.48620050  0.69527535  0.34733677  1
  Sr  Sr65  1  0.50139792  0.66123158  0.88355718  1
  Sr  Sr66  1  0.81523477  0.01005054  0.33026215  1
  Sr  Sr67  1  0.82219323  0.01072554  0.88773425  1
  Sr  Sr68  1  0.83079605  0.32391066  0.41234635  1
  Sr  Sr69  1  0.81108759  0.32658483  0.87520424  1
  Sr  Sr70  1  0.81823630  0.66887197  0.38285594  1
  Sr  Sr71  1  0.84065269  0.67015921  0.85828307  1
  Ta  Ta72  1  0.16460636  0.10827292  0.00305744  1
  Ta  Ta73  1  0.16967120  0.22270798  0.50228990  1
  Ta  Ta74  1  0.18402302  0.52315185  -0.01199485  1
  Ta  Ta75  1  0.14093980  0.47579877  0.49431113  1
  Ta  Ta76  1  0.16130789  0.88555242  0.00335990  1
  Ta  Ta77  1  0.20191099  0.83226837  0.50043474  1
  Ta  Ta78  1  0.50299531  0.21136251  -0.00593681  1
  Ta  Ta79  1  0.53979856  0.17697075  0.49663557  1
  Ta  Ta80  1  0.50028967  0.45684934  -0.00278680  1
  Ta  Ta81  1  0.49963360  0.54772558  0.50430525  1
  Ta  Ta82  1  0.54936064  0.83068550  0.00262384  1
  Ta  Ta83  1  0.47321156  0.82396528  0.49656550  1
  Ta  Ta84  1  0.89058261  0.16722686  0.00574104  1
  Ta  Ta85  1  0.82214748  0.13563365  0.49496684  1
  Ta  Ta86  1  0.86620599  0.51380340  0.00037120  1
  Ta  Ta87  1  0.87805472  0.50052048  0.49604407  1
  Ta  Ta88  1  0.79418715  0.82449905  -0.00088471  1
  Ta  Ta89  1  0.83008143  0.88773827  0.49582906  1
  Ta  Ta90  1  0.20123056  0.18167317  0.25322712  1
  Ta  Ta91  1  0.21413996  0.16738168  0.73945162  1
  Ta  Ta92  1  0.20631219  0.49776441  0.24943154  1
  Ta  Ta93  1  0.16770511  0.55205957  0.76560829  1
  Ta  Ta94  1  0.11818643  0.83423462  0.25422042  1
  Ta  Ta95  1  0.16374452  0.79657764  0.75142773  1
  Ta  Ta96  1  0.50408843  0.13329981  0.25058429  1
  Ta  Ta97  1  0.46418107  0.16236394  0.74797514  1
  Ta  Ta98  1  0.49113272  0.52130256  0.25314844  1
  Ta  Ta99  1  0.54897464  0.50648962  0.74846015  1
  Ta  Ta100  1  0.50231893  0.87650806  0.25056824  1
  Ta  Ta101  1  0.51119950  0.86326675  0.75538697  1
  Ta  Ta102  1  0.83732548  0.20267218  0.24597716  1
  Ta  Ta103  1  0.87215011  0.17305740  0.74851331  1
  Ta  Ta104  1  0.83281748  0.46118793  0.25399542  1
  Ta  Ta105  1  0.81053585  0.49614134  0.74379825  1
  Ta  Ta106  1  0.87880538  0.83186186  0.26086245  1
  Ta  Ta107  1  0.84746865  0.85555846  0.74740380  1
  Ta  Ta108  1  -0.00268655  -0.04688538  0.25734482  1
  Ta  Ta109  1  -0.03001435  0.00246080  0.74257879  1
  Ta  Ta110  1  -0.05253984  0.33079536  0.24934521  1
  Ta  Ta111  1  -0.03300493  0.31196220  0.74918552  1
  Ta  Ta112  1  -0.00866836  0.70289756  0.25744932  1
  Ta  Ta113  1  0.03160175  0.66781259  0.75205596  1
  Ta  Ta114  1  0.36930064  0.00331597  0.25044024  1
  Ta  Ta115  1  0.34064981  0.02750147  0.74633060  1
  Ta  Ta116  1  0.31033132  0.33526304  0.25102261  1
  Ta  Ta117  1  0.33007169  0.28881623  0.74627426  1
  Ta  Ta118  1  0.33062323  0.62605192  0.25386010  1
  Ta  Ta119  1  0.29009712  0.66756131  0.75209547  1
  Ta  Ta120  1  0.62475009  0.00032344  0.24193431  1
  Ta  Ta121  1  0.64107399  -0.01710332  0.76512529  1
  Ta  Ta122  1  0.70395221  0.32999213  0.24446273  1
  Ta  Ta123  1  0.66509450  0.38319137  0.74824140  1
  Ta  Ta124  1  0.64352498  0.64706949  0.25725022  1
  Ta  Ta125  1  0.66804481  0.62286635  0.74479363  1
  Ta  Ta126  1  0.02493216  0.01336640  0.00209292  1
  Ta  Ta127  1  -0.05138532  0.00126383  0.50139316  1
  Ta  Ta128  1  -0.01951164  0.30955205  0.00707411  1
  Ta  Ta129  1  0.01385230  0.35790537  0.49456419  1
  Ta  Ta130  1  -0.01853391  0.63710422  0.00487549  1
  Ta  Ta131  1  -0.00367707  0.62080737  0.49689997  1
  Ta  Ta132  1  0.29568251  -0.00335117  -0.00057182  1
  Ta  Ta133  1  0.33293917  -0.04327314  0.49465803  1
  Ta  Ta134  1  0.38539781  0.33267222  -0.00764010  1
  Ta  Ta135  1  0.28106696  0.33911081  0.50484241  1
  Ta  Ta136  1  0.31818330  0.63918225  -0.00723539  1
  Ta  Ta137  1  0.35053394  0.69184548  0.50219412  1
  Ta  Ta138  1  0.66343032  -0.05007997  -0.00372865  1
  Ta  Ta139  1  0.68429024  0.01934457  0.49369884  1
  Ta  Ta140  1  0.61772474  0.33477835  -0.00510736  1
  Ta  Ta141  1  0.65094422  0.30896221  0.50098140  1
  Ta  Ta142  1  0.67614485  0.69848286  -0.00227730  1
  Ta  Ta143  1  0.61615234  0.66878740  0.50401173  1
  N  N144  1  0.65779597  0.66738327  0.62722605  1
  N  N145  1  0.33547154  -0.00256629  0.12567353  1
  N  N146  1  -0.01442548  0.33443633  0.37254933  1
  N  N147  1  0.66078296  0.01010998  0.88474794  1
  N  N148  1  0.83914485  0.49751434  0.62371762  1
  N  N149  1  0.32586509  0.66829871  0.62990125  1
  N  N150  1  0.65825941  0.34300321  0.87313695  1
  N  N151  1  0.66393007  0.00467289  0.37337668  1
  N  N152  1  0.33271935  -0.00210581  0.37596489  1
  N  N153  1  0.66017584  0.33902824  0.62074612  1
  N  N154  1  0.67138566  0.65997978  0.87878811  1
  N  N155  1  0.83601688  0.16640271  0.37122963  1
  N  N156  1  0.16710134  0.83010428  0.62087085  1
  N  N157  1  0.65909463  0.32986986  0.12912724  1
  N  N158  1  0.17344559  0.48663716  0.86855776  1
  N  N159  1  0.33383938  -0.00326289  0.62009346  1
  N  N160  1  0.16300441  0.84234152  0.86933114  1
  N  N161  1  0.83455892  0.84112435  0.37951340  1
  N  N162  1  0.16031965  0.83434532  0.37296319  1
  N  N163  1  0.33007917  0.66064226  0.37526165  1
  N  N164  1  -0.00550405  0.00326073  0.62166157  1
  N  N165  1  0.83630140  0.49295234  0.37471635  1
  N  N166  1  0.49902543  0.17310710  0.86651729  1
  N  N167  1  0.16538706  0.49427184  0.37134054  1
  N  N168  1  0.00036810  0.66318800  0.37773406  1
  N  N169  1  0.32744058  -0.00139513  0.87230115  1
  N  N170  1  0.49685789  0.84505414  0.37492053  1
  N  N171  1  0.50756548  0.16942056  0.37300824  1
  N  N172  1  0.34230732  0.32641945  0.86651013  1
  N  N173  1  0.15535541  0.84269632  0.12093120  1
  N  N174  1  0.66309800  -0.00677273  0.12083744  1
  N  N175  1  0.65583710  0.66839746  0.37698511  1
  N  N176  1  0.17505590  0.17529381  0.61895922  1
  O  O177  1  -0.02517449  0.32231339  0.88104509  1
  O  O178  1  0.48991314  0.51823479  0.37875786  1
  O  O179  1  0.51776876  0.82605810  0.87590783  1
  O  O180  1  0.84775592  0.49754429  0.12527338  1
  O  O181  1  -0.00869050  0.33281838  0.62636835  1
  O  O182  1  0.31189601  0.34122144  0.37830575  1
  O  O183  1  0.01527246  0.65510451  0.62643073  1
  O  O184  1  0.18516058  0.17801377  0.37754436  1
  O  O185  1  0.00235509  0.00762218  0.87466176  1
  O  O186  1  0.65694554  0.00352212  0.63417001  1
  O  O187  1  0.49890006  0.49324462  0.12942657  1
  O  O188  1  0.15600185  0.50428479  0.64014354  1
  O  O189  1  0.66445237  0.66509851  0.12858252  1
  O  O190  1  0.50848198  0.50039846  0.87244993  1
  O  O191  1  0.18089773  0.15703045  0.12764278  1
  O  O192  1  0.87593238  0.16216728  0.88191866  1
  O  O193  1  -0.00996658  0.00116888  0.37601574  1
  O  O194  1  -0.01509536  0.65928821  0.12996019  1
  O  O195  1  0.83808821  0.83836708  0.87536756  1
  O  O196  1  0.50099800  0.17164017  0.12654770  1
  O  O197  1  0.34601152  0.65947745  0.87168871  1
  O  O198  1  0.00136168  0.65853774  0.87617270  1
  O  O199  1  0.86598663  0.14772447  0.13126882  1
  O  O200  1  0.84341701  0.50566577  0.87524675  1
  O  O201  1  0.50239954  0.16638625  0.62008723  1
  O  O202  1  0.83899712  0.16653940  0.62253750  1
  O  O203  1  0.18065596  0.49980135  0.11857701  1
  O  O204  1  0.00732981  0.32837124  0.12994351  1
  O  O205  1  0.82875187  0.84662269  0.62385852  1
  O  O206  1  0.30381648  0.34988770  0.63034035  1
  O  O207  1  0.49669640  0.52148730  0.62861242  1
  O  O208  1  0.33161472  0.64562452  0.11875887  1
  O  O209  1  0.18092318  0.14614801  0.87821862  1
  O  O210  1  0.49871513  0.84813399  0.62888905  1
  O  O211  1  0.52819415  0.82966732  0.12809913  1
  O  O212  1  0.83494091  0.83618545  0.12285017  1
  O  O213  1  0.34142778  0.33020152  0.12698139  1
  O  O214  1  0.66340151  0.33162014  0.36902751  1
  O  O215  1  0.00342807  -0.00483949  0.13067136  1
