# generated using pymatgen
data_Sr24Ta24N11O13
_symmetry_space_group_name_H-M   'P 1'
_cell_length_a   16.81718564
_cell_length_b   16.85378073
_cell_length_c   15.76949765
_cell_angle_alpha   89.98424846
_cell_angle_beta   90.09502386
_cell_angle_gamma   90.18359449
_symmetry_Int_Tables_number   1
_chemical_formula_structural   Sr24Ta24N11O13
_chemical_formula_sum   'Sr72 Ta72 N33 O39'
_cell_volume   4469.56928527
_cell_formula_units_Z   3
loop_
 _symmetry_equiv_pos_site_id
 _symmetry_equiv_pos_as_xyz
  1  'x, y, z'
loop_
 _atom_site_type_symbol
 _atom_site_label
 _atom_site_symmetry_multiplicity
 _atom_site_fract_x
 _atom_site_fract_y
 _atom_site_fract_z
 _atom_site_occupancy
  Sr  Sr0  1  0.00448685  0.17511935  0.13488933  1
  Sr  Sr1  1  -0.01408084  0.16444715  0.57874296  1
  Sr  Sr2  1  0.00068787  0.50369495  0.08142024  1
  Sr  Sr3  1  -0.00781447  0.48903615  0.63713484  1
  Sr  Sr4  1  -0.01040423  0.83032349  0.12524377  1
  Sr  Sr5  1  -0.00814523  0.84248678  0.64344679  1
  Sr  Sr6  1  0.34547604  0.12570012  0.13760035  1
  Sr  Sr7  1  0.32651348  0.15594367  0.61494372  1
  Sr  Sr8  1  0.32677975  0.47450397  0.14647485  1
  Sr  Sr9  1  0.33800740  0.48869145  0.63770279  1
  Sr  Sr10  1  0.34127045  0.81362986  0.09105945  1
  Sr  Sr11  1  0.32663081  0.81737839  0.63998405  1
  Sr  Sr12  1  0.66509324  0.15608342  0.11492693  1
  Sr  Sr13  1  0.67872496  0.18367681  0.67232518  1
  Sr  Sr14  1  0.67345591  0.49739280  0.13158349  1
  Sr  Sr15  1  0.66240872  0.48886381  0.57949492  1
  Sr  Sr16  1  0.65810656  0.83067619  0.16556241  1
  Sr  Sr17  1  0.65737127  0.85164911  0.60944634  1
  Sr  Sr18  1  0.15266054  0.01133035  0.16462963  1
  Sr  Sr19  1  0.17316829  0.02091277  0.62041715  1
  Sr  Sr20  1  0.15920039  0.33675384  0.11133228  1
  Sr  Sr21  1  0.17308571  0.35074698  0.67013053  1
  Sr  Sr22  1  0.17691264  0.67292955  0.14111259  1
  Sr  Sr23  1  0.16334485  0.65997992  0.58203272  1
  Sr  Sr24  1  0.51318013  -0.00382182  0.13973192  1
  Sr  Sr25  1  0.49253374  0.01066566  0.58555258  1
  Sr  Sr26  1  0.50559591  0.35464451  0.11308616  1
  Sr  Sr27  1  0.49851578  0.33391410  0.62226116  1
  Sr  Sr28  1  0.50553201  0.67285488  0.10452576  1
  Sr  Sr29  1  0.51514647  0.68739051  0.63839852  1
  Sr  Sr30  1  0.85091668  0.00867342  0.07394106  1
  Sr  Sr31  1  0.82214800  -0.01011082  0.63631745  1
  Sr  Sr32  1  0.82226135  0.31431618  0.17395638  1
  Sr  Sr33  1  0.83578024  0.34835304  0.61424473  1
  Sr  Sr34  1  0.83460814  0.66734829  0.11705956  1
  Sr  Sr35  1  0.86419963  0.65857784  0.66777846  1
  Sr  Sr36  1  0.00561239  0.17147117  0.36446988  1
  Sr  Sr37  1  0.00527140  0.16656437  0.91532495  1
  Sr  Sr38  1  0.00026234  0.50698554  0.41177281  1
  Sr  Sr39  1  -0.01398508  0.49552085  0.86111573  1
  Sr  Sr40  1  0.00163824  0.82663237  0.35743799  1
  Sr  Sr41  1  -0.02101179  0.83962335  0.87313251  1
  Sr  Sr42  1  0.34909756  0.15153615  0.39824394  1
  Sr  Sr43  1  0.31833049  0.14624800  0.86117275  1
  Sr  Sr44  1  0.32861104  0.49212277  0.36503332  1
  Sr  Sr45  1  0.34020259  0.47836307  0.85309312  1
  Sr  Sr46  1  0.31652429  0.80297888  0.38543636  1
  Sr  Sr47  1  0.34038866  0.82659983  0.87439915  1
  Sr  Sr48  1  0.67172697  0.16305271  0.33737405  1
  Sr  Sr49  1  0.66846726  0.15874405  0.88541287  1
  Sr  Sr50  1  0.67601833  0.49280972  0.36952623  1
  Sr  Sr51  1  0.65995750  0.51967888  0.92098029  1
  Sr  Sr52  1  0.65834310  0.85036481  0.38559264  1
  Sr  Sr53  1  0.65166681  0.82994077  0.84002565  1
  Sr  Sr54  1  0.16802962  0.02336731  0.37823459  1
  Sr  Sr55  1  0.17124853  -0.01420133  0.82677093  1
  Sr  Sr56  1  0.17243487  0.34472354  0.33911497  1
  Sr  Sr57  1  0.15784608  0.33878054  0.88756960  1
  Sr  Sr58  1  0.16653042  0.65859391  0.37100971  1
  Sr  Sr59  1  0.18085681  0.68875923  0.91465080  1
  Sr  Sr60  1  0.50791586  0.00455618  0.36222174  1
  Sr  Sr61  1  0.47924155  0.00492509  0.91649544  1
  Sr  Sr62  1  0.49033357  0.35353483  0.39706548  1
  Sr  Sr63  1  0.51440731  0.34150212  0.87617210  1
  Sr  Sr64  1  0.52635426  0.68076043  0.39533857  1
  Sr  Sr65  1  0.48877453  0.67300393  0.86230397  1
  Sr  Sr66  1  0.84073172  -0.01469849  0.41639211  1
  Sr  Sr67  1  0.82069788  -0.00210690  0.86320366  1
  Sr  Sr68  1  0.83768745  0.34744925  0.39006427  1
  Sr  Sr69  1  0.82649450  0.32995261  0.83730057  1
  Sr  Sr70  1  0.83175629  0.68598797  0.33208404  1
  Sr  Sr71  1  0.84361180  0.65511147  0.89086895  1
  Ta  Ta72  1  0.18355199  0.13713961  0.00097891  1
  Ta  Ta73  1  0.16598106  0.21613642  0.50193416  1
  Ta  Ta74  1  0.18702597  0.51947087  0.00042758  1
  Ta  Ta75  1  0.17290404  0.46200676  0.50275023  1
  Ta  Ta76  1  0.15396918  0.86459695  -0.00172725  1
  Ta  Ta77  1  0.15509709  0.85757153  0.50329790  1
  Ta  Ta78  1  0.47764076  0.18652780  0.00144649  1
  Ta  Ta79  1  0.54908222  0.17567919  0.49673782  1
  Ta  Ta80  1  0.47214690  0.51187902  -0.00099880  1
  Ta  Ta81  1  0.48054720  0.52874221  0.50135526  1
  Ta  Ta82  1  0.53713068  0.83631034  0.00386775  1
  Ta  Ta83  1  0.46663571  0.83752947  0.49824035  1
  Ta  Ta84  1  0.83288999  0.20413763  0.00167093  1
  Ta  Ta85  1  0.79390952  0.16449812  0.50009812  1
  Ta  Ta86  1  0.82876749  0.45169796  -0.00257148  1
  Ta  Ta87  1  0.83323739  0.55263293  0.50190468  1
  Ta  Ta88  1  0.78855417  0.83134053  0.00016149  1
  Ta  Ta89  1  0.83896322  0.79147046  0.50629611  1
  Ta  Ta90  1  0.19991355  0.18449189  0.25724123  1
  Ta  Ta91  1  0.13042156  0.17354831  0.74473421  1
  Ta  Ta92  1  0.12124889  0.50401160  0.24207915  1
  Ta  Ta93  1  0.16408257  0.54640033  0.75676374  1
  Ta  Ta94  1  0.18771699  0.84677098  0.24878362  1
  Ta  Ta95  1  0.16292750  0.78805444  0.75036667  1
  Ta  Ta96  1  0.49684918  0.20629709  0.25689284  1
  Ta  Ta97  1  0.48784795  0.14436868  0.74722875  1
  Ta  Ta98  1  0.50532615  0.53205477  0.25058992  1
  Ta  Ta99  1  0.55078562  0.50856968  0.75298846  1
  Ta  Ta100  1  0.46865204  0.81959362  0.25233274  1
  Ta  Ta101  1  0.49313863  0.88269542  0.74271796  1
  Ta  Ta102  1  0.83962269  0.11706099  0.24494648  1
  Ta  Ta103  1  0.87205855  0.16136077  0.75546884  1
  Ta  Ta104  1  0.86658036  0.50298932  0.25243449  1
  Ta  Ta105  1  0.77924842  0.50437605  0.75040740  1
  Ta  Ta106  1  0.83298381  0.87843552  0.24092297  1
  Ta  Ta107  1  0.80879312  0.81184954  0.75072225  1
  Ta  Ta108  1  -0.03447070  0.00015862  0.24744716  1
  Ta  Ta109  1  -0.00097656  0.05018867  0.74813717  1
  Ta  Ta110  1  -0.00225006  0.38135443  0.25039314  1
  Ta  Ta111  1  -0.00068071  0.27843671  0.74787273  1
  Ta  Ta112  1  0.00118288  0.62503123  0.24205347  1
  Ta  Ta113  1  0.04840779  0.66891555  0.75820770  1
  Ta  Ta114  1  0.32644243  -0.05152531  0.24698999  1
  Ta  Ta115  1  0.36704015  -0.00591198  0.74524501  1
  Ta  Ta116  1  0.34508947  0.29534200  0.25694466  1
  Ta  Ta117  1  0.34889602  0.29997119  0.74776957  1
  Ta  Ta118  1  0.36925772  0.66389981  0.24905537  1
  Ta  Ta119  1  0.28809959  0.65761374  0.75578188  1
  Ta  Ta120  1  0.71580088  -0.00210545  0.24396774  1
  Ta  Ta121  1  0.61323356  0.00816022  0.74872448  1
  Ta  Ta122  1  0.63636432  0.32974082  0.25545071  1
  Ta  Ta123  1  0.66339915  0.37617245  0.74487144  1
  Ta  Ta124  1  0.64869654  0.65543390  0.24557922  1
  Ta  Ta125  1  0.68126824  0.64556638  0.74990066  1
  Ta  Ta126  1  0.05004465  -0.00295521  0.00225524  1
  Ta  Ta127  1  0.01995165  -0.02135421  0.49534635  1
  Ta  Ta128  1  -0.05134515  0.33314604  -0.00005436  1
  Ta  Ta129  1  0.05339592  0.33989292  0.50302963  1
  Ta  Ta130  1  0.02251176  0.67788276  -0.00262612  1
  Ta  Ta131  1  -0.02861759  0.67843765  0.49899666  1
  Ta  Ta132  1  0.28148973  -0.00993067  -0.00656644  1
  Ta  Ta133  1  0.32253657  -0.04221769  0.50205270  1
  Ta  Ta134  1  0.33959121  0.29770729  0.00161849  1
  Ta  Ta135  1  0.29847512  0.33570002  0.50099398  1
  Ta  Ta136  1  0.33634085  0.61820038  -0.00270053  1
  Ta  Ta137  1  0.35916878  0.64927106  0.50581583  1
  Ta  Ta138  1  0.66491253  -0.03874402  0.00254272  1
  Ta  Ta139  1  0.66858287  0.05069071  0.50785906  1
  Ta  Ta140  1  0.69779006  0.32934876  0.00603531  1
  Ta  Ta141  1  0.66854733  0.29525480  0.49793024  1
  Ta  Ta142  1  0.66705113  0.71082791  0.00134885  1
  Ta  Ta143  1  0.71318670  0.67131228  0.50204429  1
  N  N144  1  0.00143300  -0.00062966  0.37517298  1
  N  N145  1  0.00051897  0.66066890  0.12226970  1
  N  N146  1  0.83780125  0.16201921  0.12704781  1
  N  N147  1  0.82324227  0.83312456  0.87279852  1
  N  N148  1  0.84030611  0.51307009  0.37320716  1
  N  N149  1  0.83323206  0.83189143  0.62399140  1
  N  N150  1  0.16291370  0.50042277  0.12132344  1
  N  N151  1  -0.00146232  0.66420210  0.87209209  1
  N  N152  1  0.67652794  0.33361711  0.37169917  1
  N  N153  1  0.65769055  0.01566514  0.62995844  1
  N  N154  1  0.15978038  0.17633154  0.62365378  1
  N  N155  1  0.33383483  0.32279816  0.63027389  1
  N  N156  1  0.33281875  0.65369298  0.87239244  1
  N  N157  1  0.82387684  0.50882156  0.61968074  1
  N  N158  1  0.50045593  0.51142065  0.38071158  1
  N  N159  1  0.50852474  0.50871699  0.87107860  1
  N  N160  1  0.67081297  0.33591482  0.62441029  1
  N  N161  1  0.83011548  0.83897785  0.12376775  1
  N  N162  1  0.83596931  0.16503341  0.87692166  1
  N  N163  1  0.33496875  0.32338585  0.38047851  1
  N  N164  1  0.17208017  0.17712535  0.37483544  1
  N  N165  1  0.32772754  -0.01202864  0.62577731  1
  N  N166  1  0.00593175  0.00431602  0.11817359  1
  N  N167  1  0.32445498  -0.01312428  0.87664983  1
  N  N168  1  0.49811924  0.84297687  0.62113261  1
  N  N169  1  0.50016930  0.83860793  0.37162033  1
  N  N170  1  0.50672278  0.17304835  0.37757532  1
  N  N171  1  0.67339813  -0.00355757  0.11989128  1
  N  N172  1  0.81910330  0.49107045  0.87480024  1
  N  N173  1  0.49926080  0.50749091  0.12152759  1
  N  N174  1  0.67216698  0.32986549  0.12686612  1
  N  N175  1  0.50149176  0.83683045  0.12348297  1
  N  N176  1  0.66606298  0.66981082  0.12553467  1
  O  O177  1  0.01323632  0.35651650  0.37583514  1
  O  O178  1  0.49883372  0.84859828  0.87682924  1
  O  O179  1  0.82917005  0.16577652  0.62384942  1
  O  O180  1  0.67520670  0.66245284  0.62081217  1
  O  O181  1  0.16715563  0.84502199  0.12673031  1
  O  O182  1  0.01189728  0.32562784  0.62776794  1
  O  O183  1  0.01791466  0.01868835  0.87331872  1
  O  O184  1  0.50639319  0.16598463  0.62500901  1
  O  O185  1  0.32767202  -0.02998876  0.36943228  1
  O  O186  1  0.16230735  0.49768634  0.87501263  1
  O  O187  1  0.00624546  0.01612991  0.62043774  1
  O  O188  1  0.15686206  0.82903947  0.62489915  1
  O  O189  1  0.16847733  0.50600967  0.62414008  1
  O  O190  1  -0.02092664  0.35106578  0.12855288  1
  O  O191  1  0.16347303  0.15814735  0.87824757  1
  O  O192  1  0.32528800  0.30967972  0.87755295  1
  O  O193  1  0.83987548  0.83490726  0.37876606  1
  O  O194  1  0.18819437  0.15964714  0.12601227  1
  O  O195  1  0.34348850  0.66049452  0.12405507  1
  O  O196  1  0.67006624  0.33313836  0.86816145  1
  O  O197  1  0.67017539  0.67018469  0.87650638  1
  O  O198  1  0.00875163  0.67396140  0.62212532  1
  O  O199  1  -0.01856287  0.31828853  0.87093187  1
  O  O200  1  0.15967710  0.50265719  0.37924183  1
  O  O201  1  0.15938121  0.83888286  0.86987690  1
  O  O202  1  0.51236748  0.52049163  0.62912031  1
  O  O203  1  0.68236848  0.66843905  0.37541483  1
  O  O204  1  0.67530815  0.00657987  0.37001472  1
  O  O205  1  0.65471961  0.00165097  0.87163755  1
  O  O206  1  0.16232236  0.84342778  0.37285103  1
  O  O207  1  0.83360148  0.49229629  0.12009800  1
  O  O208  1  0.33283912  0.31591595  0.12412772  1
  O  O209  1  0.49433310  0.18002469  0.12491097  1
  O  O210  1  0.35064055  0.65429308  0.37361472  1
  O  O211  1  0.48492192  0.16057903  0.87894687  1
  O  O212  1  0.32747404  0.65483381  0.62734576  1
  O  O213  1  -0.01164004  0.66493077  0.37247854  1
  O  O214  1  0.82488679  0.15084640  0.37752783  1
  O  O215  1  0.32547149  -0.02969154  0.11830668  1
