# generated using pymatgen
data_Sr24Ta24N11O13
_symmetry_space_group_name_H-M   'P 1'
_cell_length_a   20.20136525
_cell_length_b   15.94000729
_cell_length_c   13.84267962
_cell_angle_alpha   90.02955726
_cell_angle_beta   89.76268852
_cell_angle_gamma   90.13374759
_symmetry_Int_Tables_number   1
_chemical_formula_structural   Sr24Ta24N11O13
_chemical_formula_sum   'Sr72 Ta72 N33 O39'
_cell_volume   4457.42905899
_cell_formula_units_Z   3
loop_
 _symmetry_equiv_pos_site_id
 _symmetry_equiv_pos_as_xyz
  1  'x, y, z'
loop_
 _atom_site_type_symbol
 _atom_site_label
 _atom_site_symmetry_multiplicity
 _atom_site_fract_x
 _atom_site_fract_y
 _atom_site_fract_z
 _atom_site_occupancy
  Sr  Sr0  1  -0.00223723  0.16376446  0.13055271  1
  Sr  Sr1  1  -0.00880480  0.16447419  0.63057291  1
  Sr  Sr2  1  -0.00866481  0.48861062  0.12863090  1
  Sr  Sr3  1  0.00110675  0.50521613  0.62993779  1
  Sr  Sr4  1  -0.03640879  0.85339182  0.12574245  1
  Sr  Sr5  1  -0.00410915  0.82995009  0.62623146  1
  Sr  Sr6  1  0.28450150  0.16517839  0.13605394  1
  Sr  Sr7  1  0.28232125  0.16460755  0.63307625  1
  Sr  Sr8  1  0.28454508  0.49776892  0.13288644  1
  Sr  Sr9  1  0.28111423  0.50115874  0.62464011  1
  Sr  Sr10  1  0.28896872  0.83536017  0.13700180  1
  Sr  Sr11  1  0.28546069  0.83428384  0.62774791  1
  Sr  Sr12  1  0.64609166  0.16433265  0.11052608  1
  Sr  Sr13  1  0.64025313  0.16727626  0.61323979  1
  Sr  Sr14  1  0.64566058  0.49972153  0.11492723  1
  Sr  Sr15  1  0.63988851  0.50039420  0.62566966  1
  Sr  Sr16  1  0.64522583  0.83409848  0.11426438  1
  Sr  Sr17  1  0.64020174  0.83516800  0.61493620  1
  Sr  Sr18  1  0.18243200  -0.00141004  0.12597602  1
  Sr  Sr19  1  0.17606708  -0.00292664  0.62776510  1
  Sr  Sr20  1  0.17876216  0.33350874  0.12818378  1
  Sr  Sr21  1  0.18029763  0.33287399  0.63034863  1
  Sr  Sr22  1  0.18381709  0.66658738  0.12797111  1
  Sr  Sr23  1  0.17658295  0.66963332  0.62565165  1
  Sr  Sr24  1  0.54458592  -0.00020331  0.13333662  1
  Sr  Sr25  1  0.53928427  -0.00029581  0.64065913  1
  Sr  Sr26  1  0.54088934  0.33237697  0.12834396  1
  Sr  Sr27  1  0.53094974  0.33231802  0.63414707  1
  Sr  Sr28  1  0.54198607  0.66639554  0.12678479  1
  Sr  Sr29  1  0.53399655  0.66770749  0.62854846  1
  Sr  Sr30  1  0.83236550  0.01234967  0.10111878  1
  Sr  Sr31  1  0.88104742  -0.00018299  0.61767211  1
  Sr  Sr32  1  0.84193000  0.32398950  0.09849519  1
  Sr  Sr33  1  0.89308735  0.33340221  0.61954220  1
  Sr  Sr34  1  0.86259251  0.66431780  0.10924504  1
  Sr  Sr35  1  0.89065631  0.66531816  0.62374672  1
  Sr  Sr36  1  -0.03695867  0.16758802  0.37949506  1
  Sr  Sr37  1  -0.03484917  0.16739789  0.88517975  1
  Sr  Sr38  1  -0.03661307  0.50028102  0.37871653  1
  Sr  Sr39  1  -0.03513796  0.50031302  0.88066936  1
  Sr  Sr40  1  -0.04119052  0.83123170  0.37959237  1
  Sr  Sr41  1  -0.03802256  0.83395133  0.87729760  1
  Sr  Sr42  1  0.32238014  0.16627153  0.38507401  1
  Sr  Sr43  1  0.31979749  0.16536214  0.88602546  1
  Sr  Sr44  1  0.32109307  0.50047430  0.37622832  1
  Sr  Sr45  1  0.32126173  0.50155050  0.88128241  1
  Sr  Sr46  1  0.32043595  0.83641632  0.38187893  1
  Sr  Sr47  1  0.32407729  0.83219659  0.88475171  1
  Sr  Sr48  1  0.63201818  0.17302887  0.37272720  1
  Sr  Sr49  1  0.60931553  0.16427586  0.85318166  1
  Sr  Sr50  1  0.65855091  0.50053886  0.38671328  1
  Sr  Sr51  1  0.60903576  0.50239899  0.86435995  1
  Sr  Sr52  1  0.63553005  0.82561873  0.37416937  1
  Sr  Sr53  1  0.61918817  0.83295561  0.85658711  1
  Sr  Sr54  1  0.21488216  -0.00117214  0.37391269  1
  Sr  Sr55  1  0.21407799  -0.00316470  0.87742851  1
  Sr  Sr56  1  0.21840341  0.33406103  0.37892871  1
  Sr  Sr57  1  0.21807927  0.33253450  0.87678321  1
  Sr  Sr58  1  0.21566754  0.66785774  0.37601199  1
  Sr  Sr59  1  0.21453524  0.67072634  0.87577839  1
  Sr  Sr60  1  0.52842538  -0.00044865  0.38664436  1
  Sr  Sr61  1  0.50683588  -0.00643508  0.88484319  1
  Sr  Sr62  1  0.50650527  0.34192162  0.38039923  1
  Sr  Sr63  1  0.50477321  0.33048594  0.87821366  1
  Sr  Sr64  1  0.51429634  0.65466921  0.37826761  1
  Sr  Sr65  1  0.50283147  0.67481275  0.87529377  1
  Sr  Sr66  1  0.85642411  0.00004134  0.35989489  1
  Sr  Sr67  1  0.85643573  -0.00051209  0.85641866  1
  Sr  Sr68  1  0.85397731  0.33485498  0.36542839  1
  Sr  Sr69  1  0.85851009  0.33454828  0.85422207  1
  Sr  Sr70  1  0.85324805  0.66447629  0.37245247  1
  Sr  Sr71  1  0.85927152  0.66648776  0.86169190  1
  Ta  Ta72  1  0.12919700  0.16502864  -0.01488302  1
  Ta  Ta73  1  0.12598145  0.16865611  0.48915730  1
  Ta  Ta74  1  0.12468687  0.50643108  -0.01181350  1
  Ta  Ta75  1  0.12911364  0.49653052  0.48246019  1
  Ta  Ta76  1  0.11734664  0.82730515  -0.00499325  1
  Ta  Ta77  1  0.12411520  0.83660352  0.47231305  1
  Ta  Ta78  1  0.45083461  0.16544122  0.03153059  1
  Ta  Ta79  1  0.45599678  0.16202411  0.52015516  1
  Ta  Ta80  1  0.45337641  0.50189851  0.01503184  1
  Ta  Ta81  1  0.44517892  0.50115414  0.52534452  1
  Ta  Ta82  1  0.45065613  0.83138873  0.03877456  1
  Ta  Ta83  1  0.45777061  0.83523527  0.51116330  1
  Ta  Ta84  1  0.76813725  0.16797623  -0.04988601  1
  Ta  Ta85  1  0.79619329  0.16572706  0.51173320  1
  Ta  Ta86  1  0.76962306  0.50187740  -0.05436708  1
  Ta  Ta87  1  0.80271364  0.49680179  0.52555122  1
  Ta  Ta88  1  0.78072194  0.83073756  -0.02478633  1
  Ta  Ta89  1  0.79659203  0.83614511  0.52039635  1
  Ta  Ta90  1  0.12621948  0.16483659  0.27436882  1
  Ta  Ta91  1  0.12469444  0.16727409  0.77370599  1
  Ta  Ta92  1  0.12369666  0.50483594  0.27144438  1
  Ta  Ta93  1  0.12669716  0.49980084  0.77285954  1
  Ta  Ta94  1  0.11569501  0.82840848  0.25820093  1
  Ta  Ta95  1  0.12176833  0.83302341  0.78036876  1
  Ta  Ta96  1  0.45662231  0.16115596  0.24320952  1
  Ta  Ta97  1  0.44440169  0.16009124  0.73183375  1
  Ta  Ta98  1  0.44974316  0.49995116  0.22509881  1
  Ta  Ta99  1  0.44621577  0.50033813  0.73692764  1
  Ta  Ta100  1  0.46074992  0.83574136  0.25387377  1
  Ta  Ta101  1  0.44536312  0.83801304  0.72527626  1
  Ta  Ta102  1  0.78119594  0.16961308  0.24220377  1
  Ta  Ta103  1  0.78639680  0.17183274  0.72593362  1
  Ta  Ta104  1  0.78893752  0.49894828  0.23361056  1
  Ta  Ta105  1  0.78477252  0.49941256  0.73291116  1
  Ta  Ta106  1  0.78818304  0.83131792  0.23436207  1
  Ta  Ta107  1  0.78312736  0.82611892  0.73876487  1
  Ta  Ta108  1  0.05387100  -0.00757406  0.27347559  1
  Ta  Ta109  1  0.04604886  -0.00099699  0.76630253  1
  Ta  Ta110  1  0.05349832  0.33311215  0.27540917  1
  Ta  Ta111  1  0.05224954  0.33257523  0.77572552  1
  Ta  Ta112  1  0.04263156  0.67243142  0.25563297  1
  Ta  Ta113  1  0.05413373  0.67028373  0.78487087  1
  Ta  Ta114  1  0.38566914  0.00359419  0.24464391  1
  Ta  Ta115  1  0.37287017  0.00047297  0.73381568  1
  Ta  Ta116  1  0.37764141  0.32693813  0.23646120  1
  Ta  Ta117  1  0.37014038  0.33330134  0.73699066  1
  Ta  Ta118  1  0.38089359  0.67266147  0.24033674  1
  Ta  Ta119  1  0.37014126  0.66537851  0.72675704  1
  Ta  Ta120  1  0.70486649  -0.00164742  0.25586829  1
  Ta  Ta121  1  0.70888794  0.00291753  0.74676874  1
  Ta  Ta122  1  0.70831409  0.33383328  0.25065230  1
  Ta  Ta123  1  0.70967456  0.33261538  0.75113258  1
  Ta  Ta124  1  0.71299791  0.66654025  0.24794971  1
  Ta  Ta125  1  0.71306529  0.66862127  0.75392071  1
  Ta  Ta126  1  0.05375922  -0.00267343  -0.02209282  1
  Ta  Ta127  1  0.04910736  -0.00006789  0.48435912  1
  Ta  Ta128  1  0.05742921  0.33345730  -0.02493298  1
  Ta  Ta129  1  0.05280310  0.33280485  0.48385209  1
  Ta  Ta130  1  0.04712356  0.67200101  -0.00300955  1
  Ta  Ta131  1  0.05341311  0.66775455  0.46868762  1
  Ta  Ta132  1  0.37382461  0.00086478  0.03408479  1
  Ta  Ta133  1  0.38539927  0.00277791  0.52560078  1
  Ta  Ta134  1  0.37499643  0.33458351  0.02270177  1
  Ta  Ta135  1  0.37364484  0.33245413  0.52451584  1
  Ta  Ta136  1  0.37717747  0.66379258  0.02937355  1
  Ta  Ta137  1  0.37622126  0.66868262  0.51549562  1
  Ta  Ta138  1  0.69515859  -0.00185527  -0.03124090  1
  Ta  Ta139  1  0.71602288  -0.00042875  0.49591694  1
  Ta  Ta140  1  0.69561731  0.33134085  -0.03994768  1
  Ta  Ta141  1  0.73493714  0.33529522  0.53919437  1
  Ta  Ta142  1  0.70322509  0.66936797  -0.03303827  1
  Ta  Ta143  1  0.73108517  0.66850315  0.54042410  1
  N  N144  1  0.35050109  0.33146403  0.88802557  1
  N  N145  1  0.35695006  0.32937811  0.37326209  1
  N  N146  1  0.82840872  0.83210189  0.10611863  1
  N  N147  1  0.14571745  0.50325462  0.63576044  1
  N  N148  1  0.83823927  0.83451646  0.85883140  1
  N  N149  1  0.67608572  -0.00174276  0.11142010  1
  N  N150  1  0.51865259  0.50028762  0.12457089  1
  N  N151  1  0.51785951  0.83263402  0.63538166  1
  N  N152  1  0.66374054  0.00234662  0.61611737  1
  N  N153  1  0.50411755  0.83120496  0.38631470  1
  N  N154  1  0.63670566  -0.00211371  0.84329731  1
  N  N155  1  0.02298821  -0.00216933  0.62855129  1
  N  N156  1  0.14618523  0.16358592  0.13757158  1
  N  N157  1  0.47744700  0.50495191  0.86895893  1
  N  N158  1  0.51918269  0.16645886  0.13059424  1
  N  N159  1  0.15825811  0.83277300  0.12499038  1
  N  N160  1  0.30590859  0.33041931  0.62829835  1
  N  N161  1  0.51751455  0.16662921  0.63994151  1
  N  N162  1  0.19377566  0.50036875  0.37346764  1
  N  N163  1  0.30537567  0.66958534  0.61993260  1
  N  N164  1  0.85793427  0.16708741  0.62342762  1
  N  N165  1  0.65754835  0.66535198  0.63053666  1
  N  N166  1  0.31275754  0.00060057  0.14435399  1
  N  N167  1  0.19413786  0.16439987  0.87661583  1
  N  N168  1  -0.01953523  0.66596569  0.37710567  1
  N  N169  1  0.52040355  0.83338739  0.13731323  1
  N  N170  1  0.34766447  0.66976855  0.37324472  1
  N  N171  1  0.63440222  0.33466525  0.84747551  1
  N  N172  1  0.65462723  0.00264183  0.38070207  1
  N  N173  1  0.78851389  0.17089993  0.10005864  1
  N  N174  1  0.14923658  0.50207228  0.12368619  1
  N  N175  1  0.14881364  0.16490832  0.62544971  1
  N  N176  1  0.84255947  0.49998968  0.85223981  1
  O  O177  1  0.80684920  0.49927471  0.37657368  1
  O  O178  1  0.79366845  0.49579785  0.09319289  1
  O  O179  1  0.63398672  0.66962696  0.85112110  1
  O  O180  1  0.36196528  0.67277324  0.87955261  1
  O  O181  1  0.19974843  0.51083710  0.87955514  1
  O  O182  1  -0.02272119  0.33285755  0.88656150  1
  O  O183  1  0.45931644  0.83383555  0.87795487  1
  O  O184  1  -0.02137278  0.66790529  0.88631930  1
  O  O185  1  -0.00726554  0.66110460  0.13075144  1
  O  O186  1  0.35147701  -0.00506108  0.88515293  1
  O  O187  1  0.19463481  0.83629980  0.36648752  1
  O  O188  1  0.46172853  0.49834739  0.37859604  1
  O  O189  1  0.03578779  0.00194045  0.13087336  1
  O  O190  1  0.04471177  0.33179239  0.12985726  1
  O  O191  1  0.87351043  0.50092837  0.62849445  1
  O  O192  1  0.84682733  0.16815115  0.85937512  1
  O  O193  1  -0.02297114  0.00130799  0.38249272  1
  O  O194  1  -0.02348605  0.00146765  0.88479938  1
  O  O195  1  0.82996671  0.83261597  0.37243041  1
  O  O196  1  0.13067311  0.83331656  0.62402020  1
  O  O197  1  0.30477223  0.65806672  0.13255032  1
  O  O198  1  0.52040109  0.49759475  0.63011164  1
  O  O199  1  0.49935192  0.17540059  0.38823427  1
  O  O200  1  0.03270975  0.66865282  0.62107734  1
  O  O201  1  0.68329483  0.33653301  0.10985494  1
  O  O202  1  0.20125140  0.15956775  0.37978360  1
  O  O203  1  -0.02312409  0.33132355  0.38050382  1
  O  O204  1  0.65022379  0.33632137  0.61570041  1
  O  O205  1  0.02813593  0.33557343  0.63052387  1
  O  O206  1  0.30252397  -0.00201750  0.62838451  1
  O  O207  1  0.70602755  0.34192835  0.39298600  1
  O  O208  1  0.30133290  0.33343037  0.13253042  1
  O  O209  1  0.19430392  0.83168333  0.88168648  1
  O  O210  1  0.68349895  0.66280572  0.10733339  1
  O  O211  1  0.47362335  0.16080099  0.87975064  1
  O  O212  1  0.83879694  0.16875369  0.36879206  1
  O  O213  1  0.34236631  0.00202919  0.39199584  1
  O  O214  1  0.86485209  0.83004169  0.62585919  1
  O  O215  1  0.71115078  0.65921538  0.38935021  1
