# generated using pymatgen
data_Sr24Ta24N11O13
_symmetry_space_group_name_H-M   'P 1'
_cell_length_a   16.64491991
_cell_length_b   17.74147942
_cell_length_c   14.91386892
_cell_angle_alpha   88.17843664
_cell_angle_beta   89.91624354
_cell_angle_gamma   89.34223819
_symmetry_Int_Tables_number   1
_chemical_formula_structural   Sr24Ta24N11O13
_chemical_formula_sum   'Sr72 Ta72 N33 O39'
_cell_volume   4401.62930221
_cell_formula_units_Z   3
loop_
 _symmetry_equiv_pos_site_id
 _symmetry_equiv_pos_as_xyz
  1  'x, y, z'
loop_
 _atom_site_type_symbol
 _atom_site_label
 _atom_site_symmetry_multiplicity
 _atom_site_fract_x
 _atom_site_fract_y
 _atom_site_fract_z
 _atom_site_occupancy
  Sr  Sr0  1  0.02022958  0.17349804  0.14428942  1
  Sr  Sr1  1  -0.01014945  0.18420770  0.61013638  1
  Sr  Sr2  1  0.00894627  0.50805749  0.11335797  1
  Sr  Sr3  1  0.03023131  0.55009898  0.63900323  1
  Sr  Sr4  1  -0.00285095  0.88684258  0.07513376  1
  Sr  Sr5  1  -0.00335769  0.83485176  0.62582657  1
  Sr  Sr6  1  0.33981101  0.21482362  0.07579275  1
  Sr  Sr7  1  0.34092744  0.15040381  0.62972153  1
  Sr  Sr8  1  0.34765661  0.51240804  0.14608756  1
  Sr  Sr9  1  0.33896058  0.53806627  0.60928798  1
  Sr  Sr10  1  0.33298465  0.83449946  0.11476398  1
  Sr  Sr11  1  0.35650615  0.86411066  0.61233514  1
  Sr  Sr12  1  0.67108199  0.17141928  0.11807250  1
  Sr  Sr13  1  0.69458722  0.19661416  0.61153440  1
  Sr  Sr14  1  0.66294402  0.54063743  0.07877684  1
  Sr  Sr15  1  0.65882906  0.48927583  0.63326399  1
  Sr  Sr16  1  0.68150530  0.83401093  0.14485653  1
  Sr  Sr17  1  0.66626967  0.86366178  0.60862738  1
  Sr  Sr18  1  0.16455065  0.00033175  0.13507563  1
  Sr  Sr19  1  0.14170822  -0.02893498  0.62968666  1
  Sr  Sr20  1  0.15420927  0.32498165  0.09575181  1
  Sr  Sr21  1  0.17730045  0.27902798  0.65179427  1
  Sr  Sr22  1  0.16516814  0.62410091  0.15906016  1
  Sr  Sr23  1  0.17729678  0.67602330  0.61507594  1
  Sr  Sr24  1  0.49954599  -0.05179112  0.18107979  1
  Sr  Sr25  1  0.50234985  0.00102880  0.62127917  1
  Sr  Sr26  1  0.50735476  0.33326858  0.13328107  1
  Sr  Sr27  1  0.47704077  0.29932931  0.63411911  1
  Sr  Sr28  1  0.48255989  0.66643126  0.10306546  1
  Sr  Sr29  1  0.50655902  0.63741553  0.64063433  1
  Sr  Sr30  1  0.81193823  -0.01205270  0.10821405  1
  Sr  Sr31  1  0.83617318  -0.03239517  0.63875339  1
  Sr  Sr32  1  0.83540188  0.28741888  0.17191091  1
  Sr  Sr33  1  0.81975129  0.34316734  0.62445022  1
  Sr  Sr34  1  0.82374434  0.65961710  0.13420262  1
  Sr  Sr35  1  0.79958466  0.63775695  0.63308013  1
  Sr  Sr36  1  0.00314388  0.17835806  0.36578661  1
  Sr  Sr37  1  0.00272714  0.21203071  0.83611575  1
  Sr  Sr38  1  0.01372973  0.53333682  0.35152548  1
  Sr  Sr39  1  0.01526325  0.50842961  0.89703714  1
  Sr  Sr40  1  0.01243500  0.84136604  0.39313990  1
  Sr  Sr41  1  0.00562544  0.83908327  0.85388322  1
  Sr  Sr42  1  0.35043154  0.18069949  0.39668562  1
  Sr  Sr43  1  0.34692571  0.16389997  0.85701757  1
  Sr  Sr44  1  0.32712887  0.50547240  0.37091657  1
  Sr  Sr45  1  0.33284321  0.54780672  0.83453128  1
  Sr  Sr46  1  0.33208708  0.88530182  0.32903399  1
  Sr  Sr47  1  0.34635559  0.83914989  0.89960050  1
  Sr  Sr48  1  0.67381440  0.22298239  0.33051540  1
  Sr  Sr49  1  0.68414896  0.17554703  0.90375267  1
  Sr  Sr50  1  0.68919516  0.51367526  0.40144320  1
  Sr  Sr51  1  0.67117580  0.49361934  0.85978728  1
  Sr  Sr52  1  0.67029234  0.83714670  0.35985396  1
  Sr  Sr53  1  0.66839250  0.88024593  0.84979563  1
  Sr  Sr54  1  0.14841291  -0.00908803  0.34845898  1
  Sr  Sr55  1  0.16452413  -0.05018757  0.92274929  1
  Sr  Sr56  1  0.15605730  0.30071607  0.40731848  1
  Sr  Sr57  1  0.16021514  0.32747480  0.88255353  1
  Sr  Sr58  1  0.15633580  0.67278227  0.38628106  1
  Sr  Sr59  1  0.14882187  0.65468724  0.84816864  1
  Sr  Sr60  1  0.49239174  -0.00450633  0.39683373  1
  Sr  Sr61  1  0.48142552  -0.01193172  0.85155759  1
  Sr  Sr62  1  0.48337844  0.32972128  0.34829433  1
  Sr  Sr63  1  0.50512161  0.28256983  0.92354109  1
  Sr  Sr64  1  0.49790060  0.61738276  0.40623288  1
  Sr  Sr65  1  0.49189927  0.66367980  0.88461270  1
  Sr  Sr66  1  0.82832080  -0.04993583  0.40248344  1
  Sr  Sr67  1  0.83304052  -0.00853880  0.89019918  1
  Sr  Sr68  1  0.83608583  0.33616941  0.40048892  1
  Sr  Sr69  1  0.82007931  0.32412153  0.84846374  1
  Sr  Sr70  1  0.82252988  0.65190666  0.34860075  1
  Sr  Sr71  1  0.82786139  0.61722086  0.91511106  1
  Ta  Ta72  1  0.16496631  0.13619506  -0.02654035  1
  Ta  Ta73  1  0.16413595  0.12009537  0.50190155  1
  Ta  Ta74  1  0.20536159  0.50088224  -0.00870887  1
  Ta  Ta75  1  0.16926260  0.46044834  0.52248087  1
  Ta  Ta76  1  0.15745515  0.77666985  0.01621206  1
  Ta  Ta77  1  0.20292623  0.83855079  0.48248166  1
  Ta  Ta78  1  0.49549305  0.10167813  0.02647969  1
  Ta  Ta79  1  0.54207546  0.17095431  0.48209996  1
  Ta  Ta80  1  0.48190934  0.47132467  -0.02694136  1
  Ta  Ta81  1  0.49059694  0.44827461  0.51092854  1
  Ta  Ta82  1  0.53244875  0.84257753  -0.00112140  1
  Ta  Ta83  1  0.50276652  0.79970196  0.48536705  1
  Ta  Ta84  1  0.86923704  0.17047953  0.00233579  1
  Ta  Ta85  1  0.83291920  0.12106612  0.47104396  1
  Ta  Ta86  1  0.83421566  0.44238188  0.01756585  1
  Ta  Ta87  1  0.87832153  0.50573763  0.50364346  1
  Ta  Ta88  1  0.83011781  0.79879307  -0.01679785  1
  Ta  Ta89  1  0.82893765  0.78067525  0.49941641  1
  Ta  Ta90  1  0.21076255  0.17594686  0.24024561  1
  Ta  Ta91  1  0.16096138  0.10441690  0.77845975  1
  Ta  Ta92  1  0.16744117  0.44280837  0.25073540  1
  Ta  Ta93  1  0.17683973  0.46239377  0.73698606  1
  Ta  Ta94  1  0.15219553  0.81098623  0.22135644  1
  Ta  Ta95  1  0.20040114  0.82672387  0.75431228  1
  Ta  Ta96  1  0.49620072  0.13872469  0.22163930  1
  Ta  Ta97  1  0.54368673  0.15572598  0.75530840  1
  Ta  Ta98  1  0.53634675  0.50305104  0.24232996  1
  Ta  Ta99  1  0.48780685  0.44207572  0.76861713  1
  Ta  Ta100  1  0.49116661  0.77457847  0.28002090  1
  Ta  Ta101  1  0.50641927  0.80793241  0.74104421  1
  Ta  Ta102  1  0.82870512  0.10815825  0.27364584  1
  Ta  Ta103  1  0.83376727  0.13300779  0.74551556  1
  Ta  Ta104  1  0.84110935  0.47040854  0.24072647  1
  Ta  Ta105  1  0.86986016  0.49241895  0.75331862  1
  Ta  Ta106  1  0.87160997  0.82895482  0.23728520  1
  Ta  Ta107  1  0.81987485  0.78404335  0.75869239  1
  Ta  Ta108  1  -0.03725267  0.00130857  0.25170097  1
  Ta  Ta109  1  -0.00115539  0.03200924  0.76623745  1
  Ta  Ta110  1  0.00667477  0.36276246  0.25950623  1
  Ta  Ta111  1  0.00380090  0.38537365  0.73734441  1
  Ta  Ta112  1  0.00276724  0.72050811  0.22304479  1
  Ta  Ta113  1  -0.04846823  0.67315620  0.76867950  1
  Ta  Ta114  1  0.34069011  0.06434739  0.22578867  1
  Ta  Ta115  1  0.29196620  -0.00793105  0.75891581  1
  Ta  Ta116  1  0.29710692  0.32932978  0.24633779  1
  Ta  Ta117  1  0.33793590  0.36769901  0.77998201  1
  Ta  Ta118  1  0.33794104  0.69557432  0.26540826  1
  Ta  Ta119  1  0.33971811  0.71941878  0.74167580  1
  Ta  Ta120  1  0.67220486  0.03680683  0.27756689  1
  Ta  Ta121  1  0.67210773  0.05041510  0.74924484  1
  Ta  Ta122  1  0.67729077  0.39615881  0.23653855  1
  Ta  Ta123  1  0.62903845  0.32289201  0.76116409  1
  Ta  Ta124  1  0.62834060  0.65861235  0.24637571  1
  Ta  Ta125  1  0.66410228  0.70721860  0.77405291  1
  Ta  Ta126  1  0.00824413  0.06124712  -0.02717064  1
  Ta  Ta127  1  -0.00636541  0.02651809  0.50212733  1
  Ta  Ta128  1  -0.03793541  0.33020359  -0.00150047  1
  Ta  Ta129  1  0.00770160  0.39443120  0.53011909  1
  Ta  Ta130  1  -0.00202557  0.70065496  0.01756000  1
  Ta  Ta131  1  -0.03602691  0.67417063  0.49755321  1
  Ta  Ta132  1  0.34292475  0.02439853  0.02862139  1
  Ta  Ta133  1  0.29117177  0.01057572  0.49737623  1
  Ta  Ta134  1  0.34031514  0.39298338  -0.02527483  1
  Ta  Ta135  1  0.32527726  0.36018956  0.51470820  1
  Ta  Ta136  1  0.29671522  0.66527744  0.00172106  1
  Ta  Ta137  1  0.34331264  0.72000983  0.48208033  1
  Ta  Ta138  1  0.62264200  -0.00363691  0.01410928  1
  Ta  Ta139  1  0.67451771  0.05939250  0.47406321  1
  Ta  Ta140  1  0.68855184  0.35354675  0.02233687  1
  Ta  Ta141  1  0.62719771  0.34438321  0.49620731  1
  Ta  Ta142  1  0.66672909  0.71900493  -0.01736405  1
  Ta  Ta143  1  0.65756191  0.69759343  0.49655523  1
  N  N144  1  0.66740758  0.66621215  0.37119237  1
  N  N145  1  0.67082805  0.31169401  0.15398563  1
  N  N146  1  -0.01045423  -0.00000661  0.63955779  1
  N  N147  1  0.66523104  0.32904826  0.89466638  1
  N  N148  1  0.83671498  0.47751532  0.87887882  1
  N  N149  1  0.50315409  0.84104621  0.87255244  1
  N  N150  1  0.65795928  0.68629377  0.10793108  1
  N  N151  1  0.33412154  0.68603135  0.87758426  1
  N  N152  1  0.50130283  0.85819328  0.36187287  1
  N  N153  1  -0.01233493  0.64340624  0.13242910  1
  N  N154  1  0.17362605  0.48087190  0.12265114  1
  N  N155  1  0.49361148  0.47730758  0.63861470  1
  N  N156  1  0.16992177  0.83566848  0.35577305  1
  N  N157  1  -0.00526505  -0.02291892  0.89230299  1
  N  N158  1  0.16396607  0.86206048  0.09812020  1
  N  N159  1  0.85092027  0.49529728  0.36930239  1
  N  N160  1  0.66902031  0.36151558  0.36992647  1
  N  N161  1  0.16876696  0.50028727  0.85805605  1
  N  N162  1  0.16560009  0.81171277  0.87774133  1
  N  N163  1  0.33263411  -0.02595078  0.14837539  1
  N  N164  1  0.32352823  0.00601759  0.63191352  1
  N  N165  1  0.83279824  0.83732502  0.10231801  1
  N  N166  1  0.51217129  0.84179758  0.60709190  1
  N  N167  1  -0.00228612  0.35164518  0.87354269  1
  N  N168  1  0.83508158  0.81134897  0.36416309  1
  N  N169  1  -0.00866136  0.65933091  0.89013013  1
  N  N170  1  -0.00424351  -0.01348865  0.37679774  1
  N  N171  1  0.34119978  0.68798374  0.60757874  1
  N  N172  1  0.18586147  0.52854284  0.62174542  1
  N  N173  1  0.82436233  0.81566057  0.63134263  1
  N  N174  1  0.32788067  0.66945143  0.14111463  1
  N  N175  1  0.50898049  0.19199607  0.10594449  1
  N  N176  1  0.66005847  0.33912009  0.63248557  1
  O  O177  1  0.66846853  0.02194411  0.88844714  1
  O  O178  1  0.50954933  0.52736959  0.85394625  1
  O  O179  1  0.16647369  0.82608838  0.61407930  1
  O  O180  1  0.33763245  0.29865817  0.89795914  1
  O  O181  1  0.66195158  0.00462823  0.14625665  1
  O  O182  1  0.84352119  0.19416693  0.36057710  1
  O  O183  1  0.17120498  0.47731848  0.38075582  1
  O  O184  1  0.65648284  0.69389824  0.64052354  1
  O  O185  1  0.16500135  0.15390689  0.36392967  1
  O  O186  1  -0.02311981  0.31946671  0.62952095  1
  O  O187  1  0.65193799  -0.02751131  0.39466466  1
  O  O188  1  0.19362331  0.19278123  0.85361765  1
  O  O189  1  0.84200290  0.17333897  0.87192305  1
  O  O190  1  0.30465976  0.64215288  0.38812086  1
  O  O191  1  0.32136445  0.34968925  0.11472814  1
  O  O192  1  0.81665903  0.49137728  0.62094911  1
  O  O193  1  0.16237050  0.13271628  0.63580609  1
  O  O194  1  0.48723311  0.47850387  0.36440852  1
  O  O195  1  0.50541679  0.14218976  0.88517608  1
  O  O196  1  0.65493873  0.63555533  0.88640623  1
  O  O197  1  0.50321707  0.48807284  0.10767441  1
  O  O198  1  0.84511546  0.14716558  0.13324653  1
  O  O199  1  0.33841786  0.02923331  0.37103683  1
  O  O200  1  0.67113548  0.03514460  0.61625290  1
  O  O201  1  0.83749119  0.13192172  0.61234730  1
  O  O202  1  -0.01987811  0.68374163  0.63048387  1
  O  O203  1  0.49677097  0.81326730  0.13144865  1
  O  O204  1  0.00477380  0.02676055  0.12131288  1
  O  O205  1  0.53219888  0.16072083  0.61411440  1
  O  O206  1  0.31620497  0.33273477  0.38526586  1
  O  O207  1  0.17375712  0.16779095  0.10600771  1
  O  O208  1  0.50735319  0.18254173  0.35273731  1
  O  O209  1  0.00101120  0.32527244  0.13336515  1
  O  O210  1  0.33124948  -0.00808482  0.89469946  1
  O  O211  1  0.32653441  0.34174731  0.64745170  1
  O  O212  1  0.00632454  0.35988902  0.39270430  1
  O  O213  1  0.84757422  0.52290998  0.10856737  1
  O  O214  1  0.83220738  0.85943370  0.85760348  1
  O  O215  1  -0.00338462  0.67942488  0.36496709  1
