# generated using pymatgen
data_Sr24Ta24N11O13
_symmetry_space_group_name_H-M   'P 1'
_cell_length_a   16.87198764
_cell_length_b   16.71654331
_cell_length_c   15.66248795
_cell_angle_alpha   89.82740209
_cell_angle_beta   89.38039135
_cell_angle_gamma   89.84781741
_symmetry_Int_Tables_number   1
_chemical_formula_structural   Sr24Ta24N11O13
_chemical_formula_sum   'Sr72 Ta72 N33 O39'
_cell_volume   4417.17510405
_cell_formula_units_Z   3
loop_
 _symmetry_equiv_pos_site_id
 _symmetry_equiv_pos_as_xyz
  1  'x, y, z'
loop_
 _atom_site_type_symbol
 _atom_site_label
 _atom_site_symmetry_multiplicity
 _atom_site_fract_x
 _atom_site_fract_y
 _atom_site_fract_z
 _atom_site_occupancy
  Sr  Sr0  1  0.01253146  0.16558950  0.11406953  1
  Sr  Sr1  1  -0.00268061  0.15964539  0.66343267  1
  Sr  Sr2  1  0.01550136  0.49994438  0.08637564  1
  Sr  Sr3  1  0.00812452  0.48963864  0.62640303  1
  Sr  Sr4  1  -0.00156628  0.81314812  0.17708323  1
  Sr  Sr5  1  0.01812888  0.83819796  0.60597112  1
  Sr  Sr6  1  0.34915819  0.19942691  0.10632300  1
  Sr  Sr7  1  0.34356065  0.16921735  0.63066159  1
  Sr  Sr8  1  0.32449838  0.49569744  0.18393915  1
  Sr  Sr9  1  0.35234373  0.52210684  0.62376986  1
  Sr  Sr10  1  0.32955936  0.82658644  0.12769729  1
  Sr  Sr11  1  0.34408246  0.83851794  0.57245920  1
  Sr  Sr12  1  0.66572106  0.15309359  0.13448621  1
  Sr  Sr13  1  0.68614536  0.18673224  0.57803853  1
  Sr  Sr14  1  0.66604913  0.50905337  0.11590911  1
  Sr  Sr15  1  0.67509316  0.49686508  0.66307533  1
  Sr  Sr16  1  0.70685600  0.83131392  0.07351255  1
  Sr  Sr17  1  0.65692687  0.84215418  0.63144692  1
  Sr  Sr18  1  0.15336861  -0.02178983  0.14441331  1
  Sr  Sr19  1  0.16482950  -0.00158592  0.62343193  1
  Sr  Sr20  1  0.17667683  0.33156735  0.13953885  1
  Sr  Sr21  1  0.16345811  0.33145610  0.59045572  1
  Sr  Sr22  1  0.15632672  0.66165084  0.11443900  1
  Sr  Sr23  1  0.15147530  0.65802112  0.63764942  1
  Sr  Sr24  1  0.48468188  -0.00355448  0.13077282  1
  Sr  Sr25  1  0.49544859  0.00664481  0.65821968  1
  Sr  Sr26  1  0.52870146  0.32980956  0.07805528  1
  Sr  Sr27  1  0.50007975  0.34460784  0.63447317  1
  Sr  Sr28  1  0.48081068  0.65661694  0.15539953  1
  Sr  Sr29  1  0.49036457  0.68459093  0.57812053  1
  Sr  Sr30  1  0.82397801  0.00372463  0.10005727  1
  Sr  Sr31  1  0.82113454  -0.01091897  0.61251983  1
  Sr  Sr32  1  0.82317879  0.32063179  0.17284678  1
  Sr  Sr33  1  0.84518350  0.33922969  0.61768965  1
  Sr  Sr34  1  0.83070906  0.65784841  0.11564306  1
  Sr  Sr35  1  0.78827894  0.67646185  0.66393531  1
  Sr  Sr36  1  0.02058530  0.17530417  0.33048967  1
  Sr  Sr37  1  -0.00359209  0.15033449  0.88233376  1
  Sr  Sr38  1  -0.00036424  0.47922488  0.41859260  1
  Sr  Sr39  1  0.01402956  0.50363365  0.87809758  1
  Sr  Sr40  1  -0.01373046  0.84543325  0.38804947  1
  Sr  Sr41  1  0.03418617  0.82189625  0.83268544  1
  Sr  Sr42  1  0.33586109  0.18195273  0.39719977  1
  Sr  Sr43  1  0.34888111  0.17046346  0.86035382  1
  Sr  Sr44  1  0.36967728  0.50754815  0.38702901  1
  Sr  Sr45  1  0.33261168  0.51983533  0.84117072  1
  Sr  Sr46  1  0.36135919  0.85052708  0.34744342  1
  Sr  Sr47  1  0.31731577  0.82258352  0.91638166  1
  Sr  Sr48  1  0.67441378  0.16427514  0.36408855  1
  Sr  Sr49  1  0.66959984  0.17177921  0.90768485  1
  Sr  Sr50  1  0.68316293  0.51783778  0.33240836  1
  Sr  Sr51  1  0.65942545  0.50121426  0.88392931  1
  Sr  Sr52  1  0.67046266  0.82837768  0.40832621  1
  Sr  Sr53  1  0.67162169  0.84399118  0.85194016  1
  Sr  Sr54  1  0.16487258  -0.00868426  0.37864161  1
  Sr  Sr55  1  0.16306152  -0.00615665  0.86095444  1
  Sr  Sr56  1  0.17728852  0.33076601  0.36370835  1
  Sr  Sr57  1  0.14781050  0.32451701  0.92359445  1
  Sr  Sr58  1  0.10732974  0.65948866  0.40684403  1
  Sr  Sr59  1  0.16931062  0.65529313  0.86957319  1
  Sr  Sr60  1  0.50116279  0.02071877  0.33156785  1
  Sr  Sr61  1  0.48262369  -0.00764147  0.86637716  1
  Sr  Sr62  1  0.50652002  0.32080096  0.42188946  1
  Sr  Sr63  1  0.49032069  0.34820760  0.86013466  1
  Sr  Sr64  1  0.50980011  0.66482071  0.36824372  1
  Sr  Sr65  1  0.46030138  0.67825956  0.88653336  1
  Sr  Sr66  1  0.81626071  -0.01060586  0.39916941  1
  Sr  Sr67  1  0.81694851  0.00151692  0.88838461  1
  Sr  Sr68  1  0.83546270  0.32937274  0.38274619  1
  Sr  Sr69  1  0.85230594  0.33301853  0.82993022  1
  Sr  Sr70  1  0.82345872  0.66949545  0.34082063  1
  Sr  Sr71  1  0.80102819  0.67258225  0.89297876  1
  Ta  Ta72  1  0.19116385  0.13935304  0.00192665  1
  Ta  Ta73  1  0.13723656  0.16132381  0.49673445  1
  Ta  Ta74  1  0.20737580  0.49315258  0.00592322  1
  Ta  Ta75  1  0.19813695  0.50118499  0.50100770  1
  Ta  Ta76  1  0.12232270  0.82989307  0.01207076  1
  Ta  Ta77  1  0.18751910  0.81416790  0.48236258  1
  Ta  Ta78  1  0.50058792  0.13919537  0.00031455  1
  Ta  Ta79  1  0.50662593  0.13003411  0.50017811  1
  Ta  Ta80  1  0.46981526  0.51127870  0.00972796  1
  Ta  Ta81  1  0.55203427  0.50323973  0.49691277  1
  Ta  Ta82  1  0.52060363  0.83517480  -0.00005284  1
  Ta  Ta83  1  0.50628265  0.89281597  0.49458026  1
  Ta  Ta84  1  0.83662306  0.20089252  -0.00145792  1
  Ta  Ta85  1  0.88092242  0.16341151  0.49209358  1
  Ta  Ta86  1  0.83810816  0.45980201  0.00605736  1
  Ta  Ta87  1  0.81120461  0.52030705  0.50138579  1
  Ta  Ta88  1  0.89490496  0.83289829  -0.00339287  1
  Ta  Ta89  1  0.83283113  0.79251058  0.50316313  1
  Ta  Ta90  1  0.20344033  0.15208532  0.25081939  1
  Ta  Ta91  1  0.17402589  0.21115526  0.75264219  1
  Ta  Ta92  1  0.13357118  0.51243868  0.25315298  1
  Ta  Ta93  1  0.16882250  0.45411908  0.75651026  1
  Ta  Ta94  1  0.17823164  0.80050054  0.26713141  1
  Ta  Ta95  1  0.21441098  0.82660576  0.73126314  1
  Ta  Ta96  1  0.49952089  0.20779260  0.25111505  1
  Ta  Ta97  1  0.54928003  0.17654170  0.74292516  1
  Ta  Ta98  1  0.51291069  0.45109378  0.25320358  1
  Ta  Ta99  1  0.50648374  0.54195497  0.74143415  1
  Ta  Ta100  1  0.55108312  0.83744832  0.24074891  1
  Ta  Ta101  1  0.46951671  0.82052317  0.73870338  1
  Ta  Ta102  1  0.84755131  0.13291803  0.25643335  1
  Ta  Ta103  1  0.80568107  0.15469232  0.74949618  1
  Ta  Ta104  1  0.87983018  0.49506632  0.24561575  1
  Ta  Ta105  1  0.85628290  0.52286069  0.75659459  1
  Ta  Ta106  1  0.81356687  0.84962651  0.24691391  1
  Ta  Ta107  1  0.86108015  0.83683496  0.76056811  1
  Ta  Ta108  1  -0.03960261  0.00148163  0.25483078  1
  Ta  Ta109  1  -0.03326317  -0.01661702  0.74448969  1
  Ta  Ta110  1  0.00269302  0.37029551  0.25219276  1
  Ta  Ta111  1  0.04077140  0.33076722  0.74819594  1
  Ta  Ta112  1  -0.00475973  0.61712579  0.25045533  1
  Ta  Ta113  1  -0.03958275  0.65930970  0.74817211  1
  Ta  Ta114  1  0.31941408  0.03641223  0.24116514  1
  Ta  Ta115  1  0.32784106  -0.05186147  0.74799228  1
  Ta  Ta116  1  0.38170355  0.32912944  0.25784512  1
  Ta  Ta117  1  0.28963206  0.33656211  0.75441512  1
  Ta  Ta118  1  0.27473628  0.66854649  0.28674238  1
  Ta  Ta119  1  0.33946742  0.71566158  0.71678554  1
  Ta  Ta120  1  0.67255870  -0.04110063  0.23856447  1
  Ta  Ta121  1  0.66939466  0.04520469  0.75025265  1
  Ta  Ta122  1  0.63340730  0.33230814  0.25396058  1
  Ta  Ta123  1  0.67300815  0.29918910  0.74485259  1
  Ta  Ta124  1  0.66219795  0.71632762  0.24289361  1
  Ta  Ta125  1  0.60667588  0.67445650  0.74552280  1
  Ta  Ta126  1  0.00476635  -0.03901076  -0.00038590  1
  Ta  Ta127  1  -0.00180655  0.04110876  0.49675875  1
  Ta  Ta128  1  -0.05272087  0.32911367  0.00454497  1
  Ta  Ta129  1  0.00305849  0.28498903  0.49751734  1
  Ta  Ta130  1  -0.00270937  0.70257584  -0.00257275  1
  Ta  Ta131  1  -0.07074673  0.65460655  0.51067715  1
  Ta  Ta132  1  0.31945919  0.02035520  0.00983482  1
  Ta  Ta133  1  0.36516764  0.00891158  0.49048660  1
  Ta  Ta134  1  0.33778944  0.38626741  0.00305992  1
  Ta  Ta135  1  0.32600056  0.36125845  0.50313751  1
  Ta  Ta136  1  0.32782014  0.60917206  0.03020993  1
  Ta  Ta137  1  0.28945207  0.66822909  0.47794687  1
  Ta  Ta138  1  0.62687159  -0.00601849  -0.00433381  1
  Ta  Ta139  1  0.63016915  0.00702500  0.49685667  1
  Ta  Ta140  1  0.73038283  0.33415653  -0.00241253  1
  Ta  Ta141  1  0.67722995  0.38314792  0.50111625  1
  Ta  Ta142  1  0.61441229  0.67892460  -0.00618128  1
  Ta  Ta143  1  0.68073100  0.64502783  0.49912077  1
  N  N144  1  0.34529706  0.34197527  0.38233907  1
  N  N145  1  0.83629218  0.83069947  0.88227352  1
  N  N146  1  0.17073816  0.49055828  0.87671231  1
  N  N147  1  0.83153709  0.16863319  0.37590654  1
  N  N148  1  0.17417754  0.83129838  0.61392048  1
  N  N149  1  0.52068632  0.50101850  0.36854271  1
  N  N150  1  0.66710170  0.67571090  0.36378910  1
  N  N151  1  0.13017331  0.83501846  0.37531541  1
  N  N152  1  0.15725357  0.82062301  0.13221161  1
  N  N153  1  -0.00619134  0.00073960  0.37368398  1
  N  N154  1  0.64592244  0.67346018  0.61756731  1
  N  N155  1  0.67987520  0.34065099  0.62169346  1
  N  N156  1  0.83526338  0.17022617  0.87091730  1
  N  N157  1  0.32817153  0.67416533  0.59341787  1
  N  N158  1  0.83590283  0.49797692  0.12954367  1
  N  N159  1  0.50863283  0.51032103  0.61935007  1
  N  N160  1  0.51229024  0.17278588  0.62114204  1
  N  N161  1  0.50590068  0.17039453  0.37245281  1
  N  N162  1  0.82769382  0.82654161  0.38180037  1
  N  N163  1  0.85033771  0.83212148  0.12746917  1
  N  N164  1  0.16592755  0.49391229  0.13444188  1
  N  N165  1  0.64282297  0.67356474  0.87311499  1
  N  N166  1  0.65768046  0.00554613  0.86850903  1
  N  N167  1  -0.00823195  0.00039991  0.62547874  1
  N  N168  1  0.34225892  0.00970301  0.36869562  1
  N  N169  1  0.50026759  0.49556257  0.12876554  1
  N  N170  1  0.49936141  0.84956737  0.61891038  1
  N  N171  1  0.00783232  0.32261289  0.62850337  1
  N  N172  1  0.00687744  0.33051160  0.37001885  1
  N  N173  1  0.50547624  0.16766687  0.11919035  1
  N  N174  1  0.66669984  -0.00598781  0.11934437  1
  N  N175  1  0.17366418  0.16603175  0.37605689  1
  N  N176  1  0.32695010  -0.01974303  0.12528121  1
  O  O177  1  0.33568228  0.36044641  0.87548825  1
  O  O178  1  0.67560242  0.33905391  0.37634795  1
  O  O179  1  0.31057799  0.66985425  0.92887894  1
  O  O180  1  0.82915876  0.50606289  0.63334921  1
  O  O181  1  0.67792657  0.33250186  0.12980635  1
  O  O182  1  0.83971702  0.16544018  0.62224085  1
  O  O183  1  0.83842701  0.16607216  0.13137451  1
  O  O184  1  0.85216322  0.50640089  0.88191691  1
  O  O185  1  0.65374538  0.00389385  0.62672812  1
  O  O186  1  0.49688920  0.83599654  0.87454894  1
  O  O187  1  0.65715058  0.00130954  0.36827149  1
  O  O188  1  -0.01408575  0.65216234  0.61976665  1
  O  O189  1  0.48699167  0.50616971  0.86629849  1
  O  O190  1  0.18834252  0.15879305  0.87386346  1
  O  O191  1  0.51441996  0.85182602  0.36910976  1
  O  O192  1  0.33999158  -0.01126539  0.62647645  1
  O  O193  1  0.50194297  0.15832379  0.86426315  1
  O  O194  1  0.65154843  0.66917566  0.11982462  1
  O  O195  1  0.17168467  0.83101993  0.88582824  1
  O  O196  1  -0.00359990  0.32877981  0.88117876  1
  O  O197  1  -0.01468581  0.66666606  0.87262030  1
  O  O198  1  0.16159002  0.49306330  0.38270692  1
  O  O199  1  0.00617665  -0.01132563  0.87264259  1
  O  O200  1  0.31095828  0.64718078  0.15466083  1
  O  O201  1  0.83354606  0.50373978  0.37488949  1
  O  O202  1  0.69895568  0.32991947  0.86773787  1
  O  O203  1  0.16548466  0.17437034  0.62963586  1
  O  O204  1  0.34520528  0.35345093  0.12841083  1
  O  O205  1  -0.00566861  -0.01541954  0.12529305  1
  O  O206  1  -0.00945283  0.32964145  0.12625399  1
  O  O207  1  0.18343797  0.50137889  0.62959158  1
  O  O208  1  0.36457227  0.67882170  0.36980590  1
  O  O209  1  0.49278223  0.83469574  0.12506457  1
  O  O210  1  0.33186471  0.33580400  0.63232757  1
  O  O211  1  0.17096638  0.16526507  0.12205680  1
  O  O212  1  0.82767050  0.82927539  0.63004594  1
  O  O213  1  -0.03347373  0.63552156  0.38425529  1
  O  O214  1  0.32185831  -0.02559794  0.87805543  1
  O  O215  1  -0.00200946  0.65540668  0.11989552  1
