# generated using pymatgen
data_Sr24Ta24N11O13
_symmetry_space_group_name_H-M   'P 1'
_cell_length_a   16.48928899
_cell_length_b   18.10939250
_cell_length_c   14.81171664
_cell_angle_alpha   88.35742044
_cell_angle_beta   89.66297736
_cell_angle_gamma   88.68214035
_symmetry_Int_Tables_number   1
_chemical_formula_structural   Sr24Ta24N11O13
_chemical_formula_sum   'Sr72 Ta72 N33 O39'
_cell_volume   4419.89437092
_cell_formula_units_Z   3
loop_
 _symmetry_equiv_pos_site_id
 _symmetry_equiv_pos_as_xyz
  1  'x, y, z'
loop_
 _atom_site_type_symbol
 _atom_site_label
 _atom_site_symmetry_multiplicity
 _atom_site_fract_x
 _atom_site_fract_y
 _atom_site_fract_z
 _atom_site_occupancy
  Sr  Sr0  1  -0.00058419  0.15984755  0.11257801  1
  Sr  Sr1  1  0.01734101  0.20119842  0.62603345  1
  Sr  Sr2  1  0.00488725  0.54625890  0.08827767  1
  Sr  Sr3  1  0.00944077  0.48518787  0.62669455  1
  Sr  Sr4  1  0.01393760  0.83767148  0.16066414  1
  Sr  Sr5  1  0.00418539  0.89183802  0.59606481  1
  Sr  Sr6  1  0.34883175  0.17605236  0.14497739  1
  Sr  Sr7  1  0.33005696  0.19225669  0.60962770  1
  Sr  Sr8  1  0.33907379  0.50321866  0.11932147  1
  Sr  Sr9  1  0.35114296  0.52634611  0.61197978  1
  Sr  Sr10  1  0.32805775  0.87448436  0.08178983  1
  Sr  Sr11  1  0.33938898  0.83312172  0.62472203  1
  Sr  Sr12  1  0.65277303  0.22615083  0.03800571  1
  Sr  Sr13  1  0.67249532  0.15583577  0.61419164  1
  Sr  Sr14  1  0.68280121  0.49109809  0.15925588  1
  Sr  Sr15  1  0.66033893  0.51474298  0.61708847  1
  Sr  Sr16  1  0.67588705  0.86004550  0.11230544  1
  Sr  Sr17  1  0.69040956  0.88832641  0.64818955  1
  Sr  Sr18  1  0.15452402  -0.00948781  0.10084751  1
  Sr  Sr19  1  0.19679278  -0.01059054  0.62520436  1
  Sr  Sr20  1  0.16401418  0.27873374  0.17447364  1
  Sr  Sr21  1  0.17352136  0.32867943  0.62153876  1
  Sr  Sr22  1  0.16823610  0.66205872  0.12979335  1
  Sr  Sr23  1  0.15810720  0.61939093  0.62302225  1
  Sr  Sr24  1  0.48748669  0.00095167  0.12321964  1
  Sr  Sr25  1  0.48036620  -0.04679795  0.69293711  1
  Sr  Sr26  1  0.48068639  0.32894807  0.11028892  1
  Sr  Sr27  1  0.50570824  0.30727292  0.63938953  1
  Sr  Sr28  1  0.49331764  0.61144854  0.19550205  1
  Sr  Sr29  1  0.50452519  0.65273229  0.62498909  1
  Sr  Sr30  1  0.84382867  -0.03779694  0.15854409  1
  Sr  Sr31  1  0.83291802  0.01371915  0.60481175  1
  Sr  Sr32  1  0.83152369  0.33897440  0.12543542  1
  Sr  Sr33  1  0.80419121  0.30465979  0.63924495  1
  Sr  Sr34  1  0.81501038  0.64854135  0.09937536  1
  Sr  Sr35  1  0.84074321  0.60704775  0.64801552  1
  Sr  Sr36  1  -0.00621155  0.21610088  0.31530304  1
  Sr  Sr37  1  0.00545863  0.16649889  0.89692809  1
  Sr  Sr38  1  0.00799114  0.51408903  0.39948669  1
  Sr  Sr39  1  0.00565438  0.52290065  0.85601820  1
  Sr  Sr40  1  -0.01192020  0.83828505  0.37884112  1
  Sr  Sr41  1  0.00531766  0.86947873  0.82301409  1
  Sr  Sr42  1  0.32954728  0.16095382  0.37168085  1
  Sr  Sr43  1  0.33533626  0.21682171  0.85445891  1
  Sr  Sr44  1  0.33456738  0.55374074  0.33952449  1
  Sr  Sr45  1  0.33627459  0.51449295  0.89756157  1
  Sr  Sr46  1  0.35726597  0.84891964  0.39175105  1
  Sr  Sr47  1  0.32374526  0.83078768  0.86307596  1
  Sr  Sr48  1  0.67313748  0.16152761  0.39062740  1
  Sr  Sr49  1  0.66987759  0.19601522  0.82918850  1
  Sr  Sr50  1  0.66389349  0.53694167  0.36969536  1
  Sr  Sr51  1  0.67027379  0.56645819  0.85737022  1
  Sr  Sr52  1  0.68807680  0.87708263  0.36997315  1
  Sr  Sr53  1  0.69073221  0.81608733  0.89606480  1
  Sr  Sr54  1  0.16495537  -0.04611837  0.41500767  1
  Sr  Sr55  1  0.16480503  -0.02354519  0.86928028  1
  Sr  Sr56  1  0.15290712  0.32074873  0.39290357  1
  Sr  Sr57  1  0.14803121  0.31541045  0.86172233  1
  Sr  Sr58  1  0.14916258  0.66439132  0.35318412  1
  Sr  Sr59  1  0.16734415  0.64632473  0.89264459  1
  Sr  Sr60  1  0.51882605  -0.00127022  0.33183930  1
  Sr  Sr61  1  0.49646029  -0.06996322  0.91591136  1
  Sr  Sr62  1  0.49456259  0.28160941  0.38809683  1
  Sr  Sr63  1  0.49344494  0.33308060  0.89337177  1
  Sr  Sr64  1  0.49497965  0.67417669  0.40306641  1
  Sr  Sr65  1  0.48487273  0.65010252  0.86860458  1
  Sr  Sr66  1  0.81919410  0.02404314  0.37107504  1
  Sr  Sr67  1  0.82471492  -0.02002640  0.85162776  1
  Sr  Sr68  1  0.81857275  0.33185050  0.34318951  1
  Sr  Sr69  1  0.83116577  0.28552419  0.91354808  1
  Sr  Sr70  1  0.82641299  0.63689547  0.41010003  1
  Sr  Sr71  1  0.84138658  0.66640445  0.87838375  1
  Ta  Ta72  1  0.19751431  0.15749311  0.00496559  1
  Ta  Ta73  1  0.14481864  0.13653351  0.46619128  1
  Ta  Ta74  1  0.16091363  0.44570961  0.02213910  1
  Ta  Ta75  1  0.20125430  0.47945090  0.48342637  1
  Ta  Ta76  1  0.13236584  0.81908425  -0.01576707  1
  Ta  Ta77  1  0.15864326  0.78332113  0.51401822  1
  Ta  Ta78  1  0.49529883  0.12979661  -0.03337902  1
  Ta  Ta79  1  0.49612364  0.12509033  0.50272435  1
  Ta  Ta80  1  0.53042517  0.50312684  0.01371085  1
  Ta  Ta81  1  0.50010109  0.46206222  0.47393662  1
  Ta  Ta82  1  0.49843947  0.76672765  0.04108292  1
  Ta  Ta83  1  0.53004208  0.84603809  0.51297645  1
  Ta  Ta84  1  0.81432388  0.11005412  0.01513899  1
  Ta  Ta85  1  0.86975953  0.18091825  0.47720089  1
  Ta  Ta86  1  0.83439347  0.47500743  -0.02011274  1
  Ta  Ta87  1  0.82238003  0.45051371  0.49481205  1
  Ta  Ta88  1  0.88330554  0.83392202  -0.00941397  1
  Ta  Ta89  1  0.83057993  0.78939651  0.53021791  1
  Ta  Ta90  1  0.16159114  0.10166189  0.26734065  1
  Ta  Ta91  1  0.17176026  0.13403510  0.74450478  1
  Ta  Ta92  1  0.16176815  0.46597783  0.22979239  1
  Ta  Ta93  1  0.19414771  0.47546739  0.75046305  1
  Ta  Ta94  1  0.19967335  0.84093165  0.25446342  1
  Ta  Ta95  1  0.16233029  0.78391125  0.72579385  1
  Ta  Ta96  1  0.54986217  0.16660681  0.21600902  1
  Ta  Ta97  1  0.49218184  0.12435140  0.76627516  1
  Ta  Ta98  1  0.49829408  0.44126944  0.27513528  1
  Ta  Ta99  1  0.50062448  0.47435812  0.75750874  1
  Ta  Ta100  1  0.50665986  0.80469731  0.23448716  1
  Ta  Ta101  1  0.54363214  0.79029592  0.74665176  1
  Ta  Ta102  1  0.79939099  0.17038958  0.21549811  1
  Ta  Ta103  1  0.85884616  0.14743073  0.75472085  1
  Ta  Ta104  1  0.87059872  0.50630915  0.24328076  1
  Ta  Ta105  1  0.82225017  0.44706767  0.77877921  1
  Ta  Ta106  1  0.82793491  0.78022278  0.25230281  1
  Ta  Ta107  1  0.84970895  0.79623708  0.72813023  1
  Ta  Ta108  1  0.01703658  0.02275269  0.27501173  1
  Ta  Ta109  1  0.00345169  0.04957301  0.74142217  1
  Ta  Ta110  1  0.00791511  0.39306248  0.23068199  1
  Ta  Ta111  1  -0.03558503  0.34186257  0.76862686  1
  Ta  Ta112  1  -0.03872505  0.66871344  0.25139644  1
  Ta  Ta113  1  0.00521710  0.70446168  0.72931201  1
  Ta  Ta114  1  0.30077453  -0.00784831  0.25490636  1
  Ta  Ta115  1  0.33345195  0.04577217  0.77876228  1
  Ta  Ta116  1  0.32640358  0.36845789  0.27398227  1
  Ta  Ta117  1  0.33794965  0.38149287  0.74339884  1
  Ta  Ta118  1  0.34270139  0.72924324  0.23217396  1
  Ta  Ta119  1  0.31066446  0.67550417  0.74498558  1
  Ta  Ta120  1  0.68177640  0.07631491  0.17149456  1
  Ta  Ta121  1  0.63361725  0.02584493  0.78834068  1
  Ta  Ta122  1  0.64568259  0.31165211  0.23218511  1
  Ta  Ta123  1  0.66035277  0.38357806  0.77921048  1
  Ta  Ta124  1  0.66304791  0.71224696  0.25238536  1
  Ta  Ta125  1  0.69367967  0.71849398  0.70080886  1
  Ta  Ta126  1  -0.02330780  -0.01785075  -0.00262299  1
  Ta  Ta127  1  -0.00069217  0.06786501  0.46936973  1
  Ta  Ta128  1  0.01295497  0.36032267  0.03399144  1
  Ta  Ta129  1  -0.04003703  0.33936499  0.48934330  1
  Ta  Ta130  1  0.00202077  0.71904865  -0.00783922  1
  Ta  Ta131  1  -0.00639800  0.70037133  0.53007283  1
  Ta  Ta132  1  0.33183590  0.04962931  -0.02347111  1
  Ta  Ta133  1  0.39890109  0.00605848  0.50922478  1
  Ta  Ta134  1  0.29007719  0.33965590  0.01921813  1
  Ta  Ta135  1  0.34187706  0.37840310  0.48302872  1
  Ta  Ta136  1  0.35250097  0.68844738  0.03128353  1
  Ta  Ta137  1  0.30255425  0.68949357  0.49625415  1
  Ta  Ta138  1  0.65746709  0.04327239  -0.01843483  1
  Ta  Ta139  1  0.59066837  0.00181970  0.52404130  1
  Ta  Ta140  1  0.67179942  0.40129468  -0.02267161  1
  Ta  Ta141  1  0.65855994  0.36099887  0.49294951  1
  Ta  Ta142  1  0.62278367  0.66474094  0.05334310  1
  Ta  Ta143  1  0.67029844  0.72984055  0.51266054  1
  N  N144  1  0.82683027  0.17544241  0.34663531  1
  N  N145  1  0.00026259  0.00889985  0.87318888  1
  N  N146  1  0.33683861  0.69618550  0.36377963  1
  N  N147  1  0.49334559  0.50411469  0.88251087  1
  N  N148  1  0.34338760  0.34612333  0.61889027  1
  N  N149  1  0.65633180  0.62686666  0.17984969  1
  N  N150  1  0.50042181  0.52859545  0.36743778  1
  N  N151  1  0.66621158  0.34956897  0.11034614  1
  N  N152  1  0.84143219  0.53060615  0.85519469  1
  N  N153  1  0.15575826  0.81666618  0.37397585  1
  N  N154  1  0.16965253  0.14129383  0.13034262  1
  N  N155  1  0.17257493  0.47767399  0.61416155  1
  N  N156  1  0.83279819  0.14293265  0.88328275  1
  N  N157  1  0.82648960  0.49545221  0.37267346  1
  N  N158  1  0.00005681  0.68524126  0.12741720  1
  N  N159  1  0.32633381  0.33171850  0.15186003  1
  N  N160  1  0.84848189  0.82600106  0.85523603  1
  N  N161  1  0.16499535  0.18893042  0.34798460  1
  N  N162  1  0.34953636  0.67319199  0.62289101  1
  N  N163  1  0.00171271  0.30366933  0.14712878  1
  N  N164  1  0.49952852  0.17106611  0.09059064  1
  N  N165  1  -0.00331711  0.62939483  0.63201789  1
  N  N166  1  0.16288214  0.82025933  0.85153566  1
  N  N167  1  0.50239831  0.19939109  0.85806471  1
  N  N168  1  0.67488991  0.64748836  0.59848738  1
  N  N169  1  -0.00560132  0.35400551  0.36429919  1
  N  N170  1  0.48768093  0.81413006  0.63217215  1
  N  N171  1  0.66003298  0.31970243  0.89202476  1
  N  N172  1  0.50172210  0.47478245  0.14916319  1
  N  N173  1  0.17360828  0.52137431  0.11536277  1
  N  N174  1  0.84149341  0.50228189  0.10867487  1
  N  N175  1  0.33871844  -0.02705507  0.88172198  1
  N  N176  1  0.33270949  0.64190110  0.15379011  1
  O  O177  1  -0.00702647  0.03001548  0.60687765  1
  O  O178  1  -0.00704066  0.32697468  0.89902871  1
  O  O179  1  -0.03089637  0.33969928  0.63577041  1
  O  O180  1  0.83408003  0.16224548  0.60928908  1
  O  O181  1  0.35727508  -0.00321385  0.37546172  1
  O  O182  1  0.51110426  0.83151632  0.36868162  1
  O  O183  1  0.65611361  0.68006143  0.39094818  1
  O  O184  1  0.83548485  0.81970820  0.12053207  1
  O  O185  1  0.51453732  0.86246961  0.11246808  1
  O  O186  1  -0.00237930  0.00097800  0.14019844  1
  O  O187  1  0.50446532  0.48761254  0.61034602  1
  O  O188  1  0.17838804  0.13548226  0.60669685  1
  O  O189  1  0.70540103  0.67892024  0.96181506  1
  O  O190  1  0.16199702  0.17129438  0.86781264  1
  O  O191  1  0.65401757  -0.04601665  0.89737189  1
  O  O192  1  0.83140427  0.78919298  0.38744315  1
  O  O193  1  0.84753728  0.87470270  0.61795522  1
  O  O194  1  -0.01170657  0.67771021  0.38980062  1
  O  O195  1  0.48945488  0.16159013  0.63469850  1
  O  O196  1  0.63703957  -0.01366289  0.09761620  1
  O  O197  1  0.33188861  0.29697110  0.39164400  1
  O  O198  1  0.32832330  0.01064827  0.12086454  1
  O  O199  1  0.16394727  0.51664247  0.35988727  1
  O  O200  1  0.67544278  0.01007324  0.43085924  1
  O  O201  1  0.65819484  0.31396227  0.37545809  1
  O  O202  1  0.33186610  0.35268023  0.88896023  1
  O  O203  1  0.16273082  0.48160209  0.88229575  1
  O  O204  1  0.16624977  0.84052831  0.11612142  1
  O  O205  1  0.00311467  0.66603869  0.87080590  1
  O  O206  1  0.64759640  0.02016969  0.65069420  1
  O  O207  1  0.65704034  0.36518747  0.63006680  1
  O  O208  1  -0.02397212  -0.02373401  0.39399166  1
  O  O209  1  0.51883703  0.14319997  0.35111190  1
  O  O210  1  0.34969630  0.01169192  0.63695401  1
  O  O211  1  0.81797089  0.46921390  0.63344469  1
  O  O212  1  0.84578527  0.20127719  0.08181243  1
  O  O213  1  0.51761785  0.79032330  0.88217536  1
  O  O214  1  0.15816384  0.86086950  0.60973600  1
  O  O215  1  0.32805847  0.67906596  0.89325761  1
