# generated using pymatgen
data_Sr24Ta24N11O13
_symmetry_space_group_name_H-M   'P 1'
_cell_length_a   16.84688538
_cell_length_b   16.84534723
_cell_length_c   15.75789513
_cell_angle_alpha   90.05396452
_cell_angle_beta   90.03383242
_cell_angle_gamma   90.19021969
_symmetry_Int_Tables_number   1
_chemical_formula_structural   Sr24Ta24N11O13
_chemical_formula_sum   'Sr72 Ta72 N33 O39'
_cell_volume   4471.93139078
_cell_formula_units_Z   3
loop_
 _symmetry_equiv_pos_site_id
 _symmetry_equiv_pos_as_xyz
  1  'x, y, z'
loop_
 _atom_site_type_symbol
 _atom_site_label
 _atom_site_symmetry_multiplicity
 _atom_site_fract_x
 _atom_site_fract_y
 _atom_site_fract_z
 _atom_site_occupancy
  Sr  Sr0  1  0.00394641  0.14401015  0.11379023  1
  Sr  Sr1  1  0.00490102  0.14923926  0.60208929  1
  Sr  Sr2  1  0.01053246  0.48846551  0.11303564  1
  Sr  Sr3  1  0.00886254  0.48723901  0.60436908  1
  Sr  Sr4  1  0.02214112  0.82479551  0.12726045  1
  Sr  Sr5  1  0.00724262  0.82598987  0.66503264  1
  Sr  Sr6  1  0.33515006  0.16357062  0.10783838  1
  Sr  Sr7  1  0.32317584  0.14645991  0.65474597  1
  Sr  Sr8  1  0.33692592  0.48768242  0.17170608  1
  Sr  Sr9  1  0.33739980  0.47960853  0.61062629  1
  Sr  Sr10  1  0.35855638  0.80082145  0.10520765  1
  Sr  Sr11  1  0.34334227  0.82630607  0.61465336  1
  Sr  Sr12  1  0.67753687  0.16323174  0.15698211  1
  Sr  Sr13  1  0.66320700  0.16590569  0.62317274  1
  Sr  Sr14  1  0.66301352  0.49532379  0.10333857  1
  Sr  Sr15  1  0.68473535  0.51167857  0.65846400  1
  Sr  Sr16  1  0.67289959  0.83467784  0.11930597  1
  Sr  Sr17  1  0.69082856  0.83091117  0.58797563  1
  Sr  Sr18  1  0.16949572  0.01747498  0.12372522  1
  Sr  Sr19  1  0.16137703  0.00051450  0.62496312  1
  Sr  Sr20  1  0.16289332  0.35818729  0.15129924  1
  Sr  Sr21  1  0.17173424  0.34168993  0.61827563  1
  Sr  Sr22  1  0.15048258  0.67342357  0.10387842  1
  Sr  Sr23  1  0.14828235  0.68484778  0.63321500  1
  Sr  Sr24  1  0.49401571  0.01869485  0.14351003  1
  Sr  Sr25  1  0.49419775  0.01207752  0.65107871  1
  Sr  Sr26  1  0.48596394  0.34486853  0.11723307  1
  Sr  Sr27  1  0.50387823  0.32889634  0.58608234  1
  Sr  Sr28  1  0.51348245  0.67249966  0.09348471  1
  Sr  Sr29  1  0.48484565  0.66201903  0.63371431  1
  Sr  Sr30  1  0.81658561  0.01265608  0.10094822  1
  Sr  Sr31  1  0.82038414  0.02036267  0.60933816  1
  Sr  Sr32  1  0.82484618  0.34734256  0.12461685  1
  Sr  Sr33  1  0.80157323  0.33483340  0.66925828  1
  Sr  Sr34  1  0.82770460  0.69387048  0.16566060  1
  Sr  Sr35  1  0.83686800  0.65635498  0.61525361  1
  Sr  Sr36  1  0.01237105  0.15019706  0.39428081  1
  Sr  Sr37  1  -0.00091103  0.14738553  0.89339809  1
  Sr  Sr38  1  0.00332951  0.48757728  0.38598179  1
  Sr  Sr39  1  0.01953126  0.48771043  0.90107238  1
  Sr  Sr40  1  0.01101435  0.82530836  0.33783369  1
  Sr  Sr41  1  0.00876501  0.82073438  0.86927578  1
  Sr  Sr42  1  0.32705162  0.12616933  0.34001874  1
  Sr  Sr43  1  0.32676757  0.16619853  0.88136850  1
  Sr  Sr44  1  0.33811493  0.49095293  0.38460043  1
  Sr  Sr45  1  0.32822798  0.48783838  0.83811672  1
  Sr  Sr46  1  0.33702390  0.82304541  0.40009295  1
  Sr  Sr47  1  0.37165732  0.80163019  0.87123318  1
  Sr  Sr48  1  0.66026218  0.17403490  0.38124585  1
  Sr  Sr49  1  0.68099067  0.16074102  0.84558590  1
  Sr  Sr50  1  0.69101399  0.50350270  0.35390020  1
  Sr  Sr51  1  0.66819027  0.49746119  0.87962901  1
  Sr  Sr52  1  0.67840337  0.82384338  0.37696599  1
  Sr  Sr53  1  0.68112879  0.84264114  0.90645569  1
  Sr  Sr54  1  0.16485171  -0.00309759  0.36961759  1
  Sr  Sr55  1  0.14928223  0.00923904  0.86839881  1
  Sr  Sr56  1  0.15803151  0.34426148  0.39057828  1
  Sr  Sr57  1  0.17539700  0.34915832  0.84910473  1
  Sr  Sr58  1  0.15016285  0.68557877  0.36997041  1
  Sr  Sr59  1  0.14995546  0.67518963  0.89448138  1
  Sr  Sr60  1  0.49988657  0.00645759  0.34818581  1
  Sr  Sr61  1  0.49955220  0.02488267  0.85677115  1
  Sr  Sr62  1  0.49328581  0.35273581  0.38188752  1
  Sr  Sr63  1  0.48475591  0.33119678  0.91073379  1
  Sr  Sr64  1  0.47967345  0.66980464  0.38240233  1
  Sr  Sr65  1  0.51787311  0.65010497  0.86968490  1
  Sr  Sr66  1  0.81543187  0.02400555  0.40395517  1
  Sr  Sr67  1  0.81860343  0.01184866  0.88664079  1
  Sr  Sr68  1  0.81810591  0.33423687  0.33848684  1
  Sr  Sr69  1  0.82344546  0.34730404  0.88194074  1
  Sr  Sr70  1  0.83378516  0.66719793  0.38499036  1
  Sr  Sr71  1  0.83643428  0.68118377  0.83716043  1
  Ta  Ta72  1  0.15988976  0.21944556  0.00603346  1
  Ta  Ta73  1  0.19971148  0.16582081  0.49606638  1
  Ta  Ta74  1  0.21144900  0.49674163  0.00620474  1
  Ta  Ta75  1  0.17377410  0.53986738  0.50205087  1
  Ta  Ta76  1  0.20460669  0.85937416  -0.01587406  1
  Ta  Ta77  1  0.14426902  0.83443471  0.50708402  1
  Ta  Ta78  1  0.53686850  0.16399078  0.00608841  1
  Ta  Ta79  1  0.47224381  0.14880401  0.49661090  1
  Ta  Ta80  1  0.44360143  0.50343682  0.00230205  1
  Ta  Ta81  1  0.54964984  0.50997502  0.50177174  1
  Ta  Ta82  1  0.50835580  0.88455772  -0.00032426  1
  Ta  Ta83  1  0.51231015  0.86803356  0.49989583  1
  Ta  Ta84  1  0.82599298  0.19205053  0.00076681  1
  Ta  Ta85  1  0.82764134  0.21756812  0.50696434  1
  Ta  Ta86  1  0.83798855  0.54740404  -0.00056859  1
  Ta  Ta87  1  0.82829098  0.45856901  0.50833013  1
  Ta  Ta88  1  0.85567290  0.82254510  0.00210021  1
  Ta  Ta89  1  0.87927567  0.83303653  0.49991792  1
  Ta  Ta90  1  0.15873488  0.19372299  0.25151781  1
  Ta  Ta91  1  0.13907375  0.18096948  0.74506827  1
  Ta  Ta92  1  0.16081367  0.53697244  0.25088448  1
  Ta  Ta93  1  0.15778725  0.53081360  0.74413793  1
  Ta  Ta94  1  0.20660669  0.82966846  0.24171343  1
  Ta  Ta95  1  0.20390983  0.83637232  0.75850456  1
  Ta  Ta96  1  0.49404763  0.20404437  0.24804163  1
  Ta  Ta97  1  0.49518074  0.20673257  0.75208090  1
  Ta  Ta98  1  0.52371685  0.51444923  0.24197115  1
  Ta  Ta99  1  0.50188635  0.45731631  0.74966158  1
  Ta  Ta100  1  0.51076805  0.82899474  0.24371896  1
  Ta  Ta101  1  0.54539684  0.83832781  0.74931985  1
  Ta  Ta102  1  0.86165327  0.15729982  0.24998210  1
  Ta  Ta103  1  0.86806130  0.16867092  0.75003279  1
  Ta  Ta104  1  0.85997416  0.51403175  0.24748112  1
  Ta  Ta105  1  0.88004736  0.50023398  0.75141282  1
  Ta  Ta106  1  0.83633109  0.88357081  0.25497546  1
  Ta  Ta107  1  0.81526501  0.86060886  0.74611051  1
  Ta  Ta108  1  -0.04210086  0.00050095  0.25316395  1
  Ta  Ta109  1  -0.03532786  0.00382175  0.74718334  1
  Ta  Ta110  1  -0.00302510  0.29739258  0.25702862  1
  Ta  Ta111  1  -0.00638232  0.30914665  0.74840729  1
  Ta  Ta112  1  -0.00212366  0.63311071  0.24759916  1
  Ta  Ta113  1  0.00269955  0.62561126  0.75648592  1
  Ta  Ta114  1  0.33040716  -0.05655937  0.24970447  1
  Ta  Ta115  1  0.31913316  -0.03403118  0.75350952  1
  Ta  Ta116  1  0.32934423  0.30091067  0.26193739  1
  Ta  Ta117  1  0.37252886  0.32155035  0.73676359  1
  Ta  Ta118  1  0.30138177  0.67192873  0.24988912  1
  Ta  Ta119  1  0.29517969  0.66112335  0.75147358  1
  Ta  Ta120  1  0.68245356  -0.01924216  0.25458371  1
  Ta  Ta121  1  0.67379054  -0.03740142  0.74145986  1
  Ta  Ta122  1  0.63190711  0.34039581  0.24486938  1
  Ta  Ta123  1  0.61425381  0.33132022  0.75898728  1
  Ta  Ta124  1  0.63982460  0.66493010  0.24123298  1
  Ta  Ta125  1  0.66589294  0.71738571  0.75220338  1
  Ta  Ta126  1  -0.01501925  -0.03351666  -0.00438872  1
  Ta  Ta127  1  -0.00319928  -0.05074974  0.50395027  1
  Ta  Ta128  1  0.00219472  0.30885166  0.00337324  1
  Ta  Ta129  1  -0.04900297  0.32347065  0.50032819  1
  Ta  Ta130  1  -0.04557550  0.66741305  0.00330847  1
  Ta  Ta131  1  0.00256408  0.69593304  0.49698628  1
  Ta  Ta132  1  0.34385035  -0.03138257  -0.00583640  1
  Ta  Ta133  1  0.35468577  0.00413986  0.50125506  1
  Ta  Ta134  1  0.30916314  0.35387063  0.01198116  1
  Ta  Ta135  1  0.33188163  0.27722940  0.48927687  1
  Ta  Ta136  1  0.32668412  0.61984512  0.00090985  1
  Ta  Ta137  1  0.29546505  0.65408894  0.50311853  1
  Ta  Ta138  1  0.63641519  0.02046112  0.00613362  1
  Ta  Ta139  1  0.62445861  0.00133563  0.49963426  1
  Ta  Ta140  1  0.66339446  0.29515571  0.00119100  1
  Ta  Ta141  1  0.68432181  0.35625517  0.49579630  1
  Ta  Ta142  1  0.71482382  0.66790485  -0.00315193  1
  Ta  Ta143  1  0.64979552  0.64511576  0.50193472  1
  N  N144  1  0.67975679  0.68218219  0.87166646  1
  N  N145  1  0.16663723  0.15724031  0.37363387  1
  N  N146  1  0.32941745  0.33890005  0.38369437  1
  N  N147  1  -0.00582783  0.66959968  0.12830475  1
  N  N148  1  0.83770631  0.17132480  0.87363166  1
  N  N149  1  -0.01018894  -0.01580345  0.87504274  1
  N  N150  1  0.82594668  0.17985445  0.62568654  1
  N  N151  1  0.34072633  0.31844588  0.61637720  1
  N  N152  1  0.66321914  0.00321866  0.62499816  1
  N  N153  1  0.16824802  0.83788755  0.62736643  1
  N  N154  1  -0.00440766  0.65871500  0.87764031  1
  N  N155  1  0.33542765  -0.02515882  0.37237641  1
  N  N156  1  0.16709971  0.50134688  0.62466832  1
  N  N157  1  0.67076855  0.67083926  0.12260023  1
  N  N158  1  0.33444578  -0.01474486  0.62689199  1
  N  N159  1  0.66321845  0.34281010  0.37532610  1
  N  N160  1  0.51104583  0.84349215  0.12168744  1
  N  N161  1  0.16871305  0.17703294  0.12034494  1
  N  N162  1  -0.00750722  -0.01539065  0.62524975  1
  N  N163  1  -0.01208556  0.32216658  0.37639685  1
  N  N164  1  0.84330763  0.48911745  0.62969640  1
  N  N165  1  0.66421720  0.33388445  0.12495894  1
  N  N166  1  0.65998915  0.00366404  0.37513184  1
  N  N167  1  0.15890614  0.83120433  0.87534425  1
  N  N168  1  -0.00598034  0.67069513  0.37739936  1
  N  N169  1  0.17165570  0.51237870  0.12948783  1
  N  N170  1  0.50141284  0.17594591  0.12706844  1
  N  N171  1  0.83870413  0.16678652  0.12826470  1
  N  N172  1  0.49227514  0.50729920  0.12310153  1
  N  N173  1  0.16323899  0.17067804  0.62648842  1
  N  N174  1  0.65927022  0.33071090  0.87633855  1
  N  N175  1  0.65975183  0.00751465  0.12671460  1
  N  N176  1  0.32493773  0.33351185  0.13296210  1
  O  O177  1  -0.00550394  0.66732515  0.63009812  1
  O  O178  1  -0.00374686  0.32725656  0.62409546  1
  O  O179  1  0.49304519  0.15841130  0.37168048  1
  O  O180  1  0.84535717  0.50427129  0.87607167  1
  O  O181  1  0.31462899  0.66650435  0.62505209  1
  O  O182  1  -0.00405522  0.32181182  0.87358039  1
  O  O183  1  0.17493736  0.83592230  0.36941266  1
  O  O184  1  0.49272250  0.17867628  0.88397960  1
  O  O185  1  0.65325095  0.66241423  0.37681906  1
  O  O186  1  0.34046903  -0.02734402  0.12063968  1
  O  O187  1  0.53046329  0.50980213  0.37815606  1
  O  O188  1  0.31996443  0.65196713  0.12966601  1
  O  O189  1  0.19001544  0.83053825  0.11080577  1
  O  O190  1  0.65368167  0.33587696  0.63031385  1
  O  O191  1  0.52427981  0.48596207  0.62866346  1
  O  O192  1  0.85091005  0.82694560  0.62607358  1
  O  O193  1  0.66294710  0.67148119  0.62598224  1
  O  O194  1  0.85449693  0.83397614  0.37280399  1
  O  O195  1  0.51695799  0.84395427  0.62702137  1
  O  O196  1  0.50842226  0.84726749  0.37786516  1
  O  O197  1  0.83812390  0.83503872  0.87421468  1
  O  O198  1  0.47823423  0.48272604  0.87543237  1
  O  O199  1  0.48919481  0.17081717  0.62084999  1
  O  O200  1  0.52483311  0.84755756  0.87878220  1
  O  O201  1  0.31863023  0.66562302  0.37521126  1
  O  O202  1  0.16905905  0.19466295  0.87504244  1
  O  O203  1  0.84612558  0.49380031  0.37404452  1
  O  O204  1  0.84423753  0.84325154  0.12945981  1
  O  O205  1  0.17336156  0.50047370  0.87625906  1
  O  O206  1  -0.00819879  0.32608099  0.12646199  1
  O  O207  1  0.65996104  0.00691418  0.86499119  1
  O  O208  1  -0.02228753  -0.00936204  0.12794769  1
  O  O209  1  0.82125794  0.17663784  0.37188115  1
  O  O210  1  0.84246624  0.50722883  0.12370559  1
  O  O211  1  0.34836322  0.00809833  0.86937638  1
  O  O212  1  0.16163175  0.50272870  0.37960503  1
  O  O213  1  0.33134895  0.33414079  0.86486896  1
  O  O214  1  0.31725610  0.64790165  0.87214634  1
  O  O215  1  -0.01292889  -0.00525539  0.37890134  1
