# generated using pymatgen
data_Sr24Ta24N11O13
_symmetry_space_group_name_H-M   'P 1'
_cell_length_a   16.81316525
_cell_length_b   16.76402105
_cell_length_c   15.69701111
_cell_angle_alpha   90.05973680
_cell_angle_beta   90.04689138
_cell_angle_gamma   89.59915361
_symmetry_Int_Tables_number   1
_chemical_formula_structural   Sr24Ta24N11O13
_chemical_formula_sum   'Sr72 Ta72 N33 O39'
_cell_volume   4424.18864830
_cell_formula_units_Z   3
loop_
 _symmetry_equiv_pos_site_id
 _symmetry_equiv_pos_as_xyz
  1  'x, y, z'
loop_
 _atom_site_type_symbol
 _atom_site_label
 _atom_site_symmetry_multiplicity
 _atom_site_fract_x
 _atom_site_fract_y
 _atom_site_fract_z
 _atom_site_occupancy
  Sr  Sr0  1  -0.04050411  0.17401659  0.08356596  1
  Sr  Sr1  1  0.00689516  0.15948680  0.63378774  1
  Sr  Sr2  1  0.00018250  0.49311074  0.12627323  1
  Sr  Sr3  1  -0.00904885  0.50993600  0.67324812  1
  Sr  Sr4  1  0.00308101  0.84864246  0.13292588  1
  Sr  Sr5  1  -0.01215717  0.81376319  0.57563366  1
  Sr  Sr6  1  0.32989363  0.17754251  0.13246864  1
  Sr  Sr7  1  0.32980086  0.16724601  0.58830242  1
  Sr  Sr8  1  0.31873101  0.52754317  0.08802062  1
  Sr  Sr9  1  0.33653910  0.49551077  0.63401665  1
  Sr  Sr10  1  0.33183850  0.83195799  0.16024072  1
  Sr  Sr11  1  0.35139413  0.84600171  0.61731208  1
  Sr  Sr12  1  0.66028568  0.17274594  0.16253597  1
  Sr  Sr13  1  0.64570300  0.14796602  0.62370658  1
  Sr  Sr14  1  0.64262742  0.50164155  0.12829820  1
  Sr  Sr15  1  0.67036388  0.50367145  0.59662573  1
  Sr  Sr16  1  0.65321126  0.84687866  0.10934182  1
  Sr  Sr17  1  0.67815002  0.82990820  0.67072053  1
  Sr  Sr18  1  0.18282742  -0.00347013  0.12827221  1
  Sr  Sr19  1  0.16683035  -0.00425864  0.66002970  1
  Sr  Sr20  1  0.17786148  0.33395219  0.14346423  1
  Sr  Sr21  1  0.18599989  0.31247081  0.58262846  1
  Sr  Sr22  1  0.15857582  0.65904710  0.08379555  1
  Sr  Sr23  1  0.16888654  0.66632445  0.63462451  1
  Sr  Sr24  1  0.49135409  0.01205383  0.08256078  1
  Sr  Sr25  1  0.50783984  -0.00688490  0.64016168  1
  Sr  Sr26  1  0.51634123  0.33217520  0.14587566  1
  Sr  Sr27  1  0.51281720  0.34186958  0.65300648  1
  Sr  Sr28  1  0.49729588  0.67535773  0.13746423  1
  Sr  Sr29  1  0.50482820  0.65036337  0.58651074  1
  Sr  Sr30  1  0.82312339  -0.00149919  0.13335642  1
  Sr  Sr31  1  0.85389220  0.00275124  0.59847209  1
  Sr  Sr32  1  0.84415925  0.34817099  0.09884504  1
  Sr  Sr33  1  0.85991481  0.33167402  0.63669306  1
  Sr  Sr34  1  0.86355944  0.65359377  0.16201819  1
  Sr  Sr35  1  0.82995661  0.66726786  0.62403202  1
  Sr  Sr36  1  -0.01022661  0.18269645  0.41504876  1
  Sr  Sr37  1  -0.00410652  0.15719465  0.85358480  1
  Sr  Sr38  1  0.00059548  0.49164323  0.33343492  1
  Sr  Sr39  1  -0.01124555  0.50301614  0.87657504  1
  Sr  Sr40  1  -0.01445734  0.84879804  0.36066510  1
  Sr  Sr41  1  0.00408573  0.83449076  0.91550947  1
  Sr  Sr42  1  0.32183284  0.18210470  0.36258302  1
  Sr  Sr43  1  0.32953004  0.14831924  0.91561100  1
  Sr  Sr44  1  0.31241316  0.51018440  0.41124464  1
  Sr  Sr45  1  0.33277627  0.50538456  0.86608843  1
  Sr  Sr46  1  0.34581937  0.83613059  0.38145221  1
  Sr  Sr47  1  0.30879872  0.83764773  0.81914503  1
  Sr  Sr48  1  0.65686170  0.14814434  0.37985621  1
  Sr  Sr49  1  0.63052677  0.17020485  0.83801655  1
  Sr  Sr50  1  0.64995660  0.51604046  0.37441117  1
  Sr  Sr51  1  0.65962236  0.48733790  0.90257504  1
  Sr  Sr52  1  0.65836676  0.83715721  0.34190329  1
  Sr  Sr53  1  0.66842827  0.83956855  0.88701619  1
  Sr  Sr54  1  0.17301395  -0.01876856  0.33261938  1
  Sr  Sr55  1  0.17065251  0.00403899  0.86918153  1
  Sr  Sr56  1  0.16638418  0.33719763  0.36599621  1
  Sr  Sr57  1  0.20057706  0.31542710  0.90005203  1
  Sr  Sr58  1  0.15998401  0.67046698  0.40765405  1
  Sr  Sr59  1  0.16741431  0.65341403  0.86430936  1
  Sr  Sr60  1  0.48214105  0.01554375  0.42829978  1
  Sr  Sr61  1  0.50471528  -0.01174513  0.86199517  1
  Sr  Sr62  1  0.51965253  0.32668489  0.34482382  1
  Sr  Sr63  1  0.51035337  0.33938916  0.85688905  1
  Sr  Sr64  1  0.50087127  0.67602026  0.36377821  1
  Sr  Sr65  1  0.51564865  0.65282474  0.92175924  1
  Sr  Sr66  1  0.82159842  0.00071047  0.36469435  1
  Sr  Sr67  1  0.84823121  -0.01454548  0.91075535  1
  Sr  Sr68  1  0.84251128  0.34245206  0.39163602  1
  Sr  Sr69  1  0.85059961  0.33655616  0.88073450  1
  Sr  Sr70  1  0.84772496  0.66444783  0.38473551  1
  Sr  Sr71  1  0.82473093  0.67306290  0.84168505  1
  Ta  Ta72  1  0.13819656  0.16158906  0.00200063  1
  Ta  Ta73  1  0.16089368  0.12010840  0.49772920  1
  Ta  Ta74  1  0.14942623  0.47285626  0.00101333  1
  Ta  Ta75  1  0.12824651  0.49559622  0.49985326  1
  Ta  Ta76  1  0.19452489  0.83752744  -0.00016456  1
  Ta  Ta77  1  0.17312970  0.85782126  0.50437072  1
  Ta  Ta78  1  0.51426411  0.19110080  0.00647419  1
  Ta  Ta79  1  0.49898862  0.20902290  0.50006184  1
  Ta  Ta80  1  0.48208351  0.47095549  0.00316456  1
  Ta  Ta81  1  0.49349986  0.46551568  0.49857347  1
  Ta  Ta82  1  0.46151366  0.83313579  -0.00525856  1
  Ta  Ta83  1  0.54429009  0.83199149  0.50895598  1
  Ta  Ta84  1  0.77818282  0.16715515  -0.00622441  1
  Ta  Ta85  1  0.80378016  0.18308505  0.50515671  1
  Ta  Ta86  1  0.82922615  0.54120387  -0.00159235  1
  Ta  Ta87  1  0.86993509  0.49931833  0.50895758  1
  Ta  Ta88  1  0.83193211  0.78646360  0.01290521  1
  Ta  Ta89  1  0.78933346  0.83268310  0.50011727  1
  Ta  Ta90  1  0.11645343  0.16606144  0.24472956  1
  Ta  Ta91  1  0.19225475  0.18157274  0.74715277  1
  Ta  Ta92  1  0.18676783  0.52525221  0.25058550  1
  Ta  Ta93  1  0.17141596  0.44752078  0.74479691  1
  Ta  Ta94  1  0.16688574  0.78682659  0.24602798  1
  Ta  Ta95  1  0.11333482  0.82906716  0.74587643  1
  Ta  Ta96  1  0.48909444  0.12832331  0.25393854  1
  Ta  Ta97  1  0.44808023  0.16903898  0.74370444  1
  Ta  Ta98  1  0.44856485  0.50907236  0.24843750  1
  Ta  Ta99  1  0.51354180  0.53100966  0.75268566  1
  Ta  Ta100  1  0.49652460  0.88861748  0.25259783  1
  Ta  Ta101  1  0.50558053  0.77974442  0.75089630  1
  Ta  Ta102  1  0.84592223  0.18860824  0.25000570  1
  Ta  Ta103  1  0.80804894  0.15404114  0.75931661  1
  Ta  Ta104  1  0.80670812  0.49278122  0.25302764  1
  Ta  Ta105  1  0.79458563  0.49512483  0.75269593  1
  Ta  Ta106  1  0.81739536  0.81429556  0.23917563  1
  Ta  Ta107  1  0.86681999  0.85047425  0.74506550  1
  Ta  Ta108  1  -0.00534380  0.05379195  0.24457324  1
  Ta  Ta109  1  -0.00878925  -0.03769240  0.75469957  1
  Ta  Ta110  1  -0.00844440  0.29719158  0.24776720  1
  Ta  Ta111  1  0.05564820  0.32862656  0.74646615  1
  Ta  Ta112  1  0.03887273  0.67202538  0.24580208  1
  Ta  Ta113  1  -0.00323209  0.70508560  0.75077391  1
  Ta  Ta114  1  0.37305461  0.00519042  0.24988260  1
  Ta  Ta115  1  0.33650235  0.03645480  0.74477956  1
  Ta  Ta116  1  0.33975726  0.38886933  0.25079408  1
  Ta  Ta117  1  0.32500476  0.30964933  0.74274058  1
  Ta  Ta118  1  0.30414997  0.65272516  0.24851901  1
  Ta  Ta119  1  0.38359476  0.66506108  0.75688578  1
  Ta  Ta120  1  0.61764751  0.00043389  0.24538738  1
  Ta  Ta121  1  0.71764148  0.00524452  0.75461027  1
  Ta  Ta122  1  0.71049845  0.34462081  0.24565216  1
  Ta  Ta123  1  0.69609277  0.34243245  0.75373983  1
  Ta  Ta124  1  0.69569167  0.67098494  0.23803139  1
  Ta  Ta125  1  0.64160284  0.64731476  0.75304313  1
  Ta  Ta126  1  0.02847381  0.01521568  0.00456373  1
  Ta  Ta127  1  0.04594339  -0.00303387  0.49614228  1
  Ta  Ta128  1  0.03674611  0.33112017  0.00255582  1
  Ta  Ta129  1  0.00693595  0.37822122  0.49838565  1
  Ta  Ta130  1  -0.03128959  0.66155054  -0.00242496  1
  Ta  Ta131  1  0.00027691  0.61313015  0.50796767  1
  Ta  Ta132  1  0.33072144  -0.05466899  -0.01348185  1
  Ta  Ta133  1  0.28644318  -0.00108585  0.50098736  1
  Ta  Ta134  1  0.37087017  0.34194540  0.00350562  1
  Ta  Ta135  1  0.37700284  0.34054847  0.49755399  1
  Ta  Ta136  1  0.33463861  0.72227407  -0.01197573  1
  Ta  Ta137  1  0.32836284  0.68186461  0.50779822  1
  Ta  Ta138  1  0.66590625  0.04885194  -0.00020882  1
  Ta  Ta139  1  0.67206589  -0.03933004  0.51069023  1
  Ta  Ta140  1  0.66424584  0.29802321  0.00055073  1
  Ta  Ta141  1  0.66271959  0.31599972  0.49965250  1
  Ta  Ta142  1  0.70762438  0.66555595  0.01437788  1
  Ta  Ta143  1  0.67117542  0.71196482  0.49731369  1
  N  N144  1  0.51307413  0.82123985  0.63047456  1
  N  N145  1  0.00207027  -0.00505079  0.87696782  1
  N  N146  1  0.49260953  0.16674762  0.38226296  1
  N  N147  1  0.00355740  0.33850560  0.37776488  1
  N  N148  1  0.83597405  0.50219845  0.63008196  1
  N  N149  1  -0.00526828  0.66801525  0.87291334  1
  N  N150  1  0.50038056  0.49716525  0.87510126  1
  N  N151  1  0.01122981  0.66504104  0.12558033  1
  N  N152  1  0.65015562  0.66953337  0.12376971  1
  N  N153  1  0.33390098  -0.00885376  0.86956442  1
  N  N154  1  0.50465877  0.49516042  0.61974463  1
  N  N155  1  -0.00910676  0.01025952  0.12829444  1
  N  N156  1  0.15565174  0.82949436  0.62285484  1
  N  N157  1  0.16616561  0.16243989  0.88121356  1
  N  N158  1  0.33732596  0.66919919  0.87582320  1
  N  N159  1  0.82632835  0.50958086  0.87679970  1
  N  N160  1  0.16525104  0.15671201  0.62556615  1
  N  N161  1  0.83331851  0.84482058  0.11995164  1
  N  N162  1  0.67950909  0.33322255  0.12712445  1
  N  N163  1  0.67144594  0.33088238  0.87312588  1
  N  N164  1  0.33159551  0.00282850  0.61807896  1
  N  N165  1  0.68230632  -0.01136087  0.63390725  1
  N  N166  1  0.16104573  0.49578355  0.12149723  1
  N  N167  1  0.65110640  0.01128687  0.11749257  1
  N  N168  1  0.48341188  0.51196026  0.12790955  1
  N  N169  1  0.00527901  0.33109618  0.12675624  1
  N  N170  1  0.34155939  0.33490115  0.62266541  1
  N  N171  1  0.17390295  0.82592195  0.12420574  1
  N  N172  1  0.49506322  0.17079970  0.12706535  1
  N  N173  1  0.49142385  0.16919180  0.62791163  1
  N  N174  1  0.15957691  0.50077795  0.37308646  1
  N  N175  1  -0.00281580  0.66143024  0.62435314  1
  N  N176  1  0.83573128  0.83465115  0.62464922  1
  O  O177  1  0.31882818  0.66848826  0.38289325  1
  O  O178  1  0.17736358  0.47249649  0.62033826  1
  O  O179  1  0.81586658  0.17554015  0.12554687  1
  O  O180  1  0.82434679  0.83276905  0.37001701  1
  O  O181  1  0.01339518  -0.00143713  0.62146926  1
  O  O182  1  0.17550716  0.47287358  0.86860224  1
  O  O183  1  0.66058045  0.66404382  0.62095906  1
  O  O184  1  0.83768517  0.16786775  0.87997879  1
  O  O185  1  0.82643412  0.50097403  0.12668489  1
  O  O186  1  0.66801757  0.67628043  0.36978208  1
  O  O187  1  0.32369669  0.67793085  0.12090554  1
  O  O188  1  0.32937480  0.34952424  0.37297543  1
  O  O189  1  0.67116852  0.33127295  0.62260916  1
  O  O190  1  0.02433549  0.32552254  0.62080710  1
  O  O191  1  0.83718883  0.82929263  0.88894598  1
  O  O192  1  0.82982304  0.18200954  0.38156575  1
  O  O193  1  0.32857122  -0.00040285  0.37320530  1
  O  O194  1  0.00761120  0.64799631  0.37369287  1
  O  O195  1  0.17463347  0.16928209  0.13307110  1
  O  O196  1  0.50066972  0.82662559  0.87280839  1
  O  O197  1  0.66615465  0.65903751  0.88017311  1
  O  O198  1  0.03096088  0.32358672  0.86825062  1
  O  O199  1  0.50517570  0.84814634  0.37825445  1
  O  O200  1  0.33829055  -0.01466935  0.12418251  1
  O  O201  1  0.15715173  0.83118298  0.86942089  1
  O  O202  1  0.66308662  -0.00765111  0.36925949  1
  O  O203  1  0.83069348  0.50173570  0.37862968  1
  O  O204  1  0.48415071  0.17819073  0.87362836  1
  O  O205  1  0.80820268  0.16985340  0.62862782  1
  O  O206  1  0.14751304  0.16340350  0.37273523  1
  O  O207  1  0.49390134  0.51548843  0.37763250  1
  O  O208  1  0.48483479  0.84817428  0.12284364  1
  O  O209  1  0.17669631  0.82729738  0.36930076  1
  O  O210  1  0.66837845  -0.00358906  0.87564421  1
  O  O211  1  0.34046467  0.67026515  0.63201227  1
  O  O212  1  0.35189224  0.33026789  0.87724429  1
  O  O213  1  0.67536590  0.32633304  0.37286684  1
  O  O214  1  0.34547183  0.33947993  0.13002407  1
  O  O215  1  0.02142502  0.00044382  0.36778491  1
