# generated using pymatgen
data_Sr24Ta24N11O13
_symmetry_space_group_name_H-M   'P 1'
_cell_length_a   16.61737969
_cell_length_b   16.82359417
_cell_length_c   15.73437541
_cell_angle_alpha   89.95959810
_cell_angle_beta   89.80717441
_cell_angle_gamma   90.72229402
_symmetry_Int_Tables_number   1
_chemical_formula_structural   Sr24Ta24N11O13
_chemical_formula_sum   'Sr72 Ta72 N33 O39'
_cell_volume   4398.39008536
_cell_formula_units_Z   3
loop_
 _symmetry_equiv_pos_site_id
 _symmetry_equiv_pos_as_xyz
  1  'x, y, z'
loop_
 _atom_site_type_symbol
 _atom_site_label
 _atom_site_symmetry_multiplicity
 _atom_site_fract_x
 _atom_site_fract_y
 _atom_site_fract_z
 _atom_site_occupancy
  Sr  Sr0  1  -0.00124140  0.13679497  0.10292694  1
  Sr  Sr1  1  0.00910316  0.16572095  0.64384149  1
  Sr  Sr2  1  -0.02626096  0.49520529  0.14498330  1
  Sr  Sr3  1  0.01069579  0.49081805  0.58339130  1
  Sr  Sr4  1  0.00703279  0.83265275  0.15412983  1
  Sr  Sr5  1  -0.01467553  0.81486630  0.63450845  1
  Sr  Sr6  1  0.32937200  0.15143052  0.12930817  1
  Sr  Sr7  1  0.33627496  0.17679105  0.59374910  1
  Sr  Sr8  1  0.35104832  0.49184582  0.14026683  1
  Sr  Sr9  1  0.31395862  0.49611931  0.66634521  1
  Sr  Sr10  1  0.31678230  0.81559839  0.08863100  1
  Sr  Sr11  1  0.34014605  0.83304137  0.63279794  1
  Sr  Sr12  1  0.67098624  0.15284211  0.15094865  1
  Sr  Sr13  1  0.67598691  0.13407447  0.63621282  1
  Sr  Sr14  1  0.66037480  0.45219015  0.06893493  1
  Sr  Sr15  1  0.67003412  0.51328340  0.63013457  1
  Sr  Sr16  1  0.65379506  0.83180291  0.13651074  1
  Sr  Sr17  1  0.66982111  0.83012725  0.58857310  1
  Sr  Sr18  1  0.15777840  0.00025120  0.13920706  1
  Sr  Sr19  1  0.18903547  0.02724568  0.58895342  1
  Sr  Sr20  1  0.15782304  0.37021690  0.14851362  1
  Sr  Sr21  1  0.15971652  0.33824219  0.63954431  1
  Sr  Sr22  1  0.16935126  0.66974786  0.09120924  1
  Sr  Sr23  1  0.17968109  0.68126627  0.63862753  1
  Sr  Sr24  1  0.50427271  0.01093234  0.15180029  1
  Sr  Sr25  1  0.49325075  0.00475555  0.65212068  1
  Sr  Sr26  1  0.48654682  0.33573270  0.09507235  1
  Sr  Sr27  1  0.50495517  0.34838879  0.62939559  1
  Sr  Sr28  1  0.49230009  0.67681861  0.13636968  1
  Sr  Sr29  1  0.51758392  0.68885270  0.58096237  1
  Sr  Sr30  1  0.82168879  0.00496603  0.07703618  1
  Sr  Sr31  1  0.85169286  0.00502104  0.63911809  1
  Sr  Sr32  1  0.82553797  0.32842841  0.13901368  1
  Sr  Sr33  1  0.83030911  0.36946028  0.60658728  1
  Sr  Sr34  1  0.82623429  0.68820292  0.12896379  1
  Sr  Sr35  1  0.82451632  0.66432887  0.65503045  1
  Sr  Sr36  1  0.00212622  0.13311376  0.38754401  1
  Sr  Sr37  1  0.00630112  0.16174575  0.87044692  1
  Sr  Sr38  1  0.00658138  0.49348123  0.36808727  1
  Sr  Sr39  1  0.01097689  0.50015420  0.92734936  1
  Sr  Sr40  1  -0.00217541  0.82704537  0.36333451  1
  Sr  Sr41  1  -0.00742707  0.82501362  0.83612552  1
  Sr  Sr42  1  0.32882539  0.15078672  0.37116121  1
  Sr  Sr43  1  0.33825073  0.16567618  0.90572381  1
  Sr  Sr44  1  0.34772040  0.49895166  0.34239970  1
  Sr  Sr45  1  0.34437292  0.48299171  0.86056591  1
  Sr  Sr46  1  0.32070996  0.81510841  0.41802688  1
  Sr  Sr47  1  0.33240216  0.83785327  0.86766583  1
  Sr  Sr48  1  0.67536919  0.15523922  0.36166888  1
  Sr  Sr49  1  0.67039087  0.13217790  0.85182079  1
  Sr  Sr50  1  0.64990243  0.48292853  0.41821099  1
  Sr  Sr51  1  0.68189984  0.50494058  0.84808953  1
  Sr  Sr52  1  0.65876838  0.81918011  0.35939096  1
  Sr  Sr53  1  0.67891210  0.82479207  0.92395759  1
  Sr  Sr54  1  0.16998988  0.00622821  0.36404256  1
  Sr  Sr55  1  0.17890726  0.02255686  0.92128424  1
  Sr  Sr56  1  0.16624338  0.35445549  0.36615515  1
  Sr  Sr57  1  0.15595786  0.33883713  0.85478225  1
  Sr  Sr58  1  0.15933263  0.67483692  0.41991823  1
  Sr  Sr59  1  0.18126297  0.67510913  0.86268332  1
  Sr  Sr60  1  0.50444346  0.01590791  0.34329766  1
  Sr  Sr61  1  0.49320914  0.00508933  0.85210228  1
  Sr  Sr62  1  0.49319630  0.33584862  0.39859338  1
  Sr  Sr63  1  0.50831737  0.34886191  0.87393525  1
  Sr  Sr64  1  0.49858561  0.66526796  0.36741929  1
  Sr  Sr65  1  0.50568242  0.70244362  0.91075373  1
  Sr  Sr66  1  0.82459665  -0.01321158  0.42440863  1
  Sr  Sr67  1  0.84429471  0.00392999  0.86235604  1
  Sr  Sr68  1  0.83019168  0.34754532  0.36602926  1
  Sr  Sr69  1  0.83352705  0.36304259  0.90201507  1
  Sr  Sr70  1  0.84571615  0.66755693  0.32587437  1
  Sr  Sr71  1  0.82770147  0.67532852  0.86586345  1
  Ta  Ta72  1  0.16378161  0.21258351  0.01154863  1
  Ta  Ta73  1  0.15612586  0.20256918  0.49468717  1
  Ta  Ta74  1  0.20296367  0.49627632  -0.00660295  1
  Ta  Ta75  1  0.20669733  0.49926909  0.49828821  1
  Ta  Ta76  1  0.12412457  0.83727316  -0.01238241  1
  Ta  Ta77  1  0.13914453  0.85758519  0.50530528  1
  Ta  Ta78  1  0.52179121  0.14807310  0.00631762  1
  Ta  Ta79  1  0.51902283  0.14876025  0.49379762  1
  Ta  Ta80  1  0.49711346  0.53075305  -0.00010344  1
  Ta  Ta81  1  0.45670018  0.50661832  0.50694225  1
  Ta  Ta82  1  0.49329551  0.87995876  0.00867297  1
  Ta  Ta83  1  0.49831793  0.87706111  0.49405827  1
  Ta  Ta84  1  0.82327177  0.18781899  -0.00068992  1
  Ta  Ta85  1  0.83583273  0.19393591  0.50209537  1
  Ta  Ta86  1  0.82528454  0.53887828  0.00245195  1
  Ta  Ta87  1  0.83400708  0.54525698  0.48879205  1
  Ta  Ta88  1  0.87252717  0.83060883  -0.00262977  1
  Ta  Ta89  1  0.83995366  0.79398750  0.48804296  1
  Ta  Ta90  1  0.15534112  0.19330787  0.24408979  1
  Ta  Ta91  1  0.19175465  0.15709671  0.75666096  1
  Ta  Ta92  1  0.17405948  0.55118775  0.25436564  1
  Ta  Ta93  1  0.11322336  0.50741334  0.75553443  1
  Ta  Ta94  1  0.18785563  0.80965732  0.25885916  1
  Ta  Ta95  1  0.17186679  0.88392220  0.75148319  1
  Ta  Ta96  1  0.49384090  0.20822250  0.24823608  1
  Ta  Ta97  1  0.48074092  0.18680160  0.74998000  1
  Ta  Ta98  1  0.54961378  0.48734588  0.24112925  1
  Ta  Ta99  1  0.50821446  0.55881839  0.74679784  1
  Ta  Ta100  1  0.44748871  0.83421549  0.25083058  1
  Ta  Ta101  1  0.52587288  0.81915473  0.74400418  1
  Ta  Ta102  1  0.85175166  0.14022909  0.24709380  1
  Ta  Ta103  1  0.83373693  0.22374508  0.75179914  1
  Ta  Ta104  1  0.75697904  0.49533200  0.24298557  1
  Ta  Ta105  1  0.89273462  0.50325811  0.75818311  1
  Ta  Ta106  1  0.82846333  0.86866801  0.24305352  1
  Ta  Ta107  1  0.78902888  0.83663030  0.75308796  1
  Ta  Ta108  1  -0.05932771  -0.00305815  0.24349497  1
  Ta  Ta109  1  0.05783733  -0.00096891  0.75736335  1
  Ta  Ta110  1  -0.00006152  0.28275752  0.25130802  1
  Ta  Ta111  1  -0.02205863  0.35674798  0.75288616  1
  Ta  Ta112  1  0.04895644  0.66330623  0.25289820  1
  Ta  Ta113  1  0.00388774  0.63111903  0.74790423  1
  Ta  Ta114  1  0.32792360  -0.05382260  0.25368498  1
  Ta  Ta115  1  0.30454773  0.01738582  0.75621712  1
  Ta  Ta116  1  0.33775178  0.31043202  0.24965467  1
  Ta  Ta117  1  0.33888166  0.29386593  0.75053719  1
  Ta  Ta118  1  0.30798168  0.68438940  0.25872655  1
  Ta  Ta119  1  0.38741443  0.66897593  0.74306196  1
  Ta  Ta120  1  0.72455390  -0.00670260  0.25204622  1
  Ta  Ta121  1  0.66599117  -0.05638498  0.75655127  1
  Ta  Ta122  1  0.64122322  0.34119342  0.24417848  1
  Ta  Ta123  1  0.68194598  0.30407737  0.75326780  1
  Ta  Ta124  1  0.65911584  0.62252024  0.24428070  1
  Ta  Ta125  1  0.64157289  0.69736850  0.75675096  1
  Ta  Ta126  1  0.00154369  -0.04076211  -0.00456446  1
  Ta  Ta127  1  0.01258360  -0.03051111  0.50728717  1
  Ta  Ta128  1  0.00691945  0.31299549  0.00368285  1
  Ta  Ta129  1  -0.00295022  0.30333799  0.50146163  1
  Ta  Ta130  1  -0.00887079  0.69262044  0.00016417  1
  Ta  Ta131  1  -0.03765439  0.66577989  0.49242936  1
  Ta  Ta132  1  0.36613153  -0.00660228  0.00482334  1
  Ta  Ta133  1  0.37547670  -0.00576613  0.49273683  1
  Ta  Ta134  1  0.29656975  0.34041696  0.00483804  1
  Ta  Ta135  1  0.32241689  0.36905104  0.50859992  1
  Ta  Ta136  1  0.34182928  0.62853862  -0.00586682  1
  Ta  Ta137  1  0.33752126  0.62525051  0.50564486  1
  Ta  Ta138  1  0.63293395  0.00369342  0.00006028  1
  Ta  Ta139  1  0.62092152  -0.00073586  0.49664233  1
  Ta  Ta140  1  0.66734816  0.26848209  0.00128683  1
  Ta  Ta141  1  0.67297484  0.28757619  0.50064471  1
  Ta  Ta142  1  0.66916204  0.63583299  0.00379742  1
  Ta  Ta143  1  0.71259762  0.66243178  0.48385446  1
  N  N144  1  0.33127107  0.66277142  0.37869620  1
  N  N145  1  0.16898371  0.16836777  0.37117351  1
  N  N146  1  0.00812753  0.00105654  0.86952835  1
  N  N147  1  0.16367661  0.83463416  0.38009582  1
  N  N148  1  0.66548087  0.65756211  0.36872418  1
  N  N149  1  0.17131172  0.84060215  0.87423766  1
  N  N150  1  0.66386788  0.66941162  0.88384762  1
  N  N151  1  0.00448956  0.66230545  0.37022417  1
  N  N152  1  0.16584192  0.50410370  0.87162038  1
  N  N153  1  0.66098994  0.30918523  0.12312622  1
  N  N154  1  0.17215400  0.17703782  0.87959957  1
  N  N155  1  0.50379587  0.84175895  0.62309498  1
  N  N156  1  0.17176623  0.17828046  0.61864449  1
  N  N157  1  0.83174112  0.82385717  0.36943689  1
  N  N158  1  0.33320730  -0.01135058  0.37687486  1
  N  N159  1  -0.00509436  0.33422457  0.61939005  1
  N  N160  1  0.32649134  0.33511905  0.12768768  1
  N  N161  1  0.48581285  0.83709719  0.12821091  1
  N  N162  1  -0.01621242  -0.01231584  0.12438436  1
  N  N163  1  0.33639420  0.00445425  0.87803402  1
  N  N164  1  0.16883784  0.15536064  0.11920245  1
  N  N165  1  0.84898267  0.51623571  0.88335352  1
  N  N166  1  0.66242915  -0.01874007  0.88038969  1
  N  N167  1  0.83371299  0.16391076  0.12255190  1
  N  N168  1  0.82622859  0.83823371  0.11110269  1
  N  N169  1  0.33140616  0.33690938  0.63059313  1
  N  N170  1  0.83207214  0.83588286  0.86999862  1
  N  N171  1  0.50271640  0.17094879  0.37387404  1
  N  N172  1  0.49949949  0.16776160  0.12729373  1
  N  N173  1  0.17738789  0.51121754  0.37560739  1
  N  N174  1  0.50954857  0.49838506  0.12210902  1
  N  N175  1  0.34078999  0.67064119  0.62889687  1
  N  N176  1  -0.00253118  0.33479038  0.88478926  1
  O  O177  1  -0.02072080  -0.01840276  0.38202659  1
  O  O178  1  0.82742937  0.81600225  0.62792473  1
  O  O179  1  0.01026125  -0.00555393  0.63210278  1
  O  O180  1  0.49282224  0.84796594  0.87952928  1
  O  O181  1  0.79969000  0.49958786  0.36724142  1
  O  O182  1  0.67536228  -0.00666094  0.12903520  1
  O  O183  1  0.65540496  0.67951681  0.12668325  1
  O  O184  1  0.83898619  0.16680465  0.38113172  1
  O  O185  1  0.17803614  0.83990102  0.62764560  1
  O  O186  1  0.00911226  0.67829439  0.12623215  1
  O  O187  1  0.83879256  0.18785226  0.63070884  1
  O  O188  1  0.15839287  0.50017471  0.63175005  1
  O  O189  1  0.66260726  0.30781292  0.87608023  1
  O  O190  1  0.33343521  0.32849386  0.87617612  1
  O  O191  1  -0.01329631  0.32666651  0.13728944  1
  O  O192  1  0.18453346  0.51780809  0.12236290  1
  O  O193  1  0.50047705  0.49462629  0.38154183  1
  O  O194  1  -0.00976306  0.33089040  0.36821952  1
  O  O195  1  0.33183613  0.33980094  0.37729469  1
  O  O196  1  -0.00480323  0.65329551  0.61686682  1
  O  O197  1  0.85289555  0.51673079  0.61738790  1
  O  O198  1  -0.00152697  0.66649029  0.87789109  1
  O  O199  1  0.16314101  0.82342851  0.11361234  1
  O  O200  1  0.51001406  0.53014218  0.86739584  1
  O  O201  1  0.49783769  0.16861802  0.87327402  1
  O  O202  1  0.81220683  0.48933419  0.12549733  1
  O  O203  1  0.33154272  0.65972235  0.11811333  1
  O  O204  1  0.34024618  0.00649307  0.62853849  1
  O  O205  1  0.49574910  0.82630129  0.37209895  1
  O  O206  1  0.66537672  0.29549219  0.62386399  1
  O  O207  1  0.49697016  0.17276378  0.62596117  1
  O  O208  1  0.67714217  -0.00083456  0.37387114  1
  O  O209  1  0.66634614  0.31448714  0.37687732  1
  O  O210  1  0.64924907  -0.01548493  0.62300304  1
  O  O211  1  0.84310047  0.18317463  0.86726489  1
  O  O212  1  0.51077942  0.53025479  0.61921000  1
  O  O213  1  0.32365834  -0.01459271  0.12784938  1
  O  O214  1  0.34129830  0.64701846  0.86706321  1
  O  O215  1  0.67151182  0.66989843  0.61108344  1
