# generated using pymatgen
data_Sr24Ta24N11O13
_symmetry_space_group_name_H-M   'P 1'
_cell_length_a   16.97355040
_cell_length_b   16.69828056
_cell_length_c   15.61369881
_cell_angle_alpha   89.85310138
_cell_angle_beta   89.56064990
_cell_angle_gamma   90.27823500
_symmetry_Int_Tables_number   1
_chemical_formula_structural   Sr24Ta24N11O13
_chemical_formula_sum   'Sr72 Ta72 N33 O39'
_cell_volume   4425.17945034
_cell_formula_units_Z   3
loop_
 _symmetry_equiv_pos_site_id
 _symmetry_equiv_pos_as_xyz
  1  'x, y, z'
loop_
 _atom_site_type_symbol
 _atom_site_label
 _atom_site_symmetry_multiplicity
 _atom_site_fract_x
 _atom_site_fract_y
 _atom_site_fract_z
 _atom_site_occupancy
  Sr  Sr0  1  -0.02233238  0.17298285  0.13480769  1
  Sr  Sr1  1  -0.01817002  0.15621387  0.64481439  1
  Sr  Sr2  1  -0.01622296  0.49655173  0.10224592  1
  Sr  Sr3  1  0.00176065  0.51351581  0.64346675  1
  Sr  Sr4  1  -0.00837951  0.83023070  0.13544615  1
  Sr  Sr5  1  0.00150913  0.84218195  0.58202173  1
  Sr  Sr6  1  0.32565076  0.15681293  0.09817074  1
  Sr  Sr7  1  0.32537466  0.16590097  0.63196830  1
  Sr  Sr8  1  0.29793257  0.50378617  0.13724214  1
  Sr  Sr9  1  0.33089080  0.50421991  0.58684622  1
  Sr  Sr10  1  0.33608400  0.83160226  0.15672673  1
  Sr  Sr11  1  0.31234730  0.83672189  0.63467005  1
  Sr  Sr12  1  0.64600334  0.15057572  0.17597609  1
  Sr  Sr13  1  0.66394380  0.17819308  0.60917433  1
  Sr  Sr14  1  0.67250592  0.50030893  0.12074808  1
  Sr  Sr15  1  0.62091630  0.49449448  0.66447481  1
  Sr  Sr16  1  0.65256239  0.84154023  0.08120154  1
  Sr  Sr17  1  0.68232462  0.82575500  0.63668283  1
  Sr  Sr18  1  0.17063159  -0.00135582  0.09022130  1
  Sr  Sr19  1  0.16870802  0.00370342  0.62774942  1
  Sr  Sr20  1  0.18602820  0.31902242  0.14297863  1
  Sr  Sr21  1  0.20735364  0.33589006  0.59105717  1
  Sr  Sr22  1  0.16109133  0.67191765  0.11859386  1
  Sr  Sr23  1  0.17742775  0.65349204  0.65119048  1
  Sr  Sr24  1  0.48756517  -0.00101074  0.13534235  1
  Sr  Sr25  1  0.53638558  0.00171863  0.57643738  1
  Sr  Sr26  1  0.53547649  0.33196962  0.14523149  1
  Sr  Sr27  1  0.50881224  0.31186038  0.63859852  1
  Sr  Sr28  1  0.52049107  0.65665942  0.09905959  1
  Sr  Sr29  1  0.50202674  0.67932511  0.63275389  1
  Sr  Sr30  1  0.84039419  -0.01301363  0.11228625  1
  Sr  Sr31  1  0.82755754  0.01002079  0.66515812  1
  Sr  Sr32  1  0.84074663  0.34783845  0.08710331  1
  Sr  Sr33  1  0.87024343  0.34218355  0.62928928  1
  Sr  Sr34  1  0.82834347  0.66071880  0.16901996  1
  Sr  Sr35  1  0.84265381  0.68256901  0.60809212  1
  Sr  Sr36  1  -0.01061044  0.17382472  0.35733803  1
  Sr  Sr37  1  -0.02649314  0.16781529  0.86560160  1
  Sr  Sr38  1  -0.03765920  0.50232873  0.41523506  1
  Sr  Sr39  1  0.00282604  0.51400567  0.86087433  1
  Sr  Sr40  1  -0.01672157  0.83247112  0.36251141  1
  Sr  Sr41  1  0.01491056  0.84243359  0.91830181  1
  Sr  Sr42  1  0.29648939  0.16608303  0.39526649  1
  Sr  Sr43  1  0.34452752  0.16089374  0.87288436  1
  Sr  Sr44  1  0.31914942  0.50055165  0.37522720  1
  Sr  Sr45  1  0.31668655  0.50758878  0.91576181  1
  Sr  Sr46  1  0.32560363  0.83846746  0.36145864  1
  Sr  Sr47  1  0.32778812  0.81673297  0.83746215  1
  Sr  Sr48  1  0.66586132  0.17229175  0.38725829  1
  Sr  Sr49  1  0.65230568  0.16965242  0.84572094  1
  Sr  Sr50  1  0.65748139  0.51468410  0.33386559  1
  Sr  Sr51  1  0.65158335  0.48642825  0.89518342  1
  Sr  Sr52  1  0.65290148  0.82139721  0.42063174  1
  Sr  Sr53  1  0.67585799  0.83597845  0.86646675  1
  Sr  Sr54  1  0.15894679  -0.01197348  0.41658611  1
  Sr  Sr55  1  0.18423867  0.00992017  0.85819559  1
  Sr  Sr56  1  0.17460658  0.32929821  0.36061055  1
  Sr  Sr57  1  0.20893319  0.32092621  0.89402166  1
  Sr  Sr58  1  0.18981197  0.66262425  0.33724022  1
  Sr  Sr59  1  0.16347400  0.65455269  0.88347192  1
  Sr  Sr60  1  0.50639830  -0.00311743  0.35981172  1
  Sr  Sr61  1  0.50376355  0.00560325  0.91510229  1
  Sr  Sr62  1  0.53942371  0.33104330  0.35825610  1
  Sr  Sr63  1  0.51899748  0.32520005  0.85360723  1
  Sr  Sr64  1  0.50231290  0.66011865  0.39476191  1
  Sr  Sr65  1  0.50785709  0.66092130  0.87273971  1
  Sr  Sr66  1  0.84769515  0.01407343  0.32542983  1
  Sr  Sr67  1  0.82673649  -0.00888524  0.88399485  1
  Sr  Sr68  1  0.84128198  0.32313576  0.42306660  1
  Sr  Sr69  1  0.85958831  0.35220605  0.87717220  1
  Sr  Sr70  1  0.82595428  0.68038669  0.38658903  1
  Sr  Sr71  1  0.84213670  0.67287384  0.83700815  1
  Ta  Ta72  1  0.12644679  0.17044746  -0.00082264  1
  Ta  Ta73  1  0.11911110  0.17484397  0.50374245  1
  Ta  Ta74  1  0.14087883  0.46851322  -0.00170539  1
  Ta  Ta75  1  0.14286692  0.51063153  0.49449754  1
  Ta  Ta76  1  0.20694053  0.83010628  -0.00096793  1
  Ta  Ta77  1  0.17095248  0.79131919  0.49699049  1
  Ta  Ta78  1  0.51799193  0.18429931  0.01190572  1
  Ta  Ta79  1  0.47108427  0.17061081  0.47962512  1
  Ta  Ta80  1  0.47945334  0.47067124  0.00319118  1
  Ta  Ta81  1  0.51489396  0.48023538  0.49350354  1
  Ta  Ta82  1  0.45966457  0.82746122  -0.00130382  1
  Ta  Ta83  1  0.45971783  0.83957620  0.49980530  1
  Ta  Ta84  1  0.79265745  0.16554401  0.00279992  1
  Ta  Ta85  1  0.83382745  0.13133115  0.49699083  1
  Ta  Ta86  1  0.82745444  0.55109833  -0.00624896  1
  Ta  Ta87  1  0.77781271  0.50254286  0.51047905  1
  Ta  Ta88  1  0.83554319  0.79346489  0.00139135  1
  Ta  Ta89  1  0.82972991  0.88568578  0.49662859  1
  Ta  Ta90  1  0.16026705  0.12342149  0.25386285  1
  Ta  Ta91  1  0.15198180  0.19247759  0.73996855  1
  Ta  Ta92  1  0.10648304  0.49218921  0.26167014  1
  Ta  Ta93  1  0.19494436  0.47170576  0.74698512  1
  Ta  Ta94  1  0.16132567  0.87000403  0.24291573  1
  Ta  Ta95  1  0.12960314  0.83275362  0.74429595  1
  Ta  Ta96  1  0.45206212  0.17151824  0.26020766  1
  Ta  Ta97  1  0.49882555  0.11550563  0.74060799  1
  Ta  Ta98  1  0.47102314  0.50039113  0.24711120  1
  Ta  Ta99  1  0.44705742  0.49535991  0.75794578  1
  Ta  Ta100  1  0.52097369  0.81564546  0.24337632  1
  Ta  Ta101  1  0.50303656  0.88186169  0.74917019  1
  Ta  Ta102  1  0.82477625  0.21910641  0.25340982  1
  Ta  Ta103  1  0.80924183  0.19502232  0.74515240  1
  Ta  Ta104  1  0.84603876  0.46476753  0.25583533  1
  Ta  Ta105  1  0.79789651  0.50343938  0.74366656  1
  Ta  Ta106  1  0.78548984  0.83738913  0.25002745  1
  Ta  Ta107  1  0.87741410  0.83855121  0.74883984  1
  Ta  Ta108  1  0.03884516  0.00031974  0.24909628  1
  Ta  Ta109  1  0.00683347  -0.03443930  0.74576116  1
  Ta  Ta110  1  -0.02729441  0.35549230  0.25323635  1
  Ta  Ta111  1  0.06441184  0.33254025  0.74889894  1
  Ta  Ta112  1  0.00486979  0.63320177  0.25577686  1
  Ta  Ta113  1  0.00972053  0.72029727  0.74962676  1
  Ta  Ta114  1  0.30185543  0.01401025  0.24399065  1
  Ta  Ta115  1  0.37996591  -0.00243538  0.75033978  1
  Ta  Ta116  1  0.36758673  0.32985625  0.26216845  1
  Ta  Ta117  1  0.34243272  0.36426330  0.74833591  1
  Ta  Ta118  1  0.37696177  0.65857723  0.24287327  1
  Ta  Ta119  1  0.33780157  0.62406346  0.75657332  1
  Ta  Ta120  1  0.66363127  -0.05192849  0.25098396  1
  Ta  Ta121  1  0.63383828  0.00231513  0.75409459  1
  Ta  Ta122  1  0.71913523  0.33941927  0.25651591  1
  Ta  Ta123  1  0.70879303  0.34021893  0.75138708  1
  Ta  Ta124  1  0.65347022  0.70705492  0.25180161  1
  Ta  Ta125  1  0.68313638  0.64700354  0.74746111  1
  Ta  Ta126  1  0.01078932  0.02615344  0.00291933  1
  Ta  Ta127  1  -0.02962565  0.01804111  0.49629986  1
  Ta  Ta128  1  0.03455334  0.32487295  -0.00255459  1
  Ta  Ta129  1  0.03258025  0.33227072  0.50464519  1
  Ta  Ta130  1  -0.04780552  0.66613479  0.00018747  1
  Ta  Ta131  1  0.04955907  0.66582355  0.49895722  1
  Ta  Ta132  1  0.33416010  -0.04397041  -0.00459444  1
  Ta  Ta133  1  0.35482030  -0.00628734  0.50033494  1
  Ta  Ta134  1  0.38197214  0.33383658  0.00771386  1
  Ta  Ta135  1  0.38698999  0.32787758  0.48093297  1
  Ta  Ta136  1  0.33768631  0.69677707  0.00396422  1
  Ta  Ta137  1  0.32542699  0.69064724  0.49424411  1
  Ta  Ta138  1  0.66791553  0.04603821  0.00356722  1
  Ta  Ta139  1  0.71735811  0.00358584  0.49328160  1
  Ta  Ta140  1  0.67002129  0.29043036  -0.00145525  1
  Ta  Ta141  1  0.66799819  0.38045451  0.50339147  1
  Ta  Ta142  1  0.70773433  0.66655019  0.00292368  1
  Ta  Ta143  1  0.66346007  0.62389517  0.50398949  1
  N  N144  1  0.16131373  0.82982110  0.61862673  1
  N  N145  1  0.32395088  0.34051578  0.38026949  1
  N  N146  1  0.17137408  0.16387304  0.61793817  1
  N  N147  1  0.83117324  0.17160876  0.36824956  1
  N  N148  1  0.16798761  0.83310986  0.12448818  1
  N  N149  1  0.66463045  0.66841675  0.62650862  1
  N  N150  1  0.82488127  0.83018201  0.12771008  1
  N  N151  1  0.82384552  0.84163977  0.37927453  1
  N  N152  1  0.14786505  0.15661212  0.37605978  1
  N  N153  1  0.68012623  0.33066011  0.87893268  1
  N  N154  1  0.51620917  0.15625158  0.36156976  1
  N  N155  1  0.32822065  -0.00256453  0.12285456  1
  N  N156  1  0.66111962  0.00949745  0.88054265  1
  N  N157  1  0.49230617  0.16728204  0.13283245  1
  N  N158  1  0.00014840  -0.00274402  0.62605825  1
  N  N159  1  0.17353955  0.49539712  0.62180511  1
  N  N160  1  0.84037841  0.83377658  0.87779543  1
  N  N161  1  0.66507034  0.66745002  0.37929725  1
  N  N162  1  0.49859077  0.82973046  0.11914554  1
  N  N163  1  0.16625550  0.49124838  0.36714360  1
  N  N164  1  0.83810309  0.84519602  0.62846464  1
  N  N165  1  0.82535740  0.17365196  0.62390014  1
  N  N166  1  0.67280891  0.67159893  0.12767208  1
  N  N167  1  0.16273335  0.49072142  0.87841724  1
  N  N168  1  0.49216540  0.49387066  0.88011063  1
  N  N169  1  0.32733635  0.66291769  0.13128482  1
  N  N170  1  0.00067558  -0.00086968  0.37378528  1
  N  N171  1  0.34007569  -0.00521238  0.87110998  1
  N  N172  1  -0.00358314  0.00079044  0.12375941  1
  N  N173  1  0.68844860  0.34604442  0.38245400  1
  N  N174  1  0.34090575  0.67213273  0.37259453  1
  N  N175  1  0.50106298  0.49939181  0.36885070  1
  N  N176  1  0.33092161  0.66040776  0.87614072  1
  O  O177  1  0.14726324  0.16830186  0.87270309  1
  O  O178  1  0.81802299  0.49799872  0.37922725  1
  O  O179  1  0.33100636  -0.00142543  0.37668119  1
  O  O180  1  0.66096187  -0.00131773  0.12632359  1
  O  O181  1  0.02794417  0.35388378  0.63298610  1
  O  O182  1  0.81954176  0.17558353  0.12661965  1
  O  O183  1  0.48270546  0.83525512  0.37405214  1
  O  O184  1  0.02203998  0.32782799  0.86751305  1
  O  O185  1  0.65783960  0.33943087  0.63299708  1
  O  O186  1  0.67674124  0.00528103  0.62934474  1
  O  O187  1  0.67005468  0.67236013  0.87447172  1
  O  O188  1  0.48810984  0.84824792  0.62644231  1
  O  O189  1  0.14807288  0.16859126  0.12873097  1
  O  O190  1  0.02198691  0.67151120  0.62723560  1
  O  O191  1  0.50140394  0.84871798  0.87274790  1
  O  O192  1  0.81179523  0.50606712  0.87304019  1
  O  O193  1  0.68822011  0.34068200  0.11681646  1
  O  O194  1  0.52259193  0.49172443  0.12428725  1
  O  O195  1  -0.00253902  0.33462050  0.11951982  1
  O  O196  1  0.35757677  0.34572927  0.61195969  1
  O  O197  1  0.33052269  -0.00115423  0.62506041  1
  O  O198  1  0.35970386  0.32947463  0.87845974  1
  O  O199  1  -0.00271678  0.33806773  0.38416611  1
  O  O200  1  -0.00479179  0.67774445  0.87357433  1
  O  O201  1  0.14303474  0.47565074  0.13649382  1
  O  O202  1  0.00685595  -0.00080599  0.87702223  1
  O  O203  1  0.17049181  0.83378163  0.37193751  1
  O  O204  1  -0.01593904  0.65148395  0.13058089  1
  O  O205  1  0.48091608  0.49487023  0.62182592  1
  O  O206  1  0.49897636  0.15831500  0.86849546  1
  O  O207  1  0.66956153  -0.00790615  0.37177789  1
  O  O208  1  0.49790300  0.15318388  0.60855186  1
  O  O209  1  0.01324826  0.66058004  0.37695341  1
  O  O210  1  0.17050317  0.83116869  0.87443953  1
  O  O211  1  0.83594624  0.50474883  0.62325832  1
  O  O212  1  0.33076129  0.65854129  0.62765655  1
  O  O213  1  0.83133725  0.50420224  0.12991596  1
  O  O214  1  0.81597702  0.16777674  0.87561369  1
  O  O215  1  0.35202905  0.32870967  0.13008541  1
