# generated using pymatgen
data_Sr24Ta24N11O13
_symmetry_space_group_name_H-M   'P 1'
_cell_length_a   16.81760685
_cell_length_b   16.79248481
_cell_length_c   15.71284901
_cell_angle_alpha   90.22177679
_cell_angle_beta   89.75961703
_cell_angle_gamma   89.95975463
_symmetry_Int_Tables_number   1
_chemical_formula_structural   Sr24Ta24N11O13
_chemical_formula_sum   'Sr72 Ta72 N33 O39'
_cell_volume   4437.38293729
_cell_formula_units_Z   3
loop_
 _symmetry_equiv_pos_site_id
 _symmetry_equiv_pos_as_xyz
  1  'x, y, z'
loop_
 _atom_site_type_symbol
 _atom_site_label
 _atom_site_symmetry_multiplicity
 _atom_site_fract_x
 _atom_site_fract_y
 _atom_site_fract_z
 _atom_site_occupancy
  Sr  Sr0  1  -0.01110603  0.17263862  0.14025386  1
  Sr  Sr1  1  -0.00501983  0.13831416  0.58363991  1
  Sr  Sr2  1  0.01425497  0.50072539  0.07575785  1
  Sr  Sr3  1  -0.01323849  0.48895154  0.62533826  1
  Sr  Sr4  1  -0.00350786  0.82812805  0.11797454  1
  Sr  Sr5  1  0.00278456  0.83419047  0.67290344  1
  Sr  Sr6  1  0.34405175  0.18327127  0.07385217  1
  Sr  Sr7  1  0.32328122  0.16036986  0.63476410  1
  Sr  Sr8  1  0.32032910  0.49740054  0.17072772  1
  Sr  Sr9  1  0.35512362  0.49217877  0.61849313  1
  Sr  Sr10  1  0.32449906  0.83576949  0.13635367  1
  Sr  Sr11  1  0.31690964  0.82657591  0.57790499  1
  Sr  Sr12  1  0.62956391  0.14985714  0.16525269  1
  Sr  Sr13  1  0.67094415  0.16801943  0.61479354  1
  Sr  Sr14  1  0.67628656  0.49570881  0.11747716  1
  Sr  Sr15  1  0.67328745  0.48697468  0.65985577  1
  Sr  Sr16  1  0.66403642  0.83971813  0.12670966  1
  Sr  Sr17  1  0.65456107  0.80992627  0.61770586  1
  Sr  Sr18  1  0.16081929  0.02631119  0.15879320  1
  Sr  Sr19  1  0.17500272  -0.00032731  0.61605134  1
  Sr  Sr20  1  0.17710020  0.33649633  0.13004482  1
  Sr  Sr21  1  0.16816943  0.35273685  0.65150564  1
  Sr  Sr22  1  0.16836201  0.67658125  0.12585530  1
  Sr  Sr23  1  0.16152156  0.67484945  0.61811132  1
  Sr  Sr24  1  0.47892941  -0.00591713  0.10911240  1
  Sr  Sr25  1  0.50208671  0.00367878  0.66934849  1
  Sr  Sr26  1  0.50303115  0.34731845  0.13358088  1
  Sr  Sr27  1  0.49120637  0.31064486  0.57273537  1
  Sr  Sr28  1  0.52253317  0.65981527  0.08520871  1
  Sr  Sr29  1  0.50371222  0.64462180  0.63895704  1
  Sr  Sr30  1  0.85309056  0.00509183  0.09779257  1
  Sr  Sr31  1  0.82593808  0.01236390  0.61429616  1
  Sr  Sr32  1  0.84666894  0.34295214  0.10848666  1
  Sr  Sr33  1  0.82484379  0.34230618  0.65651823  1
  Sr  Sr34  1  0.82586955  0.68596771  0.16997822  1
  Sr  Sr35  1  0.83918700  0.66979156  0.61653330  1
  Sr  Sr36  1  0.00284562  0.16592414  0.35721948  1
  Sr  Sr37  1  -0.02814330  0.16120409  0.91554250  1
  Sr  Sr38  1  -0.00082523  0.51045548  0.41593837  1
  Sr  Sr39  1  -0.00118607  0.47246857  0.86913656  1
  Sr  Sr40  1  -0.01000453  0.80052235  0.33435566  1
  Sr  Sr41  1  -0.00386394  0.84488572  0.88107691  1
  Sr  Sr42  1  0.33961242  0.17056252  0.41664729  1
  Sr  Sr43  1  0.32830252  0.15210860  0.86004793  1
  Sr  Sr44  1  0.35378169  0.48773575  0.37517841  1
  Sr  Sr45  1  0.33070547  0.51626433  0.83177355  1
  Sr  Sr46  1  0.33032221  0.84602216  0.36087019  1
  Sr  Sr47  1  0.32147738  0.81814388  0.91650621  1
  Sr  Sr48  1  0.65890400  0.16718558  0.38783937  1
  Sr  Sr49  1  0.67424079  0.15126412  0.82962666  1
  Sr  Sr50  1  0.68597445  0.49158735  0.33241978  1
  Sr  Sr51  1  0.65788908  0.47959457  0.89183408  1
  Sr  Sr52  1  0.67502499  0.81974500  0.38551800  1
  Sr  Sr53  1  0.65118292  0.83004984  0.88328448  1
  Sr  Sr54  1  0.17595616  0.01985604  0.39146396  1
  Sr  Sr55  1  0.16587904  0.00844945  0.84010811  1
  Sr  Sr56  1  0.16681839  0.34969127  0.35467287  1
  Sr  Sr57  1  0.18458267  0.32831536  0.86502991  1
  Sr  Sr58  1  0.17418580  0.67215671  0.36125245  1
  Sr  Sr59  1  0.15352401  0.68348032  0.89965904  1
  Sr  Sr60  1  0.51439256  -0.01482197  0.32227659  1
  Sr  Sr61  1  0.48456159  -0.00306078  0.88130722  1
  Sr  Sr62  1  0.50811738  0.33530627  0.36200241  1
  Sr  Sr63  1  0.49091160  0.32394932  0.91185737  1
  Sr  Sr64  1  0.50401209  0.68101579  0.42279731  1
  Sr  Sr65  1  0.50854523  0.64734630  0.86232149  1
  Sr  Sr66  1  0.83709918  0.02696851  0.40395372  1
  Sr  Sr67  1  0.84004081  0.00159839  0.88783002  1
  Sr  Sr68  1  0.84928881  0.33939680  0.35130910  1
  Sr  Sr69  1  0.83154999  0.33485652  0.88195311  1
  Sr  Sr70  1  0.83000652  0.66172694  0.38205469  1
  Sr  Sr71  1  0.84623102  0.69669687  0.84606075  1
  Ta  Ta72  1  0.15489507  0.15660840  -0.00550279  1
  Ta  Ta73  1  0.15873654  0.21375232  0.49938952  1
  Ta  Ta74  1  0.20763652  0.50374220  0.00211831  1
  Ta  Ta75  1  0.18988399  0.50402446  0.49400320  1
  Ta  Ta76  1  0.15895601  0.88189816  0.00168901  1
  Ta  Ta77  1  0.11959302  0.83335982  0.50275949  1
  Ta  Ta78  1  0.53919438  0.15550558  -0.01148339  1
  Ta  Ta79  1  0.50313628  0.10851587  0.50034250  1
  Ta  Ta80  1  0.45170943  0.50031059  -0.00352211  1
  Ta  Ta81  1  0.55033394  0.49077436  0.49994215  1
  Ta  Ta82  1  0.48936632  0.82305754  0.00120482  1
  Ta  Ta83  1  0.49880712  0.87798316  0.49496615  1
  Ta  Ta84  1  0.78421761  0.16893760  0.00446793  1
  Ta  Ta85  1  0.83617345  0.21655530  0.49815687  1
  Ta  Ta86  1  0.83553087  0.54931585  -0.00156772  1
  Ta  Ta87  1  0.80464792  0.48523771  0.49429186  1
  Ta  Ta88  1  0.82667710  0.81037944  0.00417608  1
  Ta  Ta89  1  0.87254770  0.83806390  0.50203149  1
  Ta  Ta90  1  0.23026811  0.17985514  0.25135082  1
  Ta  Ta91  1  0.11248753  0.17235360  0.75151898  1
  Ta  Ta92  1  0.12695092  0.50846654  0.24623834  1
  Ta  Ta93  1  0.14954161  0.53395679  0.75077633  1
  Ta  Ta94  1  0.14951586  0.86162530  0.25776003  1
  Ta  Ta95  1  0.19914262  0.82810960  0.74794923  1
  Ta  Ta96  1  0.44667664  0.16508423  0.24893362  1
  Ta  Ta97  1  0.49762075  0.19548438  0.74510009  1
  Ta  Ta98  1  0.50721182  0.54590162  0.25043903  1
  Ta  Ta99  1  0.50258611  0.44781436  0.74842855  1
  Ta  Ta100  1  0.50232161  0.78847137  0.25387459  1
  Ta  Ta101  1  0.45283893  0.82061159  0.74414652  1
  Ta  Ta102  1  0.80881218  0.16062898  0.24557099  1
  Ta  Ta103  1  0.86327159  0.16372199  0.74927749  1
  Ta  Ta104  1  0.87601807  0.50474361  0.24087603  1
  Ta  Ta105  1  0.83383089  0.53034407  0.77105774  1
  Ta  Ta106  1  0.83142538  0.88126834  0.25050212  1
  Ta  Ta107  1  0.80766069  0.85779975  0.75390444  1
  Ta  Ta108  1  -0.01033906  -0.01839755  0.25305422  1
  Ta  Ta109  1  -0.00789735  0.03215001  0.75554234  1
  Ta  Ta110  1  0.00722634  0.38456221  0.24104707  1
  Ta  Ta111  1  -0.00363878  0.28828077  0.75394607  1
  Ta  Ta112  1  0.00074791  0.62032413  0.24181932  1
  Ta  Ta113  1  0.00829003  0.64119644  0.75268365  1
  Ta  Ta114  1  0.33233177  0.04047660  0.24840648  1
  Ta  Ta115  1  0.33006733  -0.05689875  0.75338433  1
  Ta  Ta116  1  0.34097158  0.30049319  0.25259234  1
  Ta  Ta117  1  0.37684295  0.32956230  0.74454506  1
  Ta  Ta118  1  0.38379739  0.66693713  0.24836917  1
  Ta  Ta119  1  0.32402559  0.70798738  0.74861131  1
  Ta  Ta120  1  0.71419626  -0.00137029  0.25313913  1
  Ta  Ta121  1  0.68438418  -0.02779159  0.74920431  1
  Ta  Ta122  1  0.68697500  0.31095924  0.24410611  1
  Ta  Ta123  1  0.61079197  0.32096806  0.74672646  1
  Ta  Ta124  1  0.63275543  0.66541083  0.25329220  1
  Ta  Ta125  1  0.68960905  0.65470942  0.75770885  1
  Ta  Ta126  1  0.04284005  0.00369733  0.00358649  1
  Ta  Ta127  1  -0.00040884  -0.05039705  0.49811716  1
  Ta  Ta128  1  0.03392726  0.31523879  -0.00065177  1
  Ta  Ta129  1  0.00731001  0.31927375  0.49933159  1
  Ta  Ta130  1  -0.04425809  0.67105960  0.00495262  1
  Ta  Ta131  1  0.00100330  0.70632320  0.50767572  1
  Ta  Ta132  1  0.28833213  -0.00124046  0.00003453  1
  Ta  Ta133  1  0.37654487  -0.00323952  0.49412421  1
  Ta  Ta134  1  0.32879976  0.37940484  0.00349555  1
  Ta  Ta135  1  0.29776711  0.33872923  0.50105713  1
  Ta  Ta136  1  0.34007064  0.63337058  0.00762850  1
  Ta  Ta137  1  0.31904314  0.64333982  0.49712249  1
  Ta  Ta138  1  0.66431572  0.03092370  0.00122197  1
  Ta  Ta139  1  0.62623207  -0.00937013  0.49888499  1
  Ta  Ta140  1  0.66130886  0.27814015  -0.00362646  1
  Ta  Ta141  1  0.68811893  0.35759278  0.49810362  1
  Ta  Ta142  1  0.71224515  0.66994598  0.00676622  1
  Ta  Ta143  1  0.67304014  0.61277528  0.49732053  1
  N  N144  1  0.82476175  0.84674501  0.87761589  1
  N  N145  1  -0.00198784  0.32097085  0.87741923  1
  N  N146  1  0.34023129  0.66435278  0.12763246  1
  N  N147  1  0.83385055  0.84575672  0.12852531  1
  N  N148  1  0.82214024  0.16757331  0.86778972  1
  N  N149  1  0.34041081  0.34232981  0.12284089  1
  N  N150  1  0.33756084  0.32792788  0.62718230  1
  N  N151  1  0.00436950  0.00288629  0.13261305  1
  N  N152  1  0.83381926  0.16978810  0.11847846  1
  N  N153  1  0.15982283  0.16734025  0.87105499  1
  N  N154  1  0.32580911  0.00831339  0.11797705  1
  N  N155  1  0.49649618  0.15403577  0.61729940  1
  N  N156  1  0.83195140  0.17655809  0.61755181  1
  N  N157  1  0.66985829  0.65415914  0.37893524  1
  N  N158  1  0.16687623  0.50878865  0.37482819  1
  N  N159  1  -0.00424528  0.66677395  0.12344213  1
  N  N160  1  0.83375990  0.17927889  0.37499927  1
  N  N161  1  0.51456086  0.48319213  0.61724201  1
  N  N162  1  0.49033919  0.48939217  0.87818884  1
  N  N163  1  0.34411438  0.00278187  0.37248845  1
  N  N164  1  0.83330732  0.48916618  0.88613985  1
  N  N165  1  0.00134753  0.00409432  0.87612669  1
  N  N166  1  0.32730147  -0.01135999  0.87131512  1
  N  N167  1  0.16992853  0.51104057  0.11917512  1
  N  N168  1  0.50187632  0.15566805  0.86937026  1
  N  N169  1  0.83574719  0.50650298  0.12268078  1
  N  N170  1  -0.00410335  0.67106383  0.62958713  1
  N  N171  1  0.00795246  0.34186147  0.12189100  1
  N  N172  1  0.33998240  0.33389770  0.38441086  1
  N  N173  1  0.50169734  0.83400782  0.37437307  1
  N  N174  1  0.83748522  0.50022472  0.37530312  1
  N  N175  1  0.67506216  0.66486885  0.12697164  1
  N  N176  1  0.16097925  0.83824180  0.62573336  1
  O  O177  1  0.66693004  0.66992142  0.87996255  1
  O  O178  1  0.17193413  0.52419805  0.87364454  1
  O  O179  1  0.65329453  0.30687892  0.86969369  1
  O  O180  1  -0.00090305  -0.01112804  0.62870536  1
  O  O181  1  0.48688259  0.15687284  0.12070055  1
  O  O182  1  0.67963022  0.33047128  0.36816558  1
  O  O183  1  0.67699680  0.00432544  0.12451935  1
  O  O184  1  0.84493519  0.83801689  0.37661777  1
  O  O185  1  0.32241970  0.66551348  0.62266264  1
  O  O186  1  0.33117323  0.66861504  0.87240227  1
  O  O187  1  0.49455435  0.15064432  0.36767215  1
  O  O188  1  0.16412138  0.83998764  0.37989320  1
  O  O189  1  0.14878752  0.19100035  0.62321168  1
  O  O190  1  -0.00438856  0.00796036  0.38641811  1
  O  O191  1  -0.00062562  0.67940391  0.87696600  1
  O  O192  1  0.84720994  0.83980570  0.62643073  1
  O  O193  1  0.47721822  0.83464270  0.62044991  1
  O  O194  1  0.67812252  0.64713194  0.63075487  1
  O  O195  1  0.33418327  -0.01599999  0.62887787  1
  O  O196  1  0.16004897  0.86241061  0.13369051  1
  O  O197  1  0.49722680  0.50714045  0.12598175  1
  O  O198  1  -0.00526209  0.65988260  0.38377563  1
  O  O199  1  0.47714209  0.81896712  0.87647651  1
  O  O200  1  0.66113296  0.33047688  0.62601293  1
  O  O201  1  0.66565439  -0.02082537  0.62415366  1
  O  O202  1  0.33880057  0.33727430  0.87778185  1
  O  O203  1  0.16230444  0.84237217  0.87262199  1
  O  O204  1  0.67397228  -0.00296306  0.37935338  1
  O  O205  1  -0.00168606  0.32911723  0.62465528  1
  O  O206  1  0.65988606  0.30370453  0.12411099  1
  O  O207  1  0.19245994  0.17701096  0.12736414  1
  O  O208  1  0.51406427  0.49581033  0.36834114  1
  O  O209  1  0.00691204  0.34615874  0.37485068  1
  O  O210  1  0.15830099  0.51211215  0.62618992  1
  O  O211  1  0.83076608  0.49678310  0.64172690  1
  O  O212  1  0.67291723  -0.00456046  0.88022804  1
  O  O213  1  0.49984322  0.82842655  0.12679586  1
  O  O214  1  0.17699115  0.18873665  0.37292483  1
  O  O215  1  0.33833385  0.65343421  0.37414706  1
