# generated using pymatgen
data_Sr24Ta24N11O13
_symmetry_space_group_name_H-M   'P 1'
_cell_length_a   16.71847180
_cell_length_b   16.92824511
_cell_length_c   15.75417602
_cell_angle_alpha   89.72461005
_cell_angle_beta   90.19459158
_cell_angle_gamma   89.97772728
_symmetry_Int_Tables_number   1
_chemical_formula_structural   Sr24Ta24N11O13
_chemical_formula_sum   'Sr72 Ta72 N33 O39'
_cell_volume   4458.58090951
_cell_formula_units_Z   3
loop_
 _symmetry_equiv_pos_site_id
 _symmetry_equiv_pos_as_xyz
  1  'x, y, z'
loop_
 _atom_site_type_symbol
 _atom_site_label
 _atom_site_symmetry_multiplicity
 _atom_site_fract_x
 _atom_site_fract_y
 _atom_site_fract_z
 _atom_site_occupancy
  Sr  Sr0  1  -0.01230540  0.15940773  0.11152141  1
  Sr  Sr1  1  0.01162589  0.14621172  0.64742702  1
  Sr  Sr2  1  0.01605305  0.48287663  0.15657654  1
  Sr  Sr3  1  -0.00717647  0.49205645  0.61498951  1
  Sr  Sr4  1  0.00533784  0.81389638  0.13206149  1
  Sr  Sr5  1  -0.00383398  0.82285652  0.58934265  1
  Sr  Sr6  1  0.34292723  0.17199671  0.12810134  1
  Sr  Sr7  1  0.32981184  0.13835480  0.61695651  1
  Sr  Sr8  1  0.33140055  0.49787922  0.08748321  1
  Sr  Sr9  1  0.33748083  0.48007790  0.62253970  1
  Sr  Sr10  1  0.33695776  0.81354486  0.15774085  1
  Sr  Sr11  1  0.32345871  0.82776720  0.63123701  1
  Sr  Sr12  1  0.66180701  0.13268738  0.17040628  1
  Sr  Sr13  1  0.66160314  0.18411921  0.61414306  1
  Sr  Sr14  1  0.65957195  0.49469101  0.12263396  1
  Sr  Sr15  1  0.65999477  0.48788904  0.66213104  1
  Sr  Sr16  1  0.65769320  0.83465236  0.08619442  1
  Sr  Sr17  1  0.67944814  0.82578412  0.63761901  1
  Sr  Sr18  1  0.16058443  0.02132978  0.07976664  1
  Sr  Sr19  1  0.17177102  -0.01218452  0.62879382  1
  Sr  Sr20  1  0.16460221  0.32393878  0.16951882  1
  Sr  Sr21  1  0.15945016  0.35380549  0.61887580  1
  Sr  Sr22  1  0.16763130  0.65770304  0.11591613  1
  Sr  Sr23  1  0.17722296  0.67666607  0.64873007  1
  Sr  Sr24  1  0.48469227  0.00723750  0.13455267  1
  Sr  Sr25  1  0.52183228  0.02140584  0.58852176  1
  Sr  Sr26  1  0.48936507  0.35422791  0.08765902  1
  Sr  Sr27  1  0.50366713  0.33348918  0.63812196  1
  Sr  Sr28  1  0.50751690  0.67729225  0.15337514  1
  Sr  Sr29  1  0.48977713  0.68861922  0.60907760  1
  Sr  Sr30  1  0.83729069  0.00841850  0.13804209  1
  Sr  Sr31  1  0.82034033  0.01603173  0.65783029  1
  Sr  Sr32  1  0.83280156  0.36585230  0.13101006  1
  Sr  Sr33  1  0.83687458  0.33298040  0.58560503  1
  Sr  Sr34  1  0.82817619  0.69605348  0.09325806  1
  Sr  Sr35  1  0.83843734  0.66493392  0.63202532  1
  Sr  Sr36  1  0.00240154  0.14979172  0.36758410  1
  Sr  Sr37  1  -0.00001010  0.16017276  0.87851543  1
  Sr  Sr38  1  0.00327657  0.48465730  0.38268722  1
  Sr  Sr39  1  0.00087689  0.49171684  0.85545847  1
  Sr  Sr40  1  -0.00805205  0.83308719  0.36732612  1
  Sr  Sr41  1  0.00842576  0.80257671  0.91263426  1
  Sr  Sr42  1  0.32977483  0.15608747  0.35654012  1
  Sr  Sr43  1  0.34622582  0.14674162  0.90800021  1
  Sr  Sr44  1  0.34381805  0.48815105  0.41143711  1
  Sr  Sr45  1  0.33655144  0.47388689  0.87146113  1
  Sr  Sr46  1  0.33340737  0.82564013  0.36489793  1
  Sr  Sr47  1  0.32198103  0.82075761  0.84261062  1
  Sr  Sr48  1  0.66741814  0.16743604  0.39023061  1
  Sr  Sr49  1  0.66481625  0.16346381  0.83919119  1
  Sr  Sr50  1  0.65408709  0.50613921  0.33147345  1
  Sr  Sr51  1  0.67102121  0.47874127  0.89050620  1
  Sr  Sr52  1  0.66151078  0.81742984  0.41438609  1
  Sr  Sr53  1  0.67106963  0.84042932  0.87040061  1
  Sr  Sr54  1  0.15894115  -0.00314901  0.41888901  1
  Sr  Sr55  1  0.17373414  -0.00143970  0.86010601  1
  Sr  Sr56  1  0.16644824  0.34552404  0.37942908  1
  Sr  Sr57  1  0.15220025  0.34626033  0.83443268  1
  Sr  Sr58  1  0.15762082  0.68060512  0.32921035  1
  Sr  Sr59  1  0.17714329  0.66392486  0.89151399  1
  Sr  Sr60  1  0.50293123  0.01839785  0.35891561  1
  Sr  Sr61  1  0.50409504  0.00337528  0.91336507  1
  Sr  Sr62  1  0.50174323  0.35000442  0.38912058  1
  Sr  Sr63  1  0.51249649  0.32727992  0.86350766  1
  Sr  Sr64  1  0.49475970  0.67435724  0.37746466  1
  Sr  Sr65  1  0.49938199  0.70227892  0.85516921  1
  Sr  Sr66  1  0.83967606  0.01325512  0.34028935  1
  Sr  Sr67  1  0.82870843  0.02100388  0.86042410  1
  Sr  Sr68  1  0.82949338  0.35457883  0.37578284  1
  Sr  Sr69  1  0.85174844  0.33938966  0.91964876  1
  Sr  Sr70  1  0.84037087  0.68916960  0.41150054  1
  Sr  Sr71  1  0.82887533  0.66393932  0.85880993  1
  Ta  Ta72  1  0.16255261  0.21239052  0.00062276  1
  Ta  Ta73  1  0.16910206  0.18691825  0.49479820  1
  Ta  Ta74  1  0.15232783  0.47088333  0.00652158  1
  Ta  Ta75  1  0.16732645  0.54415217  0.49485269  1
  Ta  Ta76  1  0.19357391  0.83911965  -0.00183120  1
  Ta  Ta77  1  0.16985607  0.80067834  0.49564547  1
  Ta  Ta78  1  0.54523560  0.17240860  0.00369149  1
  Ta  Ta79  1  0.47529374  0.18714396  0.50020540  1
  Ta  Ta80  1  0.50226508  0.55240722  0.00139378  1
  Ta  Ta81  1  0.53717924  0.51020983  0.49668999  1
  Ta  Ta82  1  0.46608048  0.83015522  0.00311639  1
  Ta  Ta83  1  0.48063379  0.86057501  0.49585366  1
  Ta  Ta84  1  0.79359673  0.16396536  0.00585436  1
  Ta  Ta85  1  0.84912942  0.14445366  0.49835787  1
  Ta  Ta86  1  0.84813213  0.52421889  -0.00277296  1
  Ta  Ta87  1  0.78642838  0.51042792  0.50449751  1
  Ta  Ta88  1  0.84112749  0.87657284  -0.00442456  1
  Ta  Ta89  1  0.83070783  0.88425052  0.50167378  1
  Ta  Ta90  1  0.15937655  0.12773856  0.25128749  1
  Ta  Ta91  1  0.19206316  0.17782027  0.75286114  1
  Ta  Ta92  1  0.21276189  0.50078392  0.25357982  1
  Ta  Ta93  1  0.17452332  0.52460642  0.74466755  1
  Ta  Ta94  1  0.16202523  0.87668888  0.25151431  1
  Ta  Ta95  1  0.12296707  0.82795937  0.74914835  1
  Ta  Ta96  1  0.50721504  0.22253023  0.24205549  1
  Ta  Ta97  1  0.48324503  0.14354493  0.75413210  1
  Ta  Ta98  1  0.46514227  0.49649730  0.24617849  1
  Ta  Ta99  1  0.49474069  0.53709296  0.75056476  1
  Ta  Ta100  1  0.53719222  0.84337512  0.25108863  1
  Ta  Ta101  1  0.50048082  0.88061618  0.75132080  1
  Ta  Ta102  1  0.83112743  0.20455342  0.25639508  1
  Ta  Ta103  1  0.83749448  0.21198106  0.75134289  1
  Ta  Ta104  1  0.83174726  0.55083228  0.25134020  1
  Ta  Ta105  1  0.83380235  0.46544765  0.74937485  1
  Ta  Ta106  1  0.80335349  0.82803484  0.25604072  1
  Ta  Ta107  1  0.87933524  0.83915199  0.74780768  1
  Ta  Ta108  1  0.03933911  -0.00556195  0.25170225  1
  Ta  Ta109  1  0.00072637  -0.04366025  0.74821302  1
  Ta  Ta110  1  -0.01751015  0.30396533  0.25712794  1
  Ta  Ta111  1  -0.03763399  0.32437623  0.74693078  1
  Ta  Ta112  1  -0.03755047  0.65276166  0.24737400  1
  Ta  Ta113  1  0.01205787  0.67890131  0.75002823  1
  Ta  Ta114  1  0.28293271  -0.00567694  0.24892005  1
  Ta  Ta115  1  0.37928457  -0.00183654  0.74876489  1
  Ta  Ta116  1  0.34969914  0.35546005  0.24408101  1
  Ta  Ta117  1  0.32766582  0.28428651  0.75534780  1
  Ta  Ta118  1  0.33464538  0.62044910  0.24775458  1
  Ta  Ta119  1  0.34021816  0.63381612  0.74532387  1
  Ta  Ta120  1  0.66869546  -0.05064828  0.25666388  1
  Ta  Ta121  1  0.62635873  0.00009459  0.75133098  1
  Ta  Ta122  1  0.66115026  0.31761823  0.24664947  1
  Ta  Ta123  1  0.72260418  0.32960598  0.75780409  1
  Ta  Ta124  1  0.69241099  0.69405833  0.24782805  1
  Ta  Ta125  1  0.64786391  0.64734723  0.75246148  1
  Ta  Ta126  1  -0.01971014  -0.02553944  -0.00135241  1
  Ta  Ta127  1  -0.03842433  0.00093908  0.49753576  1
  Ta  Ta128  1  0.03945177  0.33376940  -0.00187682  1
  Ta  Ta129  1  0.00726035  0.28842746  0.50163167  1
  Ta  Ta130  1  -0.00365852  0.61728612  0.00723665  1
  Ta  Ta131  1  0.04624802  0.65932335  0.49537819  1
  Ta  Ta132  1  0.32902105  -0.05004052  0.00041623  1
  Ta  Ta133  1  0.34971801  -0.01811493  0.49043003  1
  Ta  Ta134  1  0.28114079  0.32403435  0.00239712  1
  Ta  Ta135  1  0.33155367  0.29642201  0.49948482  1
  Ta  Ta136  1  0.35866627  0.68064759  0.00385234  1
  Ta  Ta137  1  0.30047336  0.66680698  0.49782381  1
  Ta  Ta138  1  0.68218702  0.02524015  -0.00228245  1
  Ta  Ta139  1  0.70526581  -0.00234249  0.49317933  1
  Ta  Ta140  1  0.67446529  0.28527140  0.00151926  1
  Ta  Ta141  1  0.66304209  0.38302526  0.49956555  1
  Ta  Ta142  1  0.64624595  0.65187808  0.00254476  1
  Ta  Ta143  1  0.66213292  0.62428641  0.49961336  1
  N  N144  1  -0.00035624  -0.00776897  0.37549642  1
  N  N145  1  0.15847178  0.83244560  0.62525280  1
  N  N146  1  0.82925952  0.84190739  0.37550532  1
  N  N147  1  0.49627036  0.84965227  0.87624992  1
  N  N148  1  0.32487258  0.33286879  0.12293354  1
  N  N149  1  0.50114845  0.50728175  0.37367325  1
  N  N150  1  0.49991192  0.84168542  0.12614658  1
  N  N151  1  0.49630887  0.17326236  0.62129972  1
  N  N152  1  0.83743226  0.84511002  0.63201999  1
  N  N153  1  0.17248378  0.50352300  0.37124726  1
  N  N154  1  0.66440950  0.00375377  0.87500817  1
  N  N155  1  0.00385650  0.32821009  0.87828896  1
  N  N156  1  -0.00068401  0.31940990  0.62570933  1
  N  N157  1  0.16821481  0.50730209  0.62354351  1
  N  N158  1  0.33668832  0.66010546  0.12302102  1
  N  N159  1  0.16091561  0.83724704  0.37498764  1
  N  N160  1  0.17118318  0.49021038  0.12652211  1
  N  N161  1  0.68288027  0.32305861  0.87947018  1
  N  N162  1  -0.00028241  0.32683941  0.37757106  1
  N  N163  1  0.66982510  0.67318116  0.12404179  1
  N  N164  1  0.16518333  0.82911865  0.87649764  1
  N  N165  1  0.49908344  0.83984309  0.37509317  1
  N  N166  1  0.82310912  0.50012670  0.62510268  1
  N  N167  1  0.50681742  0.16697209  0.87666866  1
  N  N168  1  0.16999512  0.16518481  0.37300543  1
  N  N169  1  0.00209139  0.65347460  0.12488058  1
  N  N170  1  0.83518112  0.50189516  0.87735544  1
  N  N171  1  0.33475733  0.65741800  0.61919223  1
  N  N172  1  0.49775401  0.51256259  0.12178187  1
  N  N173  1  0.67137614  -0.00176717  0.37325747  1
  N  N174  1  0.82681591  0.17581872  0.37911360  1
  N  N175  1  0.50165806  0.17959163  0.12640074  1
  N  N176  1  0.32680201  -0.00427942  0.36997766  1
  O  O177  1  0.67859866  0.34044246  0.62118737  1
  O  O178  1  0.00662779  0.66427872  0.62305513  1
  O  O179  1  0.81471350  0.16195354  0.13425941  1
  O  O180  1  0.83396966  0.17261446  0.62469151  1
  O  O181  1  0.33611588  0.66011911  0.37485141  1
  O  O182  1  0.33402248  0.30117422  0.63185173  1
  O  O183  1  0.16402661  0.17500047  0.87501903  1
  O  O184  1  0.82981825  0.86225884  0.86953537  1
  O  O185  1  0.67695702  -0.01108975  0.12576471  1
  O  O186  1  0.33793923  -0.01184678  0.62785752  1
  O  O187  1  0.32884064  0.30988820  0.88051524  1
  O  O188  1  0.32404924  -0.02464449  0.12610418  1
  O  O189  1  0.00364210  -0.01573426  0.62091244  1
  O  O190  1  -0.00167956  -0.00787831  0.12466041  1
  O  O191  1  0.17102753  0.49817434  0.87328315  1
  O  O192  1  0.82067468  0.52999428  0.37572321  1
  O  O193  1  0.49925099  0.84449703  0.62316733  1
  O  O194  1  0.00462929  0.32168873  0.13006066  1
  O  O195  1  0.82795014  0.17278509  0.88294293  1
  O  O196  1  0.33569545  0.32703767  0.37685591  1
  O  O197  1  0.66442846  0.34453555  0.37231540  1
  O  O198  1  0.49857310  0.51736506  0.62434670  1
  O  O199  1  0.00209110  0.66073940  0.37008884  1
  O  O200  1  0.16491431  0.83535902  0.12458982  1
  O  O201  1  0.66752037  0.65923774  0.37069982  1
  O  O202  1  0.00803176  0.65339033  0.87496084  1
  O  O203  1  0.66756755  0.66078482  0.87402409  1
  O  O204  1  0.81976737  0.52454974  0.12925707  1
  O  O205  1  0.49501437  0.19124423  0.36670793  1
  O  O206  1  0.49200685  0.52103859  0.87559206  1
  O  O207  1  0.33595169  -0.02208067  0.87224094  1
  O  O208  1  0.17393089  0.16927287  0.62939901  1
  O  O209  1  0.65923582  0.64811521  0.62872159  1
  O  O210  1  0.33570080  0.66684576  0.87047257  1
  O  O211  1  0.66880768  0.00385150  0.62807999  1
  O  O212  1  0.00359728  -0.02309876  0.87686125  1
  O  O213  1  0.15823959  0.16799859  0.12817234  1
  O  O214  1  0.82790764  0.85263882  0.12101258  1
  O  O215  1  0.67637145  0.33517754  0.12428700  1
