# generated using pymatgen
data_Sr24Ta24N11O13
_symmetry_space_group_name_H-M   'P 1'
_cell_length_a   16.67264613
_cell_length_b   16.75253348
_cell_length_c   15.70669029
_cell_angle_alpha   89.95006917
_cell_angle_beta   90.04168344
_cell_angle_gamma   90.63461589
_symmetry_Int_Tables_number   1
_chemical_formula_structural   Sr24Ta24N11O13
_chemical_formula_sum   'Sr72 Ta72 N33 O39'
_cell_volume   4386.74904607
_cell_formula_units_Z   3
loop_
 _symmetry_equiv_pos_site_id
 _symmetry_equiv_pos_as_xyz
  1  'x, y, z'
loop_
 _atom_site_type_symbol
 _atom_site_label
 _atom_site_symmetry_multiplicity
 _atom_site_fract_x
 _atom_site_fract_y
 _atom_site_fract_z
 _atom_site_occupancy
  Sr  Sr0  1  -0.00876380  0.15684020  0.13889598  1
  Sr  Sr1  1  0.01235623  0.15827138  0.57891976  1
  Sr  Sr2  1  -0.00168357  0.49691502  0.14674890  1
  Sr  Sr3  1  -0.00994311  0.48170936  0.65360546  1
  Sr  Sr4  1  -0.01635941  0.81475220  0.08517174  1
  Sr  Sr5  1  0.00417322  0.83016248  0.64109036  1
  Sr  Sr6  1  0.33330458  0.16426118  0.13298655  1
  Sr  Sr7  1  0.33096933  0.14948089  0.66608235  1
  Sr  Sr8  1  0.30822947  0.48137966  0.08778137  1
  Sr  Sr9  1  0.33295286  0.50142219  0.63177223  1
  Sr  Sr10  1  0.33499588  0.82422538  0.13420078  1
  Sr  Sr11  1  0.32910374  0.84405923  0.58226243  1
  Sr  Sr12  1  0.65636014  0.14626363  0.08889287  1
  Sr  Sr13  1  0.67175881  0.16932234  0.63373641  1
  Sr  Sr14  1  0.65298246  0.50106288  0.13394405  1
  Sr  Sr15  1  0.66927553  0.50096074  0.58447605  1
  Sr  Sr16  1  0.67293944  0.84056726  0.15792551  1
  Sr  Sr17  1  0.66844050  0.81294569  0.63051150  1
  Sr  Sr18  1  0.17680087  0.00813357  0.17097423  1
  Sr  Sr19  1  0.15903286  0.00106356  0.62861395  1
  Sr  Sr20  1  0.16815554  0.32184637  0.08041858  1
  Sr  Sr21  1  0.17332169  0.34673322  0.63849298  1
  Sr  Sr22  1  0.16028227  0.65851676  0.13429942  1
  Sr  Sr23  1  0.18453491  0.67991839  0.58651575  1
  Sr  Sr24  1  0.49246351  0.00714588  0.08579794  1
  Sr  Sr25  1  0.51902228  -0.00276935  0.63534731  1
  Sr  Sr26  1  0.49876330  0.33410471  0.14036249  1
  Sr  Sr27  1  0.51538932  0.35142986  0.58362597  1
  Sr  Sr28  1  0.51674589  0.67963132  0.13295929  1
  Sr  Sr29  1  0.49094502  0.66264799  0.65751417  1
  Sr  Sr30  1  0.83438882  0.00232631  0.13398960  1
  Sr  Sr31  1  0.85018850  0.02819512  0.58762270  1
  Sr  Sr32  1  0.84663957  0.34396232  0.15577378  1
  Sr  Sr33  1  0.83184215  0.33306818  0.64805903  1
  Sr  Sr34  1  0.83381561  0.66042895  0.08255316  1
  Sr  Sr35  1  0.84740152  0.66563713  0.63610396  1
  Sr  Sr36  1  -0.01274495  0.15744605  0.35987780  1
  Sr  Sr37  1  -0.00244027  0.17099394  0.91516961  1
  Sr  Sr38  1  0.00037950  0.49442428  0.35341294  1
  Sr  Sr39  1  -0.01656180  0.48188367  0.84874707  1
  Sr  Sr40  1  -0.01128928  0.79025012  0.40462302  1
  Sr  Sr41  1  0.00394075  0.84202526  0.86865447  1
  Sr  Sr42  1  0.34113675  0.17177687  0.34122509  1
  Sr  Sr43  1  0.32469820  0.15482214  0.86743426  1
  Sr  Sr44  1  0.31325558  0.48260440  0.41416993  1
  Sr  Sr45  1  0.33076293  0.50005505  0.86113991  1
  Sr  Sr46  1  0.31817755  0.82940947  0.36256119  1
  Sr  Sr47  1  0.34248698  0.83229647  0.91497836  1
  Sr  Sr48  1  0.65270989  0.15004148  0.41454252  1
  Sr  Sr49  1  0.67173088  0.16792767  0.87001949  1
  Sr  Sr50  1  0.65915643  0.48583273  0.36067374  1
  Sr  Sr51  1  0.66427542  0.51594578  0.91675467  1
  Sr  Sr52  1  0.67123841  0.83027695  0.36787115  1
  Sr  Sr53  1  0.65275348  0.83284735  0.83218033  1
  Sr  Sr54  1  0.16982994  0.02114149  0.37042171  1
  Sr  Sr55  1  0.16247603  -0.00422259  0.84420236  1
  Sr  Sr56  1  0.16353025  0.33631292  0.40988695  1
  Sr  Sr57  1  0.18138670  0.33843638  0.86242933  1
  Sr  Sr58  1  0.16808230  0.65252400  0.36740585  1
  Sr  Sr59  1  0.18277136  0.69213834  0.91485970  1
  Sr  Sr60  1  0.50457023  -0.00754541  0.41290558  1
  Sr  Sr61  1  0.50593233  0.01813869  0.86301728  1
  Sr  Sr62  1  0.49584502  0.32786974  0.36833887  1
  Sr  Sr63  1  0.52175846  0.35599618  0.90696901  1
  Sr  Sr64  1  0.50287012  0.68327029  0.33224800  1
  Sr  Sr65  1  0.50429666  0.67127415  0.86644469  1
  Sr  Sr66  1  0.82946591  0.00505277  0.35902176  1
  Sr  Sr67  1  0.84731355  0.02515989  0.92131779  1
  Sr  Sr68  1  0.84046557  0.34828251  0.34975203  1
  Sr  Sr69  1  0.83121359  0.32784289  0.85315628  1
  Sr  Sr70  1  0.81627655  0.66480523  0.41941796  1
  Sr  Sr71  1  0.83697010  0.68430571  0.85984815  1
  Ta  Ta72  1  0.17036837  0.12730359  0.00834510  1
  Ta  Ta73  1  0.20943813  0.16822136  0.50488268  1
  Ta  Ta74  1  0.12517719  0.50134902  -0.00749265  1
  Ta  Ta75  1  0.12418989  0.50412776  0.51304875  1
  Ta  Ta76  1  0.16326290  0.88102079  0.00864486  1
  Ta  Ta77  1  0.14692980  0.85848807  0.49267353  1
  Ta  Ta78  1  0.47944454  0.18944752  -0.00919856  1
  Ta  Ta79  1  0.45993832  0.16640343  0.50441349  1
  Ta  Ta80  1  0.47567084  0.52556885  0.00288609  1
  Ta  Ta81  1  0.49441803  0.54210679  0.49539499  1
  Ta  Ta82  1  0.53360443  0.83194560  0.00129859  1
  Ta  Ta83  1  0.50855767  0.80201460  0.50229248  1
  Ta  Ta84  1  0.82686263  0.21459097  0.01635123  1
  Ta  Ta85  1  0.83263929  0.20904450  0.49261740  1
  Ta  Ta86  1  0.84726602  0.47501011  0.00124911  1
  Ta  Ta87  1  0.85398563  0.48120693  0.50125059  1
  Ta  Ta88  1  0.79023523  0.84066867  -0.00759068  1
  Ta  Ta89  1  0.83181373  0.85748120  0.50312711  1
  Ta  Ta90  1  0.16558575  0.21096780  0.24742176  1
  Ta  Ta91  1  0.12157886  0.16755820  0.75201795  1
  Ta  Ta92  1  0.18086373  0.46944893  0.24170041  1
  Ta  Ta93  1  0.16562626  0.55372653  0.75087332  1
  Ta  Ta94  1  0.11942311  0.82485451  0.25066095  1
  Ta  Ta95  1  0.19565924  0.81502886  0.74269728  1
  Ta  Ta96  1  0.52208217  0.13972651  0.25631363  1
  Ta  Ta97  1  0.50852376  0.22308631  0.75046845  1
  Ta  Ta98  1  0.44596175  0.49673887  0.25326355  1
  Ta  Ta99  1  0.52813681  0.48209138  0.74328522  1
  Ta  Ta100  1  0.50132690  0.87898271  0.24620711  1
  Ta  Ta101  1  0.45338525  0.83532739  0.74534116  1
  Ta  Ta102  1  0.78610018  0.16840349  0.25306426  1
  Ta  Ta103  1  0.86327093  0.14938672  0.74392330  1
  Ta  Ta104  1  0.82782533  0.54658481  0.25551033  1
  Ta  Ta105  1  0.78418282  0.50178176  0.74685803  1
  Ta  Ta106  1  0.85221464  0.79788163  0.24833214  1
  Ta  Ta107  1  0.84050405  0.90044330  0.75343855  1
  Ta  Ta108  1  -0.00260329  -0.05904879  0.25413772  1
  Ta  Ta109  1  -0.01966420  0.02903788  0.75979751  1
  Ta  Ta110  1  0.04688794  0.32723165  0.24490125  1
  Ta  Ta111  1  0.00428900  0.28121456  0.74399456  1
  Ta  Ta112  1  -0.03158469  0.67620014  0.24153372  1
  Ta  Ta113  1  0.04772365  0.66479042  0.75525139  1
  Ta  Ta114  1  0.37601679  -0.00231469  0.25090624  1
  Ta  Ta115  1  0.33397772  -0.04516832  0.75512625  1
  Ta  Ta116  1  0.30676001  0.35076265  0.24733285  1
  Ta  Ta117  1  0.38336579  0.33504544  0.75209106  1
  Ta  Ta118  1  0.33048337  0.61256984  0.25302897  1
  Ta  Ta119  1  0.31428967  0.69883109  0.74818146  1
  Ta  Ta120  1  0.63935747  0.01865504  0.24824440  1
  Ta  Ta121  1  0.71993092  0.00716333  0.75584971  1
  Ta  Ta122  1  0.66417992  0.28168172  0.25491617  1
  Ta  Ta123  1  0.64982004  0.36534179  0.74916728  1
  Ta  Ta124  1  0.70967766  0.66689429  0.24172532  1
  Ta  Ta125  1  0.66752771  0.62404564  0.75090783  1
  Ta  Ta126  1  0.03955358  -0.00331602  0.01288326  1
  Ta  Ta127  1  0.00678616  -0.03583399  0.47922589  1
  Ta  Ta128  1  -0.01993933  0.35212677  0.00328799  1
  Ta  Ta129  1  -0.02125192  0.34662893  0.50240265  1
  Ta  Ta130  1  0.00549977  0.62313544  -0.00726974  1
  Ta  Ta131  1  0.00269165  0.62110775  0.50722335  1
  Ta  Ta132  1  0.29894485  0.00187273  0.00483609  1
  Ta  Ta133  1  0.32667597  0.03266452  0.49634860  1
  Ta  Ta134  1  0.35391079  0.31101149  -0.00495020  1
  Ta  Ta135  1  0.33554770  0.29175160  0.50397182  1
  Ta  Ta136  1  0.36240156  0.65092714  0.00592213  1
  Ta  Ta137  1  0.37768588  0.66705949  0.48807699  1
  Ta  Ta138  1  0.66976883  -0.04017231  -0.00387150  1
  Ta  Ta139  1  0.68571162  -0.03063106  0.50243043  1
  Ta  Ta140  1  0.70015498  0.33503269  0.01121872  1
  Ta  Ta141  1  0.70560339  0.32787598  0.49023628  1
  Ta  Ta142  1  0.66504730  0.70871796  -0.00562232  1
  Ta  Ta143  1  0.61916631  0.66705987  0.49302231  1
  N  N144  1  0.50531546  0.84172586  0.12190149  1
  N  N145  1  0.33445409  0.00430681  0.37663500  1
  N  N146  1  0.00097416  0.00866030  0.88108800  1
  N  N147  1  0.15739761  0.49187836  0.11985200  1
  N  N148  1  0.49523283  0.82760574  0.62401624  1
  N  N149  1  0.32984042  -0.00959344  0.87590144  1
  N  N150  1  0.82532105  0.50022382  0.62845994  1
  N  N151  1  0.33043353  0.65919182  0.37305818  1
  N  N152  1  0.82788466  0.16453641  0.12793717  1
  N  N153  1  0.84269162  0.17434023  0.62344556  1
  N  N154  1  0.51222141  0.17803652  0.87027078  1
  N  N155  1  -0.00525723  0.65600850  0.11628536  1
  N  N156  1  0.66784940  -0.00956692  0.38229948  1
  N  N157  1  0.66297343  0.32714415  0.36919220  1
  N  N158  1  -0.00177862  -0.01282242  0.13118516  1
  N  N159  1  -0.00448408  0.00331431  0.36121763  1
  N  N160  1  0.00150010  0.32214276  0.62360608  1
  N  N161  1  0.16752790  0.16451461  0.12835449  1
  N  N162  1  0.33652442  -0.00289135  0.12889351  1
  N  N163  1  0.33369651  0.32786034  0.12447922  1
  N  N164  1  0.66421227  -0.00440423  0.12476817  1
  N  N165  1  0.83032799  0.51047854  0.37560871  1
  N  N166  1  0.82823550  0.16417279  0.37620646  1
  N  N167  1  0.32938062  0.32728148  0.38337379  1
  N  N168  1  0.66724979  0.66900421  0.86855509  1
  N  N169  1  0.00537965  0.33130665  0.12202789  1
  N  N170  1  0.16603352  0.83787601  0.62019170  1
  N  N171  1  0.49720747  0.15922279  0.38558996  1
  N  N172  1  0.67626779  0.00604377  0.87320212  1
  N  N173  1  0.67578371  0.67232283  0.12135261  1
  N  N174  1  0.34048802  0.34073823  0.86839892  1
  N  N175  1  0.50301031  0.50466090  0.62157450  1
  N  N176  1  0.16894945  0.50936737  0.63465721  1
  O  O177  1  0.17542609  0.16228647  0.63051032  1
  O  O178  1  0.34192055  0.65877155  0.13117565  1
  O  O179  1  0.50639868  0.18101551  0.62863763  1
  O  O180  1  0.84595747  0.86136964  0.62980583  1
  O  O181  1  0.14056922  0.82692746  0.12568221  1
  O  O182  1  0.00337811  0.00482705  0.60416719  1
  O  O183  1  0.67649173  0.34767486  0.88501796  1
  O  O184  1  0.49887241  0.51149774  0.87675604  1
  O  O185  1  0.33876221  0.34206015  0.62643757  1
  O  O186  1  0.65692934  0.67192952  0.36866429  1
  O  O187  1  0.17290769  0.49875368  0.87197317  1
  O  O188  1  -0.01129618  0.32471106  0.86833090  1
  O  O189  1  0.15896794  0.49259630  0.38615837  1
  O  O190  1  0.84076977  0.17726516  0.89031285  1
  O  O191  1  0.14854145  0.80462848  0.37635522  1
  O  O192  1  0.83562812  0.82199994  0.38164737  1
  O  O193  1  0.47295269  0.49530760  0.12836086  1
  O  O194  1  0.51060256  0.83686163  0.36927830  1
  O  O195  1  -0.00800434  0.64392055  0.37832084  1
  O  O196  1  0.66979311  0.34552103  0.61530680  1
  O  O197  1  0.01101075  0.65579247  0.63289315  1
  O  O198  1  0.50181712  0.16408136  0.11547807  1
  O  O199  1  0.83069692  0.82034929  0.11483373  1
  O  O200  1  0.83773497  0.50239821  0.12557204  1
  O  O201  1  0.16479555  0.84282987  0.88296285  1
  O  O202  1  0.32061022  -0.00172570  0.63051818  1
  O  O203  1  0.15401785  0.15373362  0.87555672  1
  O  O204  1  0.67469202  0.33994659  0.13477255  1
  O  O205  1  0.82704041  0.48520986  0.87471249  1
  O  O206  1  0.84294483  0.85295021  0.87376557  1
  O  O207  1  0.47157946  0.48993381  0.37923841  1
  O  O208  1  0.00909627  0.33757114  0.37081265  1
  O  O209  1  0.33658869  0.67509826  0.88150647  1
  O  O210  1  0.18563382  0.17956142  0.37867330  1
  O  O211  1  0.67923339  0.00850554  0.62733697  1
  O  O212  1  0.33568565  0.68210151  0.61731153  1
  O  O213  1  0.49408116  0.82728333  0.87007807  1
  O  O214  1  0.64484589  0.65700818  0.62045050  1
  O  O215  1  0.02948580  0.68652088  0.88129580  1
