# generated using pymatgen
data_Sr24Ta24N11O13
_symmetry_space_group_name_H-M   'P 1'
_cell_length_a   16.97655974
_cell_length_b   16.61531033
_cell_length_c   15.67114545
_cell_angle_alpha   90.02136761
_cell_angle_beta   89.99859876
_cell_angle_gamma   90.48386235
_symmetry_Int_Tables_number   1
_chemical_formula_structural   Sr24Ta24N11O13
_chemical_formula_sum   'Sr72 Ta72 N33 O39'
_cell_volume   4420.21473352
_cell_formula_units_Z   3
loop_
 _symmetry_equiv_pos_site_id
 _symmetry_equiv_pos_as_xyz
  1  'x, y, z'
loop_
 _atom_site_type_symbol
 _atom_site_label
 _atom_site_symmetry_multiplicity
 _atom_site_fract_x
 _atom_site_fract_y
 _atom_site_fract_z
 _atom_site_occupancy
  Sr  Sr0  1  -0.03463872  0.16732445  0.14657248  1
  Sr  Sr1  1  -0.00410113  0.17806559  0.61898857  1
  Sr  Sr2  1  -0.01945702  0.49853415  0.12440462  1
  Sr  Sr3  1  -0.00744165  0.50040255  0.65053824  1
  Sr  Sr4  1  -0.00591921  0.84344667  0.10224104  1
  Sr  Sr5  1  -0.03252059  0.84045490  0.61105060  1
  Sr  Sr6  1  0.32280890  0.16817242  0.12621545  1
  Sr  Sr7  1  0.33042029  0.18196050  0.65891052  1
  Sr  Sr8  1  0.32213723  0.51551896  0.10089644  1
  Sr  Sr9  1  0.30671677  0.50758500  0.60930192  1
  Sr  Sr10  1  0.29343836  0.83838399  0.15614020  1
  Sr  Sr11  1  0.33114283  0.83923866  0.61086935  1
  Sr  Sr12  1  0.65922120  0.17922817  0.10485995  1
  Sr  Sr13  1  0.64928218  0.16539121  0.59647651  1
  Sr  Sr14  1  0.62658642  0.49357829  0.17040026  1
  Sr  Sr15  1  0.67144781  0.50305915  0.61264515  1
  Sr  Sr16  1  0.65904042  0.81472032  0.10787422  1
  Sr  Sr17  1  0.66035219  0.84026817  0.66586742  1
  Sr  Sr18  1  0.17224584  -0.00165164  0.11274780  1
  Sr  Sr19  1  0.20711472  0.00380365  0.65262650  1
  Sr  Sr20  1  0.19961339  0.32499474  0.10758137  1
  Sr  Sr21  1  0.17637860  0.31722944  0.60730691  1
  Sr  Sr22  1  0.16920918  0.65552858  0.15895288  1
  Sr  Sr23  1  0.18435197  0.67566275  0.61826602  1
  Sr  Sr24  1  0.53834918  -0.00867847  0.10676645  1
  Sr  Sr25  1  0.51191427  -0.00767197  0.60373435  1
  Sr  Sr26  1  0.50742519  0.31939524  0.15769830  1
  Sr  Sr27  1  0.51167634  0.33497598  0.62579959  1
  Sr  Sr28  1  0.50122990  0.66306087  0.11433279  1
  Sr  Sr29  1  0.53350649  0.66540717  0.64765625  1
  Sr  Sr30  1  0.83976765  -0.00603617  0.16502746  1
  Sr  Sr31  1  0.84284423  0.02048242  0.60694263  1
  Sr  Sr32  1  0.83818768  0.32833240  0.10594410  1
  Sr  Sr33  1  0.86044951  0.34328038  0.66582200  1
  Sr  Sr34  1  0.85298110  0.65873113  0.10898710  1
  Sr  Sr35  1  0.84140244  0.65392882  0.59423908  1
  Sr  Sr36  1  -0.00211064  0.16763318  0.38295056  1
  Sr  Sr37  1  -0.02892948  0.16973295  0.85517672  1
  Sr  Sr38  1  -0.00873955  0.50694703  0.34072938  1
  Sr  Sr39  1  -0.02309426  0.49902828  0.88227376  1
  Sr  Sr40  1  -0.02680291  0.84293174  0.39753052  1
  Sr  Sr41  1  -0.00712313  0.84010937  0.88764145  1
  Sr  Sr42  1  0.32675769  0.18097215  0.33968500  1
  Sr  Sr43  1  0.31772585  0.16202568  0.88095862  1
  Sr  Sr44  1  0.30335988  0.51049396  0.39939688  1
  Sr  Sr45  1  0.32261584  0.51680721  0.89312841  1
  Sr  Sr46  1  0.33332978  0.84019616  0.38849797  1
  Sr  Sr47  1  0.30067432  0.84195274  0.84841938  1
  Sr  Sr48  1  0.65395967  0.16714305  0.39764607  1
  Sr  Sr49  1  0.65665335  0.17152109  0.89951512  1
  Sr  Sr50  1  0.66414208  0.51053785  0.39412394  1
  Sr  Sr51  1  0.64120455  0.48756817  0.83432420  1
  Sr  Sr52  1  0.65902078  0.84009056  0.32805250  1
  Sr  Sr53  1  0.66749283  0.82704757  0.88161805  1
  Sr  Sr54  1  0.19955273  -0.00280320  0.34564816  1
  Sr  Sr55  1  0.16579614  -0.00129510  0.89316052  1
  Sr  Sr56  1  0.17586888  0.32027953  0.39312009  1
  Sr  Sr57  1  0.19825580  0.32377606  0.89793607  1
  Sr  Sr58  1  0.18244039  0.67432162  0.38194108  1
  Sr  Sr59  1  0.16676547  0.65506571  0.83821696  1
  Sr  Sr60  1  0.51080698  -0.01295732  0.39069208  1
  Sr  Sr61  1  0.52790539  -0.01217017  0.89430659  1
  Sr  Sr62  1  0.51677076  0.33755121  0.37734144  1
  Sr  Sr63  1  0.50515481  0.31977541  0.84802500  1
  Sr  Sr64  1  0.52994758  0.66688656  0.34883985  1
  Sr  Sr65  1  0.50714446  0.67215765  0.88492792  1
  Sr  Sr66  1  0.84311422  0.01527391  0.38538000  1
  Sr  Sr67  1  0.84346271  -0.01107680  0.82311397  1
  Sr  Sr68  1  0.87130506  0.33627852  0.32746365  1
  Sr  Sr69  1  0.83731427  0.32859858  0.88702996  1
  Sr  Sr70  1  0.84419675  0.65134418  0.38894293  1
  Sr  Sr71  1  0.84523930  0.67144661  0.90973060  1
  Ta  Ta72  1  0.11181215  0.16639306  0.00748211  1
  Ta  Ta73  1  0.18343068  0.13681782  0.49262846  1
  Ta  Ta74  1  0.14076195  0.50384027  0.00100755  1
  Ta  Ta75  1  0.11670476  0.49833197  0.49504691  1
  Ta  Ta76  1  0.16635782  0.79266462  -0.00325521  1
  Ta  Ta77  1  0.14283524  0.85651129  0.51250789  1
  Ta  Ta78  1  0.47549498  0.16945823  0.00519669  1
  Ta  Ta79  1  0.45662442  0.17120733  0.50049454  1
  Ta  Ta80  1  0.51472356  0.47713355  0.00018759  1
  Ta  Ta81  1  0.47695585  0.51356675  0.49951785  1
  Ta  Ta82  1  0.43710045  0.83477219  0.01366889  1
  Ta  Ta83  1  0.52684044  0.81225727  0.49703820  1
  Ta  Ta84  1  0.83220080  0.11801439  -0.00828775  1
  Ta  Ta85  1  0.83458290  0.22225786  0.49459699  1
  Ta  Ta86  1  0.77705037  0.49484488  0.00611113  1
  Ta  Ta87  1  0.84673368  0.46031418  0.49522706  1
  Ta  Ta88  1  0.83050453  0.88107639  -0.00598554  1
  Ta  Ta89  1  0.79047906  0.83342878  0.49988601  1
  Ta  Ta90  1  0.13954301  0.16817286  0.24055947  1
  Ta  Ta91  1  0.14200512  0.17039017  0.76239835  1
  Ta  Ta92  1  0.17179282  0.46726765  0.25268451  1
  Ta  Ta93  1  0.16586709  0.46295063  0.75030946  1
  Ta  Ta94  1  0.11648440  0.83368057  0.25634046  1
  Ta  Ta95  1  0.11871130  0.83827508  0.73606553  1
  Ta  Ta96  1  0.51212208  0.13382744  0.25009129  1
  Ta  Ta97  1  0.51231595  0.13725393  0.74533788  1
  Ta  Ta98  1  0.44200927  0.50766185  0.25388922  1
  Ta  Ta99  1  0.45399391  0.50949903  0.74953840  1
  Ta  Ta100  1  0.47109645  0.83710853  0.23411259  1
  Ta  Ta101  1  0.47338662  0.83949089  0.75431330  1
  Ta  Ta102  1  0.78765386  0.17363191  0.25667940  1
  Ta  Ta103  1  0.78743371  0.17060359  0.74695980  1
  Ta  Ta104  1  0.80211221  0.50243611  0.24533254  1
  Ta  Ta105  1  0.82249270  0.52956106  0.75012577  1
  Ta  Ta106  1  0.83957271  0.80383508  0.24488133  1
  Ta  Ta107  1  0.83487418  0.79123752  0.75449628  1
  Ta  Ta108  1  0.02594711  -0.00893501  0.25785914  1
  Ta  Ta109  1  0.03007051  -0.00099805  0.74521981  1
  Ta  Ta110  1  0.04928204  0.32981732  0.23674404  1
  Ta  Ta111  1  0.04758189  0.33349931  0.76933137  1
  Ta  Ta112  1  -0.00582837  0.70196357  0.24618341  1
  Ta  Ta113  1  -0.01983641  0.68455669  0.75523870  1
  Ta  Ta114  1  0.38426753  -0.00020797  0.23996673  1
  Ta  Ta115  1  0.38535413  0.00093234  0.75419662  1
  Ta  Ta116  1  0.33396336  0.37529373  0.24738677  1
  Ta  Ta117  1  0.33083147  0.37043060  0.75340977  1
  Ta  Ta118  1  0.35573593  0.66348615  0.25938640  1
  Ta  Ta119  1  0.36001570  0.66720510  0.74034709  1
  Ta  Ta120  1  0.66538871  0.03382685  0.25609162  1
  Ta  Ta121  1  0.66291953  0.03322080  0.74942284  1
  Ta  Ta122  1  0.69541159  0.32352158  0.25205415  1
  Ta  Ta123  1  0.68150721  0.30484582  0.74640752  1
  Ta  Ta124  1  0.71044520  0.66209488  0.24869861  1
  Ta  Ta125  1  0.71163518  0.66149293  0.74881926  1
  Ta  Ta126  1  -0.02722281  0.02001124  -0.00634750  1
  Ta  Ta127  1  0.05491786  0.00547521  0.50309748  1
  Ta  Ta128  1  0.02804431  0.33052043  0.00468058  1
  Ta  Ta129  1  -0.00649837  0.35381186  0.48990751  1
  Ta  Ta130  1  0.04295063  0.66179519  0.00047883  1
  Ta  Ta131  1  0.02179607  0.64657911  0.50038080  1
  Ta  Ta132  1  0.36258332  -0.00640224  0.01587943  1
  Ta  Ta133  1  0.33927187  0.04148420  0.49117376  1
  Ta  Ta134  1  0.38511581  0.33616297  0.00055751  1
  Ta  Ta135  1  0.35657114  0.32214223  0.50386015  1
  Ta  Ta136  1  0.30774116  0.70189216  -0.00011983  1
  Ta  Ta137  1  0.39298911  0.67079862  0.50125045  1
  Ta  Ta138  1  0.71458133  -0.00313859  -0.00645188  1
  Ta  Ta139  1  0.67719206  -0.05040743  0.49568246  1
  Ta  Ta140  1  0.64693511  0.37020508  0.00687263  1
  Ta  Ta141  1  0.72323026  0.33807391  0.49418432  1
  Ta  Ta142  1  0.66428471  0.61248705  0.00094983  1
  Ta  Ta143  1  0.66882666  0.70996356  0.49816898  1
  N  N144  1  0.83020501  0.17388682  0.37998178  1
  N  N145  1  0.15357749  0.49577258  0.37410514  1
  N  N146  1  0.00183282  0.66708666  0.87573106  1
  N  N147  1  0.15761994  0.15867016  0.88465557  1
  N  N148  1  0.00667976  0.67129747  0.12530299  1
  N  N149  1  0.82829441  0.48962135  0.11870748  1
  N  N150  1  -0.00903873  0.33737463  0.12997211  1
  N  N151  1  0.81906292  0.15791028  0.87165611  1
  N  N152  1  0.68299379  0.67217287  0.37065027  1
  N  N153  1  0.66316803  0.33810390  0.12951734  1
  N  N154  1  0.35075806  0.01135314  0.37041144  1
  N  N155  1  -0.00750273  0.33838029  0.87827491  1
  N  N156  1  0.50400614  0.82218343  0.11579710  1
  N  N157  1  0.16955664  0.15689929  0.11410260  1
  N  N158  1  0.34919559  0.34562656  0.12512874  1
  N  N159  1  0.83215106  0.49370397  0.37325908  1
  N  N160  1  0.34915162  0.34003054  0.87716204  1
  N  N161  1  0.68393420  0.67195414  0.62386011  1
  N  N162  1  0.82987948  0.83240560  0.87783611  1
  N  N163  1  0.00052291  0.00214811  0.86447665  1
  N  N164  1  0.50425529  0.16273823  0.12576617  1
  N  N165  1  0.33857032  0.33818506  0.62552240  1
  N  N166  1  0.17135238  0.15815678  0.37020402  1
  N  N167  1  0.67295677  -0.00272986  0.37900334  1
  N  N168  1  0.32359215  0.00653656  0.13464691  1
  N  N169  1  0.83446238  0.49896189  0.62893138  1
  N  N170  1  0.34112469  0.67810215  0.61822934  1
  N  N171  1  0.17885700  0.83466041  0.63230975  1
  N  N172  1  0.01586611  0.33566441  0.36981284  1
  N  N173  1  0.67803816  -0.00382919  0.86556785  1
  N  N174  1  0.49473690  0.16529248  0.62432542  1
  N  N175  1  0.34468462  0.67899332  0.38235509  1
  N  N176  1  0.01026261  0.00374715  0.38226680  1
  O  O177  1  0.00765931  0.33541903  0.64194970  1
  O  O178  1  0.48893427  0.49976200  0.37367051  1
  O  O179  1  0.66219734  0.33093063  0.87201441  1
  O  O180  1  0.14588540  0.81918622  0.12935856  1
  O  O181  1  0.49816997  0.17289114  0.37425140  1
  O  O182  1  0.46429267  0.82972808  0.88140478  1
  O  O183  1  0.16508020  0.49711998  0.87652338  1
  O  O184  1  0.32088061  0.67667530  0.12630459  1
  O  O185  1  0.48229845  0.51106490  0.87642925  1
  O  O186  1  0.17501823  0.16160610  0.63233621  1
  O  O187  1  0.82115435  0.82198591  0.36818651  1
  O  O188  1  -0.00838574  0.00179896  0.13288442  1
  O  O189  1  0.81654349  0.82784664  0.63172546  1
  O  O190  1  0.83975437  0.83396825  0.12072843  1
  O  O191  1  0.00783911  0.66651153  0.37464513  1
  O  O192  1  0.48188167  0.50504243  0.12455574  1
  O  O193  1  0.81999949  0.49444669  0.87820415  1
  O  O194  1  0.16200608  0.50235738  0.12567106  1
  O  O195  1  0.50034725  0.16170236  0.87703848  1
  O  O196  1  0.68363913  0.32694277  0.62129165  1
  O  O197  1  0.00338645  0.65951708  0.62387974  1
  O  O198  1  0.50731364  0.82559120  0.36746012  1
  O  O199  1  0.15258041  0.81423193  0.86234006  1
  O  O200  1  0.33669434  0.34231080  0.37678162  1
  O  O201  1  0.32526266  0.68221421  0.87219481  1
  O  O202  1  0.35891471  0.00743026  0.62645951  1
  O  O203  1  0.15382889  0.47544540  0.62257172  1
  O  O204  1  -0.00345176  0.01977852  0.61380965  1
  O  O205  1  0.50587845  0.82996387  0.63173510  1
  O  O206  1  0.36768303  0.00208266  0.87907950  1
  O  O207  1  0.47812564  0.49881341  0.62455637  1
  O  O208  1  0.66223762  0.63655350  0.87450032  1
  O  O209  1  0.66579419  -0.00878241  0.62096975  1
  O  O210  1  0.65862574  0.64619813  0.12585133  1
  O  O211  1  0.83224379  0.17689121  0.62330720  1
  O  O212  1  0.66827442  0.34671440  0.38043403  1
  O  O213  1  0.81660943  0.15171412  0.12960712  1
  O  O214  1  0.13252076  0.83160549  0.38360868  1
  O  O215  1  0.68646841  0.00510271  0.13182541  1
