# generated using pymatgen
data_Sr24Ta24N11O13
_symmetry_space_group_name_H-M   'P 1'
_cell_length_a   16.70375591
_cell_length_b   16.98554398
_cell_length_c   15.64386091
_cell_angle_alpha   90.42080999
_cell_angle_beta   90.30508064
_cell_angle_gamma   90.33090338
_symmetry_Int_Tables_number   1
_chemical_formula_structural   Sr24Ta24N11O13
_chemical_formula_sum   'Sr72 Ta72 N33 O39'
_cell_volume   4438.25580156
_cell_formula_units_Z   3
loop_
 _symmetry_equiv_pos_site_id
 _symmetry_equiv_pos_as_xyz
  1  'x, y, z'
loop_
 _atom_site_type_symbol
 _atom_site_label
 _atom_site_symmetry_multiplicity
 _atom_site_fract_x
 _atom_site_fract_y
 _atom_site_fract_z
 _atom_site_occupancy
  Sr  Sr0  1  0.00066242  0.18465482  0.13581001  1
  Sr  Sr1  1  0.00256536  0.12982341  0.58661774  1
  Sr  Sr2  1  0.00441980  0.51044289  0.07343573  1
  Sr  Sr3  1  -0.02366176  0.49742691  0.64116941  1
  Sr  Sr4  1  0.00460816  0.81280982  0.15633145  1
  Sr  Sr5  1  0.00481577  0.82904252  0.63338215  1
  Sr  Sr6  1  0.35208843  0.13837293  0.12445497  1
  Sr  Sr7  1  0.32968667  0.15650322  0.61712841  1
  Sr  Sr8  1  0.33681122  0.46684767  0.11688904  1
  Sr  Sr9  1  0.34264641  0.49350506  0.66931205  1
  Sr  Sr10  1  0.33891614  0.83828696  0.13317553  1
  Sr  Sr11  1  0.33453255  0.80705981  0.59901645  1
  Sr  Sr12  1  0.66468869  0.13853690  0.10855371  1
  Sr  Sr13  1  0.67683595  0.15728621  0.65359070  1
  Sr  Sr14  1  0.67752445  0.49139199  0.13521281  1
  Sr  Sr15  1  0.64693337  0.47972085  0.57026301  1
  Sr  Sr16  1  0.69400299  0.80634599  0.12231047  1
  Sr  Sr17  1  0.66699183  0.82195682  0.62186411  1
  Sr  Sr18  1  0.13949457  0.03002665  0.12857532  1
  Sr  Sr19  1  0.16724393  0.00771413  0.63471304  1
  Sr  Sr20  1  0.16235458  0.33530406  0.11556484  1
  Sr  Sr21  1  0.16476765  0.37552593  0.65412774  1
  Sr  Sr22  1  0.17310871  0.68669500  0.13860629  1
  Sr  Sr23  1  0.15293783  0.68035435  0.58247715  1
  Sr  Sr24  1  0.49617815  -0.00710560  0.12285519  1
  Sr  Sr25  1  0.48930495  0.02949411  0.65718492  1
  Sr  Sr26  1  0.51589636  0.35893540  0.12558263  1
  Sr  Sr27  1  0.49116400  0.34078638  0.60186453  1
  Sr  Sr28  1  0.48514940  0.69054955  0.11749817  1
  Sr  Sr29  1  0.49615032  0.66911505  0.62869102  1
  Sr  Sr30  1  0.84219349  0.01829540  0.12124189  1
  Sr  Sr31  1  0.81478537  0.00106047  0.59840498  1
  Sr  Sr32  1  0.83511334  0.33441030  0.16208097  1
  Sr  Sr33  1  0.82920337  0.34142632  0.61620670  1
  Sr  Sr34  1  0.82987694  0.64759971  0.11062710  1
  Sr  Sr35  1  0.83923159  0.68875844  0.68282303  1
  Sr  Sr36  1  0.00369296  0.17546182  0.35970302  1
  Sr  Sr37  1  0.01358997  0.15146631  0.90401796  1
  Sr  Sr38  1  0.02161354  0.50550858  0.42556755  1
  Sr  Sr39  1  -0.00503673  0.49481726  0.85995777  1
  Sr  Sr40  1  0.00458511  0.79171756  0.36916912  1
  Sr  Sr41  1  0.00306103  0.83107723  0.84769819  1
  Sr  Sr42  1  0.34766622  0.16586399  0.40346403  1
  Sr  Sr43  1  0.32956026  0.12609000  0.84158567  1
  Sr  Sr44  1  0.32466811  0.47319322  0.33215676  1
  Sr  Sr45  1  0.33736658  0.48695181  0.87061930  1
  Sr  Sr46  1  0.34474771  0.82695020  0.36298301  1
  Sr  Sr47  1  0.34550851  0.81692016  0.90759046  1
  Sr  Sr48  1  0.66284318  0.12733667  0.35519202  1
  Sr  Sr49  1  0.67424913  0.16487803  0.86992573  1
  Sr  Sr50  1  0.67491213  0.48939396  0.35824149  1
  Sr  Sr51  1  0.66247048  0.48494369  0.90746108  1
  Sr  Sr52  1  0.67643907  0.82865847  0.39803467  1
  Sr  Sr53  1  0.67892568  0.79459535  0.85225639  1
  Sr  Sr54  1  0.16379502  0.04960685  0.41071263  1
  Sr  Sr55  1  0.14995734  0.00553986  0.85062835  1
  Sr  Sr56  1  0.16174428  0.34738055  0.35751749  1
  Sr  Sr57  1  0.16458565  0.34267682  0.88269278  1
  Sr  Sr58  1  0.17980324  0.66706219  0.36554750  1
  Sr  Sr59  1  0.16830485  0.69301459  0.90776431  1
  Sr  Sr60  1  0.48428490  0.01004376  0.34461759  1
  Sr  Sr61  1  0.48928227  0.00504060  0.89188576  1
  Sr  Sr62  1  0.50376805  0.34999979  0.37934409  1
  Sr  Sr63  1  0.50134298  0.35944639  0.89118224  1
  Sr  Sr64  1  0.50925114  0.69044228  0.41180009  1
  Sr  Sr65  1  0.48495063  0.67578657  0.84676672  1
  Sr  Sr66  1  0.83158058  0.00696902  0.38891406  1
  Sr  Sr67  1  0.83011810  0.02597937  0.90504641  1
  Sr  Sr68  1  0.84459114  0.35195608  0.38664446  1
  Sr  Sr69  1  0.82624673  0.32725796  0.83123288  1
  Sr  Sr70  1  0.82638927  0.67969136  0.32952873  1
  Sr  Sr71  1  0.83139859  0.63622254  0.88902640  1
  Ta  Ta72  1  0.20060318  0.16605998  -0.01170995  1
  Ta  Ta73  1  0.16554419  0.22516020  0.51298442  1
  Ta  Ta74  1  0.18462224  0.52739462  -0.00109812  1
  Ta  Ta75  1  0.22097922  0.49969340  0.49911101  1
  Ta  Ta76  1  0.14707114  0.86550149  0.00806891  1
  Ta  Ta77  1  0.16627893  0.86976014  0.48383292  1
  Ta  Ta78  1  0.49587558  0.19478560  -0.00456918  1
  Ta  Ta79  1  0.53431976  0.15786445  0.49867396  1
  Ta  Ta80  1  0.49394523  0.53962335  -0.00650497  1
  Ta  Ta81  1  0.44330505  0.50548448  0.50097497  1
  Ta  Ta82  1  0.53833618  0.83280799  -0.00220914  1
  Ta  Ta83  1  0.49798865  0.88246538  0.50174215  1
  Ta  Ta84  1  0.83793946  0.21558013  -0.00145737  1
  Ta  Ta85  1  0.82070684  0.18306135  0.49772490  1
  Ta  Ta86  1  0.83340080  0.44136288  -0.00085484  1
  Ta  Ta87  1  0.82708646  0.53538755  0.50175484  1
  Ta  Ta88  1  0.86044613  0.83882404  -0.00160921  1
  Ta  Ta89  1  0.84842721  0.81057431  0.50549548  1
  Ta  Ta90  1  0.20312795  0.17924843  0.25714215  1
  Ta  Ta91  1  0.15341642  0.19354309  0.73691600  1
  Ta  Ta92  1  0.13037818  0.50927114  0.24428561  1
  Ta  Ta93  1  0.16369640  0.55442251  0.74821683  1
  Ta  Ta94  1  0.15960964  0.88911284  0.27392022  1
  Ta  Ta95  1  0.18497881  0.82074104  0.74639685  1
  Ta  Ta96  1  0.50067231  0.19927426  0.25392274  1
  Ta  Ta97  1  0.49704503  0.21270593  0.74914885  1
  Ta  Ta98  1  0.49884477  0.54432370  0.25492965  1
  Ta  Ta99  1  0.53559798  0.49812393  0.74389245  1
  Ta  Ta100  1  0.53502335  0.82944117  0.25094039  1
  Ta  Ta101  1  0.49753951  0.85735494  0.75005897  1
  Ta  Ta102  1  0.81550894  0.17294141  0.24652481  1
  Ta  Ta103  1  0.87383813  0.15177693  0.75081615  1
  Ta  Ta104  1  0.87427077  0.50126257  0.24322623  1
  Ta  Ta105  1  0.77272919  0.49605923  0.73864429  1
  Ta  Ta106  1  0.83612397  0.86835449  0.25819539  1
  Ta  Ta107  1  0.82883894  0.88538801  0.75093862  1
  Ta  Ta108  1  0.00046988  -0.02348117  0.27203236  1
  Ta  Ta109  1  -0.03433739  0.00500597  0.75239295  1
  Ta  Ta110  1  0.00442030  0.39621173  0.24625728  1
  Ta  Ta111  1  0.00336784  0.28312411  0.73570704  1
  Ta  Ta112  1  0.00145872  0.61294934  0.24348434  1
  Ta  Ta113  1  0.03841938  0.66407848  0.75375526  1
  Ta  Ta114  1  0.28954996  0.00236473  0.25391212  1
  Ta  Ta115  1  0.32908298  -0.05909208  0.75282796  1
  Ta  Ta116  1  0.34257566  0.29379900  0.24615785  1
  Ta  Ta117  1  0.34147663  0.30181630  0.75672847  1
  Ta  Ta118  1  0.35995157  0.64707242  0.25687735  1
  Ta  Ta119  1  0.29252195  0.67544501  0.75015247  1
  Ta  Ta120  1  0.67685203  -0.03951700  0.24320191  1
  Ta  Ta121  1  0.66650816  -0.02721744  0.75687327  1
  Ta  Ta122  1  0.66774670  0.29281881  0.25996452  1
  Ta  Ta123  1  0.64479051  0.34949227  0.73692794  1
  Ta  Ta124  1  0.63323728  0.66561891  0.25650979  1
  Ta  Ta125  1  0.66205453  0.61567093  0.74547177  1
  Ta  Ta126  1  0.00150169  -0.04515847  0.00101343  1
  Ta  Ta127  1  0.00777152  -0.04666555  0.48140563  1
  Ta  Ta128  1  -0.03342947  0.33174751  -0.00713526  1
  Ta  Ta129  1  0.01523017  0.31700670  0.51422123  1
  Ta  Ta130  1  -0.00295494  0.69803121  -0.00035907  1
  Ta  Ta131  1  -0.06628044  0.66553555  0.50757768  1
  Ta  Ta132  1  0.28884012  -0.00802114  0.00038421  1
  Ta  Ta133  1  0.33882606  -0.02317115  0.50883524  1
  Ta  Ta134  1  0.34066025  0.28085209  -0.01503641  1
  Ta  Ta135  1  0.31254970  0.35361001  0.50883872  1
  Ta  Ta136  1  0.33445274  0.63203157  -0.00285089  1
  Ta  Ta137  1  0.33377586  0.62468499  0.50453420  1
  Ta  Ta138  1  0.66641863  -0.04927645  -0.00544012  1
  Ta  Ta139  1  0.62487791  0.00185129  0.50858123  1
  Ta  Ta140  1  0.69257969  0.31597248  0.00875963  1
  Ta  Ta141  1  0.67163612  0.28246334  0.48854560  1
  Ta  Ta142  1  0.63114210  0.65728328  -0.00674119  1
  Ta  Ta143  1  0.73008441  0.66333194  0.50540576  1
  N  N144  1  0.67113789  0.33941948  0.38111786  1
  N  N145  1  0.32950648  0.65829611  0.62722380  1
  N  N146  1  0.84297640  0.17510245  0.86959824  1
  N  N147  1  0.67080276  0.32206070  0.13119739  1
  N  N148  1  0.65755174  -0.00392295  0.63634969  1
  N  N149  1  0.17726909  0.19480900  0.37875987  1
  N  N150  1  0.31827920  -0.00926618  0.13004609  1
  N  N151  1  0.67340337  -0.02059626  0.11865726  1
  N  N152  1  -0.00662512  0.02497663  0.38655847  1
  N  N153  1  0.17173644  0.15834781  0.61288922  1
  N  N154  1  0.32683438  -0.01024380  0.63117938  1
  N  N155  1  0.50382799  0.84724665  0.37899724  1
  N  N156  1  -0.00042090  0.65981030  0.12227963  1
  N  N157  1  0.17225115  0.16792180  0.86658416  1
  N  N158  1  0.83569968  0.83554347  0.37630097  1
  N  N159  1  0.32729825  0.33841991  0.87892748  1
  N  N160  1  -0.01044399  0.34588462  0.63330783  1
  N  N161  1  0.32146881  -0.02500126  0.87645646  1
  N  N162  1  0.50634073  0.83888577  0.12574133  1
  N  N163  1  0.83734899  0.49096172  0.11426520  1
  N  N164  1  0.83840383  0.17447474  0.12573819  1
  N  N165  1  -0.00917783  -0.00671783  0.87645014  1
  N  N166  1  0.81791732  0.49297361  0.62206400  1
  N  N167  1  0.83272655  0.84452374  0.63427323  1
  N  N168  1  0.50241592  0.16961889  0.37621735  1
  N  N169  1  0.50324911  0.83403086  0.86921848  1
  N  N170  1  0.00135766  0.66508899  0.87354301  1
  N  N171  1  0.66267520  0.32553493  0.61556106  1
  N  N172  1  0.66209811  0.64568644  0.87442100  1
  N  N173  1  0.32871417  0.66008288  0.87452727  1
  N  N174  1  0.49233796  0.50240291  0.61630696  1
  N  N175  1  0.32866933  0.33714963  0.63121490  1
  N  N176  1  0.49880333  0.51058590  0.86799635  1
  O  O177  1  0.84279891  0.83845153  0.87310912  1
  O  O178  1  0.50035094  0.18378656  0.62190411  1
  O  O179  1  0.33776659  0.31053313  0.11733047  1
  O  O180  1  0.17659493  0.52585349  0.61839227  1
  O  O181  1  0.50027789  0.82459172  0.61572064  1
  O  O182  1  0.17737508  0.50694421  0.37335245  1
  O  O183  1  0.67037719  0.32317585  0.86633060  1
  O  O184  1  0.68777358  0.66745089  0.62553098  1
  O  O185  1  0.33437260  0.64392036  0.13435725  1
  O  O186  1  -0.02633420  0.64798892  0.38300124  1
  O  O187  1  0.49352274  0.51254785  0.37730479  1
  O  O188  1  0.49745426  0.52281570  0.12871632  1
  O  O189  1  0.67565075  0.66937634  0.37949885  1
  O  O190  1  0.50668883  0.18911108  0.11898247  1
  O  O191  1  0.17309387  0.83410745  0.61455897  1
  O  O192  1  0.16087521  0.52624277  0.87630369  1
  O  O193  1  0.81372263  0.47969417  0.87316904  1
  O  O194  1  0.83228336  0.50326291  0.36793670  1
  O  O195  1  -0.00872960  -0.01984573  0.61159897  1
  O  O196  1  0.66672854  0.01438711  0.88764174  1
  O  O197  1  -0.01402884  0.66899333  0.62947789  1
  O  O198  1  0.34132588  0.67454637  0.37975018  1
  O  O199  1  -0.00517973  -0.01993510  0.13245560  1
  O  O200  1  0.84887039  0.84426505  0.12471809  1
  O  O201  1  0.83101966  0.16586252  0.62523356  1
  O  O202  1  -0.00364790  0.34815252  0.12276684  1
  O  O203  1  0.33693823  0.32362543  0.37226276  1
  O  O204  1  0.17983654  0.51268169  0.12587206  1
  O  O205  1  0.51638330  0.19059528  0.86930397  1
  O  O206  1  0.64498033  0.65790082  0.13002635  1
  O  O207  1  0.15297083  0.86604355  0.13942471  1
  O  O208  1  -0.01300839  0.31953995  0.86487777  1
  O  O209  1  0.17919682  0.17844316  0.12352386  1
  O  O210  1  0.00573965  0.35884753  0.38868607  1
  O  O211  1  0.33105110  0.00815278  0.37668418  1
  O  O212  1  0.18152113  0.81231032  0.37069570  1
  O  O213  1  0.16228261  0.84114019  0.87273292  1
  O  O214  1  0.84210737  0.16702907  0.37603571  1
  O  O215  1  0.66513695  -0.01859024  0.38440034  1
