# generated using pymatgen
data_Sr24Ta24N11O13
_symmetry_space_group_name_H-M   'P 1'
_cell_length_a   16.75088953
_cell_length_b   16.69183630
_cell_length_c   15.68908020
_cell_angle_alpha   89.60414822
_cell_angle_beta   90.31457554
_cell_angle_gamma   89.97828813
_symmetry_Int_Tables_number   1
_chemical_formula_structural   Sr24Ta24N11O13
_chemical_formula_sum   'Sr72 Ta72 N33 O39'
_cell_volume   4386.54436103
_cell_formula_units_Z   3
loop_
 _symmetry_equiv_pos_site_id
 _symmetry_equiv_pos_as_xyz
  1  'x, y, z'
loop_
 _atom_site_type_symbol
 _atom_site_label
 _atom_site_symmetry_multiplicity
 _atom_site_fract_x
 _atom_site_fract_y
 _atom_site_fract_z
 _atom_site_occupancy
  Sr  Sr0  1  0.00073696  0.17131183  0.12021932  1
  Sr  Sr1  1  -0.01020686  0.16089766  0.66903808  1
  Sr  Sr2  1  -0.03163134  0.50158111  0.13588035  1
  Sr  Sr3  1  -0.00146970  0.50244529  0.62351064  1
  Sr  Sr4  1  0.00568724  0.82910901  0.13362942  1
  Sr  Sr5  1  -0.01538271  0.85221983  0.58154127  1
  Sr  Sr6  1  0.34943992  0.17087991  0.17441208  1
  Sr  Sr7  1  0.31175930  0.17585807  0.61688346  1
  Sr  Sr8  1  0.32830612  0.49097944  0.08080885  1
  Sr  Sr9  1  0.32627668  0.50284086  0.62777044  1
  Sr  Sr10  1  0.32138790  0.80738977  0.17949663  1
  Sr  Sr11  1  0.32274865  0.83719693  0.61597321  1
  Sr  Sr12  1  0.65599900  0.17617584  0.08419314  1
  Sr  Sr13  1  0.66120662  0.17209380  0.61054729  1
  Sr  Sr14  1  0.65657188  0.48746119  0.16571948  1
  Sr  Sr15  1  0.65258532  0.51585519  0.60778145  1
  Sr  Sr16  1  0.64284162  0.81996167  0.09728248  1
  Sr  Sr17  1  0.68312981  0.84222183  0.67171513  1
  Sr  Sr18  1  0.14890566  0.00199998  0.08091888  1
  Sr  Sr19  1  0.16970864  0.00874688  0.63982279  1
  Sr  Sr20  1  0.18069199  0.30347305  0.12966239  1
  Sr  Sr21  1  0.17449006  0.34997323  0.57967191  1
  Sr  Sr22  1  0.15963934  0.66686924  0.12406013  1
  Sr  Sr23  1  0.17766798  0.66091698  0.67103640  1
  Sr  Sr24  1  0.49400533  -0.00630476  0.13100721  1
  Sr  Sr25  1  0.52201046  -0.01527570  0.61600123  1
  Sr  Sr26  1  0.50451381  0.33037501  0.12734295  1
  Sr  Sr27  1  0.51233147  0.33342027  0.64520839  1
  Sr  Sr28  1  0.49591180  0.65821875  0.12815564  1
  Sr  Sr29  1  0.48369277  0.66933430  0.57923140  1
  Sr  Sr30  1  0.84278794  -0.02076327  0.17517474  1
  Sr  Sr31  1  0.83430101  0.00910402  0.62060426  1
  Sr  Sr32  1  0.84132716  0.32073186  0.11335569  1
  Sr  Sr33  1  0.87141914  0.32666363  0.65411458  1
  Sr  Sr34  1  0.82954334  0.68182524  0.07483670  1
  Sr  Sr35  1  0.81816426  0.66498543  0.64054968  1
  Sr  Sr36  1  -0.01415691  0.18019530  0.33823348  1
  Sr  Sr37  1  0.01357802  0.17366541  0.89082516  1
  Sr  Sr38  1  0.00102468  0.49913838  0.38141433  1
  Sr  Sr39  1  -0.01996267  0.50693897  0.84578468  1
  Sr  Sr40  1  -0.01133330  0.84045041  0.37012555  1
  Sr  Sr41  1  0.01627771  0.82548553  0.92172133  1
  Sr  Sr42  1  0.32377619  0.17360378  0.37835330  1
  Sr  Sr43  1  0.34063206  0.16836485  0.83342324  1
  Sr  Sr44  1  0.31116782  0.49214556  0.40445742  1
  Sr  Sr45  1  0.33170669  0.50264234  0.87497658  1
  Sr  Sr46  1  0.35522190  0.83254122  0.39394219  1
  Sr  Sr47  1  0.30905113  0.84518972  0.82909566  1
  Sr  Sr48  1  0.66997576  0.15813950  0.41298303  1
  Sr  Sr49  1  0.64585852  0.18748243  0.88612754  1
  Sr  Sr50  1  0.66554565  0.50444592  0.38115139  1
  Sr  Sr51  1  0.65113436  0.49978825  0.83789752  1
  Sr  Sr52  1  0.67659058  0.85924536  0.32481059  1
  Sr  Sr53  1  0.67976521  0.82128735  0.88117105  1
  Sr  Sr54  1  0.18087684  -0.01458814  0.43162840  1
  Sr  Sr55  1  0.17585927  0.01555621  0.86135000  1
  Sr  Sr56  1  0.17372752  0.31456180  0.37149060  1
  Sr  Sr57  1  0.18034188  0.32924871  0.91179701  1
  Sr  Sr58  1  0.15857285  0.68612110  0.33192086  1
  Sr  Sr59  1  0.16937831  0.66809086  0.87730196  1
  Sr  Sr60  1  0.50333594  -0.00231595  0.36356025  1
  Sr  Sr61  1  0.52174312  -0.02141750  0.89798858  1
  Sr  Sr62  1  0.52931174  0.32631322  0.37548904  1
  Sr  Sr63  1  0.49540253  0.33986436  0.86146063  1
  Sr  Sr64  1  0.50741207  0.66127238  0.36658740  1
  Sr  Sr65  1  0.49444094  0.67853367  0.91101066  1
  Sr  Sr66  1  0.83778092  0.00881310  0.38585769  1
  Sr  Sr67  1  0.83621552  0.00300802  0.83861640  1
  Sr  Sr68  1  0.84935656  0.34952913  0.33537539  1
  Sr  Sr69  1  0.85037598  0.32398010  0.88767587  1
  Sr  Sr70  1  0.84788931  0.65697230  0.42629327  1
  Sr  Sr71  1  0.82279043  0.66207468  0.86208837  1
  Ta  Ta72  1  0.24560971  0.15689020  0.00306257  1
  Ta  Ta73  1  0.11786301  0.16647553  0.50410695  1
  Ta  Ta74  1  0.12900823  0.50273311  -0.00159117  1
  Ta  Ta75  1  0.15741330  0.55070239  0.50489642  1
  Ta  Ta76  1  0.22234248  0.83436096  0.00306560  1
  Ta  Ta77  1  0.15884459  0.79033759  0.50610799  1
  Ta  Ta78  1  0.44505603  0.15382699  0.00109531  1
  Ta  Ta79  1  0.47669033  0.16174653  0.49865167  1
  Ta  Ta80  1  0.52806669  0.49277473  0.00178730  1
  Ta  Ta81  1  0.48090030  0.47824410  0.49852066  1
  Ta  Ta82  1  0.41652169  0.83729401  0.00524345  1
  Ta  Ta83  1  0.55413584  0.83761426  0.49392290  1
  Ta  Ta84  1  0.83344505  0.12535781  0.00510520  1
  Ta  Ta85  1  0.85700379  0.19045087  0.50491782  1
  Ta  Ta86  1  0.79710958  0.49663847  -0.00517423  1
  Ta  Ta87  1  0.83223139  0.46263889  0.50249256  1
  Ta  Ta88  1  0.83665232  0.87198819  -0.00019183  1
  Ta  Ta89  1  0.78789180  0.83268933  0.50035689  1
  Ta  Ta90  1  0.16848721  0.10383380  0.25801687  1
  Ta  Ta91  1  0.16614851  0.21413757  0.74577275  1
  Ta  Ta92  1  0.17552108  0.48741760  0.24675456  1
  Ta  Ta93  1  0.16521970  0.46425994  0.74879148  1
  Ta  Ta94  1  0.16252571  0.89359973  0.25783342  1
  Ta  Ta95  1  0.11613230  0.83658591  0.74459664  1
  Ta  Ta96  1  0.54142739  0.16371175  0.25328440  1
  Ta  Ta97  1  0.50788176  0.13055297  0.74899092  1
  Ta  Ta98  1  0.46093137  0.49366770  0.25020167  1
  Ta  Ta99  1  0.48698257  0.54084103  0.74464604  1
  Ta  Ta100  1  0.50330932  0.82328179  0.24466085  1
  Ta  Ta101  1  0.48932171  0.81049180  0.74822819  1
  Ta  Ta102  1  0.79432343  0.16451065  0.24460220  1
  Ta  Ta103  1  0.79465221  0.17460414  0.75074976  1
  Ta  Ta104  1  0.82391092  0.56882322  0.24942366  1
  Ta  Ta105  1  0.80839544  0.47686077  0.74694938  1
  Ta  Ta106  1  0.83054218  0.76855952  0.25052303  1
  Ta  Ta107  1  0.88228330  0.83193485  0.75765318  1
  Ta  Ta108  1  0.03415913  0.00463127  0.25238137  1
  Ta  Ta109  1  0.00370650  -0.03616920  0.75201785  1
  Ta  Ta110  1  0.03328744  0.35640140  0.24169293  1
  Ta  Ta111  1  0.05171337  0.33823634  0.75062787  1
  Ta  Ta112  1  -0.03529820  0.66421236  0.24583427  1
  Ta  Ta113  1  -0.00138266  0.70846319  0.75206170  1
  Ta  Ta114  1  0.30064451  -0.00730904  0.25319043  1
  Ta  Ta115  1  0.37869220  0.00668963  0.73577210  1
  Ta  Ta116  1  0.33620244  0.37431344  0.24781492  1
  Ta  Ta117  1  0.30036335  0.34198063  0.75005109  1
  Ta  Ta118  1  0.33039823  0.60972149  0.24649875  1
  Ta  Ta119  1  0.37310745  0.66972686  0.74512061  1
  Ta  Ta120  1  0.66758958  0.05113429  0.24418731  1
  Ta  Ta121  1  0.66206814  0.03359499  0.74997020  1
  Ta  Ta122  1  0.67673896  0.28694974  0.25097130  1
  Ta  Ta123  1  0.69864629  0.33155426  0.74717881  1
  Ta  Ta124  1  0.68913869  0.67246425  0.24292768  1
  Ta  Ta125  1  0.61266487  0.67157770  0.74841873  1
  Ta  Ta126  1  -0.04606205  0.00021866  0.00552288  1
  Ta  Ta127  1  0.00026701  0.04644312  0.50505230  1
  Ta  Ta128  1  0.01607367  0.36959444  -0.00000523  1
  Ta  Ta129  1  -0.01023446  0.31314414  0.49806312  1
  Ta  Ta130  1  0.00626169  0.63425356  -0.00360398  1
  Ta  Ta131  1  0.03714548  0.67082469  0.50396010  1
  Ta  Ta132  1  0.33453303  0.00151476  0.00484198  1
  Ta  Ta133  1  0.36595383  0.01961133  0.51077955  1
  Ta  Ta134  1  0.35047794  0.29561343  0.00013265  1
  Ta  Ta135  1  0.37193418  0.33264991  0.50388720  1
  Ta  Ta136  1  0.32147635  0.69429879  0.00479743  1
  Ta  Ta137  1  0.28722165  0.66671769  0.50000772  1
  Ta  Ta138  1  0.72103078  -0.00225114  0.00295594  1
  Ta  Ta139  1  0.67555249  -0.03841801  0.50260283  1
  Ta  Ta140  1  0.67059200  0.37728702  -0.00650849  1
  Ta  Ta141  1  0.72195263  0.33736969  0.49858165  1
  Ta  Ta142  1  0.66000853  0.61770740  -0.00401170  1
  Ta  Ta143  1  0.66685412  0.71117672  0.50210615  1
  N  N144  1  0.49677366  0.49299494  0.12232844  1
  N  N145  1  -0.00596384  -0.00180253  0.12936398  1
  N  N146  1  0.83049545  0.16980259  0.62711289  1
  N  N147  1  0.33755108  0.33379030  0.87051821  1
  N  N148  1  0.82274740  0.49710381  0.86800008  1
  N  N149  1  0.66351838  0.66017871  0.11995828  1
  N  N150  1  0.67015642  0.33931131  0.87251999  1
  N  N151  1  0.65456983  0.67803596  0.62875693  1
  N  N152  1  0.49408844  0.50495606  0.61706886  1
  N  N153  1  0.50457611  0.16776409  0.37565109  1
  N  N154  1  0.01057332  0.33592113  0.87818477  1
  N  N155  1  0.34180183  0.33283722  0.62251299  1
  N  N156  1  -0.00657651  0.66640401  0.12216673  1
  N  N157  1  0.32447727  -0.00257599  0.62666007  1
  N  N158  1  0.01779858  0.33787214  0.61671576  1
  N  N159  1  0.15553326  0.17930364  0.62437079  1
  N  N160  1  0.16136507  0.50643620  0.62427453  1
  N  N161  1  0.00046619  0.32777657  0.12287071  1
  N  N162  1  0.47247259  0.83120487  0.11496502  1
  N  N163  1  0.68920156  0.32219033  0.37588143  1
  N  N164  1  0.65338167  0.66333051  0.87591174  1
  N  N165  1  0.67620009  0.00074024  0.63044615  1
  N  N166  1  0.32966765  0.67081949  0.62154130  1
  N  N167  1  0.83849262  0.16281980  0.12640486  1
  N  N168  1  -0.00321364  0.66859564  0.87407114  1
  N  N169  1  0.15611581  0.83529968  0.62296743  1
  N  N170  1  0.32203062  0.64901650  0.12509570  1
  N  N171  1  0.33794927  0.33489013  0.13004565  1
  N  N172  1  -0.00335169  0.00546296  0.62597894  1
  N  N173  1  0.84274403  0.83401656  0.87829071  1
  N  N174  1  0.51450250  0.83462252  0.37260799  1
  N  N175  1  0.33197473  -0.00212324  0.13294963  1
  N  N176  1  0.01137030  0.33848614  0.36580897  1
  O  O177  1  0.49239311  0.13800680  0.88177262  1
  O  O178  1  0.49323524  0.15581623  0.12437992  1
  O  O179  1  0.16013257  0.50991326  0.37333021  1
  O  O180  1  0.82568329  0.51222918  0.37955347  1
  O  O181  1  0.16512195  0.50342432  0.12353548  1
  O  O182  1  0.00971077  0.66595174  0.62915729  1
  O  O183  1  0.67921353  0.00168832  0.87670940  1
  O  O184  1  0.46446594  0.83226738  0.87611781  1
  O  O185  1  0.66843153  0.32889175  0.61515363  1
  O  O186  1  0.83971077  0.82379325  0.13261506  1
  O  O187  1  0.16848252  0.83101598  0.88162510  1
  O  O188  1  0.81639077  0.52604247  0.12882884  1
  O  O189  1  0.83674167  0.50893475  0.62108948  1
  O  O190  1  -0.00708934  -0.00025849  0.87764603  1
  O  O191  1  0.16321080  0.14937038  0.37920738  1
  O  O192  1  0.67771650  0.00506187  0.37748055  1
  O  O193  1  0.32880904  0.33295382  0.37393819  1
  O  O194  1  0.20084471  0.14644509  0.12451683  1
  O  O195  1  0.19494084  0.16883342  0.88286290  1
  O  O196  1  0.15846574  0.50644575  0.87332741  1
  O  O197  1  0.66335395  0.66490951  0.38148936  1
  O  O198  1  0.31001940  0.64704560  0.36866446  1
  O  O199  1  0.17965540  0.85395985  0.12211383  1
  O  O200  1  0.50741359  0.16555801  0.62799408  1
  O  O201  1  0.33461701  -0.00031519  0.85402893  1
  O  O202  1  0.49026415  0.49908687  0.86960528  1
  O  O203  1  0.33372668  0.66535394  0.87036576  1
  O  O204  1  -0.01024719  0.00364423  0.38064571  1
  O  O205  1  0.67616528  0.01308711  0.12117888  1
  O  O206  1  0.51138105  0.82812672  0.62451787  1
  O  O207  1  0.82822647  0.80849326  0.37793474  1
  O  O208  1  0.82545589  0.16260703  0.87544325  1
  O  O209  1  0.83323449  0.82941423  0.62403375  1
  O  O210  1  0.15355170  0.84300481  0.37847497  1
  O  O211  1  0.51142741  0.49977152  0.36899575  1
  O  O212  1  0.67238803  0.32944199  0.12419148  1
  O  O213  1  0.83400760  0.16535219  0.37584859  1
  O  O214  1  0.00763008  0.67149344  0.37601192  1
  O  O215  1  0.33760188  -0.00585486  0.38853289  1
