# generated using pymatgen
data_Sr24Ta24N11O13
_symmetry_space_group_name_H-M   'P 1'
_cell_length_a   16.75502001
_cell_length_b   16.86708035
_cell_length_c   15.73381702
_cell_angle_alpha   90.04118291
_cell_angle_beta   89.76459106
_cell_angle_gamma   89.81958670
_symmetry_Int_Tables_number   1
_chemical_formula_structural   Sr24Ta24N11O13
_chemical_formula_sum   'Sr72 Ta72 N33 O39'
_cell_volume   4446.44602337
_cell_formula_units_Z   3
loop_
 _symmetry_equiv_pos_site_id
 _symmetry_equiv_pos_as_xyz
  1  'x, y, z'
loop_
 _atom_site_type_symbol
 _atom_site_label
 _atom_site_symmetry_multiplicity
 _atom_site_fract_x
 _atom_site_fract_y
 _atom_site_fract_z
 _atom_site_occupancy
  Sr  Sr0  1  -0.00687333  0.17426325  0.11275276  1
  Sr  Sr1  1  0.00044914  0.15749042  0.66735508  1
  Sr  Sr2  1  -0.01693266  0.51624034  0.17283746  1
  Sr  Sr3  1  0.00813840  0.50446737  0.60878930  1
  Sr  Sr4  1  0.01176904  0.83856898  0.11285029  1
  Sr  Sr5  1  0.00281910  0.84977614  0.58953919  1
  Sr  Sr6  1  0.33102100  0.17602429  0.10613352  1
  Sr  Sr7  1  0.33058965  0.17606884  0.59659277  1
  Sr  Sr8  1  0.32738729  0.50151380  0.11557473  1
  Sr  Sr9  1  0.32956343  0.49389079  0.66305354  1
  Sr  Sr10  1  0.33524020  0.87035951  0.15137659  1
  Sr  Sr11  1  0.33200868  0.83651934  0.62101191  1
  Sr  Sr12  1  0.64939497  0.18729462  0.14914014  1
  Sr  Sr13  1  0.66075375  0.17645133  0.60992420  1
  Sr  Sr14  1  0.67378011  0.51149148  0.08754313  1
  Sr  Sr15  1  0.66298368  0.50452640  0.62925677  1
  Sr  Sr16  1  0.66820279  0.84609466  0.12920574  1
  Sr  Sr17  1  0.68100892  0.84940059  0.64933104  1
  Sr  Sr18  1  0.15860173  -0.00232675  0.16491601  1
  Sr  Sr19  1  0.17886059  -0.01388431  0.60898542  1
  Sr  Sr20  1  0.17715153  0.32046405  0.08761834  1
  Sr  Sr21  1  0.15763467  0.32544194  0.61774845  1
  Sr  Sr22  1  0.16212908  0.65816554  0.11559247  1
  Sr  Sr23  1  0.17173219  0.64611343  0.65294822  1
  Sr  Sr24  1  0.49684247  0.00580813  0.11084772  1
  Sr  Sr25  1  0.50383282  -0.02481697  0.66585007  1
  Sr  Sr26  1  0.48143561  0.33451198  0.17124502  1
  Sr  Sr27  1  0.51478384  0.33953362  0.61373402  1
  Sr  Sr28  1  0.49234398  0.63829669  0.11971565  1
  Sr  Sr29  1  0.49750070  0.67384487  0.58824856  1
  Sr  Sr30  1  0.84900566  -0.02451231  0.08593887  1
  Sr  Sr31  1  0.83796247  -0.00151514  0.62386121  1
  Sr  Sr32  1  0.82844594  0.33107974  0.12063466  1
  Sr  Sr33  1  0.84997274  0.30556677  0.63732167  1
  Sr  Sr34  1  0.82580087  0.66208345  0.14931561  1
  Sr  Sr35  1  0.83984423  0.64070476  0.62479714  1
  Sr  Sr36  1  0.00459548  0.16355403  0.33404437  1
  Sr  Sr37  1  -0.00720452  0.17555250  0.88127618  1
  Sr  Sr38  1  0.00772363  0.48839300  0.38639602  1
  Sr  Sr39  1  -0.01002001  0.53424696  0.83884888  1
  Sr  Sr40  1  0.01008289  0.85514444  0.38613738  1
  Sr  Sr41  1  0.00849635  0.83042457  0.90709889  1
  Sr  Sr42  1  0.32418595  0.18341155  0.39861001  1
  Sr  Sr43  1  0.33267974  0.17224302  0.89860877  1
  Sr  Sr44  1  0.34309399  0.50397600  0.33205480  1
  Sr  Sr45  1  0.31597600  0.49902879  0.88369869  1
  Sr  Sr46  1  0.33663326  0.84421239  0.38402645  1
  Sr  Sr47  1  0.33366627  0.85909339  0.84503072  1
  Sr  Sr48  1  0.67354220  0.16661634  0.37864564  1
  Sr  Sr49  1  0.64537446  0.18604988  0.86766902  1
  Sr  Sr50  1  0.65295366  0.51700211  0.42025232  1
  Sr  Sr51  1  0.66612706  0.50260838  0.87220440  1
  Sr  Sr52  1  0.67276654  0.83616276  0.34998786  1
  Sr  Sr53  1  0.67053838  0.85802523  0.87617755  1
  Sr  Sr54  1  0.17342132  -0.00566921  0.38100163  1
  Sr  Sr55  1  0.16776882  -0.00630312  0.84197440  1
  Sr  Sr56  1  0.16491009  0.32826839  0.40752526  1
  Sr  Sr57  1  0.16427076  0.31709334  0.88362543  1
  Sr  Sr58  1  0.16305441  0.63540558  0.35145544  1
  Sr  Sr59  1  0.16943234  0.67060317  0.88159921  1
  Sr  Sr60  1  0.51594947  -0.02083779  0.32652537  1
  Sr  Sr61  1  0.49152094  0.01319478  0.89140471  1
  Sr  Sr62  1  0.50111765  0.32702469  0.38739038  1
  Sr  Sr63  1  0.50227742  0.35151594  0.82583455  1
  Sr  Sr64  1  0.49118199  0.66156520  0.38208416  1
  Sr  Sr65  1  0.49530660  0.64116721  0.91344326  1
  Sr  Sr66  1  0.82687128  -0.01245238  0.40937673  1
  Sr  Sr67  1  0.84642661  -0.01074394  0.87377180  1
  Sr  Sr68  1  0.84926512  0.31077994  0.33625723  1
  Sr  Sr69  1  0.83364797  0.31977995  0.89870038  1
  Sr  Sr70  1  0.83947655  0.64610458  0.37763591  1
  Sr  Sr71  1  0.81492021  0.65462451  0.85111323  1
  Ta  Ta72  1  0.16161348  0.12415476  -0.00423411  1
  Ta  Ta73  1  0.12141704  0.15944206  0.49754249  1
  Ta  Ta74  1  0.11107639  0.49947122  0.00238951  1
  Ta  Ta75  1  0.20478087  0.50431151  0.49856097  1
  Ta  Ta76  1  0.19154819  0.85268246  -0.00519316  1
  Ta  Ta77  1  0.17274624  0.77809137  0.49902312  1
  Ta  Ta78  1  0.50145015  0.22281913  -0.00440411  1
  Ta  Ta79  1  0.50431138  0.10876324  0.49945989  1
  Ta  Ta80  1  0.50180242  0.45033796  0.00665823  1
  Ta  Ta81  1  0.45445472  0.49988359  0.49985867  1
  Ta  Ta82  1  0.49340844  0.81459560  0.01452964  1
  Ta  Ta83  1  0.52206034  0.85295284  0.49128317  1
  Ta  Ta84  1  0.79863601  0.14784932  0.00155873  1
  Ta  Ta85  1  0.86599606  0.16929715  0.49112425  1
  Ta  Ta86  1  0.86783752  0.50724224  0.00715441  1
  Ta  Ta87  1  0.83799243  0.44870103  0.49503446  1
  Ta  Ta88  1  0.82871573  0.78908057  -0.00210990  1
  Ta  Ta89  1  0.82064565  0.80396080  0.50097599  1
  Ta  Ta90  1  0.18389326  0.18847678  0.25332926  1
  Ta  Ta91  1  0.19493041  0.16686606  0.75013906  1
  Ta  Ta92  1  0.16506060  0.45294915  0.25044337  1
  Ta  Ta93  1  0.15113413  0.46627374  0.74979812  1
  Ta  Ta94  1  0.16614471  0.80642507  0.25821337  1
  Ta  Ta95  1  0.13671817  0.82567955  0.74236620  1
  Ta  Ta96  1  0.46908598  0.15737593  0.25441667  1
  Ta  Ta97  1  0.47119177  0.16633837  0.74895912  1
  Ta  Ta98  1  0.54145564  0.49991051  0.25476655  1
  Ta  Ta99  1  0.50143999  0.54577610  0.74218108  1
  Ta  Ta100  1  0.49738715  0.79300380  0.24114793  1
  Ta  Ta101  1  0.50453645  0.78935919  0.75723115  1
  Ta  Ta102  1  0.83049953  0.12043462  0.24483600  1
  Ta  Ta103  1  0.80346806  0.15470912  0.75833166  1
  Ta  Ta104  1  0.78356448  0.49165429  0.25197129  1
  Ta  Ta105  1  0.83425919  0.45882582  0.75137737  1
  Ta  Ta106  1  0.85367611  0.84529194  0.24476684  1
  Ta  Ta107  1  0.87473249  0.82645392  0.75370524  1
  Ta  Ta108  1  -0.03738538  -0.00624623  0.24939382  1
  Ta  Ta109  1  0.00286975  -0.03824544  0.74369462  1
  Ta  Ta110  1  0.04483181  0.33291101  0.24543034  1
  Ta  Ta111  1  0.00120339  0.35793565  0.75963482  1
  Ta  Ta112  1  0.00201045  0.70841970  0.25087157  1
  Ta  Ta113  1  0.00173834  0.71353521  0.74440507  1
  Ta  Ta114  1  0.33764207  0.04834071  0.25130624  1
  Ta  Ta115  1  0.33476232  0.04383820  0.74700530  1
  Ta  Ta116  1  0.29782242  0.32385955  0.25402505  1
  Ta  Ta117  1  0.31963091  0.30618804  0.75019728  1
  Ta  Ta118  1  0.33151238  0.69614855  0.24829387  1
  Ta  Ta119  1  0.37238000  0.67468893  0.75275233  1
  Ta  Ta120  1  0.71172204  0.00717206  0.24940681  1
  Ta  Ta121  1  0.67706157  0.03283483  0.75102871  1
  Ta  Ta122  1  0.66231629  0.37537522  0.25609475  1
  Ta  Ta123  1  0.69958771  0.33923057  0.74534749  1
  Ta  Ta124  1  0.65131546  0.64576314  0.24939215  1
  Ta  Ta125  1  0.62594348  0.67398131  0.75234898  1
  Ta  Ta126  1  0.04004864  0.00679375  0.00244104  1
  Ta  Ta127  1  0.00262553  0.04060803  0.49675954  1
  Ta  Ta128  1  -0.00224726  0.38197652  -0.00089921  1
  Ta  Ta129  1  -0.01464000  0.30147357  0.49165667  1
  Ta  Ta130  1  -0.02131257  0.64866417  0.00751049  1
  Ta  Ta131  1  0.01703556  0.68055208  0.50346144  1
  Ta  Ta132  1  0.29749910  -0.00024773  -0.00078119  1
  Ta  Ta133  1  0.38357983  0.00041280  0.50085906  1
  Ta  Ta134  1  0.37496442  0.33993394  -0.00787678  1
  Ta  Ta135  1  0.33413566  0.37657435  0.49671651  1
  Ta  Ta136  1  0.33643370  0.72838129  0.00229936  1
  Ta  Ta137  1  0.31413789  0.63903171  0.50056119  1
  Ta  Ta138  1  0.67502415  0.03570050  0.00402220  1
  Ta  Ta139  1  0.63216108  -0.00738278  0.49399190  1
  Ta  Ta140  1  0.62615893  0.33612028  0.00135766  1
  Ta  Ta141  1  0.71133838  0.33891068  0.49929953  1
  Ta  Ta142  1  0.66936960  0.69758179  0.00509809  1
  Ta  Ta143  1  0.67738512  0.70845916  0.50132792  1
  N  N144  1  0.66216949  0.66459885  0.12544059  1
  N  N145  1  0.49915519  0.50748596  0.62455985  1
  N  N146  1  0.33130699  0.33990033  0.37168834  1
  N  N147  1  -0.00214138  0.67111178  0.12925480  1
  N  N148  1  0.17401841  0.82824877  0.38068391  1
  N  N149  1  0.67322845  0.33562441  0.62303559  1
  N  N150  1  0.32681857  0.02011982  0.12643805  1
  N  N151  1  0.33174498  0.01174554  0.87452676  1
  N  N152  1  0.50518767  0.85209587  0.13477338  1
  N  N153  1  0.49253546  0.18308236  0.86978570  1
  N  N154  1  0.50381905  0.48513516  0.12998838  1
  N  N155  1  -0.00649035  0.33352641  0.88197471  1
  N  N156  1  0.17238989  0.48535840  0.37439110  1
  N  N157  1  0.16349647  0.16608536  0.37426737  1
  N  N158  1  0.00004190  0.66565289  0.62408382  1
  N  N159  1  0.50782506  0.82883914  0.37012886  1
  N  N160  1  0.16437799  0.16058168  0.86938749  1
  N  N161  1  0.17011173  0.83347418  0.87439974  1
  N  N162  1  0.00594102  0.32569703  0.37029703  1
  N  N163  1  0.49998201  0.49889078  0.38247274  1
  N  N164  1  0.83947823  0.82644627  0.12387779  1
  N  N165  1  0.34794631  0.00429316  0.62309078  1
  N  N166  1  -0.00291478  0.00567396  0.36919735  1
  N  N167  1  0.82800204  0.49543307  0.12686250  1
  N  N168  1  0.33637030  0.33977230  0.86657613  1
  N  N169  1  0.83811150  0.15511147  0.37125103  1
  N  N170  1  0.17342703  0.81917509  0.62006513  1
  N  N171  1  0.84200708  0.82354449  0.87631326  1
  N  N172  1  0.83314673  0.16334187  0.87938700  1
  N  N173  1  0.16811582  0.48697313  0.62917013  1
  N  N174  1  0.00187421  0.00221863  0.62757956  1
  N  N175  1  0.67122979  -0.00168819  0.37277776  1
  N  N176  1  0.00469703  0.00171959  0.12140098  1
  O  O177  1  0.84425378  0.46743953  0.61964744  1
  O  O178  1  0.66589766  0.00779142  0.62519395  1
  O  O179  1  0.00095442  0.32569975  0.63080571  1
  O  O180  1  0.32336442  0.33682023  0.62099031  1
  O  O181  1  0.50846960  0.82238458  0.62936574  1
  O  O182  1  0.83571177  0.81841789  0.62696934  1
  O  O183  1  0.32670248  0.66441011  0.36885829  1
  O  O184  1  0.83673183  0.49056554  0.87576010  1
  O  O185  1  0.65570766  0.69337479  0.62447209  1
  O  O186  1  -0.00549560  0.67362132  0.37168979  1
  O  O187  1  0.49892442  0.15032165  0.37675703  1
  O  O188  1  0.33154507  0.33557383  0.11891432  1
  O  O189  1  0.66055660  0.35628489  0.38577730  1
  O  O190  1  0.65367202  0.34477812  0.13199395  1
  O  O191  1  0.67228442  0.67805098  0.37849963  1
  O  O192  1  0.00581374  -0.01238698  0.87631617  1
  O  O193  1  0.00311455  0.33675397  0.12340080  1
  O  O194  1  0.50338382  0.15047832  0.62099046  1
  O  O195  1  0.66443030  0.01623804  0.12751288  1
  O  O196  1  0.48756913  0.18355557  0.12897043  1
  O  O197  1  0.83401157  0.82261090  0.37798313  1
  O  O198  1  0.14100365  0.50244813  0.87819407  1
  O  O199  1  0.34122974  0.65941465  0.63103247  1
  O  O200  1  0.32209838  0.70149700  0.11999474  1
  O  O201  1  0.65649419  0.02377941  0.87517462  1
  O  O202  1  0.50465920  0.81214036  0.88129566  1
  O  O203  1  0.33905107  0.00960345  0.37612140  1
  O  O204  1  0.17106149  0.83508310  0.13075477  1
  O  O205  1  0.83428097  0.17173039  0.12244149  1
  O  O206  1  0.13828093  0.50126268  0.12745198  1
  O  O207  1  0.65700419  0.34168875  0.86878211  1
  O  O208  1  0.83543619  0.47325719  0.36652299  1
  O  O209  1  0.50822683  0.49824838  0.86666539  1
  O  O210  1  0.84443276  0.15542507  0.63249688  1
  O  O211  1  0.15649562  0.16647892  0.62228818  1
  O  O212  1  0.00527938  0.67834206  0.87650014  1
  O  O213  1  0.64920557  0.66462193  0.88122364  1
  O  O214  1  0.17232090  0.16567051  0.11830420  1
  O  O215  1  0.34727526  0.69667016  0.87605737  1
