# generated using pymatgen
data_Sr24Ta24N11O13
_symmetry_space_group_name_H-M   'P 1'
_cell_length_a   16.75654393
_cell_length_b   16.85568992
_cell_length_c   15.65886203
_cell_angle_alpha   89.75549037
_cell_angle_beta   89.58451101
_cell_angle_gamma   89.85115624
_symmetry_Int_Tables_number   1
_chemical_formula_structural   Sr24Ta24N11O13
_chemical_formula_sum   'Sr72 Ta72 N33 O39'
_cell_volume   4422.56654047
_cell_formula_units_Z   3
loop_
 _symmetry_equiv_pos_site_id
 _symmetry_equiv_pos_as_xyz
  1  'x, y, z'
loop_
 _atom_site_type_symbol
 _atom_site_label
 _atom_site_symmetry_multiplicity
 _atom_site_fract_x
 _atom_site_fract_y
 _atom_site_fract_z
 _atom_site_occupancy
  Sr  Sr0  1  0.01213452  0.16788111  0.10003478  1
  Sr  Sr1  1  -0.02124974  0.17453785  0.67301695  1
  Sr  Sr2  1  0.00550059  0.53823673  0.07926007  1
  Sr  Sr3  1  0.00240823  0.50301761  0.62432740  1
  Sr  Sr4  1  0.00481779  0.82503083  0.17384343  1
  Sr  Sr5  1  -0.01143238  0.83981701  0.61297293  1
  Sr  Sr6  1  0.33163065  0.15575364  0.17587829  1
  Sr  Sr7  1  0.34379114  0.17774729  0.61474981  1
  Sr  Sr8  1  0.33513727  0.49346830  0.12335671  1
  Sr  Sr9  1  0.32508874  0.52268436  0.61982035  1
  Sr  Sr10  1  0.32757121  0.84637254  0.08140126  1
  Sr  Sr11  1  0.32521712  0.83438219  0.62389571  1
  Sr  Sr12  1  0.66117958  0.16763429  0.14126277  1
  Sr  Sr13  1  0.68287928  0.17849335  0.58001313  1
  Sr  Sr14  1  0.67391144  0.49764946  0.12375782  1
  Sr  Sr15  1  0.65216317  0.50368786  0.65485332  1
  Sr  Sr16  1  0.66220436  0.84644247  0.10600710  1
  Sr  Sr17  1  0.65076980  0.84824607  0.65880011  1
  Sr  Sr18  1  0.16680815  -0.01095125  0.12162378  1
  Sr  Sr19  1  0.18413785  -0.00479738  0.57869416  1
  Sr  Sr20  1  0.17389802  0.31112407  0.15676983  1
  Sr  Sr21  1  0.17328953  0.31753205  0.61067952  1
  Sr  Sr22  1  0.18739170  0.66450737  0.10910442  1
  Sr  Sr23  1  0.16300901  0.67098204  0.67266626  1
  Sr  Sr24  1  0.51076359  0.00147649  0.11389131  1
  Sr  Sr25  1  0.49323097  -0.00288725  0.66921421  1
  Sr  Sr26  1  0.50905965  0.34293297  0.07980908  1
  Sr  Sr27  1  0.50369645  0.32670041  0.63401944  1
  Sr  Sr28  1  0.50540087  0.64773281  0.16132702  1
  Sr  Sr29  1  0.49570171  0.67699487  0.60202970  1
  Sr  Sr30  1  0.84909442  -0.01273911  0.11041747  1
  Sr  Sr31  1  0.82601328  -0.00951915  0.63113500  1
  Sr  Sr32  1  0.83538255  0.30762110  0.15753623  1
  Sr  Sr33  1  0.82988216  0.34188770  0.62699695  1
  Sr  Sr34  1  0.83575255  0.67113994  0.13115482  1
  Sr  Sr35  1  0.85852027  0.66284129  0.58459388  1
  Sr  Sr36  1  -0.00648546  0.21473307  0.31535910  1
  Sr  Sr37  1  -0.00360301  0.15090346  0.88920380  1
  Sr  Sr38  1  -0.01084141  0.49218145  0.41803825  1
  Sr  Sr39  1  0.00864125  0.51425096  0.87221698  1
  Sr  Sr40  1  -0.00931572  0.83978567  0.38506152  1
  Sr  Sr41  1  0.00039515  0.82931044  0.83275396  1
  Sr  Sr42  1  0.31029481  0.17507149  0.39215273  1
  Sr  Sr43  1  0.34111276  0.18355308  0.82541464  1
  Sr  Sr44  1  0.32447446  0.51712078  0.35084994  1
  Sr  Sr45  1  0.32192887  0.50358337  0.89775613  1
  Sr  Sr46  1  0.33045980  0.84014976  0.40642880  1
  Sr  Sr47  1  0.31294176  0.83710696  0.87748350  1
  Sr  Sr48  1  0.67707064  0.16766046  0.37078969  1
  Sr  Sr49  1  0.62348570  0.17470138  0.92445063  1
  Sr  Sr50  1  0.66497689  0.51679677  0.34717967  1
  Sr  Sr51  1  0.66848689  0.48475767  0.87442821  1
  Sr  Sr52  1  0.63397842  0.84286318  0.36474153  1
  Sr  Sr53  1  0.67867813  0.83959153  0.88082657  1
  Sr  Sr54  1  0.15915497  -0.02001332  0.37680556  1
  Sr  Sr55  1  0.17013946  0.00107475  0.90689498  1
  Sr  Sr56  1  0.17395103  0.34471575  0.38079695  1
  Sr  Sr57  1  0.16201704  0.29911008  0.86520060  1
  Sr  Sr58  1  0.16617307  0.66774975  0.33926609  1
  Sr  Sr59  1  0.16823796  0.66685919  0.88098785  1
  Sr  Sr60  1  0.51160544  0.01411835  0.33032384  1
  Sr  Sr61  1  0.50050111  -0.01202663  0.88525790  1
  Sr  Sr62  1  0.50283551  0.30365196  0.41762720  1
  Sr  Sr63  1  0.49875782  0.34136025  0.87030794  1
  Sr  Sr64  1  0.49020803  0.66779673  0.38355270  1
  Sr  Sr65  1  0.54381945  0.65489287  0.82584573  1
  Sr  Sr66  1  0.82604772  -0.00741652  0.40761378  1
  Sr  Sr67  1  0.84950298  -0.01418110  0.85502194  1
  Sr  Sr68  1  0.81985429  0.33131142  0.37262522  1
  Sr  Sr69  1  0.84694496  0.32632541  0.85532781  1
  Sr  Sr70  1  0.84783134  0.66978298  0.36931422  1
  Sr  Sr71  1  0.83343993  0.64556015  0.92116342  1
  Ta  Ta72  1  0.22831863  0.16673164  0.00294161  1
  Ta  Ta73  1  0.09174476  0.16372160  0.49749413  1
  Ta  Ta74  1  0.16169412  0.44448284  0.00686988  1
  Ta  Ta75  1  0.17275703  0.53226196  0.49943187  1
  Ta  Ta76  1  0.12636651  0.82832894  -0.00411857  1
  Ta  Ta77  1  0.15807014  0.79407337  0.49943267  1
  Ta  Ta78  1  0.43374425  0.17259801  0.00064851  1
  Ta  Ta79  1  0.50623316  0.12075521  0.50284036  1
  Ta  Ta80  1  0.50446681  0.53608630  -0.00345979  1
  Ta  Ta81  1  0.50414733  0.48610507  0.49545504  1
  Ta  Ta82  1  0.50247911  0.78662862  -0.01534200  1
  Ta  Ta83  1  0.50053641  0.87184121  0.51050995  1
  Ta  Ta84  1  0.81151148  0.16274999  -0.00244357  1
  Ta  Ta85  1  0.88704172  0.16906711  0.49312455  1
  Ta  Ta86  1  0.84252123  0.45342802  0.00582295  1
  Ta  Ta87  1  0.79109606  0.50217288  0.50079329  1
  Ta  Ta88  1  0.86774666  0.82907960  -0.00220892  1
  Ta  Ta89  1  0.78155635  0.82191123  0.50516087  1
  Ta  Ta90  1  0.14951252  0.13057707  0.25397763  1
  Ta  Ta91  1  0.16597487  0.11685896  0.74193835  1
  Ta  Ta92  1  0.12882573  0.49835024  0.25040931  1
  Ta  Ta93  1  0.16981143  0.46762236  0.74493534  1
  Ta  Ta94  1  0.20390794  0.83301756  0.24597563  1
  Ta  Ta95  1  0.16560522  0.87432055  0.74387482  1
  Ta  Ta96  1  0.49946557  0.21379915  0.24760247  1
  Ta  Ta97  1  0.54000589  0.16862788  0.74356923  1
  Ta  Ta98  1  0.50050414  0.45371988  0.24584988  1
  Ta  Ta99  1  0.46178433  0.50164748  0.75322586  1
  Ta  Ta100  1  0.46211423  0.83110505  0.24099501  1
  Ta  Ta101  1  0.47110168  0.81473429  0.76101359  1
  Ta  Ta102  1  0.84170228  0.11932278  0.25365327  1
  Ta  Ta103  1  0.78546416  0.16491052  0.75451261  1
  Ta  Ta104  1  0.87072850  0.50296395  0.24545812  1
  Ta  Ta105  1  0.84080266  0.52324388  0.74650412  1
  Ta  Ta106  1  0.80506536  0.83976351  0.25019413  1
  Ta  Ta107  1  0.82932792  0.79076797  0.74889892  1
  Ta  Ta108  1  -0.00384578  0.02119911  0.25135916  1
  Ta  Ta109  1  0.04284757  0.00143894  0.75087762  1
  Ta  Ta110  1  -0.00342259  0.39775540  0.23406357  1
  Ta  Ta111  1  0.01463905  0.35681307  0.75176936  1
  Ta  Ta112  1  -0.00078819  0.61481272  0.25289295  1
  Ta  Ta113  1  -0.04389068  0.66221352  0.74884084  1
  Ta  Ta114  1  0.33192588  -0.03429395  0.24709412  1
  Ta  Ta115  1  0.30208454  0.00063528  0.74447526  1
  Ta  Ta116  1  0.37661632  0.33572233  0.25562957  1
  Ta  Ta117  1  0.32941239  0.37248423  0.74110030  1
  Ta  Ta118  1  0.33886927  0.71487971  0.24344405  1
  Ta  Ta119  1  0.35874488  0.66786238  0.75892557  1
  Ta  Ta120  1  0.70435465  -0.00371529  0.25119081  1
  Ta  Ta121  1  0.66627554  0.05261235  0.74999040  1
  Ta  Ta122  1  0.62739682  0.33671674  0.25188634  1
  Ta  Ta123  1  0.66912787  0.28787398  0.75872248  1
  Ta  Ta124  1  0.67925876  0.69709467  0.24943664  1
  Ta  Ta125  1  0.72905984  0.66331829  0.75381003  1
  Ta  Ta126  1  0.00269712  -0.05403174  -0.00413758  1
  Ta  Ta127  1  -0.00607263  0.03452514  0.50505691  1
  Ta  Ta128  1  -0.00255260  0.35589886  0.01723961  1
  Ta  Ta129  1  -0.00590707  0.30228751  0.49804964  1
  Ta  Ta130  1  -0.00060837  0.72135544  0.00035889  1
  Ta  Ta131  1  0.04755294  0.66708819  0.50710508  1
  Ta  Ta132  1  0.33805413  0.03893694  0.00116053  1
  Ta  Ta133  1  0.38272783  0.00564972  0.50073500  1
  Ta  Ta134  1  0.31823979  0.30966469  0.00819584  1
  Ta  Ta135  1  0.34537411  0.37619780  0.49955098  1
  Ta  Ta136  1  0.38512636  0.67144155  -0.01639682  1
  Ta  Ta137  1  0.29159147  0.67103653  0.50614685  1
  Ta  Ta138  1  0.69849960  0.02040366  -0.00090351  1
  Ta  Ta139  1  0.63564991  -0.00721019  0.50450519  1
  Ta  Ta140  1  0.70968542  0.32884491  0.00577445  1
  Ta  Ta141  1  0.66184914  0.37788732  0.49775940  1
  Ta  Ta142  1  0.63723638  0.66560151  -0.00395639  1
  Ta  Ta143  1  0.68255235  0.66955652  0.50467971  1
  N  N144  1  0.67052293  0.32957928  0.12549958  1
  N  N145  1  0.33613468  0.33037555  0.12981107  1
  N  N146  1  0.68784093  0.66117986  0.88242203  1
  N  N147  1  -0.00125377  0.32056620  0.13645960  1
  N  N148  1  0.49658596  0.49798120  0.87225162  1
  N  N149  1  0.33774860  0.00586776  0.62336269  1
  N  N150  1  0.16196553  0.49502484  0.62415586  1
  N  N151  1  0.16642727  0.82572208  0.12750989  1
  N  N152  1  0.00670021  -0.00747982  0.87799308  1
  N  N153  1  0.32069418  0.67029910  0.88003902  1
  N  N154  1  0.52312344  0.83466164  0.86912532  1
  N  N155  1  0.66624389  0.01294300  0.62777947  1
  N  N156  1  0.66594036  0.00294613  0.37148783  1
  N  N157  1  0.16016720  0.83864279  0.62486340  1
  N  N158  1  0.50127166  0.49482754  0.12454098  1
  N  N159  1  0.16068378  0.83137131  0.87209288  1
  N  N160  1  0.82092342  0.83147054  0.62020228  1
  N  N161  1  0.50806593  0.16643123  0.62078488  1
  N  N162  1  0.16001802  0.50053248  0.37255080  1
  N  N163  1  0.16149808  0.82675574  0.37257362  1
  N  N164  1  0.83326293  0.82980749  0.13117834  1
  N  N165  1  0.32471944  0.67608192  0.62618335  1
  N  N166  1  0.82660470  0.50234998  0.62261975  1
  N  N167  1  0.49381192  0.83754475  0.62998638  1
  N  N168  1  0.67204357  0.00523282  0.12050046  1
  N  N169  1  0.66875140  0.32373031  0.87881206  1
  N  N170  1  0.33865121  0.00028440  0.12619646  1
  N  N171  1  0.66254170  0.33818080  0.38054456  1
  N  N172  1  0.33632107  0.33311508  0.62281018  1
  N  N173  1  0.83704699  0.82376379  0.87465708  1
  N  N174  1  0.84504421  0.16205781  0.37262635  1
  N  N175  1  0.00689089  0.66791063  0.63519533  1
  N  N176  1  0.33457716  0.33922989  0.38129375  1
  O  O177  1  0.48248836  0.84056649  0.37204333  1
  O  O178  1  0.48672170  0.82741706  0.11521407  1
  O  O179  1  0.66375782  0.67712058  0.37361231  1
  O  O180  1  0.19112964  0.15352050  0.86678363  1
  O  O181  1  0.47976491  0.17853309  0.12319151  1
  O  O182  1  0.84019306  0.16579771  0.87101783  1
  O  O183  1  0.33662890  0.00312369  0.87042561  1
  O  O184  1  0.16501796  0.45874035  0.88328506  1
  O  O185  1  0.00583035  0.64540456  0.37903402  1
  O  O186  1  0.65742854  0.00753458  0.87897540  1
  O  O187  1  0.34373108  0.68954729  0.11365410  1
  O  O188  1  0.14263386  0.14828339  0.37868366  1
  O  O189  1  0.66704569  0.33165003  0.62173392  1
  O  O190  1  0.83433151  0.51384975  0.11695606  1
  O  O191  1  0.67369689  0.68442062  0.12314752  1
  O  O192  1  0.33045914  0.68796297  0.37241195  1
  O  O193  1  -0.00362718  0.00284107  0.37681326  1
  O  O194  1  0.50455000  0.50647894  0.37068968  1
  O  O195  1  -0.00292351  0.35010542  0.37481196  1
  O  O196  1  0.00331102  -0.01037222  0.12699431  1
  O  O197  1  0.50874716  0.16220128  0.36798552  1
  O  O198  1  -0.00961870  0.01608764  0.63254481  1
  O  O199  1  0.17960634  0.47215902  0.12954454  1
  O  O200  1  0.83131123  0.50444450  0.37714248  1
  O  O201  1  0.83341908  0.83047050  0.38607898  1
  O  O202  1  0.32916912  0.33491846  0.86524664  1
  O  O203  1  0.00008023  0.33556614  0.62606983  1
  O  O204  1  0.00490243  0.35274712  0.87700805  1
  O  O205  1  0.68204511  0.65885135  0.62921864  1
  O  O206  1  -0.00432160  0.67496601  0.13604774  1
  O  O207  1  0.18043006  0.15111671  0.13000328  1
  O  O208  1  0.13500356  0.16101315  0.62474594  1
  O  O209  1  -0.00956312  0.67370111  0.87830634  1
  O  O210  1  0.82978730  0.15621467  0.12419395  1
  O  O211  1  0.49635641  0.50212775  0.62236312  1
  O  O212  1  0.35188216  -0.00541294  0.37217113  1
  O  O213  1  0.83499931  0.16944297  0.61836185  1
  O  O214  1  0.84331019  0.48539436  0.87925688  1
  O  O215  1  0.48215883  0.17608625  0.87616296  1
