# generated using pymatgen
data_Sr24Ta24N11O13
_symmetry_space_group_name_H-M   'P 1'
_cell_length_a   16.74775446
_cell_length_b   16.73109810
_cell_length_c   15.74305445
_cell_angle_alpha   90.27661209
_cell_angle_beta   90.09777864
_cell_angle_gamma   89.72693791
_symmetry_Int_Tables_number   1
_chemical_formula_structural   Sr24Ta24N11O13
_chemical_formula_sum   'Sr72 Ta72 N33 O39'
_cell_volume   4411.22712762
_cell_formula_units_Z   3
loop_
 _symmetry_equiv_pos_site_id
 _symmetry_equiv_pos_as_xyz
  1  'x, y, z'
loop_
 _atom_site_type_symbol
 _atom_site_label
 _atom_site_symmetry_multiplicity
 _atom_site_fract_x
 _atom_site_fract_y
 _atom_site_fract_z
 _atom_site_occupancy
  Sr  Sr0  1  0.03366137  0.15874087  0.09900026  1
  Sr  Sr1  1  -0.00626317  0.15919242  0.62980165  1
  Sr  Sr2  1  0.01317910  0.48034824  0.10111806  1
  Sr  Sr3  1  0.01259764  0.51263733  0.62141347  1
  Sr  Sr4  1  -0.00239196  0.83778172  0.12526997  1
  Sr  Sr5  1  0.01338621  0.83354214  0.66379549  1
  Sr  Sr6  1  0.34039107  0.16535806  0.15730343  1
  Sr  Sr7  1  0.35124409  0.18614147  0.63424972  1
  Sr  Sr8  1  0.34495546  0.49005567  0.11056377  1
  Sr  Sr9  1  0.33895312  0.52483480  0.66348873  1
  Sr  Sr10  1  0.33872898  0.83608238  0.13485881  1
  Sr  Sr11  1  0.31600940  0.83582344  0.57596250  1
  Sr  Sr12  1  0.67150657  0.16322454  0.13082313  1
  Sr  Sr13  1  0.67175030  0.18240715  0.59452596  1
  Sr  Sr14  1  0.69028367  0.51113207  0.16914993  1
  Sr  Sr15  1  0.66486501  0.49509780  0.62033921  1
  Sr  Sr16  1  0.66778119  0.81849640  0.07763768  1
  Sr  Sr17  1  0.64998325  0.83980623  0.63944763  1
  Sr  Sr18  1  0.15953957  -0.00754473  0.08548690  1
  Sr  Sr19  1  0.14871854  0.00750450  0.63809786  1
  Sr  Sr20  1  0.17957660  0.32857614  0.14006430  1
  Sr  Sr21  1  0.13206981  0.34041648  0.57192900  1
  Sr  Sr22  1  0.15781594  0.69777794  0.15841846  1
  Sr  Sr23  1  0.16685884  0.66503100  0.61577231  1
  Sr  Sr24  1  0.48490187  0.01840060  0.16936290  1
  Sr  Sr25  1  0.48532931  -0.01926921  0.62272377  1
  Sr  Sr26  1  0.50751854  0.32523134  0.08505390  1
  Sr  Sr27  1  0.49901955  0.33381550  0.62550742  1
  Sr  Sr28  1  0.49173909  0.66921301  0.11393802  1
  Sr  Sr29  1  0.50928655  0.65859679  0.66817951  1
  Sr  Sr30  1  0.81741391  0.00349061  0.13769069  1
  Sr  Sr31  1  0.80773684  0.00102833  0.59635952  1
  Sr  Sr32  1  0.82388325  0.32534308  0.12771734  1
  Sr  Sr33  1  0.83921168  0.33527539  0.66547313  1
  Sr  Sr34  1  0.83966771  0.66527542  0.13023749  1
  Sr  Sr35  1  0.81582338  0.65778317  0.58271113  1
  Sr  Sr36  1  0.01944510  0.15766801  0.40656752  1
  Sr  Sr37  1  0.02054061  0.16132512  0.86170309  1
  Sr  Sr38  1  0.02843347  0.48784114  0.40175211  1
  Sr  Sr39  1  -0.00061359  0.49815439  0.87566533  1
  Sr  Sr40  1  -0.01332710  0.82765916  0.33322793  1
  Sr  Sr41  1  0.00324800  0.83318083  0.87157318  1
  Sr  Sr42  1  0.34551473  0.18005413  0.37031345  1
  Sr  Sr43  1  0.33797338  0.14782610  0.83818315  1
  Sr  Sr44  1  0.34375150  0.49888677  0.35193260  1
  Sr  Sr45  1  0.34327036  0.50767573  0.88647630  1
  Sr  Sr46  1  0.32500776  0.82820529  0.36644415  1
  Sr  Sr47  1  0.32650272  0.84227413  0.91486348  1
  Sr  Sr48  1  0.68341387  0.16429016  0.35767715  1
  Sr  Sr49  1  0.66923603  0.18124173  0.91531378  1
  Sr  Sr50  1  0.66804743  0.50441761  0.38003500  1
  Sr  Sr51  1  0.67776256  0.49370170  0.84220027  1
  Sr  Sr52  1  0.67857500  0.83391669  0.42060309  1
  Sr  Sr53  1  0.64497611  0.82696212  0.86382163  1
  Sr  Sr54  1  0.15613709  0.00243098  0.40900657  1
  Sr  Sr55  1  0.15762825  -0.00852521  0.87044549  1
  Sr  Sr56  1  0.18556991  0.33019990  0.35618889  1
  Sr  Sr57  1  0.15741195  0.35558487  0.92806831  1
  Sr  Sr58  1  0.16886744  0.67977204  0.38586716  1
  Sr  Sr59  1  0.14960031  0.65384002  0.82471060  1
  Sr  Sr60  1  0.47568914  -0.02904640  0.37583036  1
  Sr  Sr61  1  0.48822519  0.00170756  0.84405986  1
  Sr  Sr62  1  0.52024914  0.33409177  0.42204311  1
  Sr  Sr63  1  0.49387784  0.32109942  0.87651026  1
  Sr  Sr64  1  0.49665902  0.64667643  0.33735211  1
  Sr  Sr65  1  0.49172211  0.67595075  0.88890343  1
  Sr  Sr66  1  0.83366597  0.00578704  0.36852695  1
  Sr  Sr67  1  0.79234324  -0.00803152  0.88698358  1
  Sr  Sr68  1  0.82231576  0.33110648  0.33156531  1
  Sr  Sr69  1  0.82905548  0.32686755  0.86969084  1
  Sr  Sr70  1  0.82512220  0.65794564  0.36990083  1
  Sr  Sr71  1  0.84125043  0.66988695  0.91532564  1
  Ta  Ta72  1  0.21606881  0.16997755  -0.00054092  1
  Ta  Ta73  1  0.20368288  0.17191514  0.50606157  1
  Ta  Ta74  1  0.16750965  0.55695146  -0.00237202  1
  Ta  Ta75  1  0.21885379  0.50263455  0.50597398  1
  Ta  Ta76  1  0.15645217  0.79239812  -0.01123938  1
  Ta  Ta77  1  0.11861811  0.83551823  0.49866095  1
  Ta  Ta78  1  0.47782787  0.14121636  -0.00422431  1
  Ta  Ta79  1  0.50197710  0.13787853  0.49618578  1
  Ta  Ta80  1  0.55178152  0.50140024  0.00414433  1
  Ta  Ta81  1  0.48317775  0.52519708  0.50752356  1
  Ta  Ta82  1  0.49435591  0.88137724  0.00166016  1
  Ta  Ta83  1  0.49580217  0.78406913  0.50367777  1
  Ta  Ta84  1  0.86205851  0.16064360  -0.00096851  1
  Ta  Ta85  1  0.84054772  0.19658113  0.49423594  1
  Ta  Ta86  1  0.81568175  0.48916757  0.00524798  1
  Ta  Ta87  1  0.84033130  0.46562667  0.49635617  1
  Ta  Ta88  1  0.84790225  0.84773332  0.00157055  1
  Ta  Ta89  1  0.87846321  0.82798769  0.50095776  1
  Ta  Ta90  1  0.16178516  0.13636054  0.24717257  1
  Ta  Ta91  1  0.17708640  0.24792147  0.75272807  1
  Ta  Ta92  1  0.16513155  0.52764993  0.24840733  1
  Ta  Ta93  1  0.17268557  0.44594517  0.74459845  1
  Ta  Ta94  1  0.16233987  0.87822617  0.25374361  1
  Ta  Ta95  1  0.20185205  0.83205962  0.74551182  1
  Ta  Ta96  1  0.51022253  0.21984914  0.25187553  1
  Ta  Ta97  1  0.54132836  0.16854105  0.75056803  1
  Ta  Ta98  1  0.50843505  0.44911119  0.24866843  1
  Ta  Ta99  1  0.50673785  0.47643961  0.75545641  1
  Ta  Ta100  1  0.54143284  0.82386959  0.24787072  1
  Ta  Ta101  1  0.44893853  0.83030786  0.74997077  1
  Ta  Ta102  1  0.89521432  0.16548046  0.25164835  1
  Ta  Ta103  1  0.81065894  0.14547546  0.74448691  1
  Ta  Ta104  1  0.88881759  0.49761330  0.24626600  1
  Ta  Ta105  1  0.84066866  0.53497901  0.74833378  1
  Ta  Ta106  1  0.78503107  0.83084708  0.25118543  1
  Ta  Ta107  1  0.83060278  0.80607560  0.74667490  1
  Ta  Ta108  1  0.01973955  0.01615957  0.25118703  1
  Ta  Ta109  1  -0.06003717  -0.00262197  0.74443375  1
  Ta  Ta110  1  -0.00059549  0.31365216  0.24559928  1
  Ta  Ta111  1  0.03099165  0.33681908  0.75378867  1
  Ta  Ta112  1  0.00466158  0.62662716  0.25357697  1
  Ta  Ta113  1  -0.05082816  0.66552856  0.74622990  1
  Ta  Ta114  1  0.28540596  0.00097689  0.25432740  1
  Ta  Ta115  1  0.32238539  -0.05093843  0.74584385  1
  Ta  Ta116  1  0.38604168  0.33644870  0.25099933  1
  Ta  Ta117  1  0.31323891  0.34884672  0.75734023  1
  Ta  Ta118  1  0.31720405  0.65395079  0.23900185  1
  Ta  Ta119  1  0.32857123  0.71590577  0.75053485  1
  Ta  Ta120  1  0.65702848  -0.05230774  0.24519160  1
  Ta  Ta121  1  0.65957889  0.04771028  0.74894816  1
  Ta  Ta122  1  0.63297431  0.33539732  0.24929679  1
  Ta  Ta123  1  0.65505218  0.31005489  0.75530227  1
  Ta  Ta124  1  0.66625680  0.70757652  0.24739583  1
  Ta  Ta125  1  0.71271608  0.66618401  0.75722708  1
  Ta  Ta126  1  -0.03891386  -0.00235212  0.00047750  1
  Ta  Ta127  1  -0.01585810  -0.04010842  0.49991684  1
  Ta  Ta128  1  -0.02770819  0.31285015  -0.00062163  1
  Ta  Ta129  1  -0.05779469  0.32948121  0.49683834  1
  Ta  Ta130  1  0.02923760  0.66749659  -0.00615654  1
  Ta  Ta131  1  -0.00605239  0.70240266  0.50289282  1
  Ta  Ta132  1  0.34979522  0.02308199  0.00870640  1
  Ta  Ta133  1  0.32597306  0.03559943  0.50019138  1
  Ta  Ta134  1  0.33516216  0.28903456  0.00397338  1
  Ta  Ta135  1  0.32836769  0.36406183  0.50142110  1
  Ta  Ta136  1  0.28884990  0.66969413  -0.00615444  1
  Ta  Ta137  1  0.35941437  0.64953209  0.50497511  1
  Ta  Ta138  1  0.61262945  0.00293491  0.00829279  1
  Ta  Ta139  1  0.62877241  0.02060798  0.49144282  1
  Ta  Ta140  1  0.67464207  0.37725710  0.00408681  1
  Ta  Ta141  1  0.72490905  0.34060965  0.49464295  1
  Ta  Ta142  1  0.66761585  0.62405930  0.00108064  1
  Ta  Ta143  1  0.62155035  0.66164779  0.49822855  1
  N  N144  1  0.66088439  0.66721175  0.38113770  1
  N  N145  1  0.32884841  0.67267202  0.87478489  1
  N  N146  1  0.50239002  0.49410489  0.63255498  1
  N  N147  1  0.32764608  0.00396673  0.12923185  1
  N  N148  1  -0.00434916  0.66709820  0.87413381  1
  N  N149  1  0.34896502  0.34184178  0.38243014  1
  N  N150  1  -0.00903660  0.66945746  0.62633115  1
  N  N151  1  0.50087749  0.16320735  0.87466154  1
  N  N152  1  0.01098328  0.32408130  0.12327481  1
  N  N153  1  0.83034578  0.16773287  0.62482872  1
  N  N154  1  -0.00848525  -0.00412186  0.11915140  1
  N  N155  1  0.00113096  0.33300545  0.87651799  1
  N  N156  1  0.48687253  0.84225593  0.88368363  1
  N  N157  1  0.48909549  0.82162177  0.62009145  1
  N  N158  1  0.15453412  0.84080662  0.36987205  1
  N  N159  1  0.66933715  0.33603000  0.12145237  1
  N  N160  1  0.18351454  0.16246196  0.12641698  1
  N  N161  1  0.67565605  0.33499873  0.38104650  1
  N  N162  1  0.33436807  0.67057449  0.11923632  1
  N  N163  1  0.16016527  0.83091138  0.87286041  1
  N  N164  1  0.34536058  0.32784485  0.12068155  1
  N  N165  1  -0.00724337  -0.00659329  0.37278138  1
  N  N166  1  0.84944915  0.16366110  0.36526438  1
  N  N167  1  0.17756195  0.49236576  0.62506370  1
  N  N168  1  0.67591807  0.66410775  0.87488390  1
  N  N169  1  0.33497782  0.67555042  0.62260930  1
  N  N170  1  0.32341146  0.00330078  0.37999192  1
  N  N171  1  -0.02182074  -0.00130697  0.62753285  1
  N  N172  1  0.67064164  0.66548775  0.12696867  1
  N  N173  1  0.16261886  0.83722710  0.61508012  1
  N  N174  1  0.84628955  0.49703489  0.12612440  1
  N  N175  1  0.65099964  -0.00464219  0.12691458  1
  N  N176  1  0.66707966  0.33274127  0.87558889  1
  O  O177  1  0.50107762  0.15608410  0.62580855  1
  O  O178  1  0.18308601  0.51481451  0.37425577  1
  O  O179  1  0.17795422  0.20212397  0.87363991  1
  O  O180  1  0.50524293  0.17543120  0.37678554  1
  O  O181  1  0.65191676  0.02274440  0.61825758  1
  O  O182  1  0.64020546  -0.00783032  0.37020657  1
  O  O183  1  0.50248502  0.81650542  0.37125324  1
  O  O184  1  0.50875334  0.48808035  0.12533678  1
  O  O185  1  0.85257169  0.15978432  0.12792703  1
  O  O186  1  0.16441665  0.50220345  0.87866706  1
  O  O187  1  0.33284295  0.34534804  0.88582362  1
  O  O188  1  -0.00737520  0.33223584  0.38123975  1
  O  O189  1  0.16730668  0.51954699  0.12204546  1
  O  O190  1  0.85235269  0.48828550  0.36772486  1
  O  O191  1  0.49853343  0.83055371  0.12546375  1
  O  O192  1  0.18110917  0.17220846  0.37899737  1
  O  O193  1  0.50499946  0.49349542  0.88439452  1
  O  O194  1  0.83026930  0.82575743  0.37382002  1
  O  O195  1  0.83948433  0.51069593  0.87454110  1
  O  O196  1  0.19176111  0.20160486  0.62773672  1
  O  O197  1  0.15335380  0.84138400  0.11619780  1
  O  O198  1  -0.02267162  -0.00353731  0.86445571  1
  O  O199  1  0.83571750  0.82870708  0.87837443  1
  O  O200  1  0.50173986  0.48954829  0.38238278  1
  O  O201  1  0.83871488  0.50289285  0.62442018  1
  O  O202  1  0.32605405  -0.00468091  0.86839666  1
  O  O203  1  0.00623849  0.65223097  0.12870613  1
  O  O204  1  0.83353767  0.83817817  0.12889778  1
  O  O205  1  0.00090997  0.65297360  0.37983268  1
  O  O206  1  0.50533914  0.17341859  0.13072943  1
  O  O207  1  0.34197278  0.34337578  0.63389225  1
  O  O208  1  0.83042958  0.81704588  0.62012414  1
  O  O209  1  -0.01235748  0.33055564  0.62565623  1
  O  O210  1  0.33831874  0.66263544  0.36674215  1
  O  O211  1  0.64594767  0.02474184  0.87639705  1
  O  O212  1  0.83409535  0.16235626  0.87700576  1
  O  O213  1  0.68654586  0.33308689  0.62361999  1
  O  O214  1  0.66827304  0.65905386  0.62405544  1
  O  O215  1  0.32493908  -0.00849870  0.62166024  1
