# generated using pymatgen
data_Sr24Ta24N11O13
_symmetry_space_group_name_H-M   'P 1'
_cell_length_a   16.76626527
_cell_length_b   16.78480602
_cell_length_c   15.79259267
_cell_angle_alpha   90.00818977
_cell_angle_beta   90.01148707
_cell_angle_gamma   90.15874467
_symmetry_Int_Tables_number   1
_chemical_formula_structural   Sr24Ta24N11O13
_chemical_formula_sum   'Sr72 Ta72 N33 O39'
_cell_volume   4444.31070865
_cell_formula_units_Z   3
loop_
 _symmetry_equiv_pos_site_id
 _symmetry_equiv_pos_as_xyz
  1  'x, y, z'
loop_
 _atom_site_type_symbol
 _atom_site_label
 _atom_site_symmetry_multiplicity
 _atom_site_fract_x
 _atom_site_fract_y
 _atom_site_fract_z
 _atom_site_occupancy
  Sr  Sr0  1  0.01861939  0.18029820  0.16451074  1
  Sr  Sr1  1  -0.00509492  0.16815556  0.62219469  1
  Sr  Sr2  1  -0.01010762  0.49372429  0.09435800  1
  Sr  Sr3  1  0.00657666  0.49758506  0.59889060  1
  Sr  Sr4  1  0.01178873  0.84252952  0.12267568  1
  Sr  Sr5  1  0.00711832  0.82120732  0.63846054  1
  Sr  Sr6  1  0.33975510  0.15377446  0.10813479  1
  Sr  Sr7  1  0.34457921  0.16947383  0.60561509  1
  Sr  Sr8  1  0.34504221  0.49572541  0.11406885  1
  Sr  Sr9  1  0.32035101  0.49016298  0.67117187  1
  Sr  Sr10  1  0.34255772  0.83363391  0.12138333  1
  Sr  Sr11  1  0.33986382  0.82378289  0.60112711  1
  Sr  Sr12  1  0.67353487  0.16322130  0.11162232  1
  Sr  Sr13  1  0.66925714  0.15068837  0.64614995  1
  Sr  Sr14  1  0.68304550  0.49624877  0.16848640  1
  Sr  Sr15  1  0.65477915  0.49381679  0.61124620  1
  Sr  Sr16  1  0.67140736  0.82331922  0.11693671  1
  Sr  Sr17  1  0.67668951  0.83248046  0.62984502  1
  Sr  Sr18  1  0.15993364  0.00047532  0.11018549  1
  Sr  Sr19  1  0.13476217  0.00439000  0.66312308  1
  Sr  Sr20  1  0.16169394  0.34164403  0.13469812  1
  Sr  Sr21  1  0.15480984  0.32441390  0.61660408  1
  Sr  Sr22  1  0.18225790  0.66737415  0.16801684  1
  Sr  Sr23  1  0.15985162  0.67390748  0.61313261  1
  Sr  Sr24  1  0.51007549  -0.00999533  0.17289881  1
  Sr  Sr25  1  0.47617530  0.00863136  0.62139068  1
  Sr  Sr26  1  0.48970642  0.33924104  0.11206516  1
  Sr  Sr27  1  0.48996505  0.34756727  0.61886908  1
  Sr  Sr28  1  0.49726708  0.67723081  0.09489723  1
  Sr  Sr29  1  0.50485795  0.66886734  0.59984147  1
  Sr  Sr30  1  0.82217806  0.00148894  0.09709700  1
  Sr  Sr31  1  0.82985520  0.00030507  0.59581133  1
  Sr  Sr32  1  0.83137892  0.32921723  0.12879548  1
  Sr  Sr33  1  0.81603988  0.33203252  0.64870830  1
  Sr  Sr34  1  0.83902430  0.66592962  0.11978705  1
  Sr  Sr35  1  0.82695191  0.68260615  0.66673189  1
  Sr  Sr36  1  -0.00253059  0.16962279  0.37837160  1
  Sr  Sr37  1  0.01805887  0.17892071  0.83511082  1
  Sr  Sr38  1  0.00592729  0.49776677  0.40457143  1
  Sr  Sr39  1  -0.00591447  0.49357317  0.90217852  1
  Sr  Sr40  1  0.00097251  0.82165076  0.36006334  1
  Sr  Sr41  1  0.01133355  0.82882322  0.86919969  1
  Sr  Sr42  1  0.34124416  0.17071029  0.39772855  1
  Sr  Sr43  1  0.34139009  0.15326982  0.89103968  1
  Sr  Sr44  1  0.31352808  0.49193026  0.32560928  1
  Sr  Sr45  1  0.34307043  0.49527152  0.88453238  1
  Sr  Sr46  1  0.34232199  0.83156471  0.38174529  1
  Sr  Sr47  1  0.34379573  0.83321232  0.88606638  1
  Sr  Sr48  1  0.66854205  0.14879166  0.36093759  1
  Sr  Sr49  1  0.67846085  0.16558564  0.88711275  1
  Sr  Sr50  1  0.65910700  0.50018735  0.38551158  1
  Sr  Sr51  1  0.68243086  0.49779216  0.83178623  1
  Sr  Sr52  1  0.67515592  0.83253951  0.37163693  1
  Sr  Sr53  1  0.67274354  0.82522349  0.87910820  1
  Sr  Sr54  1  0.13577563  0.00564724  0.33642127  1
  Sr  Sr55  1  0.16121764  0.00013229  0.88916100  1
  Sr  Sr56  1  0.16033480  0.32066824  0.38247801  1
  Sr  Sr57  1  0.16168452  0.33939754  0.86750511  1
  Sr  Sr58  1  0.15930186  0.67670142  0.38787318  1
  Sr  Sr59  1  0.17956019  0.66801874  0.83481398  1
  Sr  Sr60  1  0.47600775  0.00910633  0.37994399  1
  Sr  Sr61  1  0.51334941  -0.00455855  0.82489599  1
  Sr  Sr62  1  0.49261805  0.35193685  0.37555523  1
  Sr  Sr63  1  0.48711575  0.34544835  0.89006033  1
  Sr  Sr64  1  0.51102930  0.67031420  0.40374972  1
  Sr  Sr65  1  0.49426678  0.67409519  0.89984355  1
  Sr  Sr66  1  0.83111052  0.00027039  0.40225756  1
  Sr  Sr67  1  0.82375555  -0.00054431  0.90503374  1
  Sr  Sr68  1  0.81599369  0.34469570  0.36402941  1
  Sr  Sr69  1  0.83095873  0.32775470  0.87279424  1
  Sr  Sr70  1  0.82731548  0.68309556  0.33486104  1
  Sr  Sr71  1  0.84962743  0.66558266  0.88404395  1
  Ta  Ta72  1  0.14992618  0.18222203  0.00249317  1
  Ta  Ta73  1  0.16113501  0.12507912  0.49581982  1
  Ta  Ta74  1  0.17294996  0.53502719  0.00018928  1
  Ta  Ta75  1  0.20620371  0.49813719  0.50356550  1
  Ta  Ta76  1  0.17531100  0.78883172  0.00201691  1
  Ta  Ta77  1  0.15767857  0.87736174  0.50120939  1
  Ta  Ta78  1  0.50711794  0.11425882  -0.00125261  1
  Ta  Ta79  1  0.53437708  0.17382246  0.50570621  1
  Ta  Ta80  1  0.55272513  0.50419758  -0.00412674  1
  Ta  Ta81  1  0.44628234  0.50261620  0.50344130  1
  Ta  Ta82  1  0.50740909  0.87524841  -0.00537060  1
  Ta  Ta83  1  0.52549853  0.85668101  0.50219852  1
  Ta  Ta84  1  0.88045919  0.17314918  -0.00414535  1
  Ta  Ta85  1  0.81889944  0.19208644  0.50633459  1
  Ta  Ta86  1  0.79650197  0.49407242  -0.00008007  1
  Ta  Ta87  1  0.82955507  0.54353400  0.50170296  1
  Ta  Ta88  1  0.84640869  0.82650287  -0.00411158  1
  Ta  Ta89  1  0.84062280  0.80669259  0.50166732  1
  Ta  Ta90  1  0.20527609  0.16529499  0.24978945  1
  Ta  Ta91  1  0.20691938  0.16541996  0.75433605  1
  Ta  Ta92  1  0.11932298  0.49782528  0.25191101  1
  Ta  Ta93  1  0.13051622  0.49679310  0.74628531  1
  Ta  Ta94  1  0.18985694  0.84857271  0.24688391  1
  Ta  Ta95  1  0.20562194  0.84673540  0.74390314  1
  Ta  Ta96  1  0.49786576  0.18742429  0.24834631  1
  Ta  Ta97  1  0.49752426  0.19484123  0.75164885  1
  Ta  Ta98  1  0.50120182  0.53968150  0.24764335  1
  Ta  Ta99  1  0.50194217  0.53533287  0.75104432  1
  Ta  Ta100  1  0.50479749  0.79630129  0.25103852  1
  Ta  Ta101  1  0.49936428  0.80102939  0.75096378  1
  Ta  Ta102  1  0.83249055  0.13734138  0.24737735  1
  Ta  Ta103  1  0.83760117  0.13002819  0.75434341  1
  Ta  Ta104  1  0.87074384  0.50410435  0.24783954  1
  Ta  Ta105  1  0.86910311  0.50210768  0.75259079  1
  Ta  Ta106  1  0.83412772  0.87288001  0.25174874  1
  Ta  Ta107  1  0.84031406  0.87195368  0.75016852  1
  Ta  Ta108  1  -0.04556617  0.00523329  0.24084087  1
  Ta  Ta109  1  -0.04713680  -0.00025658  0.75629382  1
  Ta  Ta110  1  -0.00535352  0.36936854  0.24820703  1
  Ta  Ta111  1  -0.00460504  0.36779051  0.75075826  1
  Ta  Ta112  1  0.00320882  0.62896520  0.25232036  1
  Ta  Ta113  1  0.00360758  0.62917728  0.74966048  1
  Ta  Ta114  1  0.31043026  0.00304211  0.25357869  1
  Ta  Ta115  1  0.31240837  -0.00498655  0.74909383  1
  Ta  Ta116  1  0.33586136  0.29995130  0.24814394  1
  Ta  Ta117  1  0.33353967  0.30060539  0.75518393  1
  Ta  Ta118  1  0.37387405  0.67119042  0.24872395  1
  Ta  Ta119  1  0.36405272  0.67709101  0.74709490  1
  Ta  Ta120  1  0.70061241  -0.00527667  0.24452571  1
  Ta  Ta121  1  0.70418656  -0.00688986  0.75643804  1
  Ta  Ta122  1  0.64107299  0.30920872  0.24645321  1
  Ta  Ta123  1  0.63327193  0.31584244  0.75464145  1
  Ta  Ta124  1  0.63365516  0.66901635  0.24899776  1
  Ta  Ta125  1  0.63083071  0.66894736  0.74930476  1
  Ta  Ta126  1  -0.00242002  0.05299256  0.00169323  1
  Ta  Ta127  1  0.02238851  -0.01164705  0.49881942  1
  Ta  Ta128  1  0.00078847  0.29839948  -0.00141884  1
  Ta  Ta129  1  -0.03974074  0.32213184  0.50611283  1
  Ta  Ta130  1  0.04775377  0.67054628  -0.00270007  1
  Ta  Ta131  1  -0.04077214  0.67098109  0.50159358  1
  Ta  Ta132  1  0.39078471  -0.00727339  0.00062358  1
  Ta  Ta133  1  0.27605150  -0.00120560  0.49735507  1
  Ta  Ta134  1  0.30455086  0.32079082  0.00156557  1
  Ta  Ta135  1  0.32645132  0.37367129  0.49369093  1
  Ta  Ta136  1  0.29656603  0.66525601  0.00528039  1
  Ta  Ta137  1  0.32799717  0.61696784  0.49648943  1
  Ta  Ta138  1  0.62654721  -0.00582974  -0.00062885  1
  Ta  Ta139  1  0.63966206  -0.00322507  0.50100029  1
  Ta  Ta140  1  0.66676458  0.37893135  0.00059034  1
  Ta  Ta141  1  0.66250379  0.29401122  0.50208380  1
  Ta  Ta142  1  0.67474242  0.62800479  0.00375532  1
  Ta  Ta143  1  0.70667042  0.67087087  0.49534633  1
  N  N144  1  -0.01285732  0.32998793  0.62558444  1
  N  N145  1  0.66881102  -0.00114271  0.87322688  1
  N  N146  1  0.66549818  -0.00198545  0.12734504  1
  N  N147  1  0.83617594  0.83970172  0.62241234  1
  N  N148  1  -0.00398340  0.33793805  0.12846787  1
  N  N149  1  -0.00150684  0.33455979  0.87727530  1
  N  N150  1  0.50462200  0.84029246  0.86582551  1
  N  N151  1  0.83706827  0.50011891  0.87247285  1
  N  N152  1  0.01537878  0.66288099  0.87603666  1
  N  N153  1  0.33795980  0.66467049  0.12494917  1
  N  N154  1  -0.00433956  0.01385694  0.12409466  1
  N  N155  1  0.17598719  0.16092588  0.87236471  1
  N  N156  1  0.48472547  0.50715121  0.62421248  1
  N  N157  1  0.83625642  0.50065333  0.12799702  1
  N  N158  1  0.82973222  0.16719956  0.62523309  1
  N  N159  1  0.16688512  0.15887257  0.37616722  1
  N  N160  1  0.50155875  0.16998303  0.62590354  1
  N  N161  1  0.32936744  0.34090065  0.37273180  1
  N  N162  1  0.67123283  0.66494352  0.37582155  1
  N  N163  1  -0.00391584  0.66000853  0.37573755  1
  N  N164  1  0.31983221  -0.00048391  0.37590668  1
  N  N165  1  0.17291086  0.16334606  0.12576390  1
  N  N166  1  0.51086418  0.50608929  0.87695573  1
  N  N167  1  0.84273246  0.82781984  0.87465096  1
  N  N168  1  0.84219557  0.16875520  0.87399799  1
  N  N169  1  0.17728191  0.82952452  0.12713101  1
  N  N170  1  -0.00442055  0.66262353  0.62448851  1
  N  N171  1  0.33153411  0.33253470  0.87571000  1
  N  N172  1  0.16556890  0.49775408  0.62533207  1
  N  N173  1  0.33336400  0.33249081  0.12407112  1
  N  N174  1  0.66895714  0.65776567  0.12434097  1
  N  N175  1  0.83635087  0.84299606  0.37291989  1
  N  N176  1  0.17013796  0.83803721  0.62648559  1
  O  O177  1  0.50245535  0.15024215  0.87028659  1
  O  O178  1  0.66152694  -0.00331642  0.37461361  1
  O  O179  1  0.83487653  0.51791822  0.37627439  1
  O  O180  1  0.50264209  0.17437578  0.37537819  1
  O  O181  1  0.66041976  0.30828422  0.37086802  1
  O  O182  1  0.83311562  0.52171985  0.62471421  1
  O  O183  1  0.51168857  0.83085941  0.38014218  1
  O  O184  1  0.18585803  0.82117970  0.87009686  1
  O  O185  1  -0.01175521  -0.00369368  0.37580132  1
  O  O186  1  0.35202113  -0.00375676  0.12459231  1
  O  O187  1  -0.00212550  0.01292019  0.87601530  1
  O  O188  1  -0.01131423  -0.00577196  0.62242670  1
  O  O189  1  0.16970347  0.83666667  0.37835116  1
  O  O190  1  0.66611874  -0.00521464  0.62510733  1
  O  O191  1  0.50716241  0.51834396  0.12296444  1
  O  O192  1  0.49284963  0.51499499  0.37392122  1
  O  O193  1  -0.02266315  0.34012852  0.37960903  1
  O  O194  1  0.16692976  0.51373475  0.87525437  1
  O  O195  1  0.50720915  0.83281405  0.12704184  1
  O  O196  1  0.64975770  0.33499184  0.87915810  1
  O  O197  1  0.83442251  0.16384743  0.12359747  1
  O  O198  1  0.65250680  0.33314701  0.12333830  1
  O  O199  1  0.50212822  0.15446133  0.12789147  1
  O  O200  1  0.01442376  0.65601203  0.12547618  1
  O  O201  1  0.33344384  0.33686086  0.63088005  1
  O  O202  1  0.16214494  0.49844177  0.37326863  1
  O  O203  1  0.31821527  0.00214682  0.62287171  1
  O  O204  1  0.65447399  0.31890783  0.63078185  1
  O  O205  1  0.34463622  0.66269582  0.62270358  1
  O  O206  1  0.50897825  0.84880723  0.62814809  1
  O  O207  1  0.82745280  0.15876480  0.37338155  1
  O  O208  1  0.33796519  0.67267226  0.87287025  1
  O  O209  1  0.15868579  0.51235593  0.12497779  1
  O  O210  1  0.66001132  0.67161430  0.62337661  1
  O  O211  1  0.83371894  0.83508395  0.12516816  1
  O  O212  1  0.65277915  0.66309868  0.87390409  1
  O  O213  1  0.33423276  0.64992540  0.36925781  1
  O  O214  1  0.17038040  0.15442500  0.62832452  1
  O  O215  1  0.34485564  -0.00639677  0.87175369  1
