# generated using pymatgen
data_Sr24Ta24N11O13
_symmetry_space_group_name_H-M   'P 1'
_cell_length_a   16.71200195
_cell_length_b   16.86688533
_cell_length_c   15.79644801
_cell_angle_alpha   89.88258504
_cell_angle_beta   89.97204184
_cell_angle_gamma   90.04029380
_symmetry_Int_Tables_number   1
_chemical_formula_structural   Sr24Ta24N11O13
_chemical_formula_sum   'Sr72 Ta72 N33 O39'
_cell_volume   4452.68262620
_cell_formula_units_Z   3
loop_
 _symmetry_equiv_pos_site_id
 _symmetry_equiv_pos_as_xyz
  1  'x, y, z'
loop_
 _atom_site_type_symbol
 _atom_site_label
 _atom_site_symmetry_multiplicity
 _atom_site_fract_x
 _atom_site_fract_y
 _atom_site_fract_z
 _atom_site_occupancy
  Sr  Sr0  1  -0.01425279  0.16619043  0.12531014  1
  Sr  Sr1  1  -0.00782607  0.18209353  0.62547371  1
  Sr  Sr2  1  -0.00358481  0.51385108  0.11950874  1
  Sr  Sr3  1  -0.01052954  0.49976724  0.60558093  1
  Sr  Sr4  1  0.01299877  0.83791102  0.16344444  1
  Sr  Sr5  1  0.00468048  0.83801582  0.61359614  1
  Sr  Sr6  1  0.33420376  0.18879160  0.12860088  1
  Sr  Sr7  1  0.31984568  0.18875068  0.64010342  1
  Sr  Sr8  1  0.32319017  0.52897083  0.13050893  1
  Sr  Sr9  1  0.31915272  0.50933735  0.65879696  1
  Sr  Sr10  1  0.33755195  0.84677814  0.11134419  1
  Sr  Sr11  1  0.35180556  0.84140556  0.58796654  1
  Sr  Sr12  1  0.65592345  0.17159929  0.09902024  1
  Sr  Sr13  1  0.66615642  0.16360758  0.62892544  1
  Sr  Sr14  1  0.66314519  0.49094755  0.13604784  1
  Sr  Sr15  1  0.65584378  0.50472245  0.60237905  1
  Sr  Sr16  1  0.67468054  0.83684587  0.11527781  1
  Sr  Sr17  1  0.66031181  0.82824071  0.67015815  1
  Sr  Sr18  1  0.18008969  -0.02764314  0.12701561  1
  Sr  Sr19  1  0.16755147  -0.02416434  0.62611560  1
  Sr  Sr20  1  0.16235229  0.30194732  0.10942884  1
  Sr  Sr21  1  0.16186702  0.33453285  0.61932121  1
  Sr  Sr22  1  0.15902986  0.65822452  0.11567375  1
  Sr  Sr23  1  0.17003950  0.65681278  0.65750795  1
  Sr  Sr24  1  0.49757985  -0.02235681  0.12403491  1
  Sr  Sr25  1  0.51278932  -0.00110148  0.63492248  1
  Sr  Sr26  1  0.49512838  0.32593110  0.12891624  1
  Sr  Sr27  1  0.51329879  0.32933993  0.58093629  1
  Sr  Sr28  1  0.51923829  0.65460633  0.16820317  1
  Sr  Sr29  1  0.50090532  0.66189233  0.61875090  1
  Sr  Sr30  1  0.83218382  0.00325005  0.13329636  1
  Sr  Sr31  1  0.84414591  0.01457816  0.58148789  1
  Sr  Sr32  1  0.83647625  0.34476234  0.15759235  1
  Sr  Sr33  1  0.82309417  0.33366005  0.65253467  1
  Sr  Sr34  1  0.82280316  0.65513475  0.07956139  1
  Sr  Sr35  1  0.84547134  0.68281353  0.62379185  1
  Sr  Sr36  1  -0.01860667  0.18022686  0.35817641  1
  Sr  Sr37  1  -0.00714148  0.16556121  0.88981840  1
  Sr  Sr38  1  -0.00307115  0.50342627  0.38023672  1
  Sr  Sr39  1  -0.00811005  0.51335346  0.90140653  1
  Sr  Sr40  1  -0.00270651  0.83286711  0.38571550  1
  Sr  Sr41  1  0.01624855  0.83047559  0.82570205  1
  Sr  Sr42  1  0.32487596  0.19410935  0.36422404  1
  Sr  Sr43  1  0.33239124  0.18200986  0.86772428  1
  Sr  Sr44  1  0.31829263  0.52630629  0.35518659  1
  Sr  Sr45  1  0.32987387  0.51779656  0.86384306  1
  Sr  Sr46  1  0.34288351  0.84849396  0.38763455  1
  Sr  Sr47  1  0.32916306  0.84082138  0.91027815  1
  Sr  Sr48  1  0.65369311  0.15340902  0.41339575  1
  Sr  Sr49  1  0.66494979  0.17064535  0.86812934  1
  Sr  Sr50  1  0.65718801  0.49309272  0.36941523  1
  Sr  Sr51  1  0.66454922  0.49113939  0.88326643  1
  Sr  Sr52  1  0.66363404  0.84809181  0.32867480  1
  Sr  Sr53  1  0.66946823  0.83886184  0.88369008  1
  Sr  Sr54  1  0.17814012  -0.03503050  0.38464521  1
  Sr  Sr55  1  0.16378337  -0.01651624  0.85646829  1
  Sr  Sr56  1  0.15570947  0.31877614  0.39987943  1
  Sr  Sr57  1  0.16990800  0.32057467  0.86846088  1
  Sr  Sr58  1  0.15373506  0.64685549  0.33992984  1
  Sr  Sr59  1  0.17114666  0.65876894  0.88294155  1
  Sr  Sr60  1  0.49926165  -0.01177348  0.37722088  1
  Sr  Sr61  1  0.50967286  -0.00460357  0.85804097  1
  Sr  Sr62  1  0.49799047  0.32047148  0.37419552  1
  Sr  Sr63  1  0.51522882  0.33122651  0.91982519  1
  Sr  Sr64  1  0.50637367  0.66315452  0.38572487  1
  Sr  Sr65  1  0.51103269  0.65512301  0.83600051  1
  Sr  Sr66  1  0.83623896  -0.00296080  0.36333349  1
  Sr  Sr67  1  0.83799181  0.01911597  0.91571212  1
  Sr  Sr68  1  0.83160675  0.34315035  0.34855275  1
  Sr  Sr69  1  0.82280978  0.33091756  0.84675399  1
  Sr  Sr70  1  0.84367819  0.65626317  0.41764664  1
  Sr  Sr71  1  0.83654742  0.69271013  0.86696620  1
  Ta  Ta72  1  0.17381692  0.12308461  -0.00082636  1
  Ta  Ta73  1  0.16360676  0.13355163  0.49879823  1
  Ta  Ta74  1  0.17860059  0.47173346  -0.00447592  1
  Ta  Ta75  1  0.18040511  0.51668230  0.50677664  1
  Ta  Ta76  1  0.13094452  0.82895553  -0.00951651  1
  Ta  Ta77  1  0.17528133  0.77980949  0.50132482  1
  Ta  Ta78  1  0.48906734  0.13564930  -0.00655539  1
  Ta  Ta79  1  0.46700963  0.14755948  0.50389216  1
  Ta  Ta80  1  0.49004991  0.52457798  0.00064892  1
  Ta  Ta81  1  0.44788799  0.49754314  0.50405938  1
  Ta  Ta82  1  0.50813618  0.79188832  -0.00208797  1
  Ta  Ta83  1  0.54853245  0.83107668  0.50610451  1
  Ta  Ta84  1  0.82539773  0.21044492  0.00921399  1
  Ta  Ta85  1  0.83123450  0.20320414  0.49634516  1
  Ta  Ta86  1  0.82649617  0.46101704  0.00421493  1
  Ta  Ta87  1  0.82520536  0.46721792  0.49758397  1
  Ta  Ta88  1  0.88649713  0.84312544  0.00080522  1
  Ta  Ta89  1  0.78729764  0.83734587  0.49391277  1
  Ta  Ta90  1  0.16013966  0.12652127  0.25227380  1
  Ta  Ta91  1  0.14178265  0.15018201  0.74809344  1
  Ta  Ta92  1  0.15762770  0.45946494  0.24810461  1
  Ta  Ta93  1  0.12494442  0.48872101  0.75269256  1
  Ta  Ta94  1  0.19818442  0.80970243  0.25320267  1
  Ta  Ta95  1  0.21501761  0.82366182  0.74467918  1
  Ta  Ta96  1  0.51344317  0.15011816  0.24925072  1
  Ta  Ta97  1  0.49831496  0.20829185  0.75220826  1
  Ta  Ta98  1  0.47697387  0.47752994  0.25509427  1
  Ta  Ta99  1  0.50884773  0.46839476  0.74239679  1
  Ta  Ta100  1  0.47759799  0.82006082  0.24696590  1
  Ta  Ta101  1  0.46479463  0.83041735  0.75366051  1
  Ta  Ta102  1  0.78844466  0.16740680  0.25384351  1
  Ta  Ta103  1  0.83610209  0.13468855  0.74570172  1
  Ta  Ta104  1  0.83426903  0.53851613  0.25163460  1
  Ta  Ta105  1  0.82907005  0.52260445  0.74427276  1
  Ta  Ta106  1  0.83753737  0.78680712  0.25244859  1
  Ta  Ta107  1  0.83926691  0.88766671  0.74760590  1
  Ta  Ta108  1  0.02853588  0.01549482  0.25281625  1
  Ta  Ta109  1  -0.02332045  0.01593508  0.74702354  1
  Ta  Ta110  1  0.02433407  0.35338817  0.25302387  1
  Ta  Ta111  1  0.00636968  0.35156552  0.74666918  1
  Ta  Ta112  1  -0.03663594  0.66692472  0.25477281  1
  Ta  Ta113  1  -0.00258018  0.63692988  0.74934852  1
  Ta  Ta114  1  0.33582808  0.02496790  0.25071864  1
  Ta  Ta115  1  0.33562017  -0.03009469  0.74786752  1
  Ta  Ta116  1  0.31860051  0.36757103  0.24675317  1
  Ta  Ta117  1  0.39648293  0.34472094  0.75161765  1
  Ta  Ta118  1  0.33927923  0.70353005  0.24941478  1
  Ta  Ta119  1  0.34131455  0.71310040  0.75223192  1
  Ta  Ta120  1  0.65671912  0.03701596  0.24741916  1
  Ta  Ta121  1  0.71451716  0.00210540  0.75350831  1
  Ta  Ta122  1  0.65614474  0.29053958  0.25861242  1
  Ta  Ta123  1  0.62451532  0.33911635  0.74256811  1
  Ta  Ta124  1  0.71050708  0.66901690  0.24860305  1
  Ta  Ta125  1  0.68578760  0.64125829  0.74865663  1
  Ta  Ta126  1  0.01809582  -0.02828831  -0.00570373  1
  Ta  Ta127  1  0.02560763  0.03275771  0.50103406  1
  Ta  Ta128  1  -0.03627603  0.33828344  0.00058263  1
  Ta  Ta129  1  -0.03992998  0.33521770  0.49846045  1
  Ta  Ta130  1  0.00091467  0.71217294  -0.00600936  1
  Ta  Ta131  1  0.03894802  0.66370961  0.50339127  1
  Ta  Ta132  1  0.33257746  0.03174792  0.00066344  1
  Ta  Ta133  1  0.33459437  0.04137812  0.49851102  1
  Ta  Ta134  1  0.32917409  0.37395239  0.00212965  1
  Ta  Ta135  1  0.33205267  0.37445072  0.50419839  1
  Ta  Ta136  1  0.39601281  0.66587530  0.00001405  1
  Ta  Ta137  1  0.31280982  0.65452453  0.50420210  1
  Ta  Ta138  1  0.65002664  0.01233180  0.00094580  1
  Ta  Ta139  1  0.66682759  -0.03528379  0.49581332  1
  Ta  Ta140  1  0.70734680  0.33246733  0.00604548  1
  Ta  Ta141  1  0.70018712  0.33213479  0.49813214  1
  Ta  Ta142  1  0.62576216  0.65612650  0.00570138  1
  Ta  Ta143  1  0.67139938  0.71465449  0.49726314  1
  N  N144  1  0.50383114  0.82209617  0.12751173  1
  N  N145  1  -0.00529649  0.33926407  0.62481657  1
  N  N146  1  -0.00135363  0.66716019  0.37409612  1
  N  N147  1  0.66967510  -0.00100206  0.12914530  1
  N  N148  1  0.50313280  0.82768817  0.87216870  1
  N  N149  1  -0.00141598  0.33821732  0.37312086  1
  N  N150  1  0.82909466  0.16761692  0.62737534  1
  N  N151  1  0.82413943  0.16567562  0.37847554  1
  N  N152  1  0.00289087  0.00637521  0.62024035  1
  N  N153  1  0.16252990  0.49598915  0.62618999  1
  N  N154  1  0.00501347  -0.00303338  0.87491663  1
  N  N155  1  0.83032407  0.50101248  0.12203460  1
  N  N156  1  0.66406604  0.33241014  0.62598246  1
  N  N157  1  0.50911117  0.83329377  0.62446010  1
  N  N158  1  0.16348660  0.49216070  0.87436527  1
  N  N159  1  0.66978792  0.66217646  0.12166679  1
  N  N160  1  0.33591296  0.00562815  0.12124905  1
  N  N161  1  0.17447149  0.81148874  0.37352793  1
  N  N162  1  0.00401018  0.66932563  0.62352920  1
  N  N163  1  0.82684069  0.82601173  0.37384622  1
  N  N164  1  0.16973310  0.82539666  0.87357518  1
  N  N165  1  -0.00060762  0.67448329  0.87206513  1
  N  N166  1  0.33300200  0.00608776  0.37999066  1
  N  N167  1  0.82932350  0.50066752  0.37131777  1
  N  N168  1  0.82588161  0.17537061  0.12850195  1
  N  N169  1  0.82695536  0.50481653  0.62381279  1
  N  N170  1  0.49205543  0.50222925  0.62131918  1
  N  N171  1  0.50071041  0.17013559  0.87585201  1
  N  N172  1  0.17903779  0.82082344  0.62314480  1
  N  N173  1  0.65787977  0.32442824  0.37591047  1
  N  N174  1  0.33126146  0.34689253  0.12391240  1
  N  N175  1  0.66470804  -0.00271836  0.37639569  1
  N  N176  1  0.67750950  0.00003101  0.87700508  1
  O  O177  1  0.33509596  0.66402162  0.62981477  1
  O  O178  1  0.48893060  0.48448603  0.37978904  1
  O  O179  1  0.66401604  0.64595451  0.87460080  1
  O  O180  1  0.16408431  0.81752812  0.12546910  1
  O  O181  1  0.15592833  0.48632135  0.12272993  1
  O  O182  1  0.67160267  -0.00329600  0.63066478  1
  O  O183  1  0.35411041  0.67995700  0.12049999  1
  O  O184  1  0.66511603  0.33605277  0.87737029  1
  O  O185  1  0.00185258  0.00879174  0.37738170  1
  O  O186  1  0.33465171  -0.00556873  0.87047050  1
  O  O187  1  0.50879656  0.82530860  0.37418206  1
  O  O188  1  -0.00676489  0.33908242  0.12447254  1
  O  O189  1  0.49562569  0.16432056  0.12344278  1
  O  O190  1  0.50105306  0.50394586  0.87556257  1
  O  O191  1  0.34273946  0.35019816  0.63140333  1
  O  O192  1  0.31894020  0.35390850  0.38144205  1
  O  O193  1  0.33097688  0.67494029  0.38103924  1
  O  O194  1  0.01865420  -0.00471591  0.13024198  1
  O  O195  1  0.36116631  0.35674473  0.87645010  1
  O  O196  1  0.86071420  0.82857756  0.12474743  1
  O  O197  1  0.15318379  0.14577823  0.87318743  1
  O  O198  1  -0.01882391  0.33816271  0.87777759  1
  O  O199  1  0.67775051  0.67159516  0.62700985  1
  O  O200  1  0.67017291  0.68185426  0.37053821  1
  O  O201  1  0.48636814  0.49940117  0.13228551  1
  O  O202  1  0.49124282  0.15416551  0.37454587  1
  O  O203  1  0.33326373  -0.00721149  0.62260878  1
  O  O204  1  0.82677055  0.86162286  0.62393193  1
  O  O205  1  0.16502839  0.15518203  0.62704051  1
  O  O206  1  0.85873444  0.86197144  0.87657001  1
  O  O207  1  0.16919683  0.15297437  0.37172518  1
  O  O208  1  0.16540973  0.13627353  0.12124982  1
  O  O209  1  0.66824715  0.32960985  0.13084591  1
  O  O210  1  0.83525224  0.17428529  0.87240089  1
  O  O211  1  0.00058351  0.67209295  0.11935546  1
  O  O212  1  0.16456141  0.48530004  0.37464428  1
  O  O213  1  0.82351253  0.48794505  0.87580548  1
  O  O214  1  0.35335618  0.67217651  0.87563326  1
  O  O215  1  0.47944650  0.16858074  0.62824676  1
