# generated using pymatgen
data_Sr24Ta24N11O13
_symmetry_space_group_name_H-M   'P 1'
_cell_length_a   16.69544930
_cell_length_b   17.00590932
_cell_length_c   15.73592137
_cell_angle_alpha   89.84632283
_cell_angle_beta   89.99691733
_cell_angle_gamma   89.71271827
_symmetry_Int_Tables_number   1
_chemical_formula_structural   Sr24Ta24N11O13
_chemical_formula_sum   'Sr72 Ta72 N33 O39'
_cell_volume   4467.69096658
_cell_formula_units_Z   3
loop_
 _symmetry_equiv_pos_site_id
 _symmetry_equiv_pos_as_xyz
  1  'x, y, z'
loop_
 _atom_site_type_symbol
 _atom_site_label
 _atom_site_symmetry_multiplicity
 _atom_site_fract_x
 _atom_site_fract_y
 _atom_site_fract_z
 _atom_site_occupancy
  Sr  Sr0  1  -0.00106505  0.17758201  0.11801500  1
  Sr  Sr1  1  0.01239752  0.18210771  0.59596813  1
  Sr  Sr2  1  0.01958555  0.50528748  0.13813151  1
  Sr  Sr3  1  0.01017559  0.49756962  0.65802301  1
  Sr  Sr4  1  0.00017732  0.83853403  0.11701346  1
  Sr  Sr5  1  0.00125750  0.84602868  0.62577595  1
  Sr  Sr6  1  0.34097928  0.17212185  0.11014161  1
  Sr  Sr7  1  0.33086272  0.19849944  0.66810752  1
  Sr  Sr8  1  0.33845179  0.52863244  0.09373065  1
  Sr  Sr9  1  0.34270335  0.51186374  0.60386679  1
  Sr  Sr10  1  0.34370556  0.84138592  0.15279788  1
  Sr  Sr11  1  0.33890753  0.85156074  0.63170118  1
  Sr  Sr12  1  0.66780404  0.17605938  0.15736291  1
  Sr  Sr13  1  0.65883882  0.18245519  0.61436759  1
  Sr  Sr14  1  0.65962015  0.49360974  0.11864069  1
  Sr  Sr15  1  0.68378280  0.53629572  0.64394435  1
  Sr  Sr16  1  0.67431174  0.86433015  0.10643606  1
  Sr  Sr17  1  0.66955185  0.84740802  0.60609206  1
  Sr  Sr18  1  0.17388128  -0.03490430  0.16098532  1
  Sr  Sr19  1  0.16544373  -0.01612798  0.61509873  1
  Sr  Sr20  1  0.16476346  0.31671095  0.13610108  1
  Sr  Sr21  1  0.16342084  0.33341014  0.63989470  1
  Sr  Sr22  1  0.15483640  0.65429062  0.10583542  1
  Sr  Sr23  1  0.15562295  0.64772501  0.60759176  1
  Sr  Sr24  1  0.48713025  -0.01013581  0.10501771  1
  Sr  Sr25  1  0.49649524  -0.01360904  0.59918420  1
  Sr  Sr26  1  0.50709476  0.30952418  0.16080130  1
  Sr  Sr27  1  0.50236450  0.32501815  0.61507850  1
  Sr  Sr28  1  0.50078644  0.65960842  0.12533349  1
  Sr  Sr29  1  0.48448492  0.66561783  0.65523911  1
  Sr  Sr30  1  0.84136110  -0.01054302  0.11668409  1
  Sr  Sr31  1  0.82207577  -0.00226540  0.67405602  1
  Sr  Sr32  1  0.82670856  0.32407574  0.09487544  1
  Sr  Sr33  1  0.82194280  0.31091263  0.61496554  1
  Sr  Sr34  1  0.82275713  0.63816893  0.14628036  1
  Sr  Sr35  1  0.83232907  0.68708992  0.60014963  1
  Sr  Sr36  1  0.00470947  0.17661501  0.38600786  1
  Sr  Sr37  1  0.00125151  0.17743812  0.90348192  1
  Sr  Sr38  1  0.01069633  0.50018654  0.33842517  1
  Sr  Sr39  1  0.01579808  0.50504147  0.86225259  1
  Sr  Sr40  1  0.00273548  0.83418501  0.38981283  1
  Sr  Sr41  1  0.00129678  0.83660088  0.87866814  1
  Sr  Sr42  1  0.33478551  0.20514015  0.33332029  1
  Sr  Sr43  1  0.33960346  0.16480204  0.89012136  1
  Sr  Sr44  1  0.33598125  0.51070837  0.40331581  1
  Sr  Sr45  1  0.34785930  0.52804810  0.88753874  1
  Sr  Sr46  1  0.33777071  0.85011006  0.36600511  1
  Sr  Sr47  1  0.34622000  0.84367921  0.85020888  1
  Sr  Sr48  1  0.65878949  0.18164803  0.38672673  1
  Sr  Sr49  1  0.67481567  0.18104423  0.83711032  1
  Sr  Sr50  1  0.66665230  0.52184746  0.34531697  1
  Sr  Sr51  1  0.66637748  0.50312539  0.89459275  1
  Sr  Sr52  1  0.67290154  0.84652337  0.39185320  1
  Sr  Sr53  1  0.67426069  0.86674081  0.89068945  1
  Sr  Sr54  1  0.16217364  -0.02085635  0.39076302  1
  Sr  Sr55  1  0.17254720  -0.03381293  0.83838209  1
  Sr  Sr56  1  0.15560643  0.32757744  0.36217497  1
  Sr  Sr57  1  0.17366415  0.31110479  0.87019665  1
  Sr  Sr58  1  0.15622873  0.64682944  0.38481004  1
  Sr  Sr59  1  0.14970923  0.65601187  0.89705075  1
  Sr  Sr60  1  0.49563741  -0.01593542  0.39416904  1
  Sr  Sr61  1  0.48731381  -0.00938631  0.89737977  1
  Sr  Sr62  1  0.50869851  0.33678960  0.38180906  1
  Sr  Sr63  1  0.50042107  0.30176379  0.84560412  1
  Sr  Sr64  1  0.48459212  0.66750532  0.34512449  1
  Sr  Sr65  1  0.50601927  0.66174585  0.87290996  1
  Sr  Sr66  1  0.82772245  0.00224727  0.33010239  1
  Sr  Sr67  1  0.85353360  -0.01289025  0.88962307  1
  Sr  Sr68  1  0.82926084  0.31033826  0.41115862  1
  Sr  Sr69  1  0.82059035  0.32162966  0.88675866  1
  Sr  Sr70  1  0.82739870  0.65748411  0.37978628  1
  Sr  Sr71  1  0.82628093  0.63714346  0.84822639  1
  Ta  Ta72  1  0.16911792  0.11277690  0.00154930  1
  Ta  Ta73  1  0.21862913  0.17286767  0.49979832  1
  Ta  Ta74  1  0.16913720  0.46416103  0.00016084  1
  Ta  Ta75  1  0.14086797  0.48078345  0.50159961  1
  Ta  Ta76  1  0.18866920  0.83599941  0.00484313  1
  Ta  Ta77  1  0.19075162  0.80453480  0.50015384  1
  Ta  Ta78  1  0.53262098  0.17062815  0.00422745  1
  Ta  Ta79  1  0.44500209  0.16600015  0.50158533  1
  Ta  Ta80  1  0.49577905  0.43225511  -0.00010417  1
  Ta  Ta81  1  0.53066726  0.52457461  0.49966248  1
  Ta  Ta82  1  0.49313765  0.80869780  0.00022040  1
  Ta  Ta83  1  0.49195549  0.79428727  0.49961899  1
  Ta  Ta84  1  0.80023431  0.15290009  -0.00098216  1
  Ta  Ta85  1  0.83201536  0.11931029  0.50260004  1
  Ta  Ta86  1  0.86998853  0.49672303  0.00114793  1
  Ta  Ta87  1  0.85737060  0.48893690  0.49760656  1
  Ta  Ta88  1  0.83387048  0.78541926  -0.00328486  1
  Ta  Ta89  1  0.83730555  0.88710992  0.50366431  1
  Ta  Ta90  1  0.16333615  0.13250381  0.25440388  1
  Ta  Ta91  1  0.15234435  0.14248125  0.74872722  1
  Ta  Ta92  1  0.20966832  0.50032009  0.24478456  1
  Ta  Ta93  1  0.20429649  0.50837535  0.74734128  1
  Ta  Ta94  1  0.15921596  0.78756353  0.25390961  1
  Ta  Ta95  1  0.16331008  0.78497813  0.74215883  1
  Ta  Ta96  1  0.49812971  0.12373660  0.25142531  1
  Ta  Ta97  1  0.49943393  0.12257977  0.74082873  1
  Ta  Ta98  1  0.46887280  0.49016243  0.24677435  1
  Ta  Ta99  1  0.50213705  0.47676047  0.75051591  1
  Ta  Ta100  1  0.53269195  0.84117882  0.24972168  1
  Ta  Ta101  1  0.53121163  0.84468691  0.74881765  1
  Ta  Ta102  1  0.84235828  0.18854998  0.25624121  1
  Ta  Ta103  1  0.87340590  0.17036581  0.74666470  1
  Ta  Ta104  1  0.83692244  0.44666624  0.25222412  1
  Ta  Ta105  1  0.83871778  0.45521911  0.74903477  1
  Ta  Ta106  1  0.83068302  0.81219997  0.24563226  1
  Ta  Ta107  1  0.82542669  0.81114720  0.75333412  1
  Ta  Ta108  1  0.01128070  0.02499578  0.25474605  1
  Ta  Ta109  1  0.00727146  0.04295445  0.75144617  1
  Ta  Ta110  1  -0.04059293  0.32961200  0.25153663  1
  Ta  Ta111  1  -0.02482616  0.32000896  0.75100515  1
  Ta  Ta112  1  -0.00373147  0.68978910  0.25479065  1
  Ta  Ta113  1  0.00011082  0.68369412  0.74840525  1
  Ta  Ta114  1  0.33962431  0.02893738  0.25444310  1
  Ta  Ta115  1  0.34648906  0.02387746  0.74586202  1
  Ta  Ta116  1  0.33600434  0.38746434  0.24669142  1
  Ta  Ta117  1  0.34165986  0.38495707  0.74744390  1
  Ta  Ta118  1  0.30455503  0.65619538  0.24390434  1
  Ta  Ta119  1  0.29599902  0.66746693  0.75114824  1
  Ta  Ta120  1  0.63490751  0.00389431  0.24682501  1
  Ta  Ta121  1  0.63015446  0.00582948  0.74806628  1
  Ta  Ta122  1  0.70330236  0.34351648  0.25442195  1
  Ta  Ta123  1  0.66931529  0.36859801  0.74717644  1
  Ta  Ta124  1  0.66751437  0.71568132  0.24949713  1
  Ta  Ta125  1  0.66803730  0.71539359  0.74814666  1
  Ta  Ta126  1  0.04688648  0.00155189  -0.00210404  1
  Ta  Ta127  1  -0.04291662  0.00538613  0.50056540  1
  Ta  Ta128  1  0.00608095  0.36493099  0.00617185  1
  Ta  Ta129  1  -0.00020120  0.37838751  0.49511898  1
  Ta  Ta130  1  -0.03814215  0.65463780  -0.00327115  1
  Ta  Ta131  1  -0.00876461  0.61101826  0.49601222  1
  Ta  Ta132  1  0.29788850  -0.01216031  0.00107383  1
  Ta  Ta133  1  0.32714862  0.04446782  0.49928905  1
  Ta  Ta134  1  0.34629187  0.35340970  -0.00171584  1
  Ta  Ta135  1  0.32185991  0.31659816  0.50390244  1
  Ta  Ta136  1  0.32982163  0.71636330  0.00276509  1
  Ta  Ta137  1  0.33432604  0.69441395  0.49904842  1
  Ta  Ta138  1  0.66648976  0.05071057  0.00271638  1
  Ta  Ta139  1  0.70882804  0.01231707  0.49928523  1
  Ta  Ta140  1  0.64109691  0.31585270  0.00117175  1
  Ta  Ta141  1  0.66590834  0.39310431  0.50201366  1
  Ta  Ta142  1  0.67563709  0.69728722  -0.00140634  1
  Ta  Ta143  1  0.62083854  0.66569958  0.49663225  1
  N  N144  1  0.83785120  0.82430745  0.12438730  1
  N  N145  1  0.50001095  0.82933996  0.37567825  1
  N  N146  1  -0.00649686  0.00593639  0.37367730  1
  N  N147  1  0.32949012  -0.00006158  0.87490234  1
  N  N148  1  0.17103913  0.49317611  0.62527821  1
  N  N149  1  0.83114090  0.16116411  0.37423289  1
  N  N150  1  0.66451697  0.01495839  0.12749230  1
  N  N151  1  0.17734751  0.48938858  0.12015406  1
  N  N152  1  0.32886920  0.67809894  0.12468758  1
  N  N153  1  0.16466474  0.82730346  0.62569019  1
  N  N154  1  0.83923676  0.83176026  0.88094906  1
  N  N155  1  0.16669494  0.82271116  0.37497958  1
  N  N156  1  0.66832991  0.35153942  0.38133769  1
  N  N157  1  0.49937775  0.82896608  0.62390002  1
  N  N158  1  0.01041905  0.00763987  0.87629521  1
  N  N159  1  -0.01135597  0.65338086  0.37354617  1
  N  N160  1  0.66849543  0.33548706  0.12654000  1
  N  N161  1  0.16768378  0.81820623  0.12476164  1
  N  N162  1  0.83620533  0.15880658  0.63052569  1
  N  N163  1  0.50407480  0.83238328  0.12595439  1
  N  N164  1  0.50101882  0.15793129  0.12523008  1
  N  N165  1  -0.00920032  0.66254647  0.86851437  1
  N  N166  1  0.32892587  0.00155782  0.12561212  1
  N  N167  1  0.33447979  0.35096905  0.62439421  1
  N  N168  1  0.66546104  0.34428039  0.61660674  1
  N  N169  1  0.66345122  0.33616930  0.87106433  1
  N  N170  1  0.32524547  0.00439560  0.62433324  1
  N  N171  1  0.32907055  0.00221881  0.37704691  1
  N  N172  1  -0.00068220  0.33756343  0.12560771  1
  N  N173  1  0.48951056  0.16212015  0.62124825  1
  N  N174  1  -0.00308763  0.33619762  0.37870365  1
  N  N175  1  0.83347830  0.84664672  0.62881236  1
  N  N176  1  0.50485379  0.83430386  0.87367057  1
  O  O177  1  0.00574946  0.00327942  0.12200742  1
  O  O178  1  0.64697527  0.01732104  0.87398230  1
  O  O179  1  0.51120146  0.50815409  0.63047814  1
  O  O180  1  0.67142271  0.00497366  0.37590878  1
  O  O181  1  0.50501129  0.47629967  0.87998228  1
  O  O182  1  0.17480718  0.16400501  0.37925455  1
  O  O183  1  0.66764326  0.69394306  0.12836532  1
  O  O184  1  0.49907312  0.15461549  0.87693991  1
  O  O185  1  0.33102639  0.35247021  0.37959238  1
  O  O186  1  0.66086939  0.69037406  0.62167068  1
  O  O187  1  -0.00258703  0.00764603  0.62793585  1
  O  O188  1  0.17598285  0.49149847  0.37577965  1
  O  O189  1  0.49635358  0.47988480  0.12190601  1
  O  O190  1  0.32703578  0.67063617  0.62867622  1
  O  O191  1  0.66273339  0.00455543  0.62379352  1
  O  O192  1  0.49466269  0.50919686  0.37005470  1
  O  O193  1  0.16983266  0.16247921  0.62296830  1
  O  O194  1  0.33435763  0.34449275  0.12342499  1
  O  O195  1  0.16911501  0.13442852  0.13023660  1
  O  O196  1  0.33529433  0.34480284  0.87169007  1
  O  O197  1  -0.01611147  0.66155204  0.12873614  1
  O  O198  1  0.31203139  0.67699892  0.87956844  1
  O  O199  1  0.84887315  0.48864075  0.12777734  1
  O  O200  1  0.84046730  0.49595809  0.37202837  1
  O  O201  1  -0.00628482  0.33468638  0.62398854  1
  O  O202  1  0.83129383  0.84773248  0.37922630  1
  O  O203  1  0.33206139  0.67011103  0.37481040  1
  O  O204  1  -0.00594961  0.33184359  0.87491428  1
  O  O205  1  0.66434729  0.69177486  0.87507944  1
  O  O206  1  0.85073738  0.48039995  0.87715754  1
  O  O207  1  0.17244778  0.49679188  0.87245573  1
  O  O208  1  0.82823999  0.16079145  0.87316453  1
  O  O209  1  0.16298477  0.81614653  0.87006274  1
  O  O210  1  0.48523618  0.16246775  0.37578568  1
  O  O211  1  -0.00767404  0.64817412  0.61867767  1
  O  O212  1  0.66222290  0.68725018  0.37748078  1
  O  O213  1  0.84341642  0.47709211  0.62825808  1
  O  O214  1  0.17015641  0.14095552  0.87296612  1
  O  O215  1  0.82393536  0.16522564  0.12320039  1
