# generated using pymatgen
data_Sr24Ta24N11O13
_symmetry_space_group_name_H-M   'P 1'
_cell_length_a   17.51580462
_cell_length_b   16.60773902
_cell_length_c   15.29060485
_cell_angle_alpha   90.23809486
_cell_angle_beta   91.50530278
_cell_angle_gamma   90.83066540
_symmetry_Int_Tables_number   1
_chemical_formula_structural   Sr24Ta24N11O13
_chemical_formula_sum   'Sr72 Ta72 N33 O39'
_cell_volume   4445.95693120
_cell_formula_units_Z   3
loop_
 _symmetry_equiv_pos_site_id
 _symmetry_equiv_pos_as_xyz
  1  'x, y, z'
loop_
 _atom_site_type_symbol
 _atom_site_label
 _atom_site_symmetry_multiplicity
 _atom_site_fract_x
 _atom_site_fract_y
 _atom_site_fract_z
 _atom_site_occupancy
  Sr  Sr0  1  0.03380964  0.16748175  0.15992272  1
  Sr  Sr1  1  -0.00890641  0.15769417  0.62024629  1
  Sr  Sr2  1  0.00435239  0.49205566  0.08183307  1
  Sr  Sr3  1  0.02945136  0.50897758  0.63873097  1
  Sr  Sr4  1  0.00320972  0.82785370  0.13094533  1
  Sr  Sr5  1  0.02711877  0.81372538  0.63157261  1
  Sr  Sr6  1  0.34197953  0.14894768  0.10286364  1
  Sr  Sr7  1  0.37099271  0.16262600  0.63895710  1
  Sr  Sr8  1  0.33286527  0.50650654  0.12635410  1
  Sr  Sr9  1  0.36620158  0.47655775  0.62220579  1
  Sr  Sr10  1  0.37391017  0.83920535  0.18181860  1
  Sr  Sr11  1  0.32197263  0.83719208  0.61818981  1
  Sr  Sr12  1  0.66623012  0.16221382  0.13401537  1
  Sr  Sr13  1  0.69173484  0.13498398  0.63802949  1
  Sr  Sr14  1  0.70730739  0.49917611  0.15823058  1
  Sr  Sr15  1  0.65147822  0.51405055  0.62167755  1
  Sr  Sr16  1  0.67278411  0.82020468  0.10152158  1
  Sr  Sr17  1  0.69502204  0.83724575  0.63643432  1
  Sr  Sr18  1  0.15769777  0.00083701  0.12187250  1
  Sr  Sr19  1  0.13790425  0.02268253  0.61445054  1
  Sr  Sr20  1  0.16463560  0.33709064  0.16540138  1
  Sr  Sr21  1  0.13493238  0.32326014  0.60802667  1
  Sr  Sr22  1  0.12712528  0.65933512  0.07393016  1
  Sr  Sr23  1  0.16524337  0.67046833  0.62855649  1
  Sr  Sr24  1  0.49384831  0.01618860  0.14778674  1
  Sr  Sr25  1  0.47566739  -0.00556921  0.61504355  1
  Sr  Sr26  1  0.45800635  0.33640823  0.09833365  1
  Sr  Sr27  1  0.50431296  0.33518237  0.63056540  1
  Sr  Sr28  1  0.49869991  0.66975176  0.11660198  1
  Sr  Sr29  1  0.46713064  0.69436756  0.61900262  1
  Sr  Sr30  1  0.79247250  0.00306045  0.08142675  1
  Sr  Sr31  1  0.83919348  -0.00018750  0.62996040  1
  Sr  Sr32  1  0.83028803  0.33018583  0.12158946  1
  Sr  Sr33  1  0.79336862  0.37395360  0.62510062  1
  Sr  Sr34  1  0.82464019  0.68861977  0.14646247  1
  Sr  Sr35  1  0.81047536  0.66822465  0.61772591  1
  Sr  Sr36  1  -0.00464283  0.16547436  0.39261862  1
  Sr  Sr37  1  0.01465568  0.15583242  0.84315130  1
  Sr  Sr38  1  0.03829633  0.50299530  0.40846269  1
  Sr  Sr39  1  0.02667199  0.50389618  0.87025303  1
  Sr  Sr40  1  0.00666145  0.81867271  0.34498716  1
  Sr  Sr41  1  0.04857974  0.83143122  0.91240565  1
  Sr  Sr42  1  0.38278298  0.16164937  0.41262149  1
  Sr  Sr43  1  0.34342646  0.16735137  0.88297847  1
  Sr  Sr44  1  0.33914415  0.47849910  0.34416125  1
  Sr  Sr45  1  0.36020814  0.49700277  0.90840240  1
  Sr  Sr46  1  0.33058347  0.82963076  0.39238118  1
  Sr  Sr47  1  0.34209527  0.81697504  0.84838406  1
  Sr  Sr48  1  0.67671031  0.15358108  0.34979073  1
  Sr  Sr49  1  0.70888485  0.16215385  0.90586482  1
  Sr  Sr50  1  0.67868549  0.49333964  0.39246548  1
  Sr  Sr51  1  0.66849239  0.48864121  0.85046685  1
  Sr  Sr52  1  0.70831564  0.82984292  0.39909847  1
  Sr  Sr53  1  0.67636240  0.83171369  0.88877742  1
  Sr  Sr54  1  0.12216898  0.00146982  0.34218324  1
  Sr  Sr55  1  0.15714110  0.01773705  0.90406477  1
  Sr  Sr56  1  0.14277382  0.33280033  0.37882724  1
  Sr  Sr57  1  0.13164141  0.33171505  0.82834877  1
  Sr  Sr58  1  0.15267487  0.67931111  0.39524639  1
  Sr  Sr59  1  0.17046376  0.66577731  0.86185830  1
  Sr  Sr60  1  0.49563696  0.00387302  0.36326464  1
  Sr  Sr61  1  0.45573787  0.00603694  0.85719115  1
  Sr  Sr62  1  0.49653068  0.34879478  0.40388162  1
  Sr  Sr63  1  0.48502273  0.33993781  0.85969261  1
  Sr  Sr64  1  0.44723757  0.66682634  0.32867190  1
  Sr  Sr65  1  0.48885015  0.67598747  0.90457936  1
  Sr  Sr66  1  0.81839007  0.01180215  0.40687817  1
  Sr  Sr67  1  0.82789575  0.00830153  0.85285512  1
  Sr  Sr68  1  0.80604962  0.33625564  0.34542676  1
  Sr  Sr69  1  0.82819769  0.34928172  0.90712022  1
  Sr  Sr70  1  0.82602852  0.66790910  0.36419670  1
  Sr  Sr71  1  0.78910482  0.67514062  0.84606031  1
  Ta  Ta72  1  0.16173792  0.21310978  0.00061258  1
  Ta  Ta73  1  0.20962358  0.16591934  0.47588773  1
  Ta  Ta74  1  0.17807703  0.44847981  -0.00525155  1
  Ta  Ta75  1  0.21602569  0.49132763  0.50481149  1
  Ta  Ta76  1  0.22519408  0.82878012  0.02065829  1
  Ta  Ta77  1  0.15826649  0.86610290  0.48792458  1
  Ta  Ta78  1  0.52882663  0.17056976  -0.01086223  1
  Ta  Ta79  1  0.55276136  0.16308205  0.50499630  1
  Ta  Ta80  1  0.54678221  0.49234261  0.01034446  1
  Ta  Ta81  1  0.49562734  0.54339098  0.49188275  1
  Ta  Ta82  1  0.48643707  0.86130061  0.01178139  1
  Ta  Ta83  1  0.53508180  0.83296176  0.48369870  1
  Ta  Ta84  1  0.89417309  0.16512552  -0.00033855  1
  Ta  Ta85  1  0.82671887  0.20784927  0.50560784  1
  Ta  Ta86  1  0.82725319  0.54561324  -0.00281730  1
  Ta  Ta87  1  0.87351143  0.50379656  0.49678762  1
  Ta  Ta88  1  0.86480170  0.83369576  -0.01242723  1
  Ta  Ta89  1  0.88110099  0.82761287  0.49713381  1
  Ta  Ta90  1  0.22214140  0.16462259  0.27456779  1
  Ta  Ta91  1  0.20215242  0.16572751  0.74236796  1
  Ta  Ta92  1  0.15151271  0.52725809  0.23876512  1
  Ta  Ta93  1  0.22145556  0.49060312  0.73995326  1
  Ta  Ta94  1  0.18762608  0.81699239  0.23057636  1
  Ta  Ta95  1  0.17300722  0.87133105  0.74811921  1
  Ta  Ta96  1  0.49894312  0.20280224  0.24815225  1
  Ta  Ta97  1  0.54850664  0.16215071  0.76315572  1
  Ta  Ta98  1  0.52970226  0.49182544  0.23187188  1
  Ta  Ta99  1  0.49631178  0.53835875  0.75613595  1
  Ta  Ta100  1  0.55557072  0.82770052  0.26430611  1
  Ta  Ta101  1  0.52921450  0.83820847  0.75296492  1
  Ta  Ta102  1  0.85074342  0.14500378  0.25073997  1
  Ta  Ta103  1  0.83720935  0.21240680  0.74071065  1
  Ta  Ta104  1  0.89405899  0.50185109  0.25006539  1
  Ta  Ta105  1  0.86606905  0.50968524  0.75706560  1
  Ta  Ta106  1  0.83163327  0.87341880  0.24306133  1
  Ta  Ta107  1  0.88629895  0.82841698  0.76448822  1
  Ta  Ta108  1  -0.05506943  0.00091954  0.24535872  1
  Ta  Ta109  1  0.00267702  -0.03714632  0.75531168  1
  Ta  Ta110  1  -0.01427204  0.36539293  0.25283069  1
  Ta  Ta111  1  -0.05194729  0.34615564  0.74961218  1
  Ta  Ta112  1  0.00301719  0.63143170  0.23739215  1
  Ta  Ta113  1  -0.03102516  0.67222826  0.76970849  1
  Ta  Ta114  1  0.30247779  0.01898306  0.27503092  1
  Ta  Ta115  1  0.28520652  0.00511998  0.74873992  1
  Ta  Ta116  1  0.33543616  0.28767346  0.25982591  1
  Ta  Ta117  1  0.30137826  0.32764309  0.74151362  1
  Ta  Ta118  1  0.26773023  0.66965879  0.22696832  1
  Ta  Ta119  1  0.33467451  0.62895305  0.75737892  1
  Ta  Ta120  1  0.67091640  -0.03205589  0.24438050  1
  Ta  Ta121  1  0.62593578  -0.00649913  0.77351786  1
  Ta  Ta122  1  0.61758662  0.33903666  0.24473544  1
  Ta  Ta123  1  0.66883857  0.29819066  0.75883559  1
  Ta  Ta124  1  0.63598612  0.67037476  0.26033251  1
  Ta  Ta125  1  0.61387660  0.67855929  0.75404987  1
  Ta  Ta126  1  -0.02915184  0.00723603  0.00475526  1
  Ta  Ta127  1  -0.00951658  -0.03831911  0.49830964  1
  Ta  Ta128  1  0.02027854  0.30533985  -0.00560167  1
  Ta  Ta129  1  -0.05519080  0.34585010  0.50867107  1
  Ta  Ta130  1  -0.05453421  0.67059858  -0.01961216  1
  Ta  Ta131  1  -0.02705949  0.66808398  0.50786664  1
  Ta  Ta132  1  0.33323883  -0.04403711  0.01241994  1
  Ta  Ta133  1  0.28118652  0.00821870  0.48126153  1
  Ta  Ta134  1  0.28331448  0.32668234  -0.00557106  1
  Ta  Ta135  1  0.30152307  0.32395859  0.51012657  1
  Ta  Ta136  1  0.31798450  0.69441259  0.02942257  1
  Ta  Ta137  1  0.32017615  0.62607882  0.49305319  1
  Ta  Ta138  1  0.61324327  0.00108191  -0.01169990  1
  Ta  Ta139  1  0.63728967  -0.00747462  0.49775429  1
  Ta  Ta140  1  0.63328235  0.33833507  0.01539110  1
  Ta  Ta141  1  0.66543437  0.29228609  0.49530430  1
  Ta  Ta142  1  0.66924224  0.63126016  0.00579781  1
  Ta  Ta143  1  0.61009426  0.67670221  0.48231779  1
  N  N144  1  0.00595719  0.00052294  0.88522641  1
  N  N145  1  0.83722961  0.84187718  0.10923663  1
  N  N146  1  0.02428839  0.66543679  0.89099553  1
  N  N147  1  0.51057618  0.50349752  0.88078363  1
  N  N148  1  0.35796461  0.67260891  0.14979479  1
  N  N149  1  -0.00977650  -0.00353281  0.62859950  1
  N  N150  1  -0.01547474  0.66170870  0.11499335  1
  N  N151  1  0.17392573  0.84243041  0.62296427  1
  N  N152  1  0.15972129  0.49195830  0.11461750  1
  N  N153  1  0.65332849  0.33129763  0.36809604  1
  N  N154  1  0.52022406  0.16752042  0.37225145  1
  N  N155  1  0.68405789  -0.00361824  0.88904586  1
  N  N156  1  0.50137119  0.17218923  0.11734990  1
  N  N157  1  0.35113694  0.31682083  0.62399197  1
  N  N158  1  -0.02133790  -0.00106272  0.36928935  1
  N  N159  1  0.14439191  0.83820561  0.10767684  1
  N  N160  1  0.16496244  0.83489248  0.36165949  1
  N  N161  1  -0.00998753  0.66231364  0.63620395  1
  N  N162  1  -0.01160844  0.33857393  0.87461011  1
  N  N163  1  0.51313578  0.83797999  0.13401735  1
  N  N164  1  0.83748195  0.17244578  0.37305874  1
  N  N165  1  0.35246873  -0.01116731  0.38676430  1
  N  N166  1  0.85115526  0.83188881  0.36693515  1
  N  N167  1  0.48200150  0.50391969  0.11626119  1
  N  N168  1  0.84173088  0.16018747  0.62610567  1
  N  N169  1  0.17215622  0.49380652  0.62302785  1
  N  N170  1  0.50456740  0.52088186  0.61702261  1
  N  N171  1  0.64717735  -0.00083649  0.11733844  1
  N  N172  1  0.64538243  0.66808742  0.88157524  1
  N  N173  1  0.48446581  0.17715939  0.86391155  1
  N  N174  1  0.51905956  0.16226456  0.63071491  1
  N  N175  1  0.66321293  0.66198023  0.13850287  1
  N  N176  1  0.66418934  -0.00341850  0.37620652  1
  O  O177  1  0.64689024  -0.01352766  0.64130037  1
  O  O178  1  0.81422404  0.85104861  0.86046547  1
  O  O179  1  0.67296246  0.32512776  0.88719908  1
  O  O180  1  0.68519932  0.65371492  0.38942531  1
  O  O181  1  0.30359892  0.00132308  0.61857527  1
  O  O182  1  0.17316398  0.48449496  0.86250996  1
  O  O183  1  0.00449102  0.65903676  0.37801898  1
  O  O184  1  0.17624649  0.48865746  0.36538136  1
  O  O185  1  0.33030273  0.65764311  0.88732242  1
  O  O186  1  0.49063174  0.83570651  0.87504203  1
  O  O187  1  -0.01196540  0.34702131  0.38223417  1
  O  O188  1  0.53355950  0.83993065  0.61449003  1
  O  O189  1  0.31596091  0.30693143  0.13108156  1
  O  O190  1  0.30956021  -0.00523196  0.88367643  1
  O  O191  1  0.19394874  0.16993565  0.61235543  1
  O  O192  1  0.13951225  0.17739701  0.36670068  1
  O  O193  1  0.19141337  0.82803172  0.87556661  1
  O  O194  1  0.00108915  0.33860181  0.12744542  1
  O  O195  1  0.48954506  0.50688300  0.35886662  1
  O  O196  1  0.84409737  0.50728012  0.36657899  1
  O  O197  1  0.32746159  0.64637309  0.62385164  1
  O  O198  1  0.33341401  0.32505222  0.87140325  1
  O  O199  1  -0.00402950  0.33906792  0.62805281  1
  O  O200  1  0.85003913  0.50039319  0.11832535  1
  O  O201  1  0.86280436  0.51814724  0.62501878  1
  O  O202  1  0.30360145  0.65137872  0.36424530  1
  O  O203  1  0.35113274  0.32281787  0.38592109  1
  O  O204  1  0.17938012  0.17883557  0.12975949  1
  O  O205  1  0.63461992  0.67550308  0.62080011  1
  O  O206  1  0.88158457  0.18134427  0.12511466  1
  O  O207  1  0.01334754  -0.00268813  0.13360819  1
  O  O208  1  0.81833620  0.49944468  0.87213361  1
  O  O209  1  0.65858496  0.31857362  0.63018193  1
  O  O210  1  0.86341922  0.16907603  0.86982199  1
  O  O211  1  0.47790104  0.83179283  0.36095308  1
  O  O212  1  0.85077412  0.82471499  0.62905366  1
  O  O213  1  0.68475739  0.32474923  0.13249838  1
  O  O214  1  0.32567144  -0.00401152  0.13948863  1
  O  O215  1  0.17059791  0.17207178  0.87070960  1
