# generated using pymatgen
data_Sr24Ta24N11O13
_symmetry_space_group_name_H-M   'P 1'
_cell_length_a   15.90168151
_cell_length_b   20.15055825
_cell_length_c   13.97268442
_cell_angle_alpha   90.08727689
_cell_angle_beta   89.97448148
_cell_angle_gamma   89.94582797
_symmetry_Int_Tables_number   1
_chemical_formula_structural   Sr24Ta24N11O13
_chemical_formula_sum   'Sr72 Ta72 N33 O39'
_cell_volume   4477.22832007
_cell_formula_units_Z   3
loop_
 _symmetry_equiv_pos_site_id
 _symmetry_equiv_pos_as_xyz
  1  'x, y, z'
loop_
 _atom_site_type_symbol
 _atom_site_label
 _atom_site_symmetry_multiplicity
 _atom_site_fract_x
 _atom_site_fract_y
 _atom_site_fract_z
 _atom_site_occupancy
  Sr  Sr0  1  -0.00208434  0.21106018  0.14026337  1
  Sr  Sr1  1  -0.00032274  0.20951399  0.64261954  1
  Sr  Sr2  1  -0.01621039  0.50976023  0.12523430  1
  Sr  Sr3  1  0.02000432  0.51349965  0.62223769  1
  Sr  Sr4  1  0.00228562  0.85022557  0.11029975  1
  Sr  Sr5  1  0.00209007  0.85158128  0.60990404  1
  Sr  Sr6  1  0.33370898  0.21063296  0.13439262  1
  Sr  Sr7  1  0.33261971  0.20922632  0.63752911  1
  Sr  Sr8  1  0.33502286  0.53183223  0.12635631  1
  Sr  Sr9  1  0.32512224  0.49580995  0.62669388  1
  Sr  Sr10  1  0.33244828  0.85250504  0.11201714  1
  Sr  Sr11  1  0.33459856  0.85186310  0.61019719  1
  Sr  Sr12  1  0.66818609  0.21423001  0.13599625  1
  Sr  Sr13  1  0.66740000  0.21290693  0.64368705  1
  Sr  Sr14  1  0.67904928  0.50064217  0.12396717  1
  Sr  Sr15  1  0.65219719  0.50775774  0.62541179  1
  Sr  Sr16  1  0.66501242  0.84900346  0.11205449  1
  Sr  Sr17  1  0.66466033  0.84869167  0.61552540  1
  Sr  Sr18  1  0.16616892  -0.04711414  0.14124769  1
  Sr  Sr19  1  0.16783282  -0.04558833  0.63675863  1
  Sr  Sr20  1  0.16597640  0.31391918  0.12105907  1
  Sr  Sr21  1  0.16753727  0.31895418  0.62344257  1
  Sr  Sr22  1  0.15335436  0.63984207  0.11127592  1
  Sr  Sr23  1  0.18321819  0.67417613  0.60898273  1
  Sr  Sr24  1  0.50134357  -0.04623798  0.13259175  1
  Sr  Sr25  1  0.50021648  -0.04407816  0.63694011  1
  Sr  Sr26  1  0.49912727  0.31651844  0.12582588  1
  Sr  Sr27  1  0.49964111  0.31686458  0.62266920  1
  Sr  Sr28  1  0.51351925  0.65022825  0.11385547  1
  Sr  Sr29  1  0.48967727  0.66841138  0.61284674  1
  Sr  Sr30  1  0.83314381  -0.05195782  0.14162338  1
  Sr  Sr31  1  0.83268257  -0.05194822  0.63948710  1
  Sr  Sr32  1  0.83345636  0.31916227  0.11467752  1
  Sr  Sr33  1  0.83318656  0.31199637  0.61906914  1
  Sr  Sr34  1  0.83082558  0.66520732  0.11548144  1
  Sr  Sr35  1  0.82885356  0.63577241  0.61394209  1
  Sr  Sr36  1  -0.01311807  0.17183909  0.39379307  1
  Sr  Sr37  1  0.00278881  0.17700649  0.89310650  1
  Sr  Sr38  1  0.00070048  0.52981963  0.37522488  1
  Sr  Sr39  1  0.00041456  0.53059590  0.87451535  1
  Sr  Sr40  1  -0.00179364  0.88720865  0.35773301  1
  Sr  Sr41  1  0.00260962  0.88402525  0.86002862  1
  Sr  Sr42  1  0.33221609  0.17519495  0.38713204  1
  Sr  Sr43  1  0.33465417  0.17021073  0.88771459  1
  Sr  Sr44  1  0.33260182  0.53007799  0.38141291  1
  Sr  Sr45  1  0.33137641  0.53008684  0.87428144  1
  Sr  Sr46  1  0.33412646  0.88934524  0.35452518  1
  Sr  Sr47  1  0.33308304  0.88812086  0.86537762  1
  Sr  Sr48  1  0.68217677  0.17041163  0.39109319  1
  Sr  Sr49  1  0.66043662  0.18170701  0.89093679  1
  Sr  Sr50  1  0.66680604  0.52877891  0.37434303  1
  Sr  Sr51  1  0.66574758  0.52997630  0.87623258  1
  Sr  Sr52  1  0.67051051  0.88765207  0.36123373  1
  Sr  Sr53  1  0.66446805  0.87940582  0.86310468  1
  Sr  Sr54  1  0.16663612  -0.01045515  0.38768942  1
  Sr  Sr55  1  0.16454111  -0.00830547  0.88826418  1
  Sr  Sr56  1  0.16151063  0.27679856  0.37022077  1
  Sr  Sr57  1  0.17055749  0.28091911  0.87633785  1
  Sr  Sr58  1  0.16761186  0.63758786  0.36483819  1
  Sr  Sr59  1  0.16794385  0.63562556  0.85607188  1
  Sr  Sr60  1  0.50148799  -0.00696459  0.38332515  1
  Sr  Sr61  1  0.50071769  -0.01067162  0.88495295  1
  Sr  Sr62  1  0.50391141  0.27767379  0.37281926  1
  Sr  Sr63  1  0.49624125  0.28143645  0.87841759  1
  Sr  Sr64  1  0.49982362  0.63429734  0.36548136  1
  Sr  Sr65  1  0.49856324  0.63594635  0.86079749  1
  Sr  Sr66  1  0.83322509  0.00084990  0.39207009  1
  Sr  Sr67  1  0.83285155  -0.02100131  0.89054126  1
  Sr  Sr68  1  0.83484220  0.28600238  0.36876529  1
  Sr  Sr69  1  0.83302146  0.29015323  0.86066025  1
  Sr  Sr70  1  0.83324744  0.63780995  0.36311692  1
  Sr  Sr71  1  0.83314622  0.63378834  0.86763407  1
  Ta  Ta72  1  0.16668272  0.11923959  0.03602269  1
  Ta  Ta73  1  0.16578337  0.11882533  0.53316262  1
  Ta  Ta74  1  0.16535656  0.45468464  -0.00232849  1
  Ta  Ta75  1  0.16828471  0.43649301  0.46429850  1
  Ta  Ta76  1  0.17140803  0.79148734  -0.02272097  1
  Ta  Ta77  1  0.16746780  0.80493994  0.46495241  1
  Ta  Ta78  1  0.50223690  0.11646572  0.03553107  1
  Ta  Ta79  1  0.50165537  0.12036052  0.52997242  1
  Ta  Ta80  1  0.49495945  0.44680906  -0.01586693  1
  Ta  Ta81  1  0.49699095  0.44198489  0.47773965  1
  Ta  Ta82  1  0.49261964  0.79152727  -0.02135511  1
  Ta  Ta83  1  0.50338080  0.79840903  0.46525522  1
  Ta  Ta84  1  0.82770060  0.11702963  0.01290803  1
  Ta  Ta85  1  0.83256291  0.10969691  0.58933939  1
  Ta  Ta86  1  0.83670380  0.44374891  -0.03330847  1
  Ta  Ta87  1  0.83480104  0.45427864  0.49742448  1
  Ta  Ta88  1  0.83552748  0.79503728  -0.02552990  1
  Ta  Ta89  1  0.83214722  0.79522903  0.47456282  1
  Ta  Ta90  1  0.16423085  0.12060991  0.24118946  1
  Ta  Ta91  1  0.16292249  0.11763255  0.74018799  1
  Ta  Ta92  1  0.16611230  0.45431597  0.24975953  1
  Ta  Ta93  1  0.16357465  0.44105644  0.78011564  1
  Ta  Ta94  1  0.17093417  0.79035601  0.25399748  1
  Ta  Ta95  1  0.16743549  0.79849068  0.75706209  1
  Ta  Ta96  1  0.50220465  0.12414086  0.23842948  1
  Ta  Ta97  1  0.50521584  0.11690970  0.73630940  1
  Ta  Ta98  1  0.49827815  0.44710967  0.26731836  1
  Ta  Ta99  1  0.49606862  0.43806289  0.77577223  1
  Ta  Ta100  1  0.49340748  0.79090485  0.25404755  1
  Ta  Ta101  1  0.49776253  0.79694042  0.76861256  1
  Ta  Ta102  1  0.83398622  0.11367409  0.20905488  1
  Ta  Ta103  1  0.83052116  0.12108803  0.77960264  1
  Ta  Ta104  1  0.83424911  0.43942200  0.28017120  1
  Ta  Ta105  1  0.83632696  0.45474747  0.74619179  1
  Ta  Ta106  1  0.83516092  0.79697947  0.26187663  1
  Ta  Ta107  1  0.83690874  0.78726548  0.75367621  1
  Ta  Ta108  1  0.00076096  0.04444556  0.23703590  1
  Ta  Ta109  1  -0.00771538  0.04612929  0.74859924  1
  Ta  Ta110  1  0.00411136  0.37239635  0.26809987  1
  Ta  Ta111  1  -0.00453870  0.37533594  0.76584652  1
  Ta  Ta112  1  0.00134262  0.72247212  0.25652867  1
  Ta  Ta113  1  -0.00027552  0.72093501  0.75386643  1
  Ta  Ta114  1  0.33423623  0.04798784  0.24192514  1
  Ta  Ta115  1  0.33244304  0.04661815  0.73327735  1
  Ta  Ta116  1  0.32672935  0.37719532  0.26093520  1
  Ta  Ta117  1  0.33604065  0.36905615  0.77932908  1
  Ta  Ta118  1  0.33267330  0.71206854  0.23838084  1
  Ta  Ta119  1  0.33505508  0.73091149  0.77194366  1
  Ta  Ta120  1  0.66551889  0.04634901  0.23328945  1
  Ta  Ta121  1  0.67428923  0.04696362  0.74350823  1
  Ta  Ta122  1  0.66767149  0.36929038  0.26551898  1
  Ta  Ta123  1  0.66742779  0.37353604  0.76468974  1
  Ta  Ta124  1  0.66533386  0.72245325  0.25511832  1
  Ta  Ta125  1  0.66681183  0.71636563  0.75969545  1
  Ta  Ta126  1  -0.00524892  0.04045268  0.02748814  1
  Ta  Ta127  1  0.00250437  0.04201619  0.54064788  1
  Ta  Ta128  1  0.00624845  0.37519028  -0.02551452  1
  Ta  Ta129  1  -0.00344520  0.37261310  0.47809511  1
  Ta  Ta130  1  0.00070364  0.72288556  -0.03504625  1
  Ta  Ta131  1  0.00177516  0.72379233  0.46701228  1
  Ta  Ta132  1  0.33285272  0.03991942  0.03352796  1
  Ta  Ta133  1  0.33444914  0.04362384  0.52304136  1
  Ta  Ta134  1  0.33385257  0.37874574  -0.00816834  1
  Ta  Ta135  1  0.32998358  0.36750425  0.47308118  1
  Ta  Ta136  1  0.33243253  0.71174421  -0.01198254  1
  Ta  Ta137  1  0.33920782  0.73205271  0.45275416  1
  Ta  Ta138  1  0.67278953  0.04288002  0.02574708  1
  Ta  Ta139  1  0.66382579  0.04291526  0.53762572  1
  Ta  Ta140  1  0.66103389  0.36947460  -0.02311912  1
  Ta  Ta141  1  0.67191423  0.37148388  0.48265026  1
  Ta  Ta142  1  0.66542477  0.71988789  -0.02816202  1
  Ta  Ta143  1  0.66239106  0.72466077  0.46588953  1
  N  N144  1  0.33058346  0.34341756  0.12808195  1
  N  N145  1  -0.00087888  0.01491364  0.89153479  1
  N  N146  1  0.33413656  -0.02301120  0.14270204  1
  N  N147  1  -0.00004484  -0.02490361  0.14261045  1
  N  N148  1  0.83316409  0.19093520  0.67565290  1
  N  N149  1  0.66520688  0.65181460  0.86672662  1
  N  N150  1  0.49962283  0.51121508  0.37748273  1
  N  N151  1  0.66797382  0.70266852  0.11887093  1
  N  N152  1  0.66677768  0.34842136  0.61782873  1
  N  N153  1  0.16794659  0.51142828  0.87612234  1
  N  N154  1  -0.00015394  0.30426229  0.37497277  1
  N  N155  1  0.33439749  -0.02252910  0.63714973  1
  N  N156  1  0.33211186  0.66599980  0.11313640  1
  N  N157  1  0.49663557  0.82105662  0.12275917  1
  N  N158  1  0.66753314  0.35142405  0.12816771  1
  N  N159  1  0.49804182  0.86176317  0.87703002  1
  N  N160  1  0.15865001  0.49955396  0.12538175  1
  N  N161  1  0.83084552  0.81668943  0.61899923  1
  N  N162  1  0.83594164  0.50197271  0.61934662  1
  N  N163  1  0.83162110  0.51099006  0.86638501  1
  N  N164  1  0.33443346  0.02075021  0.38483228  1
  N  N165  1  0.66730737  -0.02400397  0.13813396  1
  N  N166  1  0.83343037  0.86377460  0.36768924  1
  N  N167  1  0.16890122  0.81697922  0.62064972  1
  N  N168  1  0.16796933  0.82099100  0.10885009  1
  N  N169  1  0.50301052  0.18942012  0.13064970  1
  N  N170  1  0.66549445  -0.02377643  0.64196484  1
  N  N171  1  0.00143783  -0.02343401  0.64624969  1
  N  N172  1  0.66341327  0.30528249  0.86764716  1
  N  N173  1  0.16346952  0.18813008  0.13755236  1
  N  N174  1  0.16759782  0.86389487  0.34900675  1
  N  N175  1  0.83191180  0.17456454  0.90338219  1
  N  N176  1  0.83586806  0.81568391  0.11068076  1
  O  O177  1  0.50379464  0.86869692  0.35830547  1
  O  O178  1  0.16583212  0.86799549  0.86924936  1
  O  O179  1  0.00329257  0.34190379  0.62829753  1
  O  O180  1  0.50217972  0.80525249  0.61306035  1
  O  O181  1  -0.00118140  0.35026385  0.12568423  1
  O  O182  1  0.33129206  0.65062901  0.85972089  1
  O  O183  1  0.00475322  0.65073255  0.86088214  1
  O  O184  1  0.00832623  0.30025371  0.87705065  1
  O  O185  1  -0.00869524  0.03509611  0.38987720  1
  O  O186  1  0.33267772  0.29928200  0.88511802  1
  O  O187  1  -0.00018567  0.71321623  0.11299720  1
  O  O188  1  0.49544787  0.19435252  0.64188984  1
  O  O189  1  0.50533329  0.46343628  0.12589652  1
  O  O190  1  0.16941461  0.13721693  0.88408001  1
  O  O191  1  0.16500889  0.51688054  0.37684496  1
  O  O192  1  0.49701894  0.13687811  0.88580115  1
  O  O193  1  0.49619962  0.51526419  0.86896569  1
  O  O194  1  0.65605485  0.70405320  0.61585888  1
  O  O195  1  0.67508309  0.03704835  0.38590055  1
  O  O196  1  0.34032753  0.29891516  0.36702242  1
  O  O197  1  0.16261867  0.14146413  0.39079097  1
  O  O198  1  0.83484758  0.45154840  0.11984079  1
  O  O199  1  0.66502797  0.29550478  0.37334386  1
  O  O200  1  0.00002842  0.64971080  0.36224850  1
  O  O201  1  0.16848193  0.19551896  0.63794350  1
  O  O202  1  0.49270817  0.45171332  0.62227191  1
  O  O203  1  0.33400516  0.65093545  0.36689141  1
  O  O204  1  0.83507753  0.16791115  0.32587585  1
  O  O205  1  0.33531682  0.02747048  0.88221886  1
  O  O206  1  0.00797338  0.71483439  0.61003061  1
  O  O207  1  0.16832247  0.44982157  0.62768323  1
  O  O208  1  0.83427772  0.19366432  0.12171898  1
  O  O209  1  0.50501004  0.14376082  0.38846063  1
  O  O210  1  0.83830860  0.86177215  0.85640847  1
  O  O211  1  0.66327736  0.00388501  0.89060944  1
  O  O212  1  0.33731164  0.72055163  0.60942088  1
  O  O213  1  0.83641438  0.51758079  0.37229067  1
  O  O214  1  0.33054087  0.36281068  0.62604147  1
  O  O215  1  0.66670301  0.64970472  0.36862923  1
