# generated using pymatgen
data_Sr24Ta24N11O13
_symmetry_space_group_name_H-M   'P 1'
_cell_length_a   16.78191418
_cell_length_b   16.77424957
_cell_length_c   15.73226795
_cell_angle_alpha   90.16130406
_cell_angle_beta   89.72876299
_cell_angle_gamma   90.07175789
_symmetry_Int_Tables_number   1
_chemical_formula_structural   Sr24Ta24N11O13
_chemical_formula_sum   'Sr72 Ta72 N33 O39'
_cell_volume   4428.62604616
_cell_formula_units_Z   3
loop_
 _symmetry_equiv_pos_site_id
 _symmetry_equiv_pos_as_xyz
  1  'x, y, z'
loop_
 _atom_site_type_symbol
 _atom_site_label
 _atom_site_symmetry_multiplicity
 _atom_site_fract_x
 _atom_site_fract_y
 _atom_site_fract_z
 _atom_site_occupancy
  Sr  Sr0  1  0.00411615  0.17169238  0.13124567  1
  Sr  Sr1  1  -0.01003104  0.15596681  0.58022396  1
  Sr  Sr2  1  0.01679047  0.50012445  0.07687963  1
  Sr  Sr3  1  -0.01289270  0.48993821  0.64202168  1
  Sr  Sr4  1  0.00190840  0.83260814  0.12111663  1
  Sr  Sr5  1  0.00328733  0.84792519  0.66659532  1
  Sr  Sr6  1  0.34211827  0.18298358  0.08584536  1
  Sr  Sr7  1  0.31795747  0.16249562  0.62370761  1
  Sr  Sr8  1  0.31351337  0.50275634  0.16825676  1
  Sr  Sr9  1  0.33695595  0.50061917  0.62296364  1
  Sr  Sr10  1  0.34301718  0.85056303  0.11670819  1
  Sr  Sr11  1  0.31907569  0.83728713  0.61372792  1
  Sr  Sr12  1  0.67064691  0.17307721  0.13328071  1
  Sr  Sr13  1  0.65798060  0.18075387  0.65895502  1
  Sr  Sr14  1  0.65210049  0.50974082  0.13234029  1
  Sr  Sr15  1  0.66083708  0.49204306  0.58739810  1
  Sr  Sr16  1  0.67026188  0.85660537  0.12134249  1
  Sr  Sr17  1  0.66141889  0.81846986  0.62801656  1
  Sr  Sr18  1  0.15746771  -0.00742678  0.16613776  1
  Sr  Sr19  1  0.16967662  0.00825401  0.61264623  1
  Sr  Sr20  1  0.15906940  0.32403356  0.11234911  1
  Sr  Sr21  1  0.17004192  0.35393244  0.68015339  1
  Sr  Sr22  1  0.16119037  0.66483496  0.12506442  1
  Sr  Sr23  1  0.17505426  0.65238229  0.58441657  1
  Sr  Sr24  1  0.50094285  -0.00327984  0.13414752  1
  Sr  Sr25  1  0.52649188  -0.01460054  0.62093567  1
  Sr  Sr26  1  0.50466980  0.32685499  0.08507426  1
  Sr  Sr27  1  0.49671684  0.33746035  0.62348711  1
  Sr  Sr28  1  0.49551786  0.64944495  0.12045410  1
  Sr  Sr29  1  0.48539245  0.66893868  0.66600960  1
  Sr  Sr30  1  0.84478633  0.00538057  0.08900902  1
  Sr  Sr31  1  0.84324666  0.00432363  0.61256849  1
  Sr  Sr32  1  0.81646958  0.32954509  0.17137134  1
  Sr  Sr33  1  0.84564831  0.33114771  0.62091280  1
  Sr  Sr34  1  0.81840238  0.64682165  0.14171738  1
  Sr  Sr35  1  0.82599927  0.66534996  0.62108933  1
  Sr  Sr36  1  0.01974054  0.17131864  0.36051218  1
  Sr  Sr37  1  -0.00538134  0.16164001  0.90914326  1
  Sr  Sr38  1  0.00421760  0.51680315  0.42521381  1
  Sr  Sr39  1  -0.00673984  0.48973327  0.86153205  1
  Sr  Sr40  1  0.00763125  0.82415865  0.33370985  1
  Sr  Sr41  1  -0.00543938  0.83891886  0.87665290  1
  Sr  Sr42  1  0.34272941  0.17785294  0.40249697  1
  Sr  Sr43  1  0.31222023  0.16056434  0.87195046  1
  Sr  Sr44  1  0.32558117  0.50043224  0.38215671  1
  Sr  Sr45  1  0.34191962  0.49238790  0.82849235  1
  Sr  Sr46  1  0.33737891  0.85299657  0.37991212  1
  Sr  Sr47  1  0.32929592  0.82298286  0.88913647  1
  Sr  Sr48  1  0.65845751  0.17271832  0.34108215  1
  Sr  Sr49  1  0.67423955  0.17820921  0.86597692  1
  Sr  Sr50  1  0.67901088  0.49837708  0.35833559  1
  Sr  Sr51  1  0.65062925  0.50932343  0.91867864  1
  Sr  Sr52  1  0.67827235  0.85251475  0.40231360  1
  Sr  Sr53  1  0.66246195  0.83153576  0.85925650  1
  Sr  Sr54  1  0.16974230  0.01443726  0.38287296  1
  Sr  Sr55  1  0.17256476  -0.01839539  0.82982966  1
  Sr  Sr56  1  0.17968090  0.34076708  0.33704736  1
  Sr  Sr57  1  0.14941646  0.32750665  0.89117453  1
  Sr  Sr58  1  0.16916376  0.65673236  0.37492174  1
  Sr  Sr59  1  0.15006713  0.67449456  0.91945414  1
  Sr  Sr60  1  0.52233045  -0.00367577  0.35349333  1
  Sr  Sr61  1  0.48710716  -0.01167671  0.90067542  1
  Sr  Sr62  1  0.48524028  0.33762582  0.41695008  1
  Sr  Sr63  1  0.51179638  0.32877367  0.87604202  1
  Sr  Sr64  1  0.49451992  0.63497870  0.33781871  1
  Sr  Sr65  1  0.49443485  0.65870243  0.87813772  1
  Sr  Sr66  1  0.84321775  0.00456002  0.40360152  1
  Sr  Sr67  1  0.84762220  0.00087762  0.88980370  1
  Sr  Sr68  1  0.85954668  0.32837616  0.38753012  1
  Sr  Sr69  1  0.83253017  0.33081001  0.84105308  1
  Sr  Sr70  1  0.82510127  0.67125223  0.37680764  1
  Sr  Sr71  1  0.83426029  0.66054330  0.85022559  1
  Ta  Ta72  1  0.16357491  0.11905401  -0.00101136  1
  Ta  Ta73  1  0.16862367  0.21547139  0.49893836  1
  Ta  Ta74  1  0.20877767  0.49888824  -0.00866855  1
  Ta  Ta75  1  0.16879448  0.45593543  0.50864102  1
  Ta  Ta76  1  0.16541070  0.86653578  -0.00029509  1
  Ta  Ta77  1  0.13115677  0.82956406  0.49926634  1
  Ta  Ta78  1  0.52513644  0.14729291  -0.00119143  1
  Ta  Ta79  1  0.52148946  0.14977928  0.49603986  1
  Ta  Ta80  1  0.44982409  0.49712961  -0.00029611  1
  Ta  Ta81  1  0.49443435  0.53604771  0.50714394  1
  Ta  Ta82  1  0.52327888  0.81527705  0.00130827  1
  Ta  Ta83  1  0.49492146  0.79424790  0.50343502  1
  Ta  Ta84  1  0.82407335  0.20076038  0.00336416  1
  Ta  Ta85  1  0.78740379  0.17644068  0.49870374  1
  Ta  Ta86  1  0.83213056  0.46992945  -0.00245086  1
  Ta  Ta87  1  0.82614858  0.49477370  0.50301365  1
  Ta  Ta88  1  0.82524632  0.79899394  -0.00377296  1
  Ta  Ta89  1  0.87936204  0.83129963  0.50130818  1
  Ta  Ta90  1  0.21319634  0.16956663  0.24849362  1
  Ta  Ta91  1  0.13058802  0.16557579  0.75238301  1
  Ta  Ta92  1  0.10899393  0.50286236  0.25057663  1
  Ta  Ta93  1  0.16406978  0.55122212  0.75817613  1
  Ta  Ta94  1  0.19236398  0.81437188  0.24502548  1
  Ta  Ta95  1  0.16848552  0.78281042  0.75549203  1
  Ta  Ta96  1  0.47800935  0.19510922  0.25178926  1
  Ta  Ta97  1  0.47472101  0.15240024  0.75015106  1
  Ta  Ta98  1  0.48986181  0.45086644  0.24566979  1
  Ta  Ta99  1  0.53533547  0.49360809  0.75213167  1
  Ta  Ta100  1  0.50595975  0.80950744  0.25359685  1
  Ta  Ta101  1  0.47750550  0.85025682  0.74826955  1
  Ta  Ta102  1  0.83985376  0.13362386  0.24857983  1
  Ta  Ta103  1  0.85348515  0.15256250  0.75464661  1
  Ta  Ta104  1  0.90304455  0.49648464  0.25132972  1
  Ta  Ta105  1  0.78434574  0.49769456  0.75199238  1
  Ta  Ta106  1  0.82937808  0.86188724  0.24672482  1
  Ta  Ta107  1  0.81880274  0.85999574  0.75270360  1
  Ta  Ta108  1  -0.03261652  0.00125058  0.24855735  1
  Ta  Ta109  1  -0.00388491  0.03655389  0.74805514  1
  Ta  Ta110  1  0.00669911  0.36667711  0.25451115  1
  Ta  Ta111  1  -0.00077405  0.28048970  0.74791657  1
  Ta  Ta112  1  0.00030653  0.63616844  0.25351962  1
  Ta  Ta113  1  0.03266033  0.66516809  0.75131279  1
  Ta  Ta114  1  0.33697858  0.04603706  0.24091905  1
  Ta  Ta115  1  0.36421416  -0.00381591  0.75340201  1
  Ta  Ta116  1  0.36151827  0.31793261  0.24836717  1
  Ta  Ta117  1  0.35291752  0.30581163  0.75147001  1
  Ta  Ta118  1  0.32984198  0.69699583  0.24693268  1
  Ta  Ta119  1  0.29667594  0.67247933  0.74785772  1
  Ta  Ta120  1  0.71393690  0.00039734  0.25020648  1
  Ta  Ta121  1  0.69527972  -0.00332781  0.74993296  1
  Ta  Ta122  1  0.60622871  0.33729607  0.24918731  1
  Ta  Ta123  1  0.66611014  0.37630617  0.75421052  1
  Ta  Ta124  1  0.65349197  0.70909712  0.24933055  1
  Ta  Ta125  1  0.66104520  0.62850119  0.74621446  1
  Ta  Ta126  1  0.04186878  -0.00363560  -0.00127273  1
  Ta  Ta127  1  0.00989984  -0.04336618  0.49573720  1
  Ta  Ta128  1  -0.04947496  0.33127888  -0.00304949  1
  Ta  Ta129  1  0.04870228  0.33610341  0.50534943  1
  Ta  Ta130  1  -0.03850112  0.67504828  -0.00371058  1
  Ta  Ta131  1  -0.00388738  0.70995716  0.50101574  1
  Ta  Ta132  1  0.29129438  0.00269553  -0.00006800  1
  Ta  Ta133  1  0.37450336  0.01115992  0.49584127  1
  Ta  Ta134  1  0.32864881  0.38038031  -0.00281407  1
  Ta  Ta135  1  0.28826911  0.33876213  0.51186940  1
  Ta  Ta136  1  0.33008511  0.61791157  -0.00295279  1
  Ta  Ta137  1  0.37198440  0.67180365  0.50305202  1
  Ta  Ta138  1  0.65705907  0.02173532  0.00345124  1
  Ta  Ta139  1  0.67058381  0.04980760  0.49498426  1
  Ta  Ta140  1  0.70320842  0.33462140  -0.00094678  1
  Ta  Ta141  1  0.67358041  0.30737873  0.49785741  1
  Ta  Ta142  1  0.66777688  0.69758641  0.00320509  1
  Ta  Ta143  1  0.61962630  0.66460217  0.50067310  1
  N  N144  1  0.49610149  0.82900328  0.62823016  1
  N  N145  1  0.15689706  0.15504335  0.87337860  1
  N  N146  1  0.49589096  0.49601122  0.87141294  1
  N  N147  1  0.33055454  -0.00456535  0.87295714  1
  N  N148  1  0.66305021  0.67345275  0.13108893  1
  N  N149  1  0.49487287  0.49890317  0.62411373  1
  N  N150  1  0.17029269  0.82994506  0.12569600  1
  N  N151  1  0.18110661  0.18303554  0.36945103  1
  N  N152  1  0.83116473  0.83268575  0.87421994  1
  N  N153  1  0.50357004  0.16867497  0.37399675  1
  N  N154  1  0.83157900  0.16454386  0.87614534  1
  N  N155  1  0.65341718  0.65973032  0.62416232  1
  N  N156  1  0.00758949  -0.00368517  0.36808943  1
  N  N157  1  0.00597749  0.32474020  0.63211647  1
  N  N158  1  0.82946320  0.49725269  0.62515476  1
  N  N159  1  0.66908130  0.34178525  0.87983181  1
  N  N160  1  -0.00932796  0.32328355  0.87860482  1
  N  N161  1  0.16611477  0.82588514  0.87410977  1
  N  N162  1  -0.00002338  0.66926436  0.37716197  1
  N  N163  1  0.32879173  0.66861631  0.62212718  1
  N  N164  1  0.33464124  0.01328535  0.12217534  1
  N  N165  1  0.01433261  0.34153899  0.37759099  1
  N  N166  1  0.16628970  0.50014885  0.87036260  1
  N  N167  1  0.00642091  0.00006893  0.61537632  1
  N  N168  1  0.32983520  0.33302852  0.63425823  1
  N  N169  1  0.83497766  0.16998366  0.13060981  1
  N  N170  1  0.00613578  -0.00219411  0.86435787  1
  N  N171  1  0.00219678  -0.00229597  0.12180336  1
  N  N172  1  -0.00662261  0.66317026  0.87645254  1
  N  N173  1  0.48592421  0.49029374  0.12774768  1
  N  N174  1  0.82230557  0.49782884  0.87810363  1
  N  N175  1  0.67370304  0.01213715  0.12485900  1
  N  N176  1  0.67837238  0.01093976  0.37442211  1
  O  O177  1  0.81623030  0.17553901  0.37138635  1
  O  O178  1  0.16820498  0.50270627  0.63195483  1
  O  O179  1  0.68225139  0.01561682  0.62565399  1
  O  O180  1  0.15468040  0.49740005  0.37207276  1
  O  O181  1  0.15315415  0.81960293  0.62512383  1
  O  O182  1  0.15996416  0.82200372  0.37527041  1
  O  O183  1  0.35829602  0.00195696  0.61792385  1
  O  O184  1  0.16136345  0.16550087  0.61807762  1
  O  O185  1  0.84981211  0.84096226  0.36975089  1
  O  O186  1  0.34380352  0.33533993  0.12007706  1
  O  O187  1  0.65582025  0.33549509  0.12849574  1
  O  O188  1  0.50169783  0.82342124  0.12378787  1
  O  O189  1  0.50010393  0.15097967  0.87734400  1
  O  O190  1  0.65824529  0.67586052  0.37519562  1
  O  O191  1  0.33782036  0.33756947  0.87379878  1
  O  O192  1  0.15999954  0.50510109  0.12891271  1
  O  O193  1  0.85197801  0.83798481  0.63168978  1
  O  O194  1  0.81393487  0.17004897  0.62521919  1
  O  O195  1  0.83040160  0.84181324  0.12071576  1
  O  O196  1  0.65986487  0.66441525  0.87796014  1
  O  O197  1  0.35885297  0.01653010  0.37065413  1
  O  O198  1  0.85651722  0.49230030  0.37521324  1
  O  O199  1  0.67920412  0.00512234  0.87212034  1
  O  O200  1  0.49780769  0.82826004  0.37613712  1
  O  O201  1  0.33369553  0.65964176  0.87438108  1
  O  O202  1  0.86174322  0.49352935  0.12913315  1
  O  O203  1  0.50628163  0.16501064  0.12356936  1
  O  O204  1  0.32719832  0.66203103  0.12436277  1
  O  O205  1  0.33540691  0.33307495  0.37673251  1
  O  O206  1  0.00147586  0.33586756  0.11449593  1
  O  O207  1  0.64292032  0.32563527  0.37778029  1
  O  O208  1  0.50352844  0.82345376  0.87515337  1
  O  O209  1  0.67048943  0.33182329  0.62385282  1
  O  O210  1  0.17082253  0.16886498  0.12472900  1
  O  O211  1  0.48087786  0.49031469  0.38195306  1
  O  O212  1  -0.00538174  0.66212143  0.11889425  1
  O  O213  1  0.00300739  0.67332803  0.62551491  1
  O  O214  1  0.49740382  0.15853874  0.62881725  1
  O  O215  1  0.34178468  0.68381110  0.37243070  1
