# generated using pymatgen
data_Sr24Ta24N11O13
_symmetry_space_group_name_H-M   'P 1'
_cell_length_a   16.80644432
_cell_length_b   16.77998477
_cell_length_c   15.72581170
_cell_angle_alpha   90.13913306
_cell_angle_beta   90.18900664
_cell_angle_gamma   90.00682209
_symmetry_Int_Tables_number   1
_chemical_formula_structural   Sr24Ta24N11O13
_chemical_formula_sum   'Sr72 Ta72 N33 O39'
_cell_volume   4434.82847457
_cell_formula_units_Z   3
loop_
 _symmetry_equiv_pos_site_id
 _symmetry_equiv_pos_as_xyz
  1  'x, y, z'
loop_
 _atom_site_type_symbol
 _atom_site_label
 _atom_site_symmetry_multiplicity
 _atom_site_fract_x
 _atom_site_fract_y
 _atom_site_fract_z
 _atom_site_occupancy
  Sr  Sr0  1  -0.04064475  0.17749567  0.08700948  1
  Sr  Sr1  1  -0.01170939  0.15970045  0.62835634  1
  Sr  Sr2  1  0.00268098  0.48864026  0.11233528  1
  Sr  Sr3  1  -0.00030531  0.50115071  0.63237102  1
  Sr  Sr4  1  -0.00934636  0.83558318  0.14153341  1
  Sr  Sr5  1  0.00135233  0.84547543  0.59508147  1
  Sr  Sr6  1  0.32352950  0.16076729  0.10679600  1
  Sr  Sr7  1  0.31924461  0.17494536  0.66686902  1
  Sr  Sr8  1  0.33133311  0.50595381  0.13611080  1
  Sr  Sr9  1  0.34316475  0.49185577  0.57827030  1
  Sr  Sr10  1  0.36233905  0.83312218  0.17607582  1
  Sr  Sr11  1  0.33058866  0.84419236  0.61739611  1
  Sr  Sr12  1  0.66606209  0.15305415  0.17845298  1
  Sr  Sr13  1  0.65661036  0.18400816  0.60837092  1
  Sr  Sr14  1  0.66461569  0.49737252  0.11590595  1
  Sr  Sr15  1  0.65610732  0.51193033  0.66642807  1
  Sr  Sr16  1  0.65869443  0.84280796  0.08165185  1
  Sr  Sr17  1  0.69272726  0.83647114  0.63368311  1
  Sr  Sr18  1  0.18574563  -0.01406886  0.14982810  1
  Sr  Sr19  1  0.17168219  -0.00734592  0.61690556  1
  Sr  Sr20  1  0.17976425  0.33555438  0.15569107  1
  Sr  Sr21  1  0.16959569  0.34531650  0.63116443  1
  Sr  Sr22  1  0.14792557  0.65802914  0.08988910  1
  Sr  Sr23  1  0.17227247  0.66877196  0.65335401  1
  Sr  Sr24  1  0.50686829  0.00632568  0.12580587  1
  Sr  Sr25  1  0.50753801  -0.01869027  0.57643566  1
  Sr  Sr26  1  0.49107532  0.30525701  0.09992873  1
  Sr  Sr27  1  0.50270837  0.33362259  0.63000563  1
  Sr  Sr28  1  0.50553908  0.65142391  0.11803553  1
  Sr  Sr29  1  0.49078546  0.66142875  0.62914195  1
  Sr  Sr30  1  0.83875238  -0.00711579  0.11564977  1
  Sr  Sr31  1  0.82219250  0.01819680  0.67754361  1
  Sr  Sr32  1  0.81969008  0.34137845  0.13413040  1
  Sr  Sr33  1  0.84545150  0.32846453  0.57444513  1
  Sr  Sr34  1  0.83609731  0.67023321  0.16209625  1
  Sr  Sr35  1  0.84431561  0.66908350  0.61848507  1
  Sr  Sr36  1  -0.00901055  0.16942049  0.40128413  1
  Sr  Sr37  1  -0.02740236  0.16273528  0.87182847  1
  Sr  Sr38  1  -0.00707861  0.48909587  0.39331549  1
  Sr  Sr39  1  0.01553300  0.50893054  0.86255644  1
  Sr  Sr40  1  -0.00804099  0.84300432  0.36136583  1
  Sr  Sr41  1  0.01671649  0.84277652  0.92824198  1
  Sr  Sr42  1  0.28926850  0.17036739  0.33501610  1
  Sr  Sr43  1  0.35166794  0.16372783  0.88836149  1
  Sr  Sr44  1  0.33193402  0.49777892  0.37105603  1
  Sr  Sr45  1  0.33292362  0.53546824  0.91925434  1
  Sr  Sr46  1  0.33078721  0.85210944  0.38214700  1
  Sr  Sr47  1  0.32626175  0.82241510  0.82624285  1
  Sr  Sr48  1  0.65881571  0.16593535  0.38662113  1
  Sr  Sr49  1  0.67714974  0.15772982  0.82985107  1
  Sr  Sr50  1  0.67218232  0.51855826  0.33090091  1
  Sr  Sr51  1  0.66237359  0.49723448  0.88282978  1
  Sr  Sr52  1  0.66549920  0.82272098  0.41719557  1
  Sr  Sr53  1  0.67917034  0.84584715  0.87263719  1
  Sr  Sr54  1  0.15706480  -0.01105079  0.38092631  1
  Sr  Sr55  1  0.19709119  -0.00064920  0.87013783  1
  Sr  Sr56  1  0.17409306  0.35090877  0.36756742  1
  Sr  Sr57  1  0.17068594  0.32118019  0.84685273  1
  Sr  Sr58  1  0.16149718  0.66334935  0.37689116  1
  Sr  Sr59  1  0.16301504  0.66566811  0.87843072  1
  Sr  Sr60  1  0.50947110  -0.00510456  0.37359160  1
  Sr  Sr61  1  0.50193739  -0.00386749  0.90676923  1
  Sr  Sr62  1  0.49988120  0.32858670  0.41177127  1
  Sr  Sr63  1  0.50876468  0.31304879  0.85611292  1
  Sr  Sr64  1  0.48159846  0.64975717  0.34844302  1
  Sr  Sr65  1  0.50835545  0.66608718  0.88509629  1
  Sr  Sr66  1  0.83375062  0.00659794  0.33499958  1
  Sr  Sr67  1  0.85319178  -0.00705292  0.89835274  1
  Sr  Sr68  1  0.82582295  0.33901656  0.36660874  1
  Sr  Sr69  1  0.84870638  0.34502442  0.92034664  1
  Sr  Sr70  1  0.84111611  0.68181031  0.38955505  1
  Sr  Sr71  1  0.83025975  0.64909956  0.83244976  1
  Ta  Ta72  1  0.14145047  0.17663256  0.00678366  1
  Ta  Ta73  1  0.17276547  0.17857350  0.49938458  1
  Ta  Ta74  1  0.17317551  0.45722463  -0.00612104  1
  Ta  Ta75  1  0.15842913  0.52656252  0.50591517  1
  Ta  Ta76  1  0.20451550  0.83800876  0.00136899  1
  Ta  Ta77  1  0.16598986  0.80146549  0.49736725  1
  Ta  Ta78  1  0.56741437  0.16197046  -0.00128687  1
  Ta  Ta79  1  0.44983915  0.16028876  0.49128927  1
  Ta  Ta80  1  0.49060333  0.46362797  -0.00350366  1
  Ta  Ta81  1  0.53707360  0.50769439  0.49751648  1
  Ta  Ta82  1  0.46819626  0.82760685  -0.00406261  1
  Ta  Ta83  1  0.48916429  0.79287340  0.49104069  1
  Ta  Ta84  1  0.77043401  0.17029550  0.00737178  1
  Ta  Ta85  1  0.82646904  0.12846703  0.50584224  1
  Ta  Ta86  1  0.83485557  0.53975650  -0.00059832  1
  Ta  Ta87  1  0.79271713  0.50880868  0.50370007  1
  Ta  Ta88  1  0.83530809  0.79254614  0.00519360  1
  Ta  Ta89  1  0.83533134  0.88707518  0.49542230  1
  Ta  Ta90  1  0.10849858  0.16608665  0.24045576  1
  Ta  Ta91  1  0.13670809  0.14783069  0.75224904  1
  Ta  Ta92  1  0.15559370  0.52585503  0.25238679  1
  Ta  Ta93  1  0.21638457  0.49989849  0.75184871  1
  Ta  Ta94  1  0.16802031  0.79866259  0.25028756  1
  Ta  Ta95  1  0.12305836  0.84037984  0.75808553  1
  Ta  Ta96  1  0.47696260  0.17705105  0.26165551  1
  Ta  Ta97  1  0.50283427  0.12459347  0.74011348  1
  Ta  Ta98  1  0.49654799  0.45367700  0.25433613  1
  Ta  Ta99  1  0.45851914  0.49884226  0.74668011  1
  Ta  Ta100  1  0.54663548  0.82923835  0.25151450  1
  Ta  Ta101  1  0.51480612  0.84779703  0.74904511  1
  Ta  Ta102  1  0.85984932  0.17414772  0.24786903  1
  Ta  Ta103  1  0.83139282  0.23080665  0.74360155  1
  Ta  Ta104  1  0.85876339  0.50874951  0.25588613  1
  Ta  Ta105  1  0.83427614  0.44896878  0.74234986  1
  Ta  Ta106  1  0.78840073  0.83569930  0.25077286  1
  Ta  Ta107  1  0.89064148  0.84039151  0.75967568  1
  Ta  Ta108  1  0.00456286  0.03903964  0.24068288  1
  Ta  Ta109  1  0.01801057  -0.01692605  0.76412957  1
  Ta  Ta110  1  -0.00502505  0.30816732  0.24821534  1
  Ta  Ta111  1  -0.02688236  0.32940938  0.74557154  1
  Ta  Ta112  1  0.01429723  0.64498861  0.24742442  1
  Ta  Ta113  1  0.00230443  0.71576747  0.76128167  1
  Ta  Ta114  1  0.35774123  0.01963943  0.25655000  1
  Ta  Ta115  1  0.38914309  -0.00125307  0.73966027  1
  Ta  Ta116  1  0.37184517  0.32735134  0.25743666  1
  Ta  Ta117  1  0.33747235  0.38155113  0.75135995  1
  Ta  Ta118  1  0.29218309  0.66807504  0.24847876  1
  Ta  Ta119  1  0.34036946  0.62747854  0.74430829  1
  Ta  Ta120  1  0.66489731  -0.04402701  0.25516969  1
  Ta  Ta121  1  0.61067800  -0.00708236  0.74218638  1
  Ta  Ta122  1  0.62551845  0.33575720  0.24993463  1
  Ta  Ta123  1  0.70355731  0.34104910  0.74691826  1
  Ta  Ta124  1  0.66355571  0.70741552  0.24291803  1
  Ta  Ta125  1  0.65141811  0.68877577  0.75407841  1
  Ta  Ta126  1  0.04624693  0.02300880  0.01393589  1
  Ta  Ta127  1  -0.04038577  0.00539774  0.49371683  1
  Ta  Ta128  1  0.04447207  0.32789491  0.00213611  1
  Ta  Ta129  1  0.03227464  0.32481390  0.49929052  1
  Ta  Ta130  1  -0.04277478  0.66275361  -0.00200451  1
  Ta  Ta131  1  0.02735602  0.66763264  0.50537142  1
  Ta  Ta132  1  0.33965066  -0.06316244  0.00257468  1
  Ta  Ta133  1  0.32751943  0.04883512  0.49949267  1
  Ta  Ta134  1  0.32081673  0.35011144  -0.00258814  1
  Ta  Ta135  1  0.32163460  0.28549962  0.49755491  1
  Ta  Ta136  1  0.33259614  0.72643130  0.00331414  1
  Ta  Ta137  1  0.31543932  0.68109401  0.49642206  1
  Ta  Ta138  1  0.67383300  0.03626607  -0.00035306  1
  Ta  Ta139  1  0.70864902  0.00049176  0.49700699  1
  Ta  Ta140  1  0.66139962  0.30357576  0.00376920  1
  Ta  Ta141  1  0.66850488  0.39522168  0.49813611  1
  Ta  Ta142  1  0.70761037  0.66621331  0.00115015  1
  Ta  Ta143  1  0.65560289  0.63760817  0.49848410  1
  N  N144  1  0.17626575  0.50277812  0.62738556  1
  N  N145  1  0.83104927  0.49641919  0.62656090  1
  N  N146  1  -0.00650491  0.00907426  0.37045817  1
  N  N147  1  0.17482635  0.49845757  0.87805764  1
  N  N148  1  0.65684133  0.32826405  0.13003075  1
  N  N149  1  0.34289431  0.00675654  0.62307402  1
  N  N150  1  0.81218747  0.16859456  0.13415912  1
  N  N151  1  0.32672393  0.66122383  0.36663983  1
  N  N152  1  0.50079033  0.82253144  0.37345136  1
  N  N153  1  0.50288935  0.83024102  0.87208083  1
  N  N154  1  0.33390186  0.65957149  0.62489197  1
  N  N155  1  0.01370466  0.00037276  0.88832021  1
  N  N156  1  0.00048477  0.33416150  0.62254699  1
  N  N157  1  0.16511319  0.50405942  0.37305240  1
  N  N158  1  0.83414882  0.50866059  0.37465116  1
  N  N159  1  0.16150402  0.83001509  0.37157803  1
  N  N160  1  0.49830778  0.49588596  0.62655696  1
  N  N161  1  0.00150687  0.33194858  0.37634663  1
  N  N162  1  0.33186749  0.32646505  0.37711118  1
  N  N163  1  0.66597822  0.67137749  0.12074261  1
  N  N164  1  0.16914833  0.83493033  0.87402080  1
  N  N165  1  0.50095373  0.49108637  0.37560986  1
  N  N166  1  0.50644960  0.15812938  0.37967095  1
  N  N167  1  0.00256209  0.33428686  0.11898211  1
  N  N168  1  0.32568420  0.00834085  0.37418916  1
  N  N169  1  0.66744474  -0.00352708  0.37927203  1
  N  N170  1  -0.00435365  -0.00789894  0.11902539  1
  N  N171  1  0.00367694  0.67171508  0.88282591  1
  N  N172  1  0.82772985  0.83176898  0.12285720  1
  N  N173  1  -0.00321754  0.66180002  0.12708985  1
  N  N174  1  0.82464782  0.17470394  0.62376220  1
  N  N175  1  0.66803409  0.67284296  0.87298772  1
  N  N176  1  0.82899275  0.84403664  0.37551822  1
  O  O177  1  0.14451791  0.17000761  0.37332539  1
  O  O178  1  0.33364427  0.33128353  0.12427107  1
  O  O179  1  0.00270948  0.32757470  0.87955887  1
  O  O180  1  0.50117410  0.48083568  0.87295058  1
  O  O181  1  0.85071725  0.85877886  0.63815308  1
  O  O182  1  0.52002873  0.15869056  0.12430842  1
  O  O183  1  0.52085850  0.15338662  0.86785998  1
  O  O184  1  0.66651660  0.35655976  0.37187886  1
  O  O185  1  0.67313574  0.34859983  0.61877050  1
  O  O186  1  0.33425569  0.68439480  0.12535322  1
  O  O187  1  0.15817172  0.15621281  0.62863263  1
  O  O188  1  0.33347665  0.67914195  0.87755618  1
  O  O189  1  0.34740284  -0.01919160  0.13039447  1
  O  O190  1  0.81851450  0.19690077  0.87217634  1
  O  O191  1  0.65393987  0.00276642  0.86435839  1
  O  O192  1  0.16824098  0.49393631  0.12258064  1
  O  O193  1  0.13872232  0.16536126  0.87427645  1
  O  O194  1  0.84805569  0.84082536  0.88070163  1
  O  O195  1  0.17081514  0.17939702  0.13316526  1
  O  O196  1  0.49110749  0.47702388  0.12072443  1
  O  O197  1  0.66506547  -0.00269841  0.12866837  1
  O  O198  1  0.16066390  0.82842583  0.12526000  1
  O  O199  1  0.00071844  0.66589655  0.38193253  1
  O  O200  1  0.83180560  0.49454465  0.87587238  1
  O  O201  1  0.83981264  0.50124888  0.12204040  1
  O  O202  1  0.00834297  0.68089920  0.63012936  1
  O  O203  1  0.83347810  0.16572798  0.37704522  1
  O  O204  1  0.33007862  0.33287640  0.61862546  1
  O  O205  1  -0.00140700  0.00054334  0.61789319  1
  O  O206  1  0.15517973  0.83532724  0.62274856  1
  O  O207  1  0.33101477  0.33745664  0.87244675  1
  O  O208  1  0.35268280  -0.02588231  0.86595256  1
  O  O209  1  0.68124972  0.33516664  0.87269212  1
  O  O210  1  0.65963253  0.66512711  0.62227724  1
  O  O211  1  0.66368602  0.66530187  0.37430857  1
  O  O212  1  0.49721691  0.82426353  0.61492772  1
  O  O213  1  0.50849343  0.82943563  0.12431765  1
  O  O214  1  0.65956806  -0.00770192  0.62253343  1
  O  O215  1  0.49666206  0.15080425  0.61383004  1
