# generated using pymatgen
data_Sr24Ta24N11O13
_symmetry_space_group_name_H-M   'P 1'
_cell_length_a   16.75670174
_cell_length_b   16.76440801
_cell_length_c   15.74122198
_cell_angle_alpha   90.32678758
_cell_angle_beta   90.15087026
_cell_angle_gamma   89.82368111
_symmetry_Int_Tables_number   1
_chemical_formula_structural   Sr24Ta24N11O13
_chemical_formula_sum   'Sr72 Ta72 N33 O39'
_cell_volume   4421.85603572
_cell_formula_units_Z   3
loop_
 _symmetry_equiv_pos_site_id
 _symmetry_equiv_pos_as_xyz
  1  'x, y, z'
loop_
 _atom_site_type_symbol
 _atom_site_label
 _atom_site_symmetry_multiplicity
 _atom_site_fract_x
 _atom_site_fract_y
 _atom_site_fract_z
 _atom_site_occupancy
  Sr  Sr0  1  -0.00296691  0.17134662  0.08570199  1
  Sr  Sr1  1  0.00897830  0.17207805  0.63070697  1
  Sr  Sr2  1  0.01578523  0.47738519  0.17011870  1
  Sr  Sr3  1  0.00335406  0.51024617  0.62002693  1
  Sr  Sr4  1  0.01573841  0.82163443  0.11892723  1
  Sr  Sr5  1  0.00491360  0.83956927  0.64547411  1
  Sr  Sr6  1  0.34273714  0.15874910  0.11429839  1
  Sr  Sr7  1  0.33708821  0.18878322  0.67200381  1
  Sr  Sr8  1  0.33652115  0.49960232  0.12629365  1
  Sr  Sr9  1  0.34019978  0.48064030  0.57920884  1
  Sr  Sr10  1  0.33922115  0.81801887  0.09938250  1
  Sr  Sr11  1  0.33280368  0.83928515  0.63183407  1
  Sr  Sr12  1  0.68684751  0.18692535  0.14795802  1
  Sr  Sr13  1  0.65010951  0.16299847  0.62301871  1
  Sr  Sr14  1  0.67745282  0.49500366  0.11282498  1
  Sr  Sr15  1  0.66208277  0.51509176  0.65761398  1
  Sr  Sr16  1  0.65621660  0.83922516  0.13320178  1
  Sr  Sr17  1  0.68715969  0.83880803  0.60091592  1
  Sr  Sr18  1  0.15638814  0.00773972  0.13630803  1
  Sr  Sr19  1  0.15698473  0.00054610  0.58352199  1
  Sr  Sr20  1  0.18374847  0.34363259  0.17039151  1
  Sr  Sr21  1  0.14593876  0.34007504  0.61352876  1
  Sr  Sr22  1  0.16616797  0.67178123  0.11014138  1
  Sr  Sr23  1  0.15797063  0.69424041  0.66817336  1
  Sr  Sr24  1  0.49620739  -0.00470626  0.12388924  1
  Sr  Sr25  1  0.49102822  -0.01793606  0.60461341  1
  Sr  Sr26  1  0.48071818  0.33681680  0.07908421  1
  Sr  Sr27  1  0.52099228  0.33250180  0.63863713  1
  Sr  Sr28  1  0.51720025  0.65837565  0.16669503  1
  Sr  Sr29  1  0.47768946  0.66001508  0.62323100  1
  Sr  Sr30  1  0.82441701  -0.00789937  0.14672646  1
  Sr  Sr31  1  0.83620071  -0.01644384  0.65216310  1
  Sr  Sr32  1  0.84161253  0.33113847  0.12764638  1
  Sr  Sr33  1  0.81752515  0.28372257  0.56768399  1
  Sr  Sr34  1  0.82665739  0.67719698  0.08011877  1
  Sr  Sr35  1  0.82462078  0.65477883  0.61704565  1
  Sr  Sr36  1  0.01296076  0.17060077  0.42416695  1
  Sr  Sr37  1  -0.00379893  0.17364475  0.87110732  1
  Sr  Sr38  1  0.00247583  0.51563620  0.38089733  1
  Sr  Sr39  1  0.02279908  0.48919304  0.84006127  1
  Sr  Sr40  1  0.01162226  0.84916362  0.34508952  1
  Sr  Sr41  1  0.01149762  0.83038813  0.88069088  1
  Sr  Sr42  1  0.32271684  0.16174470  0.32937666  1
  Sr  Sr43  1  0.34025185  0.16336542  0.88959362  1
  Sr  Sr44  1  0.33933459  0.49803014  0.37565703  1
  Sr  Sr45  1  0.32555830  0.49452777  0.91171817  1
  Sr  Sr46  1  0.33754250  0.85047042  0.41631407  1
  Sr  Sr47  1  0.34455338  0.81456411  0.85732731  1
  Sr  Sr48  1  0.66210254  0.18562630  0.39214011  1
  Sr  Sr49  1  0.67128013  0.17022143  0.84881269  1
  Sr  Sr50  1  0.66974463  0.51124301  0.34750058  1
  Sr  Sr51  1  0.66072760  0.49270503  0.87513205  1
  Sr  Sr52  1  0.66532814  0.84088294  0.36387520  1
  Sr  Sr53  1  0.67633031  0.84366133  0.90363678  1
  Sr  Sr54  1  0.16143898  0.00294003  0.37323346  1
  Sr  Sr55  1  0.14684225  0.02933529  0.92068676  1
  Sr  Sr56  1  0.16543612  0.35152018  0.38672922  1
  Sr  Sr57  1  0.14764253  0.32034448  0.82600729  1
  Sr  Sr58  1  0.14131920  0.68626411  0.34144713  1
  Sr  Sr59  1  0.17834492  0.66397149  0.88956780  1
  Sr  Sr60  1  0.50271929  -0.00033636  0.37987630  1
  Sr  Sr61  1  0.49463547  -0.02182556  0.90270164  1
  Sr  Sr62  1  0.49842027  0.33130604  0.41476474  1
  Sr  Sr63  1  0.48714798  0.31640556  0.86429148  1
  Sr  Sr64  1  0.47993111  0.65604924  0.37175634  1
  Sr  Sr65  1  0.50526942  0.66385768  0.83575825  1
  Sr  Sr66  1  0.82901101  -0.02376282  0.34739966  1
  Sr  Sr67  1  0.82746637  0.00139112  0.84975327  1
  Sr  Sr68  1  0.81244791  0.34445480  0.34113214  1
  Sr  Sr69  1  0.84555369  0.31903928  0.91695804  1
  Sr  Sr70  1  0.82990464  0.66326757  0.41151822  1
  Sr  Sr71  1  0.81758956  0.63956589  0.87788386  1
  Ta  Ta72  1  0.16496695  0.22270229  0.00112689  1
  Ta  Ta73  1  0.20698801  0.17539675  0.50403369  1
  Ta  Ta74  1  0.14607801  0.47108793  0.00843973  1
  Ta  Ta75  1  0.16669851  0.55980002  0.49762779  1
  Ta  Ta76  1  0.18594894  0.85739839  0.00071325  1
  Ta  Ta77  1  0.15789913  0.81102731  0.50082129  1
  Ta  Ta78  1  0.54246910  0.15896364  0.00360168  1
  Ta  Ta79  1  0.45926332  0.16300958  0.49825079  1
  Ta  Ta80  1  0.50386465  0.53270791  -0.00165187  1
  Ta  Ta81  1  0.53629997  0.50732760  0.50090621  1
  Ta  Ta82  1  0.50330354  0.79133205  0.00151626  1
  Ta  Ta83  1  0.51952634  0.80317724  0.49581340  1
  Ta  Ta84  1  0.81701389  0.13456227  0.00035248  1
  Ta  Ta85  1  0.83396917  0.10515646  0.49835825  1
  Ta  Ta86  1  0.88934985  0.49076435  0.00493515  1
  Ta  Ta87  1  0.82507492  0.47670874  0.49374711  1
  Ta  Ta88  1  0.84615943  0.86301191  0.00153792  1
  Ta  Ta89  1  0.86573911  0.84242782  0.49762887  1
  Ta  Ta90  1  0.13049513  0.17363114  0.25706438  1
  Ta  Ta91  1  0.16921598  0.12192961  0.74597467  1
  Ta  Ta92  1  0.19082573  0.53118213  0.25403358  1
  Ta  Ta93  1  0.20368270  0.50295006  0.74338338  1
  Ta  Ta94  1  0.21259696  0.84046725  0.25075885  1
  Ta  Ta95  1  0.17164710  0.89778109  0.74903801  1
  Ta  Ta96  1  0.50934574  0.18864727  0.24875768  1
  Ta  Ta97  1  0.49997261  0.11502290  0.76026008  1
  Ta  Ta98  1  0.49694285  0.46450442  0.25437783  1
  Ta  Ta99  1  0.45681260  0.49283851  0.74605650  1
  Ta  Ta100  1  0.46129735  0.83466900  0.25083522  1
  Ta  Ta101  1  0.53975737  0.83948199  0.75336238  1
  Ta  Ta102  1  0.86686781  0.16092800  0.25127073  1
  Ta  Ta103  1  0.83703605  0.18856209  0.75043745  1
  Ta  Ta104  1  0.83930346  0.54409148  0.24729213  1
  Ta  Ta105  1  0.84371408  0.47325496  0.74762136  1
  Ta  Ta106  1  0.83591568  0.78888373  0.25252679  1
  Ta  Ta107  1  0.83070102  0.80153509  0.74957166  1
  Ta  Ta108  1  -0.00250557  0.05375954  0.25432355  1
  Ta  Ta109  1  0.02953925  0.00679631  0.75584731  1
  Ta  Ta110  1  -0.00508680  0.27643590  0.25554879  1
  Ta  Ta111  1  -0.06734695  0.33250700  0.73406470  1
  Ta  Ta112  1  -0.04158794  0.66603207  0.24487057  1
  Ta  Ta113  1  -0.02831301  0.66924747  0.75671841  1
  Ta  Ta114  1  0.33414195  -0.03158385  0.25239001  1
  Ta  Ta115  1  0.31194266  0.00883733  0.74495775  1
  Ta  Ta116  1  0.38451224  0.33500394  0.24946248  1
  Ta  Ta117  1  0.32478139  0.37682616  0.75049736  1
  Ta  Ta118  1  0.32009368  0.68460206  0.24946842  1
  Ta  Ta119  1  0.32783283  0.61666595  0.75200164  1
  Ta  Ta120  1  0.64976563  0.03272795  0.25242760  1
  Ta  Ta121  1  0.63668563  -0.01101704  0.75440470  1
  Ta  Ta122  1  0.60749608  0.34070067  0.25092871  1
  Ta  Ta123  1  0.73867978  0.34020773  0.74408588  1
  Ta  Ta124  1  0.70847959  0.67112686  0.24179202  1
  Ta  Ta125  1  0.67333654  0.70816786  0.75348986  1
  Ta  Ta126  1  -0.03778379  -0.00669850  0.00006097  1
  Ta  Ta127  1  -0.03056605  -0.01129531  0.49579601  1
  Ta  Ta128  1  0.03090724  0.35473069  -0.00156286  1
  Ta  Ta129  1  -0.03281369  0.35847665  0.49632969  1
  Ta  Ta130  1  0.00181014  0.61203900  0.00897963  1
  Ta  Ta131  1  0.01455880  0.69329858  0.49688393  1
  Ta  Ta132  1  0.31716888  -0.02266484  -0.00159247  1
  Ta  Ta133  1  0.33020882  0.05469422  0.50437079  1
  Ta  Ta134  1  0.28274530  0.33034324  -0.00773978  1
  Ta  Ta135  1  0.33177747  0.28249788  0.49987364  1
  Ta  Ta136  1  0.38504419  0.65832505  -0.00371980  1
  Ta  Ta137  1  0.29097875  0.67385699  0.50270009  1
  Ta  Ta138  1  0.67791682  0.02855004  -0.00111407  1
  Ta  Ta139  1  0.69562146  0.00795139  0.49723232  1
  Ta  Ta140  1  0.65894848  0.31316207  -0.00619586  1
  Ta  Ta141  1  0.67172372  0.38191474  0.49452763  1
  Ta  Ta142  1  0.62930289  0.66522455  -0.00289404  1
  Ta  Ta143  1  0.64093769  0.66275231  0.49702460  1
  N  N144  1  0.33135559  0.00686606  0.61976248  1
  N  N145  1  0.50776793  0.82499078  0.87236670  1
  N  N146  1  0.66434689  0.00851765  0.37209705  1
  N  N147  1  0.34009089  0.65268904  0.87793640  1
  N  N148  1  0.83279910  0.50480025  0.36881409  1
  N  N149  1  0.67227538  0.66644724  0.12229614  1
  N  N150  1  0.49874891  0.15266795  0.87738428  1
  N  N151  1  0.84081961  0.16292003  0.12431792  1
  N  N152  1  0.49921591  0.82395037  0.37647548  1
  N  N153  1  0.17338101  0.83971283  0.12510343  1
  N  N154  1  0.83773099  0.82164465  0.37589842  1
  N  N155  1  0.31634279  0.33334368  0.86898908  1
  N  N156  1  0.16688034  0.51711338  0.37934661  1
  N  N157  1  0.49686465  0.82241517  0.13011130  1
  N  N158  1  0.66722081  0.00017805  0.87591070  1
  N  N159  1  0.49790671  0.49841384  0.37960298  1
  N  N160  1  0.49630703  0.49464289  0.62652047  1
  N  N161  1  0.84016383  0.82265753  0.62761300  1
  N  N162  1  0.66482022  0.66766583  0.87012975  1
  N  N163  1  0.16468781  0.17626303  0.37661052  1
  N  N164  1  0.00340252  0.65888344  0.12386915  1
  N  N165  1  -0.00866909  0.67499785  0.37746933  1
  N  N166  1  0.48941305  0.16510146  0.37705914  1
  N  N167  1  -0.00519863  0.00633489  0.87852650  1
  N  N168  1  0.49976157  0.16566464  0.11839095  1
  N  N169  1  0.16880446  0.16929626  0.63424686  1
  N  N170  1  0.17240776  0.49755572  0.12919835  1
  N  N171  1  -0.01800079  0.33076205  0.61565560  1
  N  N172  1  -0.00318109  0.00944739  0.37439293  1
  N  N173  1  0.17479276  0.84040210  0.37751479  1
  N  N174  1  0.83656329  0.16348972  0.87342383  1
  N  N175  1  0.65493194  0.35004856  0.37191744  1
  N  N176  1  0.16953899  0.85037301  0.62813372  1
  O  O177  1  0.15471711  0.18819210  0.12240419  1
  O  O178  1  0.66666576  0.66733381  0.37254857  1
  O  O179  1  0.68657172  0.35623940  0.62906234  1
  O  O180  1  0.83887188  0.83578676  0.12506889  1
  O  O181  1  0.16155138  0.17461922  0.87494968  1
  O  O182  1  0.18111625  0.50642136  0.61610834  1
  O  O183  1  0.34424990  0.66255697  0.12621960  1
  O  O184  1  0.32777198  0.33301540  0.62453897  1
  O  O185  1  0.66779540  0.00045983  0.62299067  1
  O  O186  1  -0.00491000  -0.00239512  0.63055324  1
  O  O187  1  0.31490922  0.66662625  0.63012336  1
  O  O188  1  0.50765447  0.82548196  0.62440629  1
  O  O189  1  0.83671790  0.14166253  0.62443952  1
  O  O190  1  -0.00441677  0.33616006  0.86865387  1
  O  O191  1  -0.01244337  0.64849089  0.87904423  1
  O  O192  1  -0.01661603  0.32168045  0.37582145  1
  O  O193  1  0.66761350  -0.00250544  0.13136470  1
  O  O194  1  -0.00944556  0.67499140  0.63141769  1
  O  O195  1  0.83971645  0.84293978  0.87711074  1
  O  O196  1  0.17416120  0.50181514  0.87187518  1
  O  O197  1  0.69543594  0.33110090  0.87298791  1
  O  O198  1  0.86118703  0.48582250  0.13089881  1
  O  O199  1  0.49998399  0.50686212  0.12457740  1
  O  O200  1  0.49304723  0.15301629  0.63715466  1
  O  O201  1  0.83427564  0.50114335  0.62388897  1
  O  O202  1  0.31888503  0.68126344  0.38101994  1
  O  O203  1  0.66087930  0.66917589  0.62528091  1
  O  O204  1  0.34434243  0.31644790  0.36959197  1
  O  O205  1  0.86547912  0.48595910  0.88043735  1
  O  O206  1  0.33176562  -0.00689410  0.87708126  1
  O  O207  1  -0.00144704  0.32205644  0.13368655  1
  O  O208  1  -0.00401325  0.01916546  0.12353972  1
  O  O209  1  0.33039017  0.00492756  0.37594188  1
  O  O210  1  0.16916022  0.85474902  0.86911711  1
  O  O211  1  0.33497476  0.33868789  0.12719010  1
  O  O212  1  0.50191868  0.50806167  0.86979824  1
  O  O213  1  0.63687513  0.33549660  0.11648300  1
  O  O214  1  0.83854037  0.14184087  0.37977094  1
  O  O215  1  0.33363781  -0.01026244  0.12547154  1
