# generated using pymatgen
data_Sr24Ta24N11O13
_symmetry_space_group_name_H-M   'P 1'
_cell_length_a   16.69661669
_cell_length_b   16.84292906
_cell_length_c   15.62261129
_cell_angle_alpha   89.37626123
_cell_angle_beta   89.69727828
_cell_angle_gamma   90.15093010
_symmetry_Int_Tables_number   1
_chemical_formula_structural   Sr24Ta24N11O13
_chemical_formula_sum   'Sr72 Ta72 N33 O39'
_cell_volume   4393.05209551
_cell_formula_units_Z   3
loop_
 _symmetry_equiv_pos_site_id
 _symmetry_equiv_pos_as_xyz
  1  'x, y, z'
loop_
 _atom_site_type_symbol
 _atom_site_label
 _atom_site_symmetry_multiplicity
 _atom_site_fract_x
 _atom_site_fract_y
 _atom_site_fract_z
 _atom_site_occupancy
  Sr  Sr0  1  0.01057682  0.12746242  0.16972688  1
  Sr  Sr1  1  -0.01208055  0.17341306  0.61458319  1
  Sr  Sr2  1  -0.00462543  0.49343192  0.13212144  1
  Sr  Sr3  1  0.00208784  0.48523589  0.62594079  1
  Sr  Sr4  1  0.01430560  0.82943898  0.08949052  1
  Sr  Sr5  1  -0.00255018  0.79619104  0.65891981  1
  Sr  Sr6  1  0.32951598  0.15377222  0.12774853  1
  Sr  Sr7  1  0.34459417  0.17170996  0.58056949  1
  Sr  Sr8  1  0.34236932  0.50474045  0.12614758  1
  Sr  Sr9  1  0.32190543  0.48613181  0.61930164  1
  Sr  Sr10  1  0.33465837  0.82486575  0.16630349  1
  Sr  Sr11  1  0.34540663  0.81876071  0.62014839  1
  Sr  Sr12  1  0.67485143  0.16961924  0.11507756  1
  Sr  Sr13  1  0.64010845  0.15629291  0.67687746  1
  Sr  Sr14  1  0.66476988  0.50186455  0.08473432  1
  Sr  Sr15  1  0.66202391  0.51577291  0.64207918  1
  Sr  Sr16  1  0.67399035  0.81756926  0.14531944  1
  Sr  Sr17  1  0.66864311  0.85749909  0.57985156  1
  Sr  Sr18  1  0.17536620  -0.00249225  0.13387459  1
  Sr  Sr19  1  0.16177007  0.05535840  0.58855269  1
  Sr  Sr20  1  0.16841283  0.35663373  0.09908373  1
  Sr  Sr21  1  0.15241883  0.34152285  0.66975570  1
  Sr  Sr22  1  0.15321784  0.68475097  0.09160310  1
  Sr  Sr23  1  0.16407808  0.66600897  0.62406086  1
  Sr  Sr24  1  0.52218890  0.00602918  0.07674400  1
  Sr  Sr25  1  0.49532158  0.00029542  0.63088768  1
  Sr  Sr26  1  0.50127207  0.31383131  0.16922671  1
  Sr  Sr27  1  0.49190628  0.34893174  0.60802470  1
  Sr  Sr28  1  0.50104779  0.66021464  0.11074112  1
  Sr  Sr29  1  0.49791637  0.67126046  0.66206646  1
  Sr  Sr30  1  0.83337540  0.00639941  0.16078579  1
  Sr  Sr31  1  0.83603376  0.00659466  0.62291169  1
  Sr  Sr32  1  0.83106597  0.34699448  0.12338818  1
  Sr  Sr33  1  0.83650965  0.34651920  0.58767739  1
  Sr  Sr34  1  0.85560807  0.67817478  0.14257897  1
  Sr  Sr35  1  0.81692171  0.67147235  0.63912129  1
  Sr  Sr36  1  -0.00368828  0.14200807  0.39671754  1
  Sr  Sr37  1  0.01283682  0.15233204  0.83326291  1
  Sr  Sr38  1  -0.01230889  0.50090617  0.36070425  1
  Sr  Sr39  1  -0.00261591  0.45062094  0.90012109  1
  Sr  Sr40  1  0.01929764  0.80635591  0.40058969  1
  Sr  Sr41  1  -0.00207473  0.84453589  0.87487714  1
  Sr  Sr42  1  0.34236098  0.16300458  0.37100676  1
  Sr  Sr43  1  0.32077619  0.15271602  0.91918767  1
  Sr  Sr44  1  0.34223673  0.49751260  0.36211494  1
  Sr  Sr45  1  0.32553775  0.48695239  0.89734766  1
  Sr  Sr46  1  0.32600621  0.82247922  0.37966286  1
  Sr  Sr47  1  0.34472574  0.82668912  0.82840252  1
  Sr  Sr48  1  0.67098074  0.18150231  0.32992932  1
  Sr  Sr49  1  0.67026967  0.15933365  0.88464685  1
  Sr  Sr50  1  0.66347342  0.47696626  0.42441213  1
  Sr  Sr51  1  0.66035157  0.51193132  0.86419049  1
  Sr  Sr52  1  0.68243034  0.83582482  0.36734621  1
  Sr  Sr53  1  0.63111862  0.83834626  0.93372680  1
  Sr  Sr54  1  0.17159442  0.01451549  0.35762002  1
  Sr  Sr55  1  0.16080381  0.00421527  0.89077505  1
  Sr  Sr56  1  0.15633989  0.37451884  0.33355126  1
  Sr  Sr57  1  0.16905046  0.32041446  0.88237656  1
  Sr  Sr58  1  0.16710570  0.66860352  0.41604066  1
  Sr  Sr59  1  0.16534923  0.71412930  0.85222444  1
  Sr  Sr60  1  0.50434830  -0.02590244  0.41565895  1
  Sr  Sr61  1  0.49907995  0.00858977  0.86841035  1
  Sr  Sr62  1  0.48703912  0.34213217  0.38675705  1
  Sr  Sr63  1  0.52060713  0.32862707  0.82729034  1
  Sr  Sr64  1  0.47827282  0.67314616  0.32003621  1
  Sr  Sr65  1  0.50186467  0.65565095  0.88995388  1
  Sr  Sr66  1  0.83206349  0.00231096  0.38138273  1
  Sr  Sr67  1  0.84934248  0.01438571  0.84037747  1
  Sr  Sr68  1  0.83623788  0.34299494  0.37772277  1
  Sr  Sr69  1  0.82135994  0.33057069  0.91789350  1
  Sr  Sr70  1  0.82651978  0.67544540  0.36859636  1
  Sr  Sr71  1  0.83903650  0.68445807  0.85215507  1
  Ta  Ta72  1  0.12648570  0.16171404  0.01060192  1
  Ta  Ta73  1  0.16493348  0.22996488  0.48913593  1
  Ta  Ta74  1  0.15107819  0.54054575  -0.02537526  1
  Ta  Ta75  1  0.15876054  0.47535767  0.50229421  1
  Ta  Ta76  1  0.22548090  0.84363232  0.00191567  1
  Ta  Ta77  1  0.17090404  0.87000207  0.52107232  1
  Ta  Ta78  1  0.50040142  0.20110287  -0.00392872  1
  Ta  Ta79  1  0.53753053  0.16601150  0.49412013  1
  Ta  Ta80  1  0.49897934  0.44983363  0.00146451  1
  Ta  Ta81  1  0.49642708  0.55416200  0.49379989  1
  Ta  Ta82  1  0.44390750  0.83238552  0.00466424  1
  Ta  Ta83  1  0.50263197  0.77478162  0.48999889  1
  Ta  Ta84  1  0.86241002  0.14325300  -0.00196213  1
  Ta  Ta85  1  0.79197690  0.16996416  0.50092234  1
  Ta  Ta86  1  0.83789598  0.54042981  -0.00361231  1
  Ta  Ta87  1  0.84333809  0.53154760  0.50787655  1
  Ta  Ta88  1  0.82616594  0.85444919  0.00092978  1
  Ta  Ta89  1  0.86416126  0.83091773  0.50856514  1
  Ta  Ta90  1  0.16696925  0.20736098  0.25025948  1
  Ta  Ta91  1  0.21968013  0.16467307  0.74895364  1
  Ta  Ta92  1  0.16231927  0.54818946  0.24203340  1
  Ta  Ta93  1  0.16290868  0.52502423  0.77304274  1
  Ta  Ta94  1  0.15152746  0.81531260  0.24783273  1
  Ta  Ta95  1  0.17682110  0.89334685  0.72131456  1
  Ta  Ta96  1  0.50221022  0.11839433  0.24339919  1
  Ta  Ta97  1  0.43965469  0.16506513  0.75520953  1
  Ta  Ta98  1  0.54241101  0.49680791  0.24874318  1
  Ta  Ta99  1  0.46900033  0.50284853  0.75449539  1
  Ta  Ta100  1  0.50806285  0.87207132  0.23751324  1
  Ta  Ta101  1  0.54306656  0.83954554  0.75125985  1
  Ta  Ta102  1  0.85289759  0.19200272  0.25337636  1
  Ta  Ta103  1  0.82997394  0.20804878  0.75282327  1
  Ta  Ta104  1  0.78695472  0.50496052  0.25103015  1
  Ta  Ta105  1  0.84229577  0.47169705  0.75243360  1
  Ta  Ta106  1  0.87762616  0.83736439  0.26045533  1
  Ta  Ta107  1  0.78379146  0.84535979  0.75181849  1
  Ta  Ta108  1  0.00653654  -0.05379677  0.25934096  1
  Ta  Ta109  1  0.03036817  -0.01881755  0.71931954  1
  Ta  Ta110  1  -0.00315733  0.30241479  0.24516398  1
  Ta  Ta111  1  -0.04580481  0.32737369  0.75194169  1
  Ta  Ta112  1  0.02958817  0.67565743  0.25515341  1
  Ta  Ta113  1  0.00587176  0.61535631  0.76754470  1
  Ta  Ta114  1  0.38374704  -0.00651318  0.24500504  1
  Ta  Ta115  1  0.31582518  0.02668518  0.74670445  1
  Ta  Ta116  1  0.31226982  0.31724844  0.24992320  1
  Ta  Ta117  1  0.33540176  0.30430700  0.74496600  1
  Ta  Ta118  1  0.28113502  0.65919037  0.24650562  1
  Ta  Ta119  1  0.32374918  0.62724027  0.75793111  1
  Ta  Ta120  1  0.63364453  0.00064233  0.25334916  1
  Ta  Ta121  1  0.66422749  -0.04099991  0.76137101  1
  Ta  Ta122  1  0.67443030  0.37747335  0.24983485  1
  Ta  Ta123  1  0.71181989  0.33558445  0.75182183  1
  Ta  Ta124  1  0.66474179  0.61856660  0.25081706  1
  Ta  Ta125  1  0.66069145  0.72572122  0.76029336  1
  Ta  Ta126  1  -0.01642188  0.01817650  0.00868832  1
  Ta  Ta127  1  0.00658035  -0.04273204  0.50750168  1
  Ta  Ta128  1  -0.00355925  0.26621329  0.00182395  1
  Ta  Ta129  1  0.03497550  0.33741841  0.49979942  1
  Ta  Ta130  1  -0.00656490  0.63622459  -0.02723408  1
  Ta  Ta131  1  -0.02682414  0.64781887  0.51017842  1
  Ta  Ta132  1  0.33657871  -0.03731319  0.00474756  1
  Ta  Ta133  1  0.31725265  -0.01823248  0.49769873  1
  Ta  Ta134  1  0.38430916  0.32492599  -0.00225392  1
  Ta  Ta135  1  0.28469582  0.34073082  0.49414215  1
  Ta  Ta136  1  0.32455352  0.69344178  0.00058784  1
  Ta  Ta137  1  0.36211801  0.65796941  0.49533994  1
  Ta  Ta138  1  0.72209893  -0.00498850  -0.00163766  1
  Ta  Ta139  1  0.66517601  0.05473590  0.49753936  1
  Ta  Ta140  1  0.62509899  0.33235569  -0.00471765  1
  Ta  Ta141  1  0.66121864  0.27716265  0.50670607  1
  Ta  Ta142  1  0.71179664  0.67295538  -0.00090690  1
  Ta  Ta143  1  0.63550650  0.66947200  0.49762257  1
  N  N144  1  -0.00895564  0.30226571  0.88136703  1
  N  N145  1  0.49670592  0.49268440  0.87299103  1
  N  N146  1  0.33824895  -0.00242913  0.12913018  1
  N  N147  1  0.50228381  0.50835041  0.37871125  1
  N  N148  1  0.83928792  0.83089943  0.37992086  1
  N  N149  1  0.66305075  0.00800404  0.37461665  1
  N  N150  1  0.16706891  0.16950516  0.12927319  1
  N  N151  1  0.50331250  0.48906870  0.12876102  1
  N  N152  1  0.33142852  0.33592236  0.37110374  1
  N  N153  1  0.48966857  0.16358850  0.86834498  1
  N  N154  1  -0.00441942  0.02576722  0.60997011  1
  N  N155  1  0.67176769  -0.00144368  0.88546847  1
  N  N156  1  0.83587389  0.16707933  0.87641954  1
  N  N157  1  0.83149521  0.17574833  0.37549773  1
  N  N158  1  0.32846192  0.66241776  0.13028661  1
  N  N159  1  0.32324960  0.32972615  0.62261519  1
  N  N160  1  0.33385758  0.66730421  0.87185845  1
  N  N161  1  -0.00252221  0.69514175  0.86268463  1
  N  N162  1  0.66602640  0.68434367  0.88562425  1
  N  N163  1  0.82348153  0.83394517  0.63206279  1
  N  N164  1  0.32426920  0.66447401  0.37556157  1
  N  N165  1  -0.00496905  0.33005706  0.62036795  1
  N  N166  1  0.50221660  0.83449805  0.11644633  1
  N  N167  1  -0.00005685  0.65544467  0.37442698  1
  N  N168  1  0.18117133  0.81356306  0.63101865  1
  N  N169  1  0.50587357  0.15916839  0.12285524  1
  N  N170  1  0.82682356  0.50303135  0.62943972  1
  N  N171  1  0.00129120  -0.01768420  0.12472741  1
  N  N172  1  0.16399860  0.46460143  0.88244197  1
  N  N173  1  0.00983888  -0.01323738  0.37935724  1
  N  N174  1  -0.00598286  0.64425130  0.64670370  1
  N  N175  1  0.17670796  0.83641240  0.12706794  1
  N  N176  1  0.67048381  0.33755680  0.87444307  1
  O  O177  1  0.19598122  0.86108348  0.85453011  1
  O  O178  1  0.83161773  0.16563231  0.12916684  1
  O  O179  1  0.48958537  0.15665746  0.63046784  1
  O  O180  1  0.17340712  0.16123328  0.87417543  1
  O  O181  1  0.16399187  0.49266522  0.63232311  1
  O  O182  1  0.66756081  0.31075371  0.63144145  1
  O  O183  1  0.33298679  -0.01717853  0.36994775  1
  O  O184  1  0.67279961  0.33098096  0.37357925  1
  O  O185  1  0.66631406  0.33990198  0.12553406  1
  O  O186  1  0.83553410  0.52080230  0.12718333  1
  O  O187  1  0.84035221  0.84374904  0.87515321  1
  O  O188  1  0.50550059  0.82066257  0.36709006  1
  O  O189  1  0.65413854  0.67844301  0.62631748  1
  O  O190  1  0.00618054  -0.00069626  0.85123514  1
  O  O191  1  0.00282547  0.65829469  0.12043051  1
  O  O192  1  0.15862327  0.51561704  0.37838021  1
  O  O193  1  0.50226445  0.16145579  0.36970395  1
  O  O194  1  -0.00555787  0.32932499  0.12033786  1
  O  O195  1  0.32538209  0.00282182  0.87302108  1
  O  O196  1  0.15983306  0.17121287  0.37611139  1
  O  O197  1  0.33183028  0.32796604  0.88095898  1
  O  O198  1  0.67988709  0.00726747  0.12252565  1
  O  O199  1  0.49081877  0.83594314  0.87378863  1
  O  O200  1  -0.00490391  0.32628502  0.37208718  1
  O  O201  1  0.66918657  0.66117803  0.12408818  1
  O  O202  1  0.84580751  0.83855375  0.12669099  1
  O  O203  1  0.18229739  0.19451925  0.62685411  1
  O  O204  1  0.65568947  0.00982166  0.62175255  1
  O  O205  1  0.15299416  0.52741851  0.10690889  1
  O  O206  1  0.49806276  0.50907056  0.62316062  1
  O  O207  1  0.17310661  0.82564843  0.39451726  1
  O  O208  1  0.83032852  0.16924953  0.62698034  1
  O  O209  1  0.32675003  0.66238631  0.62750338  1
  O  O210  1  0.66195060  0.66383870  0.37184628  1
  O  O211  1  0.33639568  0.01307764  0.61601317  1
  O  O212  1  0.34424795  0.32164438  0.12376094  1
  O  O213  1  0.51056860  0.81947357  0.61223471  1
  O  O214  1  0.82617694  0.50713255  0.87697816  1
  O  O215  1  0.82041765  0.50718720  0.37946903  1
