# generated using pymatgen
data_Sr24Ta24N11O13
_symmetry_space_group_name_H-M   'P 1'
_cell_length_a   16.86122573
_cell_length_b   16.78895258
_cell_length_c   15.73747302
_cell_angle_alpha   89.88715353
_cell_angle_beta   90.48771768
_cell_angle_gamma   89.99382746
_symmetry_Int_Tables_number   1
_chemical_formula_structural   Sr24Ta24N11O13
_chemical_formula_sum   'Sr72 Ta72 N33 O39'
_cell_volume   4454.83028229
_cell_formula_units_Z   3
loop_
 _symmetry_equiv_pos_site_id
 _symmetry_equiv_pos_as_xyz
  1  'x, y, z'
loop_
 _atom_site_type_symbol
 _atom_site_label
 _atom_site_symmetry_multiplicity
 _atom_site_fract_x
 _atom_site_fract_y
 _atom_site_fract_z
 _atom_site_occupancy
  Sr  Sr0  1  -0.00982592  0.15202414  0.08031759  1
  Sr  Sr1  1  0.01755700  0.15810828  0.64847023  1
  Sr  Sr2  1  0.01138691  0.48268567  0.14244946  1
  Sr  Sr3  1  -0.01472988  0.48877593  0.58968361  1
  Sr  Sr4  1  0.01861141  0.82945596  0.13536038  1
  Sr  Sr5  1  0.00555642  0.81267987  0.63561181  1
  Sr  Sr6  1  0.32976423  0.15221297  0.13266379  1
  Sr  Sr7  1  0.33563089  0.15352317  0.59520292  1
  Sr  Sr8  1  0.33849049  0.49926182  0.10675260  1
  Sr  Sr9  1  0.33478682  0.48741914  0.62304328  1
  Sr  Sr10  1  0.36146013  0.81815484  0.16058996  1
  Sr  Sr11  1  0.33219730  0.83496066  0.62178663  1
  Sr  Sr12  1  0.67587006  0.16278531  0.17070872  1
  Sr  Sr13  1  0.67197128  0.18758388  0.61077913  1
  Sr  Sr14  1  0.66296899  0.49497269  0.11914531  1
  Sr  Sr15  1  0.67172822  0.50401683  0.66552748  1
  Sr  Sr16  1  0.67152393  0.84424984  0.09161917  1
  Sr  Sr17  1  0.68322058  0.82064725  0.61579313  1
  Sr  Sr18  1  0.15584368  0.00381505  0.10005169  1
  Sr  Sr19  1  0.16772119  0.00539032  0.60420421  1
  Sr  Sr20  1  0.17775899  0.32570156  0.16818915  1
  Sr  Sr21  1  0.15915488  0.35293238  0.62661250  1
  Sr  Sr22  1  0.15228355  0.65637497  0.10777828  1
  Sr  Sr23  1  0.16825128  0.68413119  0.66479214  1
  Sr  Sr24  1  0.49546761  -0.00034035  0.11707422  1
  Sr  Sr25  1  0.49184806  -0.00161334  0.66143285  1
  Sr  Sr26  1  0.48626715  0.34278081  0.07898975  1
  Sr  Sr27  1  0.51209946  0.33947092  0.63843674  1
  Sr  Sr28  1  0.49820872  0.65917010  0.15840359  1
  Sr  Sr29  1  0.48169958  0.68802186  0.59566824  1
  Sr  Sr30  1  0.82883077  -0.00224941  0.12843062  1
  Sr  Sr31  1  0.81444318  0.02836959  0.62962787  1
  Sr  Sr32  1  0.83558451  0.34547390  0.13349067  1
  Sr  Sr33  1  0.83915446  0.34409105  0.59233418  1
  Sr  Sr34  1  0.80333829  0.68141797  0.09560609  1
  Sr  Sr35  1  0.83842298  0.66653938  0.63325460  1
  Sr  Sr36  1  0.01561263  0.14313837  0.39777438  1
  Sr  Sr37  1  0.01086509  0.16804266  0.86498814  1
  Sr  Sr38  1  -0.01088420  0.49707209  0.37091620  1
  Sr  Sr39  1  0.00118018  0.48962348  0.90133314  1
  Sr  Sr40  1  0.00416862  0.83716355  0.36033190  1
  Sr  Sr41  1  0.02664257  0.80390459  0.87040826  1
  Sr  Sr42  1  0.32362773  0.15958488  0.36122192  1
  Sr  Sr43  1  0.34717411  0.14579266  0.91968875  1
  Sr  Sr44  1  0.34866964  0.49256182  0.39773235  1
  Sr  Sr45  1  0.33279425  0.48811854  0.87181894  1
  Sr  Sr46  1  0.34344349  0.82277087  0.37970726  1
  Sr  Sr47  1  0.34770430  0.83001004  0.83893502  1
  Sr  Sr48  1  0.67523218  0.18327087  0.38749876  1
  Sr  Sr49  1  0.65250221  0.16360620  0.82583811  1
  Sr  Sr50  1  0.66052374  0.50936965  0.33665370  1
  Sr  Sr51  1  0.67291085  0.49370162  0.88550479  1
  Sr  Sr52  1  0.67537916  0.82453798  0.40752696  1
  Sr  Sr53  1  0.68312043  0.82932329  0.88827217  1
  Sr  Sr54  1  0.16706334  -0.00438707  0.39632831  1
  Sr  Sr55  1  0.16204291  0.01285147  0.89009964  1
  Sr  Sr56  1  0.16156010  0.35510096  0.37400440  1
  Sr  Sr57  1  0.16002261  0.33104646  0.83606155  1
  Sr  Sr58  1  0.14200358  0.67937474  0.33525243  1
  Sr  Sr59  1  0.17622541  0.65922565  0.88363392  1
  Sr  Sr60  1  0.48428901  0.01665215  0.32787749  1
  Sr  Sr61  1  0.49932183  -0.00514674  0.88373418  1
  Sr  Sr62  1  0.49222253  0.32499006  0.41930854  1
  Sr  Sr63  1  0.51490475  0.34354570  0.86334603  1
  Sr  Sr64  1  0.48906834  0.66364823  0.37451442  1
  Sr  Sr65  1  0.48693959  0.67943969  0.86999762  1
  Sr  Sr66  1  0.81639369  0.01178681  0.36952230  1
  Sr  Sr67  1  0.82879568  0.02751631  0.86735168  1
  Sr  Sr68  1  0.82251564  0.35040353  0.36067214  1
  Sr  Sr69  1  0.85046972  0.34179188  0.91365981  1
  Sr  Sr70  1  0.83779661  0.68362296  0.41443453  1
  Sr  Sr71  1  0.81304456  0.66563604  0.85559073  1
  Ta  Ta72  1  0.17126563  0.20327319  -0.00055581  1
  Ta  Ta73  1  0.17070684  0.19751950  0.50060252  1
  Ta  Ta74  1  0.17136365  0.45299788  0.00480816  1
  Ta  Ta75  1  0.16206513  0.54527584  0.49748268  1
  Ta  Ta76  1  0.21480834  0.82954848  -0.00580506  1
  Ta  Ta77  1  0.16317502  0.80596192  0.50366816  1
  Ta  Ta78  1  0.54689716  0.16628036  -0.00257684  1
  Ta  Ta79  1  0.50285354  0.12700934  0.49962194  1
  Ta  Ta80  1  0.50047736  0.53456031  -0.00261772  1
  Ta  Ta81  1  0.53772584  0.50558499  0.49889331  1
  Ta  Ta82  1  0.48535331  0.81654323  0.00311231  1
  Ta  Ta83  1  0.50207943  0.88278399  0.49603429  1
  Ta  Ta84  1  0.78385044  0.16926462  -0.00055655  1
  Ta  Ta85  1  0.86843703  0.17412084  0.50555343  1
  Ta  Ta86  1  0.84418697  0.52390078  0.00122318  1
  Ta  Ta87  1  0.79008862  0.51228458  0.50036117  1
  Ta  Ta88  1  0.86975275  0.83612124  -0.00480911  1
  Ta  Ta89  1  0.85948181  0.86765012  0.50264414  1
  Ta  Ta90  1  0.13791381  0.14523418  0.24203228  1
  Ta  Ta91  1  0.21686751  0.16021504  0.75592182  1
  Ta  Ta92  1  0.19877497  0.51164165  0.24871033  1
  Ta  Ta93  1  0.13050096  0.51094850  0.74913665  1
  Ta  Ta94  1  0.18647230  0.85467758  0.24544508  1
  Ta  Ta95  1  0.16984832  0.87348013  0.75080039  1
  Ta  Ta96  1  0.49619104  0.21577424  0.24795665  1
  Ta  Ta97  1  0.45660404  0.16836789  0.75704443  1
  Ta  Ta98  1  0.48822222  0.46468408  0.24935082  1
  Ta  Ta99  1  0.49658669  0.53484691  0.75141918  1
  Ta  Ta100  1  0.55082453  0.83814784  0.24828003  1
  Ta  Ta101  1  0.53561565  0.83055008  0.75504281  1
  Ta  Ta102  1  0.87421880  0.16601170  0.24696010  1
  Ta  Ta103  1  0.83991704  0.21717345  0.74926923  1
  Ta  Ta104  1  0.82870877  0.55299679  0.25470150  1
  Ta  Ta105  1  0.85421029  0.48188342  0.74937116  1
  Ta  Ta106  1  0.81698941  0.82048171  0.24983291  1
  Ta  Ta107  1  0.84592377  0.86707085  0.75396881  1
  Ta  Ta108  1  0.00236256  0.02337149  0.24106888  1
  Ta  Ta109  1  -0.00291092  -0.02712154  0.75328668  1
  Ta  Ta110  1  0.00021716  0.27848121  0.24412579  1
  Ta  Ta111  1  -0.02424274  0.34670534  0.75136797  1
  Ta  Ta112  1  -0.04958169  0.66969291  0.25339370  1
  Ta  Ta113  1  -0.00056823  0.61695706  0.74588995  1
  Ta  Ta114  1  0.29511521  -0.01629016  0.24698598  1
  Ta  Ta115  1  0.31626446  0.01586663  0.74672041  1
  Ta  Ta116  1  0.37015361  0.33464848  0.25255300  1
  Ta  Ta117  1  0.33936389  0.29021018  0.75335100  1
  Ta  Ta118  1  0.31224692  0.64083236  0.25571068  1
  Ta  Ta119  1  0.34733194  0.64660342  0.74510052  1
  Ta  Ta120  1  0.66313616  -0.03663188  0.25086607  1
  Ta  Ta121  1  0.66579695  -0.03167507  0.75139362  1
  Ta  Ta122  1  0.61582981  0.33452998  0.25450479  1
  Ta  Ta123  1  0.71571971  0.33699962  0.75113798  1
  Ta  Ta124  1  0.68350269  0.69669728  0.24758523  1
  Ta  Ta125  1  0.62925347  0.67444673  0.75523461  1
  Ta  Ta126  1  -0.02152231  -0.03573969  -0.00555117  1
  Ta  Ta127  1  -0.02806021  -0.01806254  0.50224395  1
  Ta  Ta128  1  0.04398254  0.32691518  0.00433388  1
  Ta  Ta129  1  0.00825967  0.30114189  0.50180102  1
  Ta  Ta130  1  -0.03400735  0.66236085  0.00109133  1
  Ta  Ta131  1  0.03090005  0.66867222  0.49964608  1
  Ta  Ta132  1  0.33329363  -0.05155440  0.00656628  1
  Ta  Ta133  1  0.36793836  -0.00707283  0.49316457  1
  Ta  Ta134  1  0.28704803  0.32693833  -0.00038871  1
  Ta  Ta135  1  0.30931360  0.31410996  0.49682264  1
  Ta  Ta136  1  0.34531796  0.68782181  -0.00293840  1
  Ta  Ta137  1  0.28329040  0.66302608  0.49831500  1
  Ta  Ta138  1  0.66696377  0.04692628  -0.00022827  1
  Ta  Ta139  1  0.61931884  0.00384468  0.49962460  1
  Ta  Ta140  1  0.67129985  0.29413267  -0.00331980  1
  Ta  Ta141  1  0.66629938  0.37882904  0.50087562  1
  Ta  Ta142  1  0.62472582  0.66348431  0.00093282  1
  Ta  Ta143  1  0.65833640  0.62518047  0.50235114  1
  N  N144  1  0.17236566  0.48944686  0.12667954  1
  N  N145  1  -0.01024279  0.66991658  0.37439273  1
  N  N146  1  0.50146513  0.16746792  0.87591532  1
  N  N147  1  0.33292132  -0.00070114  0.62495759  1
  N  N148  1  0.32822495  -0.00299843  0.37390152  1
  N  N149  1  -0.00654181  -0.00814537  0.12045639  1
  N  N150  1  0.82866735  0.50792745  0.62694800  1
  N  N151  1  0.67461900  0.34443015  0.62837627  1
  N  N152  1  0.32811671  0.66389185  0.37685767  1
  N  N153  1  0.51528746  0.83546179  0.12802009  1
  N  N154  1  0.50307081  0.49766803  0.37469072  1
  N  N155  1  0.84325581  0.17985164  0.62601059  1
  N  N156  1  -0.00119762  0.65275826  0.62493175  1
  N  N157  1  0.00764728  0.32956895  0.87158973  1
  N  N158  1  0.17044147  0.83950188  0.62227908  1
  N  N159  1  0.33540213  -0.00955702  0.12308602  1
  N  N160  1  0.17432039  0.16774269  0.87138544  1
  N  N161  1  0.49672492  0.49787459  0.12199664  1
  N  N162  1  0.67678885  0.32705657  0.87675427  1
  N  N163  1  0.49755984  0.50086594  0.87123446  1
  N  N164  1  0.65861951  0.66985545  0.87513360  1
  N  N165  1  0.16425110  0.16041846  0.12385059  1
  N  N166  1  0.32409677  0.66341260  0.62321781  1
  N  N167  1  0.83461213  0.50478674  0.88038030  1
  N  N168  1  0.00490188  0.32108946  0.12504360  1
  N  N169  1  0.65696969  0.34067545  0.37649147  1
  N  N170  1  0.00689259  0.32680523  0.62203177  1
  N  N171  1  0.65650706  0.67293820  0.12925805  1
  N  N172  1  0.18345969  0.83431325  0.86972484  1
  N  N173  1  0.51223170  0.83831963  0.87631985  1
  N  N174  1  0.82644747  0.51762874  0.37577468  1
  N  N175  1  0.33093125  0.32927387  0.37681370  1
  N  N176  1  0.32959862  0.66462754  0.87657696  1
  O  O177  1  0.83449692  0.84307486  0.37391590  1
  O  O178  1  -0.01709860  0.65346684  0.87551508  1
  O  O179  1  0.66058286  -0.01847204  0.62446295  1
  O  O180  1  0.17537991  0.17797127  0.62956974  1
  O  O181  1  0.33870679  -0.00771503  0.88311396  1
  O  O182  1  0.50069561  0.49925977  0.62661492  1
  O  O183  1  0.66821438  0.00090706  0.87411742  1
  O  O184  1  0.15229046  0.51257394  0.61997272  1
  O  O185  1  0.85799804  0.16338615  0.37152170  1
  O  O186  1  0.50135614  0.16394409  0.37585820  1
  O  O187  1  0.83518189  0.86525554  0.62588871  1
  O  O188  1  0.82608723  0.17776357  0.87738151  1
  O  O189  1  0.82079312  0.51639720  0.13189890  1
  O  O190  1  0.16553508  0.17035851  0.37431530  1
  O  O191  1  -0.00262373  -0.01457960  0.63018696  1
  O  O192  1  0.33414919  0.31351670  0.62862696  1
  O  O193  1  -0.00230833  0.00894039  0.87758238  1
  O  O194  1  0.15427280  0.49038669  0.87326228  1
  O  O195  1  0.51709919  0.83891054  0.37732429  1
  O  O196  1  0.66408724  0.67054540  0.38053772  1
  O  O197  1  0.33178125  0.66230619  0.12834220  1
  O  O198  1  0.65852778  0.31933033  0.13425129  1
  O  O199  1  0.66161167  -0.01748556  0.37811548  1
  O  O200  1  0.66788662  0.00135516  0.12797085  1
  O  O201  1  0.83305143  0.16470007  0.12329073  1
  O  O202  1  0.48877613  0.14747184  0.62726192  1
  O  O203  1  0.50954877  0.84334496  0.61982392  1
  O  O204  1  0.33076518  0.31592819  0.88036548  1
  O  O205  1  -0.01635656  0.67273708  0.12555069  1
  O  O206  1  0.17713405  0.83083110  0.12083628  1
  O  O207  1  0.15899422  0.51445306  0.37330394  1
  O  O208  1  0.17075909  0.83716474  0.37181230  1
  O  O209  1  0.84893670  0.82883501  0.86917228  1
  O  O210  1  0.83969821  0.83380672  0.12636884  1
  O  O211  1  0.33120824  0.32980130  0.12494388  1
  O  O212  1  0.51224884  0.18416514  0.12424252  1
  O  O213  1  -0.01390955  -0.00529562  0.37221021  1
  O  O214  1  0.01016368  0.31686007  0.36635312  1
  O  O215  1  0.65531915  0.66779075  0.62366456  1
