# generated using pymatgen
data_Sr24Ta24N11O13
_symmetry_space_group_name_H-M   'P 1'
_cell_length_a   16.73319729
_cell_length_b   16.92364532
_cell_length_c   15.70944310
_cell_angle_alpha   89.53361745
_cell_angle_beta   89.69386109
_cell_angle_gamma   90.02245612
_symmetry_Int_Tables_number   1
_chemical_formula_structural   Sr24Ta24N11O13
_chemical_formula_sum   'Sr72 Ta72 N33 O39'
_cell_volume   4448.49398487
_cell_formula_units_Z   3
loop_
 _symmetry_equiv_pos_site_id
 _symmetry_equiv_pos_as_xyz
  1  'x, y, z'
loop_
 _atom_site_type_symbol
 _atom_site_label
 _atom_site_symmetry_multiplicity
 _atom_site_fract_x
 _atom_site_fract_y
 _atom_site_fract_z
 _atom_site_occupancy
  Sr  Sr0  1  0.01005029  0.14324402  0.13186292  1
  Sr  Sr1  1  0.00751190  0.16912180  0.62200646  1
  Sr  Sr2  1  0.00437042  0.48615654  0.13716858  1
  Sr  Sr3  1  -0.00783132  0.49303619  0.59439696  1
  Sr  Sr4  1  -0.00598306  0.82879500  0.12065325  1
  Sr  Sr5  1  0.00446678  0.81629931  0.65639434  1
  Sr  Sr6  1  0.33419080  0.16215427  0.12543122  1
  Sr  Sr7  1  0.33044192  0.14268995  0.66732510  1
  Sr  Sr8  1  0.34670490  0.48958223  0.07442660  1
  Sr  Sr9  1  0.32471060  0.51694202  0.64594326  1
  Sr  Sr10  1  0.33046898  0.81474708  0.13608036  1
  Sr  Sr11  1  0.32763695  0.85464301  0.57924827  1
  Sr  Sr12  1  0.68265981  0.15283292  0.09674884  1
  Sr  Sr13  1  0.66026841  0.16126965  0.62127164  1
  Sr  Sr14  1  0.65163318  0.47786038  0.16916869  1
  Sr  Sr15  1  0.67037042  0.48914408  0.61297976  1
  Sr  Sr16  1  0.66673998  0.81179076  0.12828633  1
  Sr  Sr17  1  0.67068858  0.81825156  0.63753329  1
  Sr  Sr18  1  0.17750257  0.00932061  0.10042736  1
  Sr  Sr19  1  0.15289346  0.01165048  0.63726211  1
  Sr  Sr20  1  0.16495417  0.35623694  0.12516639  1
  Sr  Sr21  1  0.16569421  0.35468219  0.60616618  1
  Sr  Sr22  1  0.14430429  0.67069632  0.17394029  1
  Sr  Sr23  1  0.18164587  0.68376759  0.62156536  1
  Sr  Sr24  1  0.50279713  0.03633826  0.11256129  1
  Sr  Sr25  1  0.50273581  0.00093914  0.62682558  1
  Sr  Sr26  1  0.49810023  0.34197829  0.14435583  1
  Sr  Sr27  1  0.48567443  0.36343091  0.60551547  1
  Sr  Sr28  1  0.49665792  0.66784160  0.11476666  1
  Sr  Sr29  1  0.49764352  0.68141321  0.65425350  1
  Sr  Sr30  1  0.82622168  -0.01114584  0.14472153  1
  Sr  Sr31  1  0.82994990  0.01850412  0.57811135  1
  Sr  Sr32  1  0.83455008  0.33644230  0.11172872  1
  Sr  Sr33  1  0.83183518  0.32226395  0.66847967  1
  Sr  Sr34  1  0.84650218  0.66755386  0.07917205  1
  Sr  Sr35  1  0.83093881  0.67173695  0.63239318  1
  Sr  Sr36  1  0.00908210  0.15043516  0.39549613  1
  Sr  Sr37  1  0.01031568  0.16206579  0.84775510  1
  Sr  Sr38  1  0.00779747  0.49631901  0.36495542  1
  Sr  Sr39  1  -0.02053027  0.48555736  0.91983654  1
  Sr  Sr40  1  0.00052943  0.81882852  0.35140134  1
  Sr  Sr41  1  0.00162906  0.83381956  0.87438565  1
  Sr  Sr42  1  0.34289197  0.17014678  0.33105191  1
  Sr  Sr43  1  0.33589162  0.14078581  0.87932423  1
  Sr  Sr44  1  0.33391619  0.46950995  0.42957675  1
  Sr  Sr45  1  0.33589956  0.51611692  0.86123191  1
  Sr  Sr46  1  0.33401300  0.83287377  0.37253971  1
  Sr  Sr47  1  0.33107615  0.82995713  0.91538609  1
  Sr  Sr48  1  0.66870213  0.14246990  0.40374216  1
  Sr  Sr49  1  0.66864035  0.16503212  0.87707820  1
  Sr  Sr50  1  0.65800171  0.49459704  0.38216339  1
  Sr  Sr51  1  0.68057014  0.47903120  0.84076719  1
  Sr  Sr52  1  0.67601792  0.82265957  0.36098953  1
  Sr  Sr53  1  0.65305441  0.81543699  0.86706593  1
  Sr  Sr54  1  0.17765961  0.01523095  0.38292211  1
  Sr  Sr55  1  0.16421971  0.00587196  0.87537910  1
  Sr  Sr56  1  0.15327670  0.33934041  0.38079590  1
  Sr  Sr57  1  0.16680905  0.37551765  0.89734710  1
  Sr  Sr58  1  0.17932969  0.68697795  0.37584982  1
  Sr  Sr59  1  0.16494516  0.67029985  0.83551281  1
  Sr  Sr60  1  0.49556782  0.00643970  0.39192508  1
  Sr  Sr61  1  0.51138804  0.01833729  0.85657248  1
  Sr  Sr62  1  0.51616352  0.33463589  0.37972281  1
  Sr  Sr63  1  0.48699796  0.35978887  0.87647141  1
  Sr  Sr64  1  0.51248564  0.67969165  0.32964196  1
  Sr  Sr65  1  0.48564518  0.67234337  0.89016326  1
  Sr  Sr66  1  0.83019057  -0.01117523  0.35854167  1
  Sr  Sr67  1  0.81720969  0.01018495  0.90283017  1
  Sr  Sr68  1  0.83669669  0.36296681  0.32781936  1
  Sr  Sr69  1  0.83205416  0.32671961  0.88029621  1
  Sr  Sr70  1  0.82468090  0.65416298  0.42343766  1
  Sr  Sr71  1  0.83145141  0.67718779  0.86611137  1
  Ta  Ta72  1  0.16889745  0.19956704  -0.01075030  1
  Ta  Ta73  1  0.20513795  0.17503583  0.50138976  1
  Ta  Ta74  1  0.16419723  0.54981244  0.01009263  1
  Ta  Ta75  1  0.16014816  0.53608688  0.50070007  1
  Ta  Ta76  1  0.15978783  0.79438072  0.00212796  1
  Ta  Ta77  1  0.13434952  0.84488212  0.49992242  1
  Ta  Ta78  1  0.49644935  0.20823890  0.00470088  1
  Ta  Ta79  1  0.46298913  0.17366982  0.49762885  1
  Ta  Ta80  1  0.54372733  0.50028002  -0.00392675  1
  Ta  Ta81  1  0.49571735  0.55557825  0.50333271  1
  Ta  Ta82  1  0.50243909  0.86936500  0.01272401  1
  Ta  Ta83  1  0.51380193  0.81494654  0.49337733  1
  Ta  Ta84  1  0.87363658  0.16115260  -0.00221423  1
  Ta  Ta85  1  0.83679703  0.20860484  0.49749804  1
  Ta  Ta86  1  0.78154459  0.49670942  -0.00027842  1
  Ta  Ta87  1  0.82941930  0.45550198  0.50537758  1
  Ta  Ta88  1  0.82638133  0.85242631  0.00082727  1
  Ta  Ta89  1  0.85902939  0.83824437  0.49948990  1
  Ta  Ta90  1  0.15640865  0.18006909  0.25034479  1
  Ta  Ta91  1  0.17577205  0.22356126  0.76595970  1
  Ta  Ta92  1  0.23080509  0.50381920  0.24993960  1
  Ta  Ta93  1  0.11963233  0.50337995  0.74663331  1
  Ta  Ta94  1  0.16623204  0.87102552  0.25254877  1
  Ta  Ta95  1  0.20310811  0.84546122  0.74681509  1
  Ta  Ta96  1  0.53769528  0.16683404  0.25338986  1
  Ta  Ta97  1  0.49974523  0.21048617  0.75004145  1
  Ta  Ta98  1  0.43732050  0.50122466  0.25484811  1
  Ta  Ta99  1  0.52120611  0.51384162  0.75055705  1
  Ta  Ta100  1  0.49917493  0.87609507  0.23592129  1
  Ta  Ta101  1  0.46311876  0.84190217  0.75481097  1
  Ta  Ta102  1  0.83511375  0.17794267  0.25366923  1
  Ta  Ta103  1  0.83103660  0.12842969  0.74172134  1
  Ta  Ta104  1  0.83234815  0.54483521  0.24799276  1
  Ta  Ta105  1  0.86003553  0.50469284  0.75266732  1
  Ta  Ta106  1  0.83428370  0.78324616  0.25178146  1
  Ta  Ta107  1  0.83083770  0.87774413  0.74317849  1
  Ta  Ta108  1  0.02809721  -0.01168650  0.25080671  1
  Ta  Ta109  1  -0.04865354  -0.00347174  0.74024201  1
  Ta  Ta110  1  0.00129125  0.29334676  0.24522283  1
  Ta  Ta111  1  0.01670952  0.35510090  0.75690722  1
  Ta  Ta112  1  -0.04874386  0.65814118  0.25468485  1
  Ta  Ta113  1  -0.00588800  0.62050993  0.75110087  1
  Ta  Ta114  1  0.34328582  -0.01762997  0.24751903  1
  Ta  Ta115  1  0.33575932  -0.04796964  0.75724919  1
  Ta  Ta116  1  0.32693038  0.35937005  0.24963993  1
  Ta  Ta117  1  0.32715044  0.31676243  0.76235963  1
  Ta  Ta118  1  0.33615428  0.63447420  0.24586316  1
  Ta  Ta119  1  0.33671543  0.72712980  0.75364656  1
  Ta  Ta120  1  0.63960317  -0.00051628  0.24684566  1
  Ta  Ta121  1  0.70108846  -0.00619892  0.74968399  1
  Ta  Ta122  1  0.67932139  0.28005125  0.25429589  1
  Ta  Ta123  1  0.63447716  0.32097519  0.74635567  1
  Ta  Ta124  1  0.70922226  0.65395240  0.25142795  1
  Ta  Ta125  1  0.65987089  0.63920192  0.74833604  1
  Ta  Ta126  1  -0.02028169  0.00357343  -0.00446689  1
  Ta  Ta127  1  0.00139281  -0.04459986  0.50291420  1
  Ta  Ta128  1  0.00608168  0.29171439  0.00255542  1
  Ta  Ta129  1  -0.04451277  0.32782056  0.49165390  1
  Ta  Ta130  1  0.04233240  0.66530261  -0.00126271  1
  Ta  Ta131  1  0.01570017  0.67698030  0.49699871  1
  Ta  Ta132  1  0.36009254  -0.01576971  0.00506958  1
  Ta  Ta133  1  0.33255823  0.04869010  0.49601268  1
  Ta  Ta134  1  0.32940105  0.30494623  -0.01123311  1
  Ta  Ta135  1  0.32963335  0.27805843  0.50457962  1
  Ta  Ta136  1  0.28438372  0.66662789  -0.00247475  1
  Ta  Ta137  1  0.36629104  0.66821234  0.49738208  1
  Ta  Ta138  1  0.65671517  -0.03426073  0.00157904  1
  Ta  Ta139  1  0.66043340  -0.04326985  0.49508074  1
  Ta  Ta140  1  0.65135325  0.34876810  -0.00354738  1
  Ta  Ta141  1  0.71501947  0.32516513  0.49313965  1
  Ta  Ta142  1  0.66423358  0.61807419  0.00212248  1
  Ta  Ta143  1  0.62695575  0.66970664  0.49507278  1
  N  N144  1  0.83379711  0.82489352  0.12063927  1
  N  N145  1  0.67199262  -0.00323451  0.12446867  1
  N  N146  1  0.83154038  0.48746047  0.62886565  1
  N  N147  1  -0.00258004  0.33324489  0.87737611  1
  N  N148  1  0.50168843  0.17407961  0.37670970  1
  N  N149  1  0.17078007  0.16067695  0.86974238  1
  N  N150  1  0.17313984  0.84411727  0.37356668  1
  N  N151  1  0.66047214  0.32721902  0.87467752  1
  N  N152  1  0.33579983  0.01047102  0.37781582  1
  N  N153  1  0.18079650  0.51418764  0.13245281  1
  N  N154  1  0.33299244  -0.01098695  0.87826191  1
  N  N155  1  0.67035596  -0.01560982  0.37652131  1
  N  N156  1  0.67677212  0.32547297  0.36873734  1
  N  N157  1  -0.01050721  0.32604013  0.37058579  1
  N  N158  1  0.17401937  0.17703126  0.37119943  1
  N  N159  1  0.66542843  -0.00903906  0.87070140  1
  N  N160  1  0.66863607  0.65610401  0.37823848  1
  N  N161  1  0.83605894  0.81965217  0.37245323  1
  N  N162  1  0.50615989  0.18846036  0.12594030  1
  N  N163  1  0.83440437  0.17109795  0.62587077  1
  N  N164  1  0.32970308  0.01062145  0.12562930  1
  N  N165  1  0.83239940  0.83253790  0.62763364  1
  N  N166  1  -0.00491794  0.33152116  0.12179508  1
  N  N167  1  0.32316043  0.67889300  0.87167505  1
  N  N168  1  0.49471882  0.82020619  0.12995632  1
  N  N169  1  0.16282563  0.51438435  0.62404042  1
  N  N170  1  -0.00668550  0.66006396  0.37925478  1
  N  N171  1  -0.00487120  -0.00350613  0.62250100  1
  N  N172  1  0.32864139  0.36118075  0.88084063  1
  N  N173  1  0.49817315  0.51344948  0.88087703  1
  N  N174  1  0.17220276  0.84312548  0.62401438  1
  N  N175  1  0.82791870  0.49684141  0.88148803  1
  N  N176  1  0.49089407  0.51796166  0.62533238  1
  O  O177  1  0.32806236  0.32596717  0.37374645  1
  O  O178  1  0.33361570  0.65724382  0.11830221  1
  O  O179  1  0.32745869  0.34091606  0.12022837  1
  O  O180  1  0.33213616  0.31462453  0.62873256  1
  O  O181  1  0.49377690  0.18635593  0.62638090  1
  O  O182  1  0.34381266  0.00055035  0.61947294  1
  O  O183  1  0.82418120  0.50650582  0.12157859  1
  O  O184  1  0.17863338  0.18617675  0.64289945  1
  O  O185  1  0.65887913  -0.02252096  0.62532414  1
  O  O186  1  0.47803373  0.51108933  0.37620852  1
  O  O187  1  -0.00113297  0.64356714  0.87921739  1
  O  O188  1  0.67046088  0.65937499  0.62126826  1
  O  O189  1  0.49153211  0.83253338  0.61768582  1
  O  O190  1  -0.00973877  -0.00279442  0.87032556  1
  O  O191  1  0.50199909  0.18595467  0.87354398  1
  O  O192  1  -0.00878705  0.65050701  0.62726466  1
  O  O193  1  0.16299449  0.82217957  0.12694320  1
  O  O194  1  0.85268702  0.16221959  0.87116639  1
  O  O195  1  0.17414482  0.16690950  0.11528078  1
  O  O196  1  0.49295085  0.84282694  0.88309601  1
  O  O197  1  0.19093305  0.51368213  0.37801961  1
  O  O198  1  0.49177885  0.49859022  0.13241207  1
  O  O199  1  0.16210784  0.82188420  0.87557095  1
  O  O200  1  0.84075376  0.83435105  0.87118079  1
  O  O201  1  0.34496561  0.68893293  0.62291055  1
  O  O202  1  0.67320656  0.32668554  0.13214027  1
  O  O203  1  0.15985657  0.52079198  0.86780030  1
  O  O204  1  0.84832497  0.16376228  0.12844607  1
  O  O205  1  -0.00357052  0.66649523  0.12139451  1
  O  O206  1  0.34403966  0.66408780  0.37428434  1
  O  O207  1  0.82851160  0.50332230  0.38272889  1
  O  O208  1  0.00249209  -0.01060739  0.12100586  1
  O  O209  1  -0.01241034  0.33400010  0.63049710  1
  O  O210  1  0.50220528  0.83056383  0.36483238  1
  O  O211  1  0.66345716  0.63768111  0.13069083  1
  O  O212  1  0.67639993  0.32305485  0.62509160  1
  O  O213  1  0.83665297  0.15446927  0.37631064  1
  O  O214  1  0.66988554  0.64621377  0.87320071  1
  O  O215  1  0.00632793  -0.00550163  0.37432441  1
