# generated using pymatgen
data_Sr24Ta24N11O13
_symmetry_space_group_name_H-M   'P 1'
_cell_length_a   16.76496946
_cell_length_b   16.81409441
_cell_length_c   15.75701921
_cell_angle_alpha   89.75153504
_cell_angle_beta   89.99803806
_cell_angle_gamma   89.95060397
_symmetry_Int_Tables_number   1
_chemical_formula_structural   Sr24Ta24N11O13
_chemical_formula_sum   'Sr72 Ta72 N33 O39'
_cell_volume   4441.66773616
_cell_formula_units_Z   3
loop_
 _symmetry_equiv_pos_site_id
 _symmetry_equiv_pos_as_xyz
  1  'x, y, z'
loop_
 _atom_site_type_symbol
 _atom_site_label
 _atom_site_symmetry_multiplicity
 _atom_site_fract_x
 _atom_site_fract_y
 _atom_site_fract_z
 _atom_site_occupancy
  Sr  Sr0  1  0.01066442  0.15598170  0.09001486  1
  Sr  Sr1  1  0.00048910  0.16034335  0.60390684  1
  Sr  Sr2  1  0.00099552  0.50520594  0.11680196  1
  Sr  Sr3  1  0.01051966  0.47912394  0.66175060  1
  Sr  Sr4  1  -0.00567543  0.84355865  0.17218344  1
  Sr  Sr5  1  0.01217194  0.82493885  0.61243249  1
  Sr  Sr6  1  0.31891935  0.16338168  0.16789783  1
  Sr  Sr7  1  0.33407109  0.17217685  0.61813369  1
  Sr  Sr8  1  0.34083450  0.49335425  0.13785088  1
  Sr  Sr9  1  0.32582106  0.50565929  0.58785370  1
  Sr  Sr10  1  0.33049605  0.83816935  0.11068435  1
  Sr  Sr11  1  0.34086715  0.81779292  0.67213278  1
  Sr  Sr12  1  0.66876450  0.16183330  0.12047814  1
  Sr  Sr13  1  0.68225515  0.14210013  0.64373408  1
  Sr  Sr14  1  0.66748542  0.49434302  0.09613946  1
  Sr  Sr15  1  0.66355092  0.48679304  0.63475255  1
  Sr  Sr16  1  0.68239522  0.81004040  0.11315701  1
  Sr  Sr17  1  0.66701261  0.82580869  0.61458538  1
  Sr  Sr18  1  0.17515488  -0.00862300  0.13554492  1
  Sr  Sr19  1  0.15389437  0.01745700  0.58053181  1
  Sr  Sr20  1  0.16567385  0.35028303  0.11734612  1
  Sr  Sr21  1  0.16387067  0.33531915  0.65745655  1
  Sr  Sr22  1  0.17401963  0.68496654  0.09671452  1
  Sr  Sr23  1  0.16046428  0.66376284  0.63167096  1
  Sr  Sr24  1  0.49855546  0.03304669  0.12696247  1
  Sr  Sr25  1  0.49317292  0.01540333  0.62119540  1
  Sr  Sr26  1  0.50298721  0.35704460  0.09607263  1
  Sr  Sr27  1  0.48502564  0.35579396  0.61176288  1
  Sr  Sr28  1  0.48719231  0.68380857  0.14830385  1
  Sr  Sr29  1  0.50288047  0.68219826  0.64856067  1
  Sr  Sr30  1  0.82331278  0.00256535  0.11426000  1
  Sr  Sr31  1  0.83762179  -0.02836524  0.66979916  1
  Sr  Sr32  1  0.82594848  0.33126847  0.16576176  1
  Sr  Sr33  1  0.83512851  0.31968451  0.60731474  1
  Sr  Sr34  1  0.85064087  0.66005165  0.13358167  1
  Sr  Sr35  1  0.82580683  0.67349325  0.57280496  1
  Sr  Sr36  1  -0.00098796  0.16587775  0.40619426  1
  Sr  Sr37  1  0.00859819  0.15408456  0.89158176  1
  Sr  Sr38  1  -0.00387199  0.47956895  0.33359394  1
  Sr  Sr39  1  0.00934838  0.50750841  0.88244341  1
  Sr  Sr40  1  0.00712276  0.82266002  0.38836658  1
  Sr  Sr41  1  -0.00799477  0.83573141  0.83472293  1
  Sr  Sr42  1  0.33578115  0.16038643  0.38727783  1
  Sr  Sr43  1  0.32884968  0.17994808  0.83139157  1
  Sr  Sr44  1  0.33392928  0.50404936  0.37218262  1
  Sr  Sr45  1  0.33505168  0.47529030  0.91349891  1
  Sr  Sr46  1  0.34020704  0.82623203  0.34668256  1
  Sr  Sr47  1  0.32066454  0.84885599  0.89195646  1
  Sr  Sr48  1  0.68153351  0.15111291  0.34667533  1
  Sr  Sr49  1  0.65799887  0.15491334  0.89117708  1
  Sr  Sr50  1  0.68104935  0.47932595  0.41018344  1
  Sr  Sr51  1  0.65972139  0.49889013  0.86734542  1
  Sr  Sr52  1  0.65879085  0.81914448  0.39003516  1
  Sr  Sr53  1  0.69347975  0.82232744  0.88165460  1
  Sr  Sr54  1  0.16308440  -0.01355692  0.36769672  1
  Sr  Sr55  1  0.16002229  0.00819221  0.90644878  1
  Sr  Sr56  1  0.17227667  0.35138829  0.33516364  1
  Sr  Sr57  1  0.15854217  0.34020930  0.88257491  1
  Sr  Sr58  1  0.17285435  0.66119310  0.41446043  1
  Sr  Sr59  1  0.16076582  0.68673754  0.85869910  1
  Sr  Sr60  1  0.51427068  0.01662473  0.39158790  1
  Sr  Sr61  1  0.47712414  0.02284972  0.86401215  1
  Sr  Sr62  1  0.48714495  0.36024013  0.40006668  1
  Sr  Sr63  1  0.50077863  0.34872594  0.88590223  1
  Sr  Sr64  1  0.49388788  0.67980535  0.35335847  1
  Sr  Sr65  1  0.49533627  0.68878390  0.85621029  1
  Sr  Sr66  1  0.83152456  -0.00599574  0.33555862  1
  Sr  Sr67  1  0.82576901  0.00800165  0.88616088  1
  Sr  Sr68  1  0.83736189  0.32171467  0.38419837  1
  Sr  Sr69  1  0.82692208  0.36154027  0.82214753  1
  Sr  Sr70  1  0.85042302  0.66587943  0.36492854  1
  Sr  Sr71  1  0.82489170  0.64944181  0.92263564  1
  Ta  Ta72  1  0.20944772  0.17160473  0.00059485  1
  Ta  Ta73  1  0.16802651  0.21812792  0.49966328  1
  Ta  Ta74  1  0.17898273  0.52991165  0.00035807  1
  Ta  Ta75  1  0.14418903  0.47779432  0.49767972  1
  Ta  Ta76  1  0.11321354  0.84055205  -0.00307892  1
  Ta  Ta77  1  0.21645425  0.83451231  0.50475032  1
  Ta  Ta78  1  0.45471350  0.18005725  -0.00332370  1
  Ta  Ta79  1  0.53302668  0.18892933  0.49958121  1
  Ta  Ta80  1  0.49651794  0.54766970  0.00308103  1
  Ta  Ta81  1  0.50554838  0.54670603  0.50420787  1
  Ta  Ta82  1  0.51714255  0.84284902  -0.00038194  1
  Ta  Ta83  1  0.47020625  0.83291541  0.50770079  1
  Ta  Ta84  1  0.83501950  0.21493795  -0.00403883  1
  Ta  Ta85  1  0.82417189  0.11272095  0.49876578  1
  Ta  Ta86  1  0.83412794  0.45579593  0.00372902  1
  Ta  Ta87  1  0.87565209  0.49386673  0.49639761  1
  Ta  Ta88  1  0.87844251  0.83101425  0.00558188  1
  Ta  Ta89  1  0.83298486  0.86833895  0.49406013  1
  Ta  Ta90  1  0.13032186  0.16767554  0.25131607  1
  Ta  Ta91  1  0.14963080  0.14569402  0.74199524  1
  Ta  Ta92  1  0.17096337  0.54115080  0.24849792  1
  Ta  Ta93  1  0.20585681  0.50625743  0.75278333  1
  Ta  Ta94  1  0.17005825  0.79735783  0.25909574  1
  Ta  Ta95  1  0.16301209  0.88489369  0.75026764  1
  Ta  Ta96  1  0.50549562  0.21517493  0.24699450  1
  Ta  Ta97  1  0.51502094  0.20182760  0.75163161  1
  Ta  Ta98  1  0.53651020  0.49740491  0.24833455  1
  Ta  Ta99  1  0.46190500  0.50618401  0.74903020  1
  Ta  Ta100  1  0.50704654  0.86933841  0.24907756  1
  Ta  Ta101  1  0.52705538  0.86453059  0.75231418  1
  Ta  Ta102  1  0.87839373  0.16167032  0.24673026  1
  Ta  Ta103  1  0.86251899  0.16611314  0.75085967  1
  Ta  Ta104  1  0.79877773  0.50242174  0.25231167  1
  Ta  Ta105  1  0.83121944  0.55831259  0.74356152  1
  Ta  Ta106  1  0.80801593  0.82839527  0.25180121  1
  Ta  Ta107  1  0.83294426  0.76418732  0.74636787  1
  Ta  Ta108  1  0.00198943  0.03773990  0.25471076  1
  Ta  Ta109  1  0.02415812  0.01449141  0.74180956  1
  Ta  Ta110  1  0.00032605  0.28712190  0.24982332  1
  Ta  Ta111  1  -0.00734847  0.28671062  0.74556322  1
  Ta  Ta112  1  0.04085587  0.66438296  0.25111060  1
  Ta  Ta113  1  -0.03389806  0.65991367  0.75120859  1
  Ta  Ta114  1  0.35844320  -0.01365794  0.24806526  1
  Ta  Ta115  1  0.28794804  0.00286332  0.75131999  1
  Ta  Ta116  1  0.36496486  0.32754531  0.24965675  1
  Ta  Ta117  1  0.33946532  0.36585710  0.74941979  1
  Ta  Ta118  1  0.29919649  0.66571885  0.25046009  1
  Ta  Ta119  1  0.33246729  0.61973008  0.75657699  1
  Ta  Ta120  1  0.65504260  -0.03882366  0.24432154  1
  Ta  Ta121  1  0.64807831  -0.02139954  0.75541214  1
  Ta  Ta122  1  0.63902890  0.34555897  0.24878106  1
  Ta  Ta123  1  0.64615207  0.30819490  0.74798173  1
  Ta  Ta124  1  0.67318686  0.63268248  0.24856528  1
  Ta  Ta125  1  0.69636479  0.66428894  0.75295612  1
  Ta  Ta126  1  -0.00781689  -0.04247738  0.00143078  1
  Ta  Ta127  1  -0.04352470  -0.01040952  0.49655567  1
  Ta  Ta128  1  -0.04586026  0.33507884  -0.00425718  1
  Ta  Ta129  1  0.02154481  0.34895097  0.49736399  1
  Ta  Ta130  1  0.00602808  0.70071754  0.00114723  1
  Ta  Ta131  1  0.00320258  0.60928630  0.49536152  1
  Ta  Ta132  1  0.33148406  0.04840885  0.00037150  1
  Ta  Ta133  1  0.33525256  -0.04433984  0.50498786  1
  Ta  Ta134  1  0.32823476  0.29255528  0.00164529  1
  Ta  Ta135  1  0.29321757  0.33257214  0.49817193  1
  Ta  Ta136  1  0.34547234  0.64963957  0.00279398  1
  Ta  Ta137  1  0.35416461  0.69196693  0.49879423  1
  Ta  Ta138  1  0.63650138  -0.02907396  0.00740286  1
  Ta  Ta139  1  0.70220207  -0.00353522  0.49319593  1
  Ta  Ta140  1  0.71579646  0.32922659  -0.00464325  1
  Ta  Ta141  1  0.65476162  0.29264680  0.49963370  1
  Ta  Ta142  1  0.62483810  0.66543209  -0.00355132  1
  Ta  Ta143  1  0.63613368  0.65087933  0.49983067  1
  N  N144  1  0.84220703  0.82894340  0.12662057  1
  N  N145  1  -0.00345226  0.32117201  0.62509127  1
  N  N146  1  0.33681963  0.66999295  0.37785922  1
  N  N147  1  0.83724408  0.48989468  0.37599930  1
  N  N148  1  0.00639412  0.65141589  0.37758947  1
  N  N149  1  0.16844533  0.50207637  0.37620042  1
  N  N150  1  0.31915297  0.01245828  0.87190058  1
  N  N151  1  -0.00130942  -0.00290022  0.37248995  1
  N  N152  1  0.32726908  0.33871813  0.62390393  1
  N  N153  1  0.49380411  0.51476703  0.62694450  1
  N  N154  1  0.16716924  0.50470784  0.12630806  1
  N  N155  1  0.66648429  0.00380119  0.12251034  1
  N  N156  1  0.17886003  0.82736880  0.38222151  1
  N  N157  1  0.16904127  0.50092495  0.63032746  1
  N  N158  1  -0.00478612  0.66760581  0.87369264  1
  N  N159  1  0.33038305  0.33527013  0.37341159  1
  N  N160  1  0.33798168  0.00639312  0.12852911  1
  N  N161  1  -0.00034596  0.32289558  0.37049461  1
  N  N162  1  0.49143941  0.18308590  0.87437249  1
  N  N163  1  0.16731556  0.50135206  0.87839347  1
  N  N164  1  0.00717872  0.67091356  0.12694363  1
  N  N165  1  0.16504451  0.17375176  0.62233829  1
  N  N166  1  0.33451715  0.67022323  0.12393349  1
  N  N167  1  0.83455395  0.82667427  0.37706960  1
  N  N168  1  0.33028818  0.33164365  0.12852273  1
  N  N169  1  0.32848102  0.32989212  0.87367914  1
  N  N170  1  -0.00436877  -0.00482375  0.62381321  1
  N  N171  1  0.50622446  0.51377356  0.12965660  1
  N  N172  1  0.82944576  0.48771568  0.12702806  1
  N  N173  1  0.67092187  -0.00880217  0.37213905  1
  N  N174  1  0.49854153  0.84098829  0.62940345  1
  N  N175  1  0.15068947  0.85012260  0.87172873  1
  N  N176  1  0.66412482  0.66328323  0.87762370  1
  O  O177  1  -0.02291404  0.33227427  0.86687135  1
  O  O178  1  -0.01949558  0.32224006  0.12070746  1
  O  O179  1  0.50592844  0.51311859  0.37583119  1
  O  O180  1  0.66395333  -0.00480051  0.88387666  1
  O  O181  1  0.49752654  0.84051457  0.12228298  1
  O  O182  1  0.84815623  0.16542032  0.87608371  1
  O  O183  1  0.67157119  -0.01287030  0.62976153  1
  O  O184  1  0.16140439  0.16472551  0.12627730  1
  O  O185  1  0.15350743  0.83816990  0.13630903  1
  O  O186  1  0.50880749  0.17520435  0.62212429  1
  O  O187  1  0.82548254  0.50673026  0.86718693  1
  O  O188  1  -0.00475771  -0.00081406  0.87738255  1
  O  O189  1  0.33585010  0.67074588  0.87060733  1
  O  O190  1  0.33543587  -0.02062022  0.63051218  1
  O  O191  1  0.00453595  0.64942407  0.61889575  1
  O  O192  1  0.65579124  0.32435082  0.37238095  1
  O  O193  1  0.67319612  0.32372017  0.87190702  1
  O  O194  1  0.15433657  0.18058961  0.37483203  1
  O  O195  1  0.66648688  0.65290465  0.12111109  1
  O  O196  1  0.50136539  0.85146439  0.37727715  1
  O  O197  1  0.49349460  0.84316429  0.87521556  1
  O  O198  1  0.66956074  0.30864121  0.62346561  1
  O  O199  1  0.84290872  0.80078181  0.87217796  1
  O  O200  1  0.84216031  0.15528007  0.37754778  1
  O  O201  1  0.33960444  -0.01685256  0.38046466  1
  O  O202  1  0.83939560  0.14626187  0.62825440  1
  O  O203  1  0.16775586  0.16535903  0.87853451  1
  O  O204  1  0.65719072  0.65109350  0.37062812  1
  O  O205  1  0.85460079  0.17484240  0.11747623  1
  O  O206  1  0.83010625  0.81576891  0.62531206  1
  O  O207  1  0.66943067  0.33736720  0.12454790  1
  O  O208  1  0.51677611  0.18857972  0.36922229  1
  O  O209  1  0.49917310  0.50914775  0.87648223  1
  O  O210  1  0.65849050  0.66229541  0.62372715  1
  O  O211  1  0.50319178  0.19432929  0.12125494  1
  O  O212  1  0.17181429  0.84345102  0.62522193  1
  O  O213  1  0.83811267  0.52008267  0.62199874  1
  O  O214  1  0.34045179  0.66320435  0.63131577  1
  O  O215  1  -0.00205774  -0.00137658  0.12500669  1
