# generated using pymatgen
data_Sr24Ta24N11O13
_symmetry_space_group_name_H-M   'P 1'
_cell_length_a   16.80646713
_cell_length_b   16.83486905
_cell_length_c   15.62320021
_cell_angle_alpha   89.95137843
_cell_angle_beta   89.38502461
_cell_angle_gamma   90.06157397
_symmetry_Int_Tables_number   1
_chemical_formula_structural   Sr24Ta24N11O13
_chemical_formula_sum   'Sr72 Ta72 N33 O39'
_cell_volume   4420.08623929
_cell_formula_units_Z   3
loop_
 _symmetry_equiv_pos_site_id
 _symmetry_equiv_pos_as_xyz
  1  'x, y, z'
loop_
 _atom_site_type_symbol
 _atom_site_label
 _atom_site_symmetry_multiplicity
 _atom_site_fract_x
 _atom_site_fract_y
 _atom_site_fract_z
 _atom_site_occupancy
  Sr  Sr0  1  0.00892269  0.17376609  0.11277462  1
  Sr  Sr1  1  0.00531570  0.17251076  0.66307599  1
  Sr  Sr2  1  -0.03654311  0.51276920  0.16510158  1
  Sr  Sr3  1  0.00340656  0.49653379  0.61768267  1
  Sr  Sr4  1  -0.00105330  0.82491291  0.12642115  1
  Sr  Sr5  1  -0.00752391  0.86144518  0.60308890  1
  Sr  Sr6  1  0.34824438  0.17420600  0.08015801  1
  Sr  Sr7  1  0.32537514  0.17379012  0.62353037  1
  Sr  Sr8  1  0.31910729  0.50104247  0.13903615  1
  Sr  Sr9  1  0.32539599  0.54250908  0.57555779  1
  Sr  Sr10  1  0.33338221  0.84096095  0.11599727  1
  Sr  Sr11  1  0.32768382  0.84119104  0.67007194  1
  Sr  Sr12  1  0.64809046  0.16884303  0.17564472  1
  Sr  Sr13  1  0.67121860  0.16921470  0.61325154  1
  Sr  Sr14  1  0.66064052  0.47893064  0.08479146  1
  Sr  Sr15  1  0.65170972  0.51975562  0.64849189  1
  Sr  Sr16  1  0.66348434  0.84914658  0.13410245  1
  Sr  Sr17  1  0.65923353  0.83725609  0.58858939  1
  Sr  Sr18  1  0.15184984  -0.01406321  0.16702743  1
  Sr  Sr19  1  0.17254971  -0.00143989  0.61160843  1
  Sr  Sr20  1  0.18209582  0.32891644  0.10667652  1
  Sr  Sr21  1  0.16067599  0.32001591  0.65423199  1
  Sr  Sr22  1  0.18604716  0.66664385  0.09568378  1
  Sr  Sr23  1  0.16272425  0.67288050  0.62275667  1
  Sr  Sr24  1  0.50266134  -0.00662092  0.12028138  1
  Sr  Sr25  1  0.49193141  -0.02816154  0.64200092  1
  Sr  Sr26  1  0.50946866  0.31291042  0.11856085  1
  Sr  Sr27  1  0.49806570  0.30572099  0.63612885  1
  Sr  Sr28  1  0.50450900  0.62054112  0.14703412  1
  Sr  Sr29  1  0.50349048  0.67027338  0.61679084  1
  Sr  Sr30  1  0.84940749  -0.01369047  0.07534725  1
  Sr  Sr31  1  0.82887525  0.00984715  0.63435499  1
  Sr  Sr32  1  0.82618432  0.32670390  0.13805598  1
  Sr  Sr33  1  0.83696700  0.34400450  0.58021719  1
  Sr  Sr34  1  0.83187805  0.66764196  0.13088211  1
  Sr  Sr35  1  0.84047106  0.65135347  0.65913853  1
  Sr  Sr36  1  0.02366656  0.17309067  0.32538793  1
  Sr  Sr37  1  -0.00442213  0.17961151  0.88991101  1
  Sr  Sr38  1  -0.00896581  0.49774140  0.38961337  1
  Sr  Sr39  1  0.00328462  0.51872419  0.83414317  1
  Sr  Sr40  1  0.01238595  0.84283881  0.37628975  1
  Sr  Sr41  1  -0.02037635  0.84635327  0.89065054  1
  Sr  Sr42  1  0.32235590  0.17124070  0.41600603  1
  Sr  Sr43  1  0.33879067  0.19418675  0.86774231  1
  Sr  Sr44  1  0.32656314  0.49458818  0.35562695  1
  Sr  Sr45  1  0.29944280  0.51334069  0.91363213  1
  Sr  Sr46  1  0.33400898  0.86637803  0.33817791  1
  Sr  Sr47  1  0.33689850  0.82754163  0.88055557  1
  Sr  Sr48  1  0.67495346  0.17607258  0.38770195  1
  Sr  Sr49  1  0.66675431  0.15484309  0.82843649  1
  Sr  Sr50  1  0.64298801  0.52178171  0.39186459  1
  Sr  Sr51  1  0.66535773  0.49177662  0.87456528  1
  Sr  Sr52  1  0.65757592  0.83003607  0.36880678  1
  Sr  Sr53  1  0.66320247  0.86658605  0.91550889  1
  Sr  Sr54  1  0.16413108  0.00605904  0.37889629  1
  Sr  Sr55  1  0.17913494  -0.02327761  0.84971268  1
  Sr  Sr56  1  0.18183788  0.32624791  0.35337411  1
  Sr  Sr57  1  0.15933652  0.33434790  0.87768551  1
  Sr  Sr58  1  0.17173177  0.63979026  0.40643843  1
  Sr  Sr59  1  0.16798535  0.67388796  0.87906537  1
  Sr  Sr60  1  0.51330628  -0.01607770  0.33618947  1
  Sr  Sr61  1  0.48674171  -0.01778726  0.89873603  1
  Sr  Sr62  1  0.49937317  0.29574265  0.39958428  1
  Sr  Sr63  1  0.51754578  0.32334135  0.85510015  1
  Sr  Sr64  1  0.48827026  0.65307706  0.38847572  1
  Sr  Sr65  1  0.51221921  0.64959489  0.85664290  1
  Sr  Sr66  1  0.82861305  -0.01598030  0.42268656  1
  Sr  Sr67  1  0.83816295  0.00898335  0.86179545  1
  Sr  Sr68  1  0.83477471  0.33401970  0.36320383  1
  Sr  Sr69  1  0.83160731  0.33546854  0.91904591  1
  Sr  Sr70  1  0.85372421  0.67257269  0.33628839  1
  Sr  Sr71  1  0.83069952  0.65471306  0.86638429  1
  Ta  Ta72  1  0.17126660  0.12309841  -0.00661401  1
  Ta  Ta73  1  0.13003578  0.17874322  0.50030609  1
  Ta  Ta74  1  0.11400175  0.50520512  0.00448756  1
  Ta  Ta75  1  0.16643361  0.45268174  0.49616240  1
  Ta  Ta76  1  0.16122539  0.85923207  0.00052705  1
  Ta  Ta77  1  0.20108470  0.83536815  0.50162445  1
  Ta  Ta78  1  0.53686053  0.16050946  -0.00976154  1
  Ta  Ta79  1  0.49780936  0.11026336  0.50240351  1
  Ta  Ta80  1  0.47247638  0.48200193  -0.00525426  1
  Ta  Ta81  1  0.49273106  0.46168563  0.50838087  1
  Ta  Ta82  1  0.50499634  0.78304016  0.01231214  1
  Ta  Ta83  1  0.46988405  0.84222871  0.48895580  1
  Ta  Ta84  1  0.79280993  0.16549191  0.00174475  1
  Ta  Ta85  1  0.89640117  0.17583236  0.49188297  1
  Ta  Ta86  1  0.86119489  0.50878803  -0.00143346  1
  Ta  Ta87  1  0.81617942  0.53076326  0.49658218  1
  Ta  Ta88  1  0.81869156  0.80201491  -0.00304306  1
  Ta  Ta89  1  0.83350087  0.79348603  0.50460846  1
  Ta  Ta90  1  0.21830597  0.16684547  0.23489164  1
  Ta  Ta91  1  0.17075608  0.13748123  0.76735496  1
  Ta  Ta92  1  0.13928810  0.50356081  0.24229198  1
  Ta  Ta93  1  0.19739025  0.50647096  0.74869491  1
  Ta  Ta94  1  0.17243865  0.78944628  0.25127600  1
  Ta  Ta95  1  0.12875480  0.82846417  0.74994759  1
  Ta  Ta96  1  0.45328653  0.16042539  0.25715769  1
  Ta  Ta97  1  0.49016373  0.12476029  0.74552990  1
  Ta  Ta98  1  0.50809721  0.45033173  0.25454828  1
  Ta  Ta99  1  0.43991943  0.50202394  0.74567821  1
  Ta  Ta100  1  0.49499005  0.79013363  0.23828123  1
  Ta  Ta101  1  0.53701917  0.82481907  0.76298046  1
  Ta  Ta102  1  0.83667690  0.12554528  0.25036807  1
  Ta  Ta103  1  0.83748657  0.22053278  0.74935122  1
  Ta  Ta104  1  0.77447664  0.50159196  0.24336440  1
  Ta  Ta105  1  0.83088384  0.45547230  0.75455775  1
  Ta  Ta106  1  0.83466670  0.86545498  0.24604812  1
  Ta  Ta107  1  0.80063892  0.83437370  0.74916332  1
  Ta  Ta108  1  -0.04931355  0.00183731  0.25318824  1
  Ta  Ta109  1  0.02333321  0.00176160  0.75824579  1
  Ta  Ta110  1  0.02248897  0.35340914  0.23814156  1
  Ta  Ta111  1  -0.04279125  0.34024097  0.75700451  1
  Ta  Ta112  1  0.04835047  0.66584534  0.25622018  1
  Ta  Ta113  1  0.00663307  0.70884525  0.75057521  1
  Ta  Ta114  1  0.33207909  0.04331897  0.24654744  1
  Ta  Ta115  1  0.33326558  0.02910546  0.75661870  1
  Ta  Ta116  1  0.35274580  0.30743398  0.25627856  1
  Ta  Ta117  1  0.32940506  0.38520763  0.73763434  1
  Ta  Ta118  1  0.32657988  0.68572854  0.25286490  1
  Ta  Ta119  1  0.33353091  0.64167045  0.74765243  1
  Ta  Ta120  1  0.72283763  0.00174903  0.24739538  1
  Ta  Ta121  1  0.65558533  -0.03142355  0.74554132  1
  Ta  Ta122  1  0.65377002  0.36475762  0.26221693  1
  Ta  Ta123  1  0.71198971  0.33264206  0.75192208  1
  Ta  Ta124  1  0.66624445  0.65848316  0.24872385  1
  Ta  Ta125  1  0.67191559  0.72420486  0.75302507  1
  Ta  Ta126  1  0.04647519  0.00349179  -0.00332731  1
  Ta  Ta127  1  0.00332062  0.05205456  0.49442105  1
  Ta  Ta128  1  -0.00103019  0.38675408  -0.00112967  1
  Ta  Ta129  1  0.02481126  0.30796433  0.49673327  1
  Ta  Ta130  1  -0.00669650  0.64561213  0.00421043  1
  Ta  Ta131  1  -0.03456130  0.67362503  0.49730861  1
  Ta  Ta132  1  0.29306169  0.00180624  -0.00138029  1
  Ta  Ta133  1  0.34986217  -0.01937768  0.50624651  1
  Ta  Ta134  1  0.36044101  0.35609767  -0.00657463  1
  Ta  Ta135  1  0.32824127  0.35965257  0.51104370  1
  Ta  Ta136  1  0.37786164  0.66521141  0.00849516  1
  Ta  Ta137  1  0.33318246  0.73007173  0.50169585  1
  Ta  Ta138  1  0.67048995  0.05214342  0.00724985  1
  Ta  Ta139  1  0.63429307  0.00394003  0.49901134  1
  Ta  Ta140  1  0.66543873  0.27687192  -0.00428769  1
  Ta  Ta141  1  0.65311010  0.37029253  0.50156977  1
  Ta  Ta142  1  0.66485352  0.68419489  0.00012340  1
  Ta  Ta143  1  0.71895964  0.66889896  0.50196844  1
  N  N144  1  0.82418244  0.84608222  0.87991674  1
  N  N145  1  0.15471596  0.50590387  0.86772817  1
  N  N146  1  -0.00697654  0.00972683  0.37093115  1
  N  N147  1  -0.00307448  0.34707915  0.87807384  1
  N  N148  1  0.17593777  0.16772678  0.11886980  1
  N  N149  1  0.83432158  0.83146208  0.12339638  1
  N  N150  1  0.33827506  0.32675552  0.37909971  1
  N  N151  1  0.33481434  -0.00774718  0.88276174  1
  N  N152  1  0.00609182  0.66235024  0.37779578  1
  N  N153  1  0.49234939  0.14540387  0.37457353  1
  N  N154  1  0.50391005  0.15974010  0.86992068  1
  N  N155  1  0.67826285  0.00973873  0.12821104  1
  N  N156  1  0.50042698  0.15569230  0.62177123  1
  N  N157  1  0.16241009  0.48508059  0.37624245  1
  N  N158  1  0.82709898  0.49648631  0.87704507  1
  N  N159  1  0.33596762  0.68727703  0.63075312  1
  N  N160  1  0.49405486  0.82357132  0.36746901  1
  N  N161  1  0.33777759  0.65973707  0.13206209  1
  N  N162  1  0.16954659  0.83746338  0.62228973  1
  N  N163  1  0.32858010  -0.00195230  0.62727746  1
  N  N164  1  0.50462545  0.82312912  0.88409346  1
  N  N165  1  0.33474645  0.32221470  0.63139003  1
  N  N166  1  0.16922862  0.82728166  0.13333496  1
  N  N167  1  0.67250829  0.32137477  0.87661501  1
  N  N168  1  0.16790086  0.50301255  0.11539980  1
  N  N169  1  0.83051979  0.84092103  0.62084712  1
  N  N170  1  0.81186769  0.49787628  0.12450179  1
  N  N171  1  0.49930914  0.84071252  0.12316548  1
  N  N172  1  0.16098165  0.82576307  0.87921484  1
  N  N173  1  -0.00358826  0.00705132  0.87978170  1
  N  N174  1  0.66658966  -0.00380558  0.62332462  1
  N  N175  1  0.16795996  0.18144680  0.88150103  1
  N  N176  1  0.67503544  0.33208647  0.38601593  1
  O  O177  1  0.68649260  0.67542691  0.63091342  1
  O  O178  1  0.01766387  0.33258251  0.36284005  1
  O  O179  1  0.32183510  0.01663050  0.37772851  1
  O  O180  1  0.81846798  0.51530319  0.36898410  1
  O  O181  1  0.50646124  0.82260311  0.61996338  1
  O  O182  1  0.35144905  0.33129374  0.11822656  1
  O  O183  1  -0.00743714  0.69447309  0.62595480  1
  O  O184  1  0.66227932  0.65475962  0.11958123  1
  O  O185  1  0.15727801  0.48378443  0.62585203  1
  O  O186  1  0.85555115  0.17803477  0.36989639  1
  O  O187  1  0.85725960  0.19264770  0.61451288  1
  O  O188  1  0.48684695  0.46682112  0.37786750  1
  O  O189  1  0.48875302  0.49554608  0.86943506  1
  O  O190  1  0.33382015  0.35025194  0.86755389  1
  O  O191  1  0.66447643  0.31912737  0.13602608  1
  O  O192  1  0.66926025  0.67404820  0.87206313  1
  O  O193  1  0.82211860  0.17272695  0.87358440  1
  O  O194  1  0.82586461  0.49894411  0.62136598  1
  O  O195  1  0.33252505  0.67021206  0.39029420  1
  O  O196  1  0.34496791  0.01654278  0.11853271  1
  O  O197  1  0.00542653  0.01839010  0.62468032  1
  O  O198  1  0.15767599  0.16631261  0.63297984  1
  O  O199  1  0.83398753  0.83075479  0.37405965  1
  O  O200  1  0.81703027  0.16709432  0.13083183  1
  O  O201  1  0.00337193  0.32772796  0.62901434  1
  O  O202  1  0.17408369  0.85104102  0.36579578  1
  O  O203  1  0.49653838  0.15973259  0.12751388  1
  O  O204  1  0.49807256  0.46908641  0.12577832  1
  O  O205  1  -0.00043532  0.66356953  0.13254808  1
  O  O206  1  0.01848092  0.32653912  0.11526321  1
  O  O207  1  0.69162714  0.67371535  0.37011347  1
  O  O208  1  -0.00201952  0.67534884  0.87954950  1
  O  O209  1  0.17120254  0.16913292  0.36961935  1
  O  O210  1  0.48995901  0.50133975  0.62866985  1
  O  O211  1  0.67609586  0.00903468  0.86989365  1
  O  O212  1  0.34800420  0.66169288  0.88084228  1
  O  O213  1  0.00102176  0.00461690  0.12240378  1
  O  O214  1  0.67858870  0.33570069  0.62126638  1
  O  O215  1  0.67580563  -0.00524230  0.37602211  1
