# generated using pymatgen
data_Sr24Ta24N11O13
_symmetry_space_group_name_H-M   'P 1'
_cell_length_a   16.94694544
_cell_length_b   16.99196123
_cell_length_c   15.33778533
_cell_angle_alpha   89.97236037
_cell_angle_beta   89.59429175
_cell_angle_gamma   89.44976730
_symmetry_Int_Tables_number   1
_chemical_formula_structural   Sr24Ta24N11O13
_chemical_formula_sum   'Sr72 Ta72 N33 O39'
_cell_volume   4416.38212108
_cell_formula_units_Z   3
loop_
 _symmetry_equiv_pos_site_id
 _symmetry_equiv_pos_as_xyz
  1  'x, y, z'
loop_
 _atom_site_type_symbol
 _atom_site_label
 _atom_site_symmetry_multiplicity
 _atom_site_fract_x
 _atom_site_fract_y
 _atom_site_fract_z
 _atom_site_occupancy
  Sr  Sr0  1  0.01943404  0.16639998  0.09515163  1
  Sr  Sr1  1  -0.03220318  0.19670157  0.65826704  1
  Sr  Sr2  1  0.01155968  0.51074417  0.16289333  1
  Sr  Sr3  1  0.00710156  0.48624501  0.60607144  1
  Sr  Sr4  1  0.01637312  0.82815590  0.07333703  1
  Sr  Sr5  1  0.03590564  0.80297762  0.63611621  1
  Sr  Sr6  1  0.32092605  0.17482638  0.05928612  1
  Sr  Sr7  1  0.36742475  0.14015419  0.63919323  1
  Sr  Sr8  1  0.35689901  0.42957679  0.27786575  1
  Sr  Sr9  1  0.33443680  0.49331065  0.64430645  1
  Sr  Sr10  1  0.30710418  0.83629793  0.09477501  1
  Sr  Sr11  1  0.35464051  0.86779537  0.66316899  1
  Sr  Sr12  1  0.64408313  0.17087837  0.15226980  1
  Sr  Sr13  1  0.70719243  0.15175326  0.59951353  1
  Sr  Sr14  1  0.63595704  0.50872567  0.07959133  1
  Sr  Sr15  1  0.67181364  0.48358233  0.64450953  1
  Sr  Sr16  1  0.72171562  0.79852644  0.19013050  1
  Sr  Sr17  1  0.66440201  0.83523601  0.61730803  1
  Sr  Sr18  1  0.16527685  -0.01909429  0.13460318  1
  Sr  Sr19  1  0.20370412  0.01899782  0.59721870  1
  Sr  Sr20  1  0.16889378  0.33990162  0.13811222  1
  Sr  Sr21  1  0.13889838  0.31795552  0.61602451  1
  Sr  Sr22  1  0.16336774  0.67907531  0.11262143  1
  Sr  Sr23  1  0.17822193  0.64117124  0.62994900  1
  Sr  Sr24  1  0.48084592  0.01644812  0.08633549  1
  Sr  Sr25  1  0.51343709  -0.00848270  0.64045836  1
  Sr  Sr26  1  0.49566457  0.33668521  0.13867190  1
  Sr  Sr27  1  0.47720693  0.31607504  0.65338515  1
  Sr  Sr28  1  0.49459776  0.67000383  0.13821759  1
  Sr  Sr29  1  0.51333674  0.65258093  0.57708148  1
  Sr  Sr30  1  0.83193419  -0.00215422  0.13696002  1
  Sr  Sr31  1  0.81938528  -0.02713956  0.56149325  1
  Sr  Sr32  1  0.78644153  0.39212532  0.07437001  1
  Sr  Sr33  1  0.83532100  0.35216268  0.63044687  1
  Sr  Sr34  1  0.83966201  0.65352995  0.11302713  1
  Sr  Sr35  1  0.84572160  0.67353634  0.66926916  1
  Sr  Sr36  1  -0.00156066  0.15719817  0.30325148  1
  Sr  Sr37  1  -0.02784593  0.18583826  0.87740586  1
  Sr  Sr38  1  -0.00883135  0.47907738  0.37958868  1
  Sr  Sr39  1  0.13078442  0.48425840  0.97873325  1
  Sr  Sr40  1  -0.00314231  0.87217943  0.43999223  1
  Sr  Sr41  1  -0.01089509  0.82205087  0.85720188  1
  Sr  Sr42  1  0.33037719  0.14408894  0.42630007  1
  Sr  Sr43  1  0.36851767  0.16896543  0.85155713  1
  Sr  Sr44  1  0.35774094  0.56110717  0.43563850  1
  Sr  Sr45  1  0.31766502  0.50872258  0.86098502  1
  Sr  Sr46  1  0.34091538  0.83583509  0.29646598  1
  Sr  Sr47  1  0.35771824  0.82856169  0.88761823  1
  Sr  Sr48  1  0.66750150  0.17166360  0.36033697  1
  Sr  Sr49  1  0.66373274  0.10656630  0.95735644  1
  Sr  Sr50  1  0.66856314  0.49396890  0.41322542  1
  Sr  Sr51  1  0.67436723  0.50376962  0.87263441  1
  Sr  Sr52  1  0.66756638  0.83340872  0.38424391  1
  Sr  Sr53  1  0.67281531  0.82740357  0.84293312  1
  Sr  Sr54  1  0.16409794  0.00090197  0.36984630  1
  Sr  Sr55  1  0.06149742  0.01973246  0.75058912  1
  Sr  Sr56  1  0.15986113  0.31856359  0.35527905  1
  Sr  Sr57  1  0.16858085  0.28854071  0.92410972  1
  Sr  Sr58  1  0.16205749  0.67632866  0.40079707  1
  Sr  Sr59  1  0.18209981  0.67743417  0.86592188  1
  Sr  Sr60  1  0.48784826  0.00234491  0.35092963  1
  Sr  Sr61  1  0.51303637  -0.02024430  0.86528529  1
  Sr  Sr62  1  0.49453233  0.31187704  0.36352564  1
  Sr  Sr63  1  0.48864354  0.36670137  0.86214005  1
  Sr  Sr64  1  0.50684053  0.68501077  0.35820038  1
  Sr  Sr65  1  0.50698484  0.65871191  0.91754822  1
  Sr  Sr66  1  0.82206091  0.01860484  0.34752932  1
  Sr  Sr67  1  0.82961946  0.01037958  0.93397405  1
  Sr  Sr68  1  0.81098964  0.35108408  0.40715439  1
  Sr  Sr69  1  0.82068065  0.33603016  0.86684968  1
  Sr  Sr70  1  0.83414459  0.65802897  0.33060339  1
  Sr  Sr71  1  0.82008236  0.66709926  0.88031744  1
  Ta  Ta72  1  0.16052127  0.09787952  -0.04359814  1
  Ta  Ta73  1  0.11777591  0.16438297  0.48750091  1
  Ta  Ta74  1  0.28327964  0.51546577  0.10347582  1
  Ta  Ta75  1  0.19377940  0.46941026  0.49385237  1
  Ta  Ta76  1  0.16120069  0.92825811  -0.07232780  1
  Ta  Ta77  1  0.21019549  0.84440446  0.50259582  1
  Ta  Ta78  1  0.50759786  0.20329373  -0.01468292  1
  Ta  Ta79  1  0.52774562  0.15637231  0.49909759  1
  Ta  Ta80  1  0.43999501  0.49935543  0.02364904  1
  Ta  Ta81  1  0.49722616  0.45067218  0.51108701  1
  Ta  Ta82  1  0.53315404  0.83115844  0.01205971  1
  Ta  Ta83  1  0.49094254  0.84701495  0.48493012  1
  Ta  Ta84  1  0.82518164  0.21081805  0.03567915  1
  Ta  Ta85  1  0.86887121  0.17682503  0.46010753  1
  Ta  Ta86  1  0.90649342  0.50461040  -0.02407779  1
  Ta  Ta87  1  0.83583102  0.54449370  0.50852084  1
  Ta  Ta88  1  0.81570437  0.82743740  0.00886514  1
  Ta  Ta89  1  0.83537700  0.77837429  0.49491839  1
  Ta  Ta90  1  0.18853182  0.15285962  0.21995468  1
  Ta  Ta91  1  0.18521248  0.16920588  0.75188325  1
  Ta  Ta92  1  0.18975586  0.52428260  0.26441752  1
  Ta  Ta93  1  0.14962757  0.46300809  0.75103282  1
  Ta  Ta94  1  0.10268220  0.82961697  0.26607417  1
  Ta  Ta95  1  0.18965148  0.86571572  0.76407300  1
  Ta  Ta96  1  0.46135435  0.15778983  0.24036485  1
  Ta  Ta97  1  0.57158335  0.15588170  0.76896824  1
  Ta  Ta98  1  0.53714617  0.50148730  0.26871926  1
  Ta  Ta99  1  0.49906229  0.54477427  0.75042624  1
  Ta  Ta100  1  0.53132215  0.85210299  0.20817323  1
  Ta  Ta101  1  0.50941730  0.78197325  0.75188480  1
  Ta  Ta102  1  0.81916790  0.23405097  0.22724399  1
  Ta  Ta103  1  0.76855410  0.15627894  0.79569822  1
  Ta  Ta104  1  0.81700920  0.48483573  0.24560416  1
  Ta  Ta105  1  0.87407122  0.50293118  0.77244299  1
  Ta  Ta106  1  0.90741448  0.83082007  0.25165204  1
  Ta  Ta107  1  0.83174653  0.87684949  0.74582155  1
  Ta  Ta108  1  0.00069421  -0.03159084  0.24742502  1
  Ta  Ta109  1  -0.12236133  0.03359560  0.74155772  1
  Ta  Ta110  1  -0.06063006  0.33600436  0.22334710  1
  Ta  Ta111  1  0.00668958  0.40146953  0.83591340  1
  Ta  Ta112  1  0.01003857  0.69401229  0.25370374  1
  Ta  Ta113  1  0.01790206  0.56638735  0.81555294  1
  Ta  Ta114  1  0.32725104  0.05752452  0.23392850  1
  Ta  Ta115  1  0.25300350  0.01277576  0.80894392  1
  Ta  Ta116  1  0.32416605  0.24479484  0.24863708  1
  Ta  Ta117  1  0.28374920  0.33010065  0.76172453  1
  Ta  Ta118  1  0.32119192  0.64218164  0.24362361  1
  Ta  Ta119  1  0.37463816  0.67706315  0.74739374  1
  Ta  Ta120  1  0.64024596  -0.02437887  0.21301742  1
  Ta  Ta121  1  0.70174251  0.00703279  0.76802940  1
  Ta  Ta122  1  0.67147510  0.36262826  0.24586491  1
  Ta  Ta123  1  0.65796128  0.29147984  0.76688766  1
  Ta  Ta124  1  0.66688398  0.61340738  0.24630208  1
  Ta  Ta125  1  0.63453703  0.66142181  0.75658428  1
  Ta  Ta126  1  0.02279513  0.00303515  -0.02466827  1
  Ta  Ta127  1  -0.00950600  0.06232788  0.49393054  1
  Ta  Ta128  1  -0.03443417  0.34624057  0.02791518  1
  Ta  Ta129  1  -0.00172744  0.28250439  0.46591496  1
  Ta  Ta130  1  -0.00344826  0.63789202  -0.01329315  1
  Ta  Ta131  1  -0.03254963  0.66599972  0.47601207  1
  Ta  Ta132  1  0.30312271  0.00201855  -0.02638603  1
  Ta  Ta133  1  0.34793353  -0.06383957  0.47277829  1
  Ta  Ta134  1  0.33964667  0.36661752  0.01075428  1
  Ta  Ta135  1  0.32376196  0.34419302  0.49901125  1
  Ta  Ta136  1  0.33663081  0.64703831  0.00875841  1
  Ta  Ta137  1  0.34350158  0.74768927  0.48880595  1
  Ta  Ta138  1  0.66568331  -0.07726967  0.02236518  1
  Ta  Ta139  1  0.63457423  0.00395966  0.48170066  1
  Ta  Ta140  1  0.64577095  0.30389744  -0.01090443  1
  Ta  Ta141  1  0.62809115  0.31937543  0.50575963  1
  Ta  Ta142  1  0.66875973  0.71560996  0.01211800  1
  Ta  Ta143  1  0.71154471  0.66634380  0.50393223  1
  N  N144  1  0.66917437  0.65646860  0.12464623  1
  N  N145  1  0.49714203  0.49003567  0.63776571  1
  N  N146  1  0.65355986  0.32969750  0.38145462  1
  N  N147  1  0.66634253  0.67032736  0.88077226  1
  N  N148  1  0.86202347  0.50999843  0.12577294  1
  N  N149  1  0.16775168  0.49804037  0.14387579  1
  N  N150  1  0.16924965  0.14836561  0.09181359  1
  N  N151  1  0.83251247  0.50404571  0.37876213  1
  N  N152  1  0.81863087  0.50665232  0.88919779  1
  N  N153  1  -0.00812926  0.01180583  0.37182288  1
  N  N154  1  0.81977529  0.17955540  0.34301016  1
  N  N155  1  0.49491619  0.15742242  0.37804686  1
  N  N156  1  0.49073010  0.17243006  0.10714166  1
  N  N157  1  0.86446182  0.82644698  0.12477775  1
  N  N158  1  0.16590612  0.48038042  0.61678307  1
  N  N159  1  0.67601796  -0.02832195  0.88812223  1
  N  N160  1  0.81665371  0.17218230  0.91985176  1
  N  N161  1  0.64633785  0.34159622  0.12229895  1
  N  N162  1  0.32252313  0.34155744  0.88320003  1
  N  N163  1  0.33353774  0.69607780  0.13297106  1
  N  N164  1  0.11745817  0.16041196  0.85185150  1
  N  N165  1  0.50891168  0.81997143  0.87338257  1
  N  N166  1  0.66045494  0.35493765  0.87512462  1
  N  N167  1  0.45734893  0.84659702  0.11089829  1
  N  N168  1  0.34935457  0.67181132  0.87404442  1
  N  N169  1  0.84783892  0.51225040  0.63620514  1
  N  N170  1  0.00136815  0.63047081  0.35922131  1
  N  N171  1  0.02421016  0.31993914  0.13824370  1
  N  N172  1  0.66039982  0.02075730  0.09805977  1
  N  N173  1  0.51778569  0.13344720  0.87805818  1
  N  N174  1  0.48895658  0.48644047  0.38200992  1
  N  N175  1  0.33975955  0.69663378  0.36477301  1
  N  N176  1  0.02969384  0.32176548  0.92823703  1
  O  O177  1  0.50720460  0.83381737  0.61877605  1
  O  O178  1  0.35660538  0.00585587  0.57521901  1
  O  O179  1  0.18440814  0.86338584  0.63349149  1
  O  O180  1  0.36957439  0.00740497  0.86561148  1
  O  O181  1  0.33097079  -0.00129883  0.35240711  1
  O  O182  1  0.49460670  0.49575364  0.14060180  1
  O  O183  1  -0.06181234  0.04891011  0.62759496  1
  O  O184  1  0.66789483  -0.00366595  0.60768861  1
  O  O185  1  0.66101615  0.32193092  0.63661053  1
  O  O186  1  0.82351914  0.82974433  0.62309537  1
  O  O187  1  -0.01529175  0.33319094  0.57895510  1
  O  O188  1  -0.04257020  0.02914042  0.86230314  1
  O  O189  1  0.00577378  0.66286969  0.11768875  1
  O  O190  1  0.32128298  0.01654005  0.10524250  1
  O  O191  1  0.00279460  0.32539960  0.33963266  1
  O  O192  1  0.52204122  0.14476937  0.64176806  1
  O  O193  1  0.64354265  -0.00717427  0.35246700  1
  O  O194  1  0.00944139  -0.01260029  0.10561634  1
  O  O195  1  0.13557277  0.81331339  0.86294451  1
  O  O196  1  0.68824583  0.67313756  0.63380301  1
  O  O197  1  0.32850744  0.30929979  0.13586419  1
  O  O198  1  0.32096519  0.33980204  0.62974860  1
  O  O199  1  0.80995286  0.14085848  0.14410774  1
  O  O200  1  0.14204596  0.46928595  0.37355818  1
  O  O201  1  0.15958192  0.82741421  0.15439240  1
  O  O202  1  0.14433880  0.84189530  0.39258330  1
  O  O203  1  0.23318017  0.58979345  0.99247416  1
  O  O204  1  0.51292780  0.83912219  0.35026717  1
  O  O205  1  0.83481351  0.83662614  0.87068399  1
  O  O206  1  0.06318076  0.68490384  0.53993031  1
  O  O207  1  0.32158506  0.30003689  0.37677851  1
  O  O208  1  0.35470081  0.70430472  0.61059748  1
  O  O209  1  0.02482381  0.68200450  0.87025874  1
  O  O210  1  0.14783312  0.15715534  0.35668391  1
  O  O211  1  0.83132164  0.22029920  0.56832696  1
  O  O212  1  0.14958392  0.16350091  0.62188701  1
  O  O213  1  0.47427700  0.51303964  0.88097315  1
  O  O214  1  0.68342881  0.65458059  0.37473679  1
  O  O215  1  0.85562792  0.82415860  0.37533398  1
