# generated using pymatgen
data_Sr24Ta24N11O13
_symmetry_space_group_name_H-M   'P 1'
_cell_length_a   16.78165295
_cell_length_b   16.78110227
_cell_length_c   15.59822953
_cell_angle_alpha   89.66052545
_cell_angle_beta   90.48740178
_cell_angle_gamma   90.03384135
_symmetry_Int_Tables_number   1
_chemical_formula_structural   Sr24Ta24N11O13
_chemical_formula_sum   'Sr72 Ta72 N33 O39'
_cell_volume   4392.45302851
_cell_formula_units_Z   3
loop_
 _symmetry_equiv_pos_site_id
 _symmetry_equiv_pos_as_xyz
  1  'x, y, z'
loop_
 _atom_site_type_symbol
 _atom_site_label
 _atom_site_symmetry_multiplicity
 _atom_site_fract_x
 _atom_site_fract_y
 _atom_site_fract_z
 _atom_site_occupancy
  Sr  Sr0  1  -0.01145711  0.15243108  0.13856706  1
  Sr  Sr1  1  0.01546535  0.17503538  0.57438946  1
  Sr  Sr2  1  -0.00078309  0.51364028  0.12221806  1
  Sr  Sr3  1  -0.02216568  0.48809922  0.64720745  1
  Sr  Sr4  1  -0.03127553  0.83478831  0.07421243  1
  Sr  Sr5  1  0.01107339  0.82601796  0.62934858  1
  Sr  Sr6  1  0.32674514  0.19580643  0.11620699  1
  Sr  Sr7  1  0.32102304  0.14952057  0.67377005  1
  Sr  Sr8  1  0.33198302  0.50191856  0.16205807  1
  Sr  Sr9  1  0.33507818  0.49258747  0.61194929  1
  Sr  Sr10  1  0.33364299  0.82501078  0.13171945  1
  Sr  Sr11  1  0.34300017  0.86122537  0.57831271  1
  Sr  Sr12  1  0.65056651  0.16854602  0.09222329  1
  Sr  Sr13  1  0.66124686  0.17526372  0.62208801  1
  Sr  Sr14  1  0.65006392  0.51416355  0.09653883  1
  Sr  Sr15  1  0.67538742  0.50914442  0.64104096  1
  Sr  Sr16  1  0.67977996  0.84310238  0.16605205  1
  Sr  Sr17  1  0.66546480  0.84334971  0.62416007  1
  Sr  Sr18  1  0.17852562  0.00172323  0.16078334  1
  Sr  Sr19  1  0.15242128  -0.00703531  0.61501714  1
  Sr  Sr20  1  0.15038839  0.32048292  0.07547309  1
  Sr  Sr21  1  0.17885029  0.33288742  0.63578831  1
  Sr  Sr22  1  0.19009993  0.66812679  0.14280773  1
  Sr  Sr23  1  0.17011364  0.65869817  0.63908769  1
  Sr  Sr24  1  0.50406230  -0.03634429  0.13194970  1
  Sr  Sr25  1  0.51086809  0.00654927  0.62725366  1
  Sr  Sr26  1  0.48839465  0.34077510  0.14322581  1
  Sr  Sr27  1  0.49954114  0.32064607  0.59478623  1
  Sr  Sr28  1  0.50127853  0.66629817  0.08411391  1
  Sr  Sr29  1  0.50460600  0.64746008  0.64236342  1
  Sr  Sr30  1  0.83345309  0.01523362  0.11168232  1
  Sr  Sr31  1  0.84450040  -0.02394606  0.66682637  1
  Sr  Sr32  1  0.86941644  0.33243701  0.17623745  1
  Sr  Sr33  1  0.82959645  0.31384253  0.61689534  1
  Sr  Sr34  1  0.82884175  0.65929079  0.13571621  1
  Sr  Sr35  1  0.84900424  0.66909491  0.58466258  1
  Sr  Sr36  1  -0.00527157  0.15970376  0.36208492  1
  Sr  Sr37  1  -0.00083069  0.17089185  0.91627907  1
  Sr  Sr38  1  -0.02460527  0.51145990  0.33751935  1
  Sr  Sr39  1  -0.00251770  0.49985870  0.88830080  1
  Sr  Sr40  1  0.00226651  0.82607385  0.41076639  1
  Sr  Sr41  1  0.01164694  0.84604351  0.85210206  1
  Sr  Sr42  1  0.33187692  0.17550890  0.33869527  1
  Sr  Sr43  1  0.32927911  0.17872087  0.88155743  1
  Sr  Sr44  1  0.32861509  0.48741842  0.38960924  1
  Sr  Sr45  1  0.32748634  0.51496005  0.83006842  1
  Sr  Sr46  1  0.32845137  0.84803305  0.35668360  1
  Sr  Sr47  1  0.34808983  0.82816647  0.92330916  1
  Sr  Sr48  1  0.63986379  0.17881137  0.40143293  1
  Sr  Sr49  1  0.67617642  0.16930638  0.87819196  1
  Sr  Sr50  1  0.66648455  0.51537153  0.38272354  1
  Sr  Sr51  1  0.66262274  0.50738578  0.87909412  1
  Sr  Sr52  1  0.67029745  0.84650849  0.37304839  1
  Sr  Sr53  1  0.65496637  0.84582704  0.83151938  1
  Sr  Sr54  1  0.15882017  -0.00513635  0.38153935  1
  Sr  Sr55  1  0.17589796  -0.00482935  0.84818384  1
  Sr  Sr56  1  0.16214213  0.32726867  0.41760888  1
  Sr  Sr57  1  0.17763419  0.33263424  0.86362252  1
  Sr  Sr58  1  0.17610487  0.65054246  0.35191319  1
  Sr  Sr59  1  0.17421537  0.67702748  0.86030809  1
  Sr  Sr60  1  0.51038736  -0.01576103  0.39484435  1
  Sr  Sr61  1  0.50169595  0.00105349  0.86562516  1
  Sr  Sr62  1  0.48445592  0.33111768  0.35967503  1
  Sr  Sr63  1  0.51125992  0.31591975  0.92903296  1
  Sr  Sr64  1  0.49416192  0.64344380  0.40921325  1
  Sr  Sr65  1  0.50697545  0.65828573  0.86416633  1
  Sr  Sr66  1  0.82757061  0.00160397  0.33103229  1
  Sr  Sr67  1  0.84680720  0.00179360  0.89080402  1
  Sr  Sr68  1  0.83565142  0.31712266  0.38540220  1
  Sr  Sr69  1  0.81937125  0.35481638  0.82852311  1
  Sr  Sr70  1  0.83329639  0.66565996  0.36738484  1
  Sr  Sr71  1  0.86193420  0.66147845  0.92737068  1
  Ta  Ta72  1  0.17372934  0.12486143  0.00141207  1
  Ta  Ta73  1  0.20755370  0.15829831  0.50070253  1
  Ta  Ta74  1  0.19104642  0.51499709  0.00280999  1
  Ta  Ta75  1  0.12060022  0.50294095  0.49599830  1
  Ta  Ta76  1  0.15814880  0.84467494  -0.00115572  1
  Ta  Ta77  1  0.17892250  0.79358360  0.49201537  1
  Ta  Ta78  1  0.47690019  0.12740096  0.01827651  1
  Ta  Ta79  1  0.44986342  0.16025542  0.50571596  1
  Ta  Ta80  1  0.45371238  0.49578538  -0.00765920  1
  Ta  Ta81  1  0.52487234  0.48049998  0.50341154  1
  Ta  Ta82  1  0.54951198  0.83255152  -0.00671783  1
  Ta  Ta83  1  0.50935650  0.80010034  0.49659945  1
  Ta  Ta84  1  0.82940584  0.21876944  0.00791353  1
  Ta  Ta85  1  0.82967802  0.12898814  0.49670771  1
  Ta  Ta86  1  0.83095037  0.46210263  0.00924955  1
  Ta  Ta87  1  0.83319254  0.48270123  0.49502265  1
  Ta  Ta88  1  0.78239914  0.83556860  -0.00748947  1
  Ta  Ta89  1  0.82915447  0.86097749  0.50359180  1
  Ta  Ta90  1  0.15979134  0.19747751  0.25608536  1
  Ta  Ta91  1  0.12600916  0.16833285  0.74757350  1
  Ta  Ta92  1  0.15736611  0.45663034  0.25010500  1
  Ta  Ta93  1  0.14031910  0.50274867  0.75195333  1
  Ta  Ta94  1  0.12093140  0.82913988  0.24528117  1
  Ta  Ta95  1  0.22032301  0.83300368  0.74856066  1
  Ta  Ta96  1  0.50158606  0.13767346  0.23986975  1
  Ta  Ta97  1  0.50379428  0.19549764  0.75466131  1
  Ta  Ta98  1  0.50994224  0.53808264  0.24755587  1
  Ta  Ta99  1  0.50292564  0.44921098  0.75913597  1
  Ta  Ta100  1  0.50315397  0.78339617  0.25700826  1
  Ta  Ta101  1  0.46087363  0.83232130  0.75069048  1
  Ta  Ta102  1  0.77586902  0.17781729  0.24336032  1
  Ta  Ta103  1  0.86445562  0.16146049  0.75237650  1
  Ta  Ta104  1  0.78846350  0.48498777  0.24136951  1
  Ta  Ta105  1  0.83379155  0.55339890  0.76224267  1
  Ta  Ta106  1  0.87504627  0.83191663  0.24817189  1
  Ta  Ta107  1  0.83828623  0.78574215  0.75219011  1
  Ta  Ta108  1  -0.00227094  -0.04451025  0.24524221  1
  Ta  Ta109  1  0.00155476  0.05363585  0.75382913  1
  Ta  Ta110  1  0.05073303  0.33298083  0.25325879  1
  Ta  Ta111  1  -0.00113662  0.28806002  0.74657523  1
  Ta  Ta112  1  0.00226908  0.70559782  0.24115940  1
  Ta  Ta113  1  -0.01653449  0.65934774  0.75039976  1
  Ta  Ta114  1  0.36394428  0.02082126  0.24755309  1
  Ta  Ta115  1  0.33965421  -0.04420379  0.75394701  1
  Ta  Ta116  1  0.27439751  0.33773468  0.24920506  1
  Ta  Ta117  1  0.37866862  0.33343758  0.75947790  1
  Ta  Ta118  1  0.38202247  0.66480777  0.24780803  1
  Ta  Ta119  1  0.34007618  0.71335439  0.75139266  1
  Ta  Ta120  1  0.65289566  0.03916217  0.24780022  1
  Ta  Ta121  1  0.67943484  0.02445933  0.75364371  1
  Ta  Ta122  1  0.67914440  0.33574063  0.24387659  1
  Ta  Ta123  1  0.62269355  0.33197098  0.75701955  1
  Ta  Ta124  1  0.63435405  0.66101441  0.24473998  1
  Ta  Ta125  1  0.71658686  0.67478349  0.75628498  1
  Ta  Ta126  1  0.04613391  -0.00293177  0.00215885  1
  Ta  Ta127  1  -0.05053609  0.00038238  0.49217495  1
  Ta  Ta128  1  -0.05159629  0.33911515  -0.00237865  1
  Ta  Ta129  1  -0.00743215  0.37263230  0.48915553  1
  Ta  Ta130  1  0.04936881  0.67641351  0.00366548  1
  Ta  Ta131  1  0.02660467  0.64365542  0.49409517  1
  Ta  Ta132  1  0.32489012  0.01650440  0.00091807  1
  Ta  Ta133  1  0.33325026  0.04384364  0.49392804  1
  Ta  Ta134  1  0.32803651  0.38325996  -0.00033712  1
  Ta  Ta135  1  0.33326208  0.28973183  0.50073153  1
  Ta  Ta136  1  0.32789792  0.63059314  -0.00406330  1
  Ta  Ta137  1  0.32727063  0.68437253  0.49900019  1
  Ta  Ta138  1  0.66290263  -0.02871478  0.00210078  1
  Ta  Ta139  1  0.71530377  0.00452024  0.49661317  1
  Ta  Ta140  1  0.71795853  0.34076099  0.01196958  1
  Ta  Ta141  1  0.66675221  0.36431131  0.50256327  1
  Ta  Ta142  1  0.67482113  0.71161841  -0.00129308  1
  Ta  Ta143  1  0.65967774  0.68467540  0.50064200  1
  N  N144  1  0.84353811  0.50271477  0.13457301  1
  N  N145  1  0.16243361  0.16400658  0.37639817  1
  N  N146  1  0.16668330  0.16215783  0.62848114  1
  N  N147  1  0.82587519  0.17351533  0.13161850  1
  N  N148  1  -0.00988926  0.67036519  0.11247282  1
  N  N149  1  0.83890739  0.82390794  0.62456649  1
  N  N150  1  0.18047962  0.83692609  0.87745792  1
  N  N151  1  0.33578487  0.33806134  0.87588860  1
  N  N152  1  0.33675614  0.00490767  0.36695024  1
  N  N153  1  0.00640030  0.01140914  0.87429558  1
  N  N154  1  0.00086929  -0.00342576  0.11908357  1
  N  N155  1  0.31334149  0.34719490  0.12717376  1
  N  N156  1  0.48805506  0.16588710  0.63464238  1
  N  N157  1  0.00235959  0.66751210  0.36765774  1
  N  N158  1  0.66902250  0.00002825  0.12856116  1
  N  N159  1  0.83284878  0.50676267  0.87870956  1
  N  N160  1  -0.01025812  -0.00433945  0.37331424  1
  N  N161  1  0.33609043  -0.00306627  0.87954000  1
  N  N162  1  0.67102216  0.00762051  0.37728456  1
  N  N163  1  0.49389427  0.18708469  0.12126782  1
  N  N164  1  0.82339119  0.49314884  0.37095055  1
  N  N165  1  0.50275110  0.82927872  0.87725035  1
  N  N166  1  0.00578345  0.66518959  0.62320365  1
  N  N167  1  0.66562240  0.67600555  0.12280750  1
  N  N168  1  0.67402596  0.01187519  0.87517656  1
  N  N169  1  0.34436913  0.66321588  0.12473814  1
  N  N170  1  0.16346681  0.82052252  0.36985294  1
  N  N171  1  0.50140102  0.49734991  0.87809610  1
  N  N172  1  0.01208072  0.67372770  0.88327334  1
  N  N173  1  0.32154534  0.32999964  0.38174244  1
  N  N174  1  -0.00429309  0.33506795  0.37042947  1
  N  N175  1  0.50110385  0.82964390  0.37459292  1
  N  N176  1  0.34093129  0.67165276  0.87448116  1
  O  O177  1  0.33688588  0.66023543  0.37413166  1
  O  O178  1  0.13693617  0.49523015  0.62696379  1
  O  O179  1  0.66882924  0.34558672  0.63157881  1
  O  O180  1  0.33482971  0.33402108  0.62653302  1
  O  O181  1  0.64644573  0.33584879  0.11591533  1
  O  O182  1  0.83598611  0.83091953  0.37222955  1
  O  O183  1  0.66455238  0.66671646  0.87240155  1
  O  O184  1  0.15727044  0.49704507  0.37520607  1
  O  O185  1  0.49700138  0.50336984  0.12226836  1
  O  O186  1  0.18110723  0.83912609  0.13627035  1
  O  O187  1  0.49106098  0.17430820  0.36586342  1
  O  O188  1  0.50576568  0.49008588  0.62895189  1
  O  O189  1  0.66943963  0.33644595  0.87995854  1
  O  O190  1  0.84355150  0.15372616  0.62598213  1
  O  O191  1  -0.01037248  0.32511520  0.62036454  1
  O  O192  1  0.50747728  0.48869753  0.37330136  1
  O  O193  1  0.48845403  0.16286591  0.89158613  1
  O  O194  1  -0.00569811  0.01925902  0.61563380  1
  O  O195  1  0.00601055  0.33308025  0.11628749  1
  O  O196  1  0.16725168  0.15937972  0.12440210  1
  O  O197  1  0.84018273  0.17967337  0.87673391  1
  O  O198  1  0.67219447  0.00693648  0.62089756  1
  O  O199  1  0.81729235  0.15843469  0.36989050  1
  O  O200  1  0.16993171  0.16015865  0.87684024  1
  O  O201  1  0.67303865  0.67712372  0.37460818  1
  O  O202  1  0.33550504  0.00130935  0.63013961  1
  O  O203  1  0.17249140  0.50838865  0.12971363  1
  O  O204  1  0.67838999  0.67771244  0.62595358  1
  O  O205  1  0.16662409  0.50044225  0.87428652  1
  O  O206  1  0.83592737  0.83375621  0.87579526  1
  O  O207  1  0.51126193  0.81526851  0.12141168  1
  O  O208  1  -0.02280191  0.32498798  0.86671358  1
  O  O209  1  0.17870038  0.82211538  0.62039032  1
  O  O210  1  0.32854915  -0.02236404  0.13287714  1
  O  O211  1  0.66982987  0.34356759  0.37020070  1
  O  O212  1  0.34137538  0.66959354  0.62336193  1
  O  O213  1  0.82648822  0.83422522  0.12416968  1
  O  O214  1  0.82922743  0.51167103  0.63274223  1
  O  O215  1  0.49955050  0.82322920  0.62548800  1
