# generated using pymatgen
data_Sr24Ta24N11O13
_symmetry_space_group_name_H-M   'P 1'
_cell_length_a   16.75280765
_cell_length_b   16.84000242
_cell_length_c   15.71053613
_cell_angle_alpha   90.24850728
_cell_angle_beta   89.98041122
_cell_angle_gamma   89.88505433
_symmetry_Int_Tables_number   1
_chemical_formula_structural   Sr24Ta24N11O13
_chemical_formula_sum   'Sr72 Ta72 N33 O39'
_cell_volume   4432.16348875
_cell_formula_units_Z   3
loop_
 _symmetry_equiv_pos_site_id
 _symmetry_equiv_pos_as_xyz
  1  'x, y, z'
loop_
 _atom_site_type_symbol
 _atom_site_label
 _atom_site_symmetry_multiplicity
 _atom_site_fract_x
 _atom_site_fract_y
 _atom_site_fract_z
 _atom_site_occupancy
  Sr  Sr0  1  0.01060760  0.16934887  0.15903143  1
  Sr  Sr1  1  -0.00379937  0.17884749  0.62875711  1
  Sr  Sr2  1  -0.02175331  0.50658474  0.13064562  1
  Sr  Sr3  1  0.00423263  0.50532363  0.58329535  1
  Sr  Sr4  1  -0.00334295  0.86755988  0.10079266  1
  Sr  Sr5  1  -0.00063825  0.83247754  0.62852343  1
  Sr  Sr6  1  0.32243402  0.17738582  0.07634776  1
  Sr  Sr7  1  0.33761078  0.18314032  0.64209502  1
  Sr  Sr8  1  0.32766040  0.50669132  0.12824107  1
  Sr  Sr9  1  0.30614001  0.51386841  0.66366480  1
  Sr  Sr10  1  0.33091560  0.85411146  0.13987704  1
  Sr  Sr11  1  0.35084358  0.84036734  0.60118799  1
  Sr  Sr12  1  0.66551275  0.17897696  0.13566339  1
  Sr  Sr13  1  0.66604190  0.15620659  0.58246080  1
  Sr  Sr14  1  0.64461413  0.51830269  0.11501996  1
  Sr  Sr15  1  0.67515208  0.49190249  0.63358730  1
  Sr  Sr16  1  0.66851753  0.83003077  0.12361741  1
  Sr  Sr17  1  0.66666635  0.86188056  0.67137312  1
  Sr  Sr18  1  0.15846138  0.00438192  0.13487673  1
  Sr  Sr19  1  0.17827950  -0.04082657  0.58222916  1
  Sr  Sr20  1  0.17290066  0.31681020  0.10665027  1
  Sr  Sr21  1  0.16274344  0.32810265  0.62491038  1
  Sr  Sr22  1  0.15367135  0.63204534  0.12471737  1
  Sr  Sr23  1  0.16576155  0.66352033  0.65488806  1
  Sr  Sr24  1  0.52048952  -0.01463518  0.17056499  1
  Sr  Sr25  1  0.49811501  -0.00241692  0.62742225  1
  Sr  Sr26  1  0.49667792  0.32617926  0.13392963  1
  Sr  Sr27  1  0.51621523  0.32510352  0.60332134  1
  Sr  Sr28  1  0.50687244  0.67204100  0.08672657  1
  Sr  Sr29  1  0.51232162  0.64289361  0.63407103  1
  Sr  Sr30  1  0.81585725  -0.00597161  0.07681309  1
  Sr  Sr31  1  0.84975284  -0.00076492  0.63899113  1
  Sr  Sr32  1  0.83511799  0.32807295  0.11774305  1
  Sr  Sr33  1  0.83145193  0.33232725  0.66290282  1
  Sr  Sr34  1  0.82896061  0.66468352  0.15141304  1
  Sr  Sr35  1  0.84660409  0.64363563  0.59066445  1
  Sr  Sr36  1  0.00429904  0.17168805  0.37019713  1
  Sr  Sr37  1  -0.00627191  0.17270079  0.83104177  1
  Sr  Sr38  1  -0.01228744  0.51971425  0.36242842  1
  Sr  Sr39  1  -0.00844938  0.50385105  0.91302967  1
  Sr  Sr40  1  -0.01026758  0.85503338  0.40044933  1
  Sr  Sr41  1  0.00205385  0.83803362  0.86288417  1
  Sr  Sr42  1  0.32317060  0.19729219  0.40629430  1
  Sr  Sr43  1  0.34377149  0.15861785  0.86504150  1
  Sr  Sr44  1  0.32246748  0.49730917  0.34046415  1
  Sr  Sr45  1  0.32331923  0.52893233  0.87675162  1
  Sr  Sr46  1  0.33529868  0.84542360  0.37305109  1
  Sr  Sr47  1  0.33612579  0.84608743  0.88759915  1
  Sr  Sr48  1  0.64997331  0.16472518  0.36298702  1
  Sr  Sr49  1  0.68351364  0.17338348  0.92027235  1
  Sr  Sr50  1  0.64451301  0.51700882  0.42051039  1
  Sr  Sr51  1  0.66778521  0.49676246  0.84508963  1
  Sr  Sr52  1  0.67375478  0.83174274  0.34227098  1
  Sr  Sr53  1  0.66448513  0.83877392  0.88081106  1
  Sr  Sr54  1  0.16411663  -0.01307084  0.35616940  1
  Sr  Sr55  1  0.18736548  -0.01218141  0.92099197  1
  Sr  Sr56  1  0.15722368  0.32786301  0.40366757  1
  Sr  Sr57  1  0.17901800  0.31196726  0.85314457  1
  Sr  Sr58  1  0.17170907  0.64116764  0.33910606  1
  Sr  Sr59  1  0.15852136  0.65409919  0.87095841  1
  Sr  Sr60  1  0.50977243  -0.00700858  0.37502055  1
  Sr  Sr61  1  0.49582013  -0.01087650  0.83542558  1
  Sr  Sr62  1  0.49841472  0.33909125  0.37369735  1
  Sr  Sr63  1  0.50793599  0.30289365  0.89546147  1
  Sr  Sr64  1  0.49471876  0.66842247  0.41767027  1
  Sr  Sr65  1  0.51094710  0.65423835  0.87749729  1
  Sr  Sr66  1  0.83526462  0.02489910  0.42400032  1
  Sr  Sr67  1  0.83372932  -0.01915320  0.86369883  1
  Sr  Sr68  1  0.84059366  0.32331527  0.33204055  1
  Sr  Sr69  1  0.83090865  0.33667792  0.87963133  1
  Sr  Sr70  1  0.83290888  0.66723468  0.37599190  1
  Sr  Sr71  1  0.84327839  0.64854046  0.87433845  1
  Ta  Ta72  1  0.12461195  0.16234295  -0.00801153  1
  Ta  Ta73  1  0.16252754  0.13748827  0.50463101  1
  Ta  Ta74  1  0.16967424  0.46570338  -0.00674392  1
  Ta  Ta75  1  0.18907741  0.51223897  0.49873453  1
  Ta  Ta76  1  0.16538904  0.79679930  0.01209323  1
  Ta  Ta77  1  0.17431030  0.78085693  0.49018419  1
  Ta  Ta78  1  0.50558307  0.12008559  0.00163020  1
  Ta  Ta79  1  0.48110809  0.14927051  0.49543960  1
  Ta  Ta80  1  0.48971903  0.47465155  -0.00014899  1
  Ta  Ta81  1  0.43662390  0.49629655  0.50219101  1
  Ta  Ta82  1  0.49776423  0.86311676  0.00481110  1
  Ta  Ta83  1  0.54386685  0.83563224  0.50459094  1
  Ta  Ta84  1  0.88336419  0.16619895  -0.00081769  1
  Ta  Ta85  1  0.83771550  0.21519455  0.49844643  1
  Ta  Ta86  1  0.80137991  0.50476519  -0.00192093  1
  Ta  Ta87  1  0.82852476  0.45458928  0.49577642  1
  Ta  Ta88  1  0.83447816  0.79541897  -0.00656235  1
  Ta  Ta89  1  0.79845314  0.83564822  0.50644539  1
  Ta  Ta90  1  0.20081401  0.17361138  0.24376980  1
  Ta  Ta91  1  0.17424344  0.11796621  0.75098833  1
  Ta  Ta92  1  0.14980253  0.45332536  0.24689884  1
  Ta  Ta93  1  0.11775699  0.49183231  0.74975005  1
  Ta  Ta94  1  0.14836005  0.81036227  0.23544282  1
  Ta  Ta95  1  0.18325943  0.84753544  0.75267183  1
  Ta  Ta96  1  0.44986476  0.16775216  0.24932886  1
  Ta  Ta97  1  0.54379879  0.16610636  0.75388960  1
  Ta  Ta98  1  0.50407565  0.53506922  0.26053414  1
  Ta  Ta99  1  0.48241743  0.46626698  0.75342679  1
  Ta  Ta100  1  0.49994809  0.78515449  0.24944202  1
  Ta  Ta101  1  0.48885614  0.80424546  0.75722978  1
  Ta  Ta102  1  0.83423048  0.13060455  0.24095219  1
  Ta  Ta103  1  0.78962913  0.16365905  0.75081088  1
  Ta  Ta104  1  0.78060274  0.49855705  0.26152847  1
  Ta  Ta105  1  0.86835904  0.50457825  0.74494814  1
  Ta  Ta106  1  0.85040096  0.86384377  0.24916866  1
  Ta  Ta107  1  0.83290653  0.78595821  0.74799125  1
  Ta  Ta108  1  -0.05869419  -0.00033745  0.24844377  1
  Ta  Ta109  1  0.06287270  -0.00312474  0.74527807  1
  Ta  Ta110  1  0.02398506  0.34511825  0.24849110  1
  Ta  Ta111  1  0.00103073  0.37610034  0.74493194  1
  Ta  Ta112  1  -0.00002630  0.71966619  0.25009417  1
  Ta  Ta113  1  -0.01242396  0.64563508  0.74399462  1
  Ta  Ta114  1  0.33423066  0.05033237  0.24891930  1
  Ta  Ta115  1  0.29355584  -0.00806065  0.74370508  1
  Ta  Ta116  1  0.31806079  0.31357134  0.24042859  1
  Ta  Ta117  1  0.36240374  0.35210324  0.76332113  1
  Ta  Ta118  1  0.37191509  0.67493367  0.24915200  1
  Ta  Ta119  1  0.34575678  0.70267019  0.75580541  1
  Ta  Ta120  1  0.72519712  -0.00078767  0.25591843  1
  Ta  Ta121  1  0.67144341  0.04591632  0.75339450  1
  Ta  Ta122  1  0.66381979  0.37667028  0.25689726  1
  Ta  Ta123  1  0.65931005  0.29453775  0.74993419  1
  Ta  Ta124  1  0.63996197  0.65147796  0.26470491  1
  Ta  Ta125  1  0.69305804  0.67948802  0.73580079  1
  Ta  Ta126  1  -0.00090802  0.04255888  -0.00820050  1
  Ta  Ta127  1  0.02181555  0.02945701  0.50863955  1
  Ta  Ta128  1  0.00838673  0.30550447  -0.00736012  1
  Ta  Ta129  1  -0.03988762  0.33263282  0.50266051  1
  Ta  Ta130  1  -0.00364885  0.69128520  0.00033260  1
  Ta  Ta131  1  0.04020906  0.68004266  0.49376748  1
  Ta  Ta132  1  0.39137747  0.00078340  0.00476979  1
  Ta  Ta133  1  0.33877942  0.03315430  0.50129157  1
  Ta  Ta134  1  0.33957405  0.36540556  -0.01093907  1
  Ta  Ta135  1  0.33002969  0.37294359  0.50694346  1
  Ta  Ta136  1  0.31264253  0.69249393  0.00414565  1
  Ta  Ta137  1  0.30901325  0.65246913  0.50106995  1
  Ta  Ta138  1  0.62422286  -0.00151740  -0.00413841  1
  Ta  Ta139  1  0.66687843  -0.03407664  0.50291319  1
  Ta  Ta140  1  0.66365883  0.36837717  -0.00372967  1
  Ta  Ta141  1  0.70785776  0.33125495  0.50131500  1
  Ta  Ta142  1  0.69796121  0.66685971  -0.00529139  1
  Ta  Ta143  1  0.67279317  0.71404079  0.51241357  1
  N  N144  1  0.67307566  0.32575338  0.62637700  1
  N  N145  1  0.15769705  0.49806589  0.61975801  1
  N  N146  1  0.66850278  0.33622615  0.87843164  1
  N  N147  1  0.83640479  0.82222022  0.86860914  1
  N  N148  1  0.33200615  0.00452738  0.62431742  1
  N  N149  1  0.15556616  0.48258343  0.11909122  1
  N  N150  1  0.83882744  0.16427551  0.11677763  1
  N  N151  1  0.33428871  0.68261229  0.87972781  1
  N  N152  1  -0.00230181  0.68346982  0.36786289  1
  N  N153  1  0.67416133  0.64866397  0.61752363  1
  N  N154  1  0.82231367  0.50484857  0.37998943  1
  N  N155  1  0.49128899  0.16862505  0.37163514  1
  N  N156  1  0.15646296  0.49691487  0.86896934  1
  N  N157  1  0.50362571  0.82573464  0.87777220  1
  N  N158  1  0.50495534  0.82603915  0.13129597  1
  N  N159  1  0.01126447  -0.00072125  0.63065803  1
  N  N160  1  0.66149259  0.67226608  0.38517784  1
  N  N161  1  0.83411394  0.49103020  0.62537889  1
  N  N162  1  -0.00234647  0.33688582  0.62318817  1
  N  N163  1  0.33973126  0.30960208  0.87961435  1
  N  N164  1  0.16767414  0.16183452  0.12375006  1
  N  N165  1  0.48017293  0.50989266  0.38079971  1
  N  N166  1  0.66351420  0.00197317  0.87845080  1
  N  N167  1  0.15898792  0.85472492  0.11837706  1
  N  N168  1  0.16981287  0.15328439  0.87577606  1
  N  N169  1  0.51159369  0.15182967  0.87470620  1
  N  N170  1  0.00871868  0.66957069  0.62061476  1
  N  N171  1  0.33446296  0.33332374  0.12044947  1
  N  N172  1  0.68197219  -0.00112168  0.37163217  1
  N  N173  1  0.16060069  0.48760696  0.37266386  1
  N  N174  1  0.00179532  0.66957732  0.87976133  1
  N  N175  1  0.67308241  0.00724374  0.62083594  1
  N  N176  1  0.82935608  0.49515067  0.87772431  1
  O  O177  1  0.50161705  0.49090363  0.87536842  1
  O  O178  1  -0.01386419  0.01642518  0.12396591  1
  O  O179  1  0.33555523  0.66387872  0.37634168  1
  O  O180  1  -0.01462231  0.66288455  0.13562386  1
  O  O181  1  0.67301340  0.66916551  0.12284883  1
  O  O182  1  0.16939754  0.15306297  0.37646744  1
  O  O183  1  0.82854886  0.84292527  0.38323264  1
  O  O184  1  0.65992062  0.34507591  0.37961103  1
  O  O185  1  0.50764516  0.16103033  0.62209366  1
  O  O186  1  0.32419013  0.02058563  0.36995993  1
  O  O187  1  0.18122101  0.80233545  0.36090339  1
  O  O188  1  0.01069138  0.01583089  0.86596010  1
  O  O189  1  0.16924774  0.83516747  0.88142590  1
  O  O190  1  0.17925634  0.81559086  0.62686699  1
  O  O191  1  0.67146734  -0.01246910  0.13251020  1
  O  O192  1  0.67603208  0.66594706  0.86886296  1
  O  O193  1  0.49075923  0.50097529  0.12614791  1
  O  O194  1  0.32791898  0.34981399  0.63581500  1
  O  O195  1  0.82449626  0.84256682  0.63218603  1
  O  O196  1  0.82625790  0.17328745  0.62285094  1
  O  O197  1  0.35351922  0.67287556  0.12310477  1
  O  O198  1  0.32409871  0.66952834  0.62662843  1
  O  O199  1  0.47656729  0.48985778  0.62695609  1
  O  O200  1  0.32416090  0.34631862  0.37767328  1
  O  O201  1  0.17263269  0.16778006  0.62624030  1
  O  O202  1  0.83710709  0.16895500  0.87143371  1
  O  O203  1  0.34015616  -0.00118093  0.86970895  1
  O  O204  1  0.00145208  0.33495874  0.37400260  1
  O  O205  1  0.84185869  0.17422923  0.37476787  1
  O  O206  1  0.00706365  0.32680205  0.11911861  1
  O  O207  1  0.83891143  0.83853335  0.11509970  1
  O  O208  1  0.81730940  0.50767878  0.13604601  1
  O  O209  1  0.65915293  0.35922628  0.13209006  1
  O  O210  1  0.51983175  0.82554842  0.37705027  1
  O  O211  1  -0.00146507  0.32660213  0.86937053  1
  O  O212  1  -0.01642832  0.01246493  0.38464265  1
  O  O213  1  0.34526822  0.01475884  0.12536151  1
  O  O214  1  0.51446105  0.83526688  0.62957870  1
  O  O215  1  0.49583565  0.16460244  0.12832412  1
