# generated using pymatgen
data_Sr24Ta24N11O13
_symmetry_space_group_name_H-M   'P 1'
_cell_length_a   17.47960514
_cell_length_b   16.66921685
_cell_length_c   15.23425975
_cell_angle_alpha   90.22968151
_cell_angle_beta   88.48132102
_cell_angle_gamma   89.23324642
_symmetry_Int_Tables_number   1
_chemical_formula_structural   Sr24Ta24N11O13
_chemical_formula_sum   'Sr72 Ta72 N33 O39'
_cell_volume   4436.82770917
_cell_formula_units_Z   3
loop_
 _symmetry_equiv_pos_site_id
 _symmetry_equiv_pos_as_xyz
  1  'x, y, z'
loop_
 _atom_site_type_symbol
 _atom_site_label
 _atom_site_symmetry_multiplicity
 _atom_site_fract_x
 _atom_site_fract_y
 _atom_site_fract_z
 _atom_site_occupancy
  Sr  Sr0  1  0.03409652  0.19950111  0.11907218  1
  Sr  Sr1  1  0.00770594  0.17477764  0.61860060  1
  Sr  Sr2  1  0.01768482  0.50048833  0.11133099  1
  Sr  Sr3  1  -0.00902929  0.50803296  0.66675906  1
  Sr  Sr4  1  -0.01800884  0.82988463  0.13205108  1
  Sr  Sr5  1  0.03193953  0.81986642  0.56951944  1
  Sr  Sr6  1  0.33048206  0.16727239  0.12684038  1
  Sr  Sr7  1  0.37302341  0.16986052  0.58866838  1
  Sr  Sr8  1  0.37795357  0.52803758  0.12314846  1
  Sr  Sr9  1  0.34024478  0.50515575  0.62099290  1
  Sr  Sr10  1  0.37149272  0.83839772  0.11290572  1
  Sr  Sr11  1  0.34016353  0.84702778  0.64085582  1
  Sr  Sr12  1  0.68942964  0.16384677  0.11538535  1
  Sr  Sr13  1  0.66816412  0.17799998  0.64903767  1
  Sr  Sr14  1  0.65279392  0.49122999  0.13373082  1
  Sr  Sr15  1  0.69052034  0.48753628  0.57031056  1
  Sr  Sr16  1  0.69615325  0.86489867  0.10666349  1
  Sr  Sr17  1  0.66098999  0.83296624  0.62502051  1
  Sr  Sr18  1  0.13422820  -0.03563705  0.13244679  1
  Sr  Sr19  1  0.15729010  -0.00626618  0.62887594  1
  Sr  Sr20  1  0.16710725  0.33667798  0.12203905  1
  Sr  Sr21  1  0.12353261  0.33666108  0.65893416  1
  Sr  Sr22  1  0.12804004  0.67322956  0.14086042  1
  Sr  Sr23  1  0.16664258  0.65554405  0.59741585  1
  Sr  Sr24  1  0.47420495  0.00632271  0.13896151  1
  Sr  Sr25  1  0.49358510  -0.01999613  0.59917362  1
  Sr  Sr26  1  0.47357605  0.29926942  0.13910535  1
  Sr  Sr27  1  0.49122329  0.34766802  0.62375311  1
  Sr  Sr28  1  0.51046251  0.68048891  0.11061694  1
  Sr  Sr29  1  0.46989830  0.68098430  0.67783437  1
  Sr  Sr30  1  0.83814667  0.00569172  0.11711378  1
  Sr  Sr31  1  0.79329153  -0.00108530  0.68434765  1
  Sr  Sr32  1  0.79766471  0.33951759  0.13707661  1
  Sr  Sr33  1  0.82169494  0.31381348  0.60326496  1
  Sr  Sr34  1  0.80241331  0.63267263  0.13229355  1
  Sr  Sr35  1  0.83947111  0.68191084  0.62003034  1
  Sr  Sr36  1  0.00377056  0.18469683  0.39979079  1
  Sr  Sr37  1  0.03905525  0.17539142  0.84802831  1
  Sr  Sr38  1  0.04959283  0.49194773  0.32447298  1
  Sr  Sr39  1  0.02487198  0.49675150  0.87798128  1
  Sr  Sr40  1  -0.00479691  0.84021077  0.35657599  1
  Sr  Sr41  1  0.01906480  0.85127895  0.90910928  1
  Sr  Sr42  1  0.33747152  0.16968917  0.35333858  1
  Sr  Sr43  1  0.34217671  0.18154220  0.90129204  1
  Sr  Sr44  1  0.33635818  0.51149351  0.40048477  1
  Sr  Sr45  1  0.36582726  0.50461539  0.85347659  1
  Sr  Sr46  1  0.37441571  0.83641868  0.34941510  1
  Sr  Sr47  1  0.33704836  0.83596188  0.86416207  1
  Sr  Sr48  1  0.71320084  0.16213295  0.35125160  1
  Sr  Sr49  1  0.67723684  0.17277285  0.86542733  1
  Sr  Sr50  1  0.66379754  0.51142313  0.35623204  1
  Sr  Sr51  1  0.67412257  0.50736401  0.91225621  1
  Sr  Sr52  1  0.66970008  0.84806885  0.40347221  1
  Sr  Sr53  1  0.71484535  0.83254709  0.83442168  1
  Sr  Sr54  1  0.12831423  -0.00499515  0.39629018  1
  Sr  Sr55  1  0.15842891  -0.00954400  0.84763320  1
  Sr  Sr56  1  0.15333206  0.31686893  0.35005747  1
  Sr  Sr57  1  0.16287479  0.33132372  0.89536819  1
  Sr  Sr58  1  0.15919149  0.66313130  0.37977856  1
  Sr  Sr59  1  0.13420314  0.66146967  0.90367822  1
  Sr  Sr60  1  0.48528313  -0.00568792  0.38300551  1
  Sr  Sr61  1  0.44971980  0.00048937  0.91209016  1
  Sr  Sr62  1  0.45321159  0.32461909  0.41043297  1
  Sr  Sr63  1  0.48632159  0.31533298  0.84235761  1
  Sr  Sr64  1  0.48756998  0.65829435  0.32838333  1
  Sr  Sr65  1  0.49881117  0.66588066  0.89042191  1
  Sr  Sr66  1  0.82674313  -0.00776024  0.33337282  1
  Sr  Sr67  1  0.83494519  -0.00322536  0.90009761  1
  Sr  Sr68  1  0.82544623  0.32544292  0.38370412  1
  Sr  Sr69  1  0.79325019  0.32885226  0.89783458  1
  Sr  Sr70  1  0.80273917  0.66924623  0.40883147  1
  Sr  Sr71  1  0.83284753  0.64772603  0.84009865  1
  Ta  Ta72  1  0.17146026  0.13104067  0.00286229  1
  Ta  Ta73  1  0.19335119  0.16751000  0.50559081  1
  Ta  Ta74  1  0.22070764  0.51234525  0.02121736  1
  Ta  Ta75  1  0.15277141  0.47854126  0.50047862  1
  Ta  Ta76  1  0.19834123  0.82240227  0.00845895  1
  Ta  Ta77  1  0.21811161  0.83349704  0.47747414  1
  Ta  Ta78  1  0.52918236  0.16098056  -0.00281800  1
  Ta  Ta79  1  0.55252467  0.16107793  0.48182553  1
  Ta  Ta80  1  0.50472068  0.44833053  -0.00127021  1
  Ta  Ta81  1  0.50406100  0.56039252  0.51109850  1
  Ta  Ta82  1  0.55245962  0.84666135  -0.01745631  1
  Ta  Ta83  1  0.50251146  0.78389576  0.49796865  1
  Ta  Ta84  1  0.88741971  0.17737846  0.00561618  1
  Ta  Ta85  1  0.83434604  0.11280811  0.50808465  1
  Ta  Ta86  1  0.86064321  0.49445094  -0.00119742  1
  Ta  Ta87  1  0.87989284  0.49783756  0.47918544  1
  Ta  Ta88  1  0.84263656  0.78426386  -0.00841855  1
  Ta  Ta89  1  0.83591554  0.89462215  0.50978151  1
  Ta  Ta90  1  0.16440283  0.12812968  0.24088824  1
  Ta  Ta91  1  0.21820631  0.17166707  0.74620801  1
  Ta  Ta92  1  0.22112158  0.51021619  0.23198854  1
  Ta  Ta93  1  0.19122630  0.50969651  0.75871271  1
  Ta  Ta94  1  0.20268458  0.83138533  0.27596396  1
  Ta  Ta95  1  0.15950369  0.80036179  0.74489204  1
  Ta  Ta96  1  0.54111363  0.16036770  0.27448216  1
  Ta  Ta97  1  0.49586648  0.12439008  0.75109906  1
  Ta  Ta98  1  0.49415472  0.45639724  0.26610699  1
  Ta  Ta99  1  0.55197122  0.50463098  0.74376985  1
  Ta  Ta100  1  0.55137778  0.84257841  0.24356510  1
  Ta  Ta101  1  0.52286676  0.85979025  0.77845600  1
  Ta  Ta102  1  0.88300511  0.17424021  0.23645460  1
  Ta  Ta103  1  0.86298686  0.16960932  0.76564722  1
  Ta  Ta104  1  0.87204866  0.49950267  0.27283454  1
  Ta  Ta105  1  0.80667098  0.47550679  0.74106007  1
  Ta  Ta106  1  0.81668756  0.79791623  0.25744185  1
  Ta  Ta107  1  0.90856843  0.83934048  0.74129049  1
  Ta  Ta108  1  -0.00292568  0.04562175  0.24409977  1
  Ta  Ta109  1  -0.02304461  -0.00623773  0.74720126  1
  Ta  Ta110  1  -0.03379982  0.33673037  0.24292959  1
  Ta  Ta111  1  -0.05519454  0.33330966  0.76133998  1
  Ta  Ta112  1  -0.05256415  0.65683362  0.26622285  1
  Ta  Ta113  1  0.01355913  0.70124041  0.73948530  1
  Ta  Ta114  1  0.28573397  -0.00784313  0.25209731  1
  Ta  Ta115  1  0.33476505  0.03280340  0.74540411  1
  Ta  Ta116  1  0.32444834  0.36932154  0.24946201  1
  Ta  Ta117  1  0.30374273  0.33047062  0.74078436  1
  Ta  Ta118  1  0.30489146  0.67355560  0.24259585  1
  Ta  Ta119  1  0.28358621  0.66624939  0.75551531  1
  Ta  Ta120  1  0.63950391  0.00277502  0.24922765  1
  Ta  Ta121  1  0.61089776  -0.00082574  0.77066174  1
  Ta  Ta122  1  0.61829400  0.32237330  0.26552290  1
  Ta  Ta123  1  0.66238617  0.37246069  0.74380088  1
  Ta  Ta124  1  0.66796016  0.71058277  0.24801224  1
  Ta  Ta125  1  0.66325957  0.61977212  0.73804946  1
  Ta  Ta126  1  0.00710209  0.04259778  -0.00000320  1
  Ta  Ta127  1  -0.04414333  0.00265942  0.50082886  1
  Ta  Ta128  1  -0.03551214  0.33679565  -0.00905256  1
  Ta  Ta129  1  -0.00169186  0.38150126  0.49678180  1
  Ta  Ta130  1  -0.04859647  0.65729521  -0.00326178  1
  Ta  Ta131  1  -0.00306013  0.60944146  0.49170507  1
  Ta  Ta132  1  0.28022189  -0.00832791  0.00575602  1
  Ta  Ta133  1  0.30205286  -0.00220627  0.48604349  1
  Ta  Ta134  1  0.33785173  0.36755405  0.00238262  1
  Ta  Ta135  1  0.27501317  0.33209223  0.51104472  1
  Ta  Ta136  1  0.30268018  0.67445811  0.00963640  1
  Ta  Ta137  1  0.35161662  0.69052866  0.49781653  1
  Ta  Ta138  1  0.62585136  0.00672880  -0.02469969  1
  Ta  Ta139  1  0.68471570  0.02189209  0.51324799  1
  Ta  Ta140  1  0.61673668  0.32528360  0.00052650  1
  Ta  Ta141  1  0.63915019  0.31019628  0.48414196  1
  Ta  Ta142  1  0.67965182  0.70409045  -0.01980180  1
  Ta  Ta143  1  0.61960224  0.66692764  0.50610992  1
  N  N144  1  0.00243331  0.00876600  0.87516585  1
  N  N145  1  0.32698525  -0.00467537  0.12244860  1
  N  N146  1  0.34240048  0.00654385  0.35865066  1
  N  N147  1  0.15834315  0.51229685  0.12770518  1
  N  N148  1  0.65284819  0.00324506  0.63541504  1
  N  N149  1  0.00344603  0.66125783  0.61422404  1
  N  N150  1  0.30800132  0.33906883  0.38133368  1
  N  N151  1  -0.00005212  0.33890068  0.37504383  1
  N  N152  1  0.33624789  0.66889744  0.37041160  1
  N  N153  1  0.34224050  0.34242979  0.61089769  1
  N  N154  1  0.32466977  0.32535269  0.12500430  1
  N  N155  1  0.52436031  0.84003649  0.11604392  1
  N  N156  1  0.32929316  0.34178236  0.86902777  1
  N  N157  1  0.00164546  0.35022383  0.11843246  1
  N  N158  1  0.49656280  0.16407769  0.87418661  1
  N  N159  1  0.47751070  0.82520477  0.89227628  1
  N  N160  1  0.33009797  0.00293264  0.61363106  1
  N  N161  1  -0.02294936  0.34527093  0.63502230  1
  N  N162  1  0.67826737  0.66863339  0.85577676  1
  N  N163  1  0.64861906  0.33417682  0.86558011  1
  N  N164  1  0.51754106  0.82222731  0.37666113  1
  N  N165  1  0.13904707  0.82644741  0.38849277  1
  N  N166  1  0.18204006  0.17628507  0.12738205  1
  N  N167  1  0.47982735  0.15772259  0.38770372  1
  N  N168  1  0.32293262  0.67199771  0.63509984  1
  N  N169  1  0.83568611  0.16941720  0.11899593  1
  N  N170  1  0.01048678  0.34120263  0.86536150  1
  N  N171  1  0.31093358  -0.00201552  0.86949419  1
  N  N172  1  0.35609711  0.68370156  0.12097000  1
  N  N173  1  0.65628415  0.33332041  0.60738754  1
  N  N174  1  0.18605330  0.16331312  0.86967853  1
  N  N175  1  -0.01651525  0.01084799  0.36659912  1
  N  N176  1  0.64327330  0.32577321  0.14066481  1
  O  O177  1  0.82597019  0.15670709  0.88956670  1
  O  O178  1  0.17955509  0.16324977  0.37496947  1
  O  O179  1  0.18412710  0.82066471  0.13920907  1
  O  O180  1  0.51062302  0.82707591  0.64549699  1
  O  O181  1  0.83236034  0.79477796  0.12843143  1
  O  O182  1  0.01123658  0.01739217  0.62055728  1
  O  O183  1  0.82123388  0.49120829  0.87659130  1
  O  O184  1  -0.01579519  -0.01577162  0.11997255  1
  O  O185  1  0.85148842  0.15915108  0.38257010  1
  O  O186  1  0.66811089  0.69948866  0.11859448  1
  O  O187  1  0.83197303  0.48710324  0.61278990  1
  O  O188  1  0.17861741  0.81945963  0.61452293  1
  O  O189  1  0.68665926  0.35837207  0.36934853  1
  O  O190  1  0.51945677  0.15083764  0.61856330  1
  O  O191  1  0.33997711  0.67316373  0.87616872  1
  O  O192  1  -0.04237395  0.65972840  0.13493503  1
  O  O193  1  0.85313968  0.15677250  0.63495124  1
  O  O194  1  0.49284399  0.50464264  0.38794194  1
  O  O195  1  0.85960992  0.49272202  0.13418848  1
  O  O196  1  0.86504884  0.82127546  0.86955449  1
  O  O197  1  0.85654316  0.84259630  0.62346911  1
  O  O198  1  -0.02730578  0.68596899  0.39125859  1
  O  O199  1  0.16663516  0.81892016  0.87743256  1
  O  O200  1  0.48936870  0.51713874  0.63186197  1
  O  O201  1  0.67324279  0.00331501  0.37304263  1
  O  O202  1  0.80294712  0.48676701  0.38161827  1
  O  O203  1  0.69489182  0.00912992  0.86205883  1
  O  O204  1  0.51738428  0.48945508  0.87496565  1
  O  O205  1  0.65673437  0.67141103  0.37485807  1
  O  O206  1  0.15879367  0.49523749  0.63644960  1
  O  O207  1  0.18478153  0.50091514  0.37334449  1
  O  O208  1  0.64233099  0.00936901  0.11302840  1
  O  O209  1  0.52249487  0.15543707  0.14083158  1
  O  O210  1  -0.01267201  0.65653651  0.86450398  1
  O  O211  1  0.15637287  0.15572527  0.62994671  1
  O  O212  1  0.18311272  0.50682997  0.89015853  1
  O  O213  1  0.82235064  0.84201587  0.38268008  1
  O  O214  1  0.67878088  0.67536374  0.62243164  1
  O  O215  1  0.50516285  0.45669745  0.13574422  1
