# generated using pymatgen
data_Sr24Ta24N11O13
_symmetry_space_group_name_H-M   'P 1'
_cell_length_a   16.73863659
_cell_length_b   16.94870833
_cell_length_c   15.75992428
_cell_angle_alpha   90.15532836
_cell_angle_beta   90.08093845
_cell_angle_gamma   89.95097008
_symmetry_Int_Tables_number   1
_chemical_formula_structural   Sr24Ta24N11O13
_chemical_formula_sum   'Sr72 Ta72 N33 O39'
_cell_volume   4471.04073119
_cell_formula_units_Z   3
loop_
 _symmetry_equiv_pos_site_id
 _symmetry_equiv_pos_as_xyz
  1  'x, y, z'
loop_
 _atom_site_type_symbol
 _atom_site_label
 _atom_site_symmetry_multiplicity
 _atom_site_fract_x
 _atom_site_fract_y
 _atom_site_fract_z
 _atom_site_occupancy
  Sr  Sr0  1  0.00029224  0.17246471  0.13404319  1
  Sr  Sr1  1  -0.01695142  0.17154708  0.57618641  1
  Sr  Sr2  1  0.00108980  0.51298042  0.15725307  1
  Sr  Sr3  1  -0.01129002  0.48070997  0.64234797  1
  Sr  Sr4  1  0.00142856  0.81509952  0.07855442  1
  Sr  Sr5  1  0.00108537  0.82864005  0.63867927  1
  Sr  Sr6  1  0.34128278  0.13384470  0.09627346  1
  Sr  Sr7  1  0.32629383  0.15295476  0.63399905  1
  Sr  Sr8  1  0.32664017  0.47999562  0.10150237  1
  Sr  Sr9  1  0.33202656  0.49515030  0.62927795  1
  Sr  Sr10  1  0.32725339  0.81778053  0.14404309  1
  Sr  Sr11  1  0.33244440  0.81135964  0.63338605  1
  Sr  Sr12  1  0.66030712  0.15390454  0.13233883  1
  Sr  Sr13  1  0.66912732  0.15643245  0.65508945  1
  Sr  Sr14  1  0.67309340  0.48198482  0.11256690  1
  Sr  Sr15  1  0.67712635  0.47524187  0.59962396  1
  Sr  Sr16  1  0.67413289  0.82259935  0.13201412  1
  Sr  Sr17  1  0.65566808  0.81665258  0.60289396  1
  Sr  Sr18  1  0.15483026  0.01083127  0.12765571  1
  Sr  Sr19  1  0.16375172  0.00304842  0.63992291  1
  Sr  Sr20  1  0.15798310  0.34410239  0.13156029  1
  Sr  Sr21  1  0.17348432  0.35393997  0.65100451  1
  Sr  Sr22  1  0.17486286  0.67180686  0.12613913  1
  Sr  Sr23  1  0.17452046  0.67511049  0.58786285  1
  Sr  Sr24  1  0.50792578  0.00391469  0.08762926  1
  Sr  Sr25  1  0.50703711  0.02079576  0.62319482  1
  Sr  Sr26  1  0.49923436  0.34331286  0.13906087  1
  Sr  Sr27  1  0.49263124  0.36575758  0.59919431  1
  Sr  Sr28  1  0.50130763  0.70012057  0.15918050  1
  Sr  Sr29  1  0.50334325  0.68514956  0.63693590  1
  Sr  Sr30  1  0.82820032  0.01085100  0.16089425  1
  Sr  Sr31  1  0.83951903  0.01160945  0.63686155  1
  Sr  Sr32  1  0.83217411  0.32399653  0.08560972  1
  Sr  Sr33  1  0.82748336  0.33398441  0.63041295  1
  Sr  Sr34  1  0.82353771  0.66591774  0.12047839  1
  Sr  Sr35  1  0.84119060  0.67755667  0.62899666  1
  Sr  Sr36  1  0.00067014  0.17165547  0.36476307  1
  Sr  Sr37  1  -0.00401787  0.18710248  0.91999107  1
  Sr  Sr38  1  -0.00091067  0.49893751  0.35718203  1
  Sr  Sr39  1  -0.00846468  0.49007964  0.84242726  1
  Sr  Sr40  1  -0.00176552  0.80686879  0.41992104  1
  Sr  Sr41  1  -0.00403650  0.82912006  0.86483577  1
  Sr  Sr42  1  0.33772731  0.13992103  0.40584781  1
  Sr  Sr43  1  0.33104322  0.14427192  0.85927178  1
  Sr  Sr44  1  0.33205161  0.48012208  0.39101103  1
  Sr  Sr45  1  0.32747098  0.49726419  0.87659164  1
  Sr  Sr46  1  0.32358918  0.81478598  0.35563401  1
  Sr  Sr47  1  0.33835854  0.81467032  0.86788109  1
  Sr  Sr48  1  0.65570367  0.15675302  0.35305086  1
  Sr  Sr49  1  0.67507945  0.15975809  0.86306253  1
  Sr  Sr50  1  0.67099387  0.47607848  0.38315473  1
  Sr  Sr51  1  0.67937654  0.48837676  0.90381083  1
  Sr  Sr52  1  0.66976963  0.81981727  0.36899377  1
  Sr  Sr53  1  0.65859021  0.81340470  0.88952319  1
  Sr  Sr54  1  0.16058213  0.01420434  0.37018702  1
  Sr  Sr55  1  0.16011691  0.00661639  0.86887974  1
  Sr  Sr56  1  0.16074843  0.34869742  0.34835769  1
  Sr  Sr57  1  0.17137363  0.35101404  0.86647949  1
  Sr  Sr58  1  0.17403234  0.66914608  0.37466714  1
  Sr  Sr59  1  0.17909290  0.67363791  0.91690342  1
  Sr  Sr60  1  0.50722803  0.01480692  0.40637460  1
  Sr  Sr61  1  0.50623022  0.01944131  0.87735981  1
  Sr  Sr62  1  0.50133199  0.34128653  0.36368801  1
  Sr  Sr63  1  0.49360426  0.37535064  0.90167022  1
  Sr  Sr64  1  0.50550945  0.69619911  0.36702898  1
  Sr  Sr65  1  0.49369503  0.67731386  0.84407439  1
  Sr  Sr66  1  0.84515250  0.01917216  0.36338460  1
  Sr  Sr67  1  0.83586243  0.00849027  0.84837038  1
  Sr  Sr68  1  0.84189574  0.33673972  0.41606402  1
  Sr  Sr69  1  0.82262811  0.33288516  0.86910940  1
  Sr  Sr70  1  0.82878484  0.66326395  0.36084242  1
  Sr  Sr71  1  0.83456426  0.67349954  0.88078276  1
  Ta  Ta72  1  0.18401064  0.19106643  -0.00380201  1
  Ta  Ta73  1  0.16972571  0.21039667  0.50024866  1
  Ta  Ta74  1  0.12865660  0.50244725  -0.00089865  1
  Ta  Ta75  1  0.13999165  0.49802661  0.49769515  1
  Ta  Ta76  1  0.18315031  0.85692923  -0.00204660  1
  Ta  Ta77  1  0.17766582  0.86171077  0.50562946  1
  Ta  Ta78  1  0.50336846  0.19907430  -0.00496353  1
  Ta  Ta79  1  0.51228751  0.19493320  0.50119814  1
  Ta  Ta80  1  0.50068768  0.55278590  0.00774349  1
  Ta  Ta81  1  0.50458859  0.54306093  0.49765986  1
  Ta  Ta82  1  0.48580142  0.81767218  0.00574253  1
  Ta  Ta83  1  0.46913106  0.84543490  0.49789932  1
  Ta  Ta84  1  0.82255502  0.13515355  0.00363000  1
  Ta  Ta85  1  0.79460631  0.15866309  0.50077602  1
  Ta  Ta86  1  0.86978409  0.50284934  0.00102255  1
  Ta  Ta87  1  0.85180322  0.52224198  0.49847155  1
  Ta  Ta88  1  0.82952489  0.87859104  0.00373128  1
  Ta  Ta89  1  0.82779260  0.86985136  0.49824206  1
  Ta  Ta90  1  0.20702541  0.17770675  0.24976458  1
  Ta  Ta91  1  0.12225076  0.17972493  0.74713575  1
  Ta  Ta92  1  0.18997842  0.51828698  0.24701380  1
  Ta  Ta93  1  0.16564476  0.54480274  0.75513574  1
  Ta  Ta94  1  0.12471926  0.83391785  0.25159392  1
  Ta  Ta95  1  0.17154230  0.79825245  0.74979006  1
  Ta  Ta96  1  0.47120240  0.15119312  0.25257901  1
  Ta  Ta97  1  0.49733552  0.22242991  0.75217181  1
  Ta  Ta98  1  0.50008636  0.52589739  0.24701606  1
  Ta  Ta99  1  0.54264388  0.50458010  0.74938279  1
  Ta  Ta100  1  0.49983025  0.88516882  0.25233134  1
  Ta  Ta101  1  0.50610146  0.86685441  0.74554666  1
  Ta  Ta102  1  0.82800364  0.20718751  0.25232497  1
  Ta  Ta103  1  0.86899722  0.17621819  0.75089402  1
  Ta  Ta104  1  0.82296200  0.46525873  0.24795951  1
  Ta  Ta105  1  0.80413565  0.51067046  0.75048849  1
  Ta  Ta106  1  0.87491984  0.83077541  0.24461409  1
  Ta  Ta107  1  0.79895800  0.84165363  0.75147818  1
  Ta  Ta108  1  0.00112129  -0.05947499  0.25025610  1
  Ta  Ta109  1  0.00103027  0.06925873  0.75104851  1
  Ta  Ta110  1  -0.03963073  0.33561221  0.24936408  1
  Ta  Ta111  1  -0.00337803  0.29119868  0.74289899  1
  Ta  Ta112  1  0.00691997  0.70951500  0.24838564  1
  Ta  Ta113  1  0.04687107  0.66385695  0.75448585  1
  Ta  Ta114  1  0.36083423  0.00252111  0.24934466  1
  Ta  Ta115  1  0.35000646  -0.03317436  0.75314129  1
  Ta  Ta116  1  0.33251269  0.28476283  0.24904813  1
  Ta  Ta117  1  0.36232576  0.32201711  0.75296885  1
  Ta  Ta118  1  0.34209834  0.62166645  0.24738960  1
  Ta  Ta119  1  0.29565589  0.65839783  0.75621165  1
  Ta  Ta120  1  0.63613507  -0.01304427  0.24575185  1
  Ta  Ta121  1  0.66450814  -0.04012799  0.75170231  1
  Ta  Ta122  1  0.70495142  0.32584057  0.25025033  1
  Ta  Ta123  1  0.63302806  0.34385850  0.75082000  1
  Ta  Ta124  1  0.65782891  0.62288148  0.24824262  1
  Ta  Ta125  1  0.67368932  0.63446284  0.75543213  1
  Ta  Ta126  1  -0.03184514  -0.00094563  0.00061101  1
  Ta  Ta127  1  -0.00459138  -0.01980953  0.50532871  1
  Ta  Ta128  1  0.00496895  0.37224313  0.00420513  1
  Ta  Ta129  1  0.03155740  0.34521358  0.49676975  1
  Ta  Ta130  1  0.00119865  0.62747157  -0.00776743  1
  Ta  Ta131  1  0.00102193  0.62488687  0.50291399  1
  Ta  Ta132  1  0.32175335  -0.04412583  -0.00446878  1
  Ta  Ta133  1  0.32553958  -0.03959519  0.50182870  1
  Ta  Ta134  1  0.33145805  0.29693297  -0.00780049  1
  Ta  Ta135  1  0.31548274  0.30968289  0.50481157  1
  Ta  Ta136  1  0.37139264  0.66294796  0.00655499  1
  Ta  Ta137  1  0.36146045  0.65488976  0.49388687  1
  Ta  Ta138  1  0.70202765  -0.00750865  0.00226782  1
  Ta  Ta139  1  0.69418883  -0.00495619  0.49823718  1
  Ta  Ta140  1  0.64722003  0.29954549  -0.00491066  1
  Ta  Ta141  1  0.65918012  0.28915988  0.50616401  1
  Ta  Ta142  1  0.62763533  0.65804537  0.00489618  1
  Ta  Ta143  1  0.65895007  0.63975150  0.49510981  1
  N  N144  1  0.16494971  0.50419045  0.37653924  1
  N  N145  1  0.00739705  0.66954171  0.87663155  1
  N  N146  1  0.16396218  0.83234973  0.62608776  1
  N  N147  1  0.33673076  0.65765220  0.37467605  1
  N  N148  1  -0.00025209  0.32600998  0.62185277  1
  N  N149  1  -0.00132977  0.33333217  0.37353943  1
  N  N150  1  0.83372606  0.49530928  0.12264415  1
  N  N151  1  0.32941397  0.32936638  0.62631399  1
  N  N152  1  0.33347093  0.65903173  0.87481165  1
  N  N153  1  0.66991657  0.66037386  0.37338206  1
  N  N154  1  0.83059204  0.17179013  0.37996420  1
  N  N155  1  0.50216046  0.84452772  0.62386923  1
  N  N156  1  0.83255791  0.50009861  0.62524160  1
  N  N157  1  0.83919173  0.83934445  0.12452566  1
  N  N158  1  0.49459737  0.17009104  0.37405765  1
  N  N159  1  0.66634256  0.65955360  0.12991709  1
  N  N160  1  -0.00374404  0.34001130  0.12408536  1
  N  N161  1  0.66328265  -0.00454217  0.12410600  1
  N  N162  1  0.66245722  0.65616823  0.87786148  1
  N  N163  1  0.83446130  0.49749030  0.87406317  1
  N  N164  1  0.49734575  0.84952308  0.37389792  1
  N  N165  1  0.33268149  0.66146203  0.12533121  1
  N  N166  1  0.33569931  -0.01118134  0.87416848  1
  N  N167  1  0.16597926  0.50767841  0.87451078  1
  N  N168  1  0.82812193  0.16835486  0.62445140  1
  N  N169  1  0.16486104  0.50455397  0.12522463  1
  N  N170  1  0.83326374  0.16804839  0.12873062  1
  N  N171  1  0.49762630  0.84776150  0.12266946  1
  N  N172  1  0.83539699  0.16781843  0.88232071  1
  N  N173  1  0.32937519  0.33789275  0.87701192  1
  N  N174  1  0.66464432  0.32608467  0.87732821  1
  N  N175  1  0.66154692  0.32089437  0.62745128  1
  N  N176  1  0.83283265  0.49769260  0.37444745  1
  O  O177  1  0.67672609  0.31946745  0.37420787  1
  O  O178  1  0.81779187  0.84624255  0.62664374  1
  O  O179  1  0.17721574  0.18362587  0.37214755  1
  O  O180  1  -0.00568896  -0.02658748  0.12005933  1
  O  O181  1  0.81888851  0.83722632  0.87654539  1
  O  O182  1  0.49811641  0.49515272  0.11980129  1
  O  O183  1  0.66258652  -0.01882416  0.87795852  1
  O  O184  1  0.50214830  0.17476864  0.86660243  1
  O  O185  1  0.34151946  0.30811651  0.12576954  1
  O  O186  1  0.16670570  0.84158020  0.87046217  1
  O  O187  1  0.50252560  0.51526191  0.37260371  1
  O  O188  1  0.00045163  -0.03547410  0.38171099  1
  O  O189  1  0.67321944  -0.00242383  0.37336282  1
  O  O190  1  0.32372288  -0.01821760  0.62660484  1
  O  O191  1  0.32942380  0.65443885  0.62611591  1
  O  O192  1  0.15059575  0.83717648  0.38172153  1
  O  O193  1  0.34554243  -0.01399697  0.12277627  1
  O  O194  1  0.00547790  0.66501060  0.37106065  1
  O  O195  1  0.15705321  0.84809960  0.12097011  1
  O  O196  1  0.33965225  0.31058688  0.37252985  1
  O  O197  1  0.67259568  -0.01680877  0.62113013  1
  O  O198  1  0.18689527  0.16711984  0.12063401  1
  O  O199  1  0.84138718  0.84977118  0.37567645  1
  O  O200  1  0.50328013  0.83337233  0.87540501  1
  O  O201  1  -0.00082407  0.33419089  0.87914171  1
  O  O202  1  0.00759109  0.67078676  0.12470202  1
  O  O203  1  0.67634021  0.32148248  0.12422583  1
  O  O204  1  0.33628187  -0.01323295  0.37139269  1
  O  O205  1  0.49311394  0.17894697  0.12085775  1
  O  O206  1  -0.00998383  0.02929419  0.87987642  1
  O  O207  1  0.17156393  0.50673740  0.62440729  1
  O  O208  1  0.49580561  0.17824009  0.62677804  1
  O  O209  1  0.16297114  0.19253768  0.62409507  1
  O  O210  1  0.50776280  0.52473393  0.63007406  1
  O  O211  1  0.00155155  0.02014205  0.62462026  1
  O  O212  1  0.67183229  0.66134383  0.62261685  1
  O  O213  1  0.01565366  0.66706974  0.62208344  1
  O  O214  1  0.16164126  0.18441856  0.87363090  1
  O  O215  1  0.50729985  0.52311992  0.87285666  1
