# generated using pymatgen
data_Sr24Ta24N11O13
_symmetry_space_group_name_H-M   'P 1'
_cell_length_a   16.97634755
_cell_length_b   16.79168186
_cell_length_c   15.73185602
_cell_angle_alpha   90.07862520
_cell_angle_beta   89.48462132
_cell_angle_gamma   89.88438942
_symmetry_Int_Tables_number   1
_chemical_formula_structural   Sr24Ta24N11O13
_chemical_formula_sum   'Sr72 Ta72 N33 O39'
_cell_volume   4484.35044122
_cell_formula_units_Z   3
loop_
 _symmetry_equiv_pos_site_id
 _symmetry_equiv_pos_as_xyz
  1  'x, y, z'
loop_
 _atom_site_type_symbol
 _atom_site_label
 _atom_site_symmetry_multiplicity
 _atom_site_fract_x
 _atom_site_fract_y
 _atom_site_fract_z
 _atom_site_occupancy
  Sr  Sr0  1  -0.01781679  0.15257595  0.08913307  1
  Sr  Sr1  1  0.00838811  0.16656377  0.63160501  1
  Sr  Sr2  1  0.00178926  0.50351811  0.11910792  1
  Sr  Sr3  1  -0.01789991  0.50033807  0.66313727  1
  Sr  Sr4  1  -0.02018040  0.83050391  0.13366079  1
  Sr  Sr5  1  -0.01609079  0.81798594  0.60501309  1
  Sr  Sr6  1  0.31414883  0.17039252  0.14153561  1
  Sr  Sr7  1  0.32831567  0.16498761  0.58914802  1
  Sr  Sr8  1  0.33466157  0.50555059  0.09142642  1
  Sr  Sr9  1  0.33075194  0.49131319  0.64271716  1
  Sr  Sr10  1  0.30798513  0.83413056  0.13752391  1
  Sr  Sr11  1  0.33242436  0.83624188  0.62032818  1
  Sr  Sr12  1  0.64550760  0.16583840  0.12790803  1
  Sr  Sr13  1  0.63641156  0.15453123  0.63378059  1
  Sr  Sr14  1  0.64370532  0.48791991  0.15943911  1
  Sr  Sr15  1  0.66345488  0.48995490  0.59489819  1
  Sr  Sr16  1  0.67285828  0.82893480  0.11403269  1
  Sr  Sr17  1  0.66129973  0.82907779  0.67071875  1
  Sr  Sr18  1  0.17737942  0.00834154  0.10353082  1
  Sr  Sr19  1  0.17328955  -0.00583509  0.66182409  1
  Sr  Sr20  1  0.16386399  0.33587003  0.16430304  1
  Sr  Sr21  1  0.18204024  0.33047552  0.61016489  1
  Sr  Sr22  1  0.16973671  0.66604416  0.13281409  1
  Sr  Sr23  1  0.19250998  0.67191575  0.60432118  1
  Sr  Sr24  1  0.53056580  -0.01039833  0.08502207  1
  Sr  Sr25  1  0.49341289  -0.00969360  0.63116954  1
  Sr  Sr26  1  0.49793810  0.33608067  0.11871888  1
  Sr  Sr27  1  0.51536873  0.34780492  0.65794979  1
  Sr  Sr28  1  0.51763223  0.67869905  0.14692114  1
  Sr  Sr29  1  0.52241700  0.66090888  0.60960704  1
  Sr  Sr30  1  0.83359585  0.00261386  0.15639785  1
  Sr  Sr31  1  0.85855974  0.00920500  0.60128448  1
  Sr  Sr32  1  0.85307254  0.35405682  0.11934005  1
  Sr  Sr33  1  0.84093700  0.33623080  0.61029543  1
  Sr  Sr34  1  0.84403240  0.67867196  0.08167129  1
  Sr  Sr35  1  0.83634154  0.67637482  0.63817753  1
  Sr  Sr36  1  -0.01810003  0.16707089  0.40768655  1
  Sr  Sr37  1  0.01452235  0.16318226  0.86314022  1
  Sr  Sr38  1  0.01167297  0.48568462  0.32510199  1
  Sr  Sr39  1  -0.01478358  0.50111379  0.88759019  1
  Sr  Sr40  1  -0.01836141  0.82929964  0.38719692  1
  Sr  Sr41  1  -0.02016264  0.80905744  0.86917032  1
  Sr  Sr42  1  0.32965474  0.17252462  0.36602824  1
  Sr  Sr43  1  0.31780638  0.16131721  0.90797127  1
  Sr  Sr44  1  0.30213594  0.49731725  0.42158133  1
  Sr  Sr45  1  0.33620440  0.49690627  0.86918884  1
  Sr  Sr46  1  0.33864566  0.82659466  0.37514629  1
  Sr  Sr47  1  0.31073078  0.84353389  0.86340393  1
  Sr  Sr48  1  0.65461037  0.14770732  0.37318276  1
  Sr  Sr49  1  0.63378481  0.17199354  0.87328096  1
  Sr  Sr50  1  0.66728102  0.49598836  0.37976404  1
  Sr  Sr51  1  0.64347199  0.47165945  0.87132602  1
  Sr  Sr52  1  0.66270764  0.83271684  0.34179734  1
  Sr  Sr53  1  0.66913513  0.81994632  0.88713453  1
  Sr  Sr54  1  0.19999560  0.00105184  0.32681989  1
  Sr  Sr55  1  0.17191381  0.00184670  0.88283820  1
  Sr  Sr56  1  0.16603077  0.32140933  0.38247378  1
  Sr  Sr57  1  0.16887541  0.34452519  0.84055195  1
  Sr  Sr58  1  0.15833734  0.67441286  0.37086418  1
  Sr  Sr59  1  0.19835563  0.66527812  0.88615987  1
  Sr  Sr60  1  0.49137678  0.00910086  0.42024372  1
  Sr  Sr61  1  0.51443126  -0.00949586  0.85904778  1
  Sr  Sr62  1  0.51969190  0.33531197  0.34174471  1
  Sr  Sr63  1  0.48371175  0.34106834  0.88928288  1
  Sr  Sr64  1  0.52639429  0.66201074  0.36729213  1
  Sr  Sr65  1  0.52260451  0.67691089  0.88373421  1
  Sr  Sr66  1  0.82854266  -0.00756179  0.36978401  1
  Sr  Sr67  1  0.85924382  0.03514412  0.87253493  1
  Sr  Sr68  1  0.83744641  0.35298748  0.38113171  1
  Sr  Sr69  1  0.85653817  0.33419096  0.88630800  1
  Sr  Sr70  1  0.83626014  0.66916920  0.41319029  1
  Sr  Sr71  1  0.83399225  0.67037344  0.86400585  1
  Ta  Ta72  1  0.15946319  0.21265142  0.00647441  1
  Ta  Ta73  1  0.16164445  0.11714715  0.49342672  1
  Ta  Ta74  1  0.16124246  0.47197036  0.00522621  1
  Ta  Ta75  1  0.11681951  0.49834654  0.49572579  1
  Ta  Ta76  1  0.12698516  0.82964049  -0.00359398  1
  Ta  Ta77  1  0.16346268  0.87251373  0.49596281  1
  Ta  Ta78  1  0.47315836  0.15337114  0.00570248  1
  Ta  Ta79  1  0.49797986  0.21219558  0.49709395  1
  Ta  Ta80  1  0.50894708  0.52787469  0.00580962  1
  Ta  Ta81  1  0.48164293  0.49053957  0.49534854  1
  Ta  Ta82  1  0.46291398  0.83049767  0.00154914  1
  Ta  Ta83  1  0.53486095  0.82721865  0.50366330  1
  Ta  Ta84  1  0.79488507  0.17558535  0.00495419  1
  Ta  Ta85  1  0.79619440  0.17869048  0.49789658  1
  Ta  Ta86  1  0.78656448  0.49986612  -0.00002178  1
  Ta  Ta87  1  0.88657163  0.50389599  0.49775371  1
  Ta  Ta88  1  0.83697331  0.87605214  -0.01166447  1
  Ta  Ta89  1  0.78923351  0.83879778  0.50646114  1
  Ta  Ta90  1  0.11243033  0.15645037  0.24330189  1
  Ta  Ta91  1  0.19855287  0.16933880  0.74852121  1
  Ta  Ta92  1  0.20399377  0.50513981  0.25250158  1
  Ta  Ta93  1  0.14931515  0.52010583  0.74780610  1
  Ta  Ta94  1  0.13028132  0.84528760  0.24329936  1
  Ta  Ta95  1  0.13273943  0.81890166  0.75153678  1
  Ta  Ta96  1  0.49532297  0.11698465  0.25065569  1
  Ta  Ta97  1  0.45326213  0.16805837  0.74928010  1
  Ta  Ta98  1  0.45323944  0.50328314  0.26054758  1
  Ta  Ta99  1  0.50378475  0.53066709  0.75021442  1
  Ta  Ta100  1  0.49508539  0.87664367  0.25066449  1
  Ta  Ta101  1  0.47796305  0.80769232  0.74668758  1
  Ta  Ta102  1  0.83279419  0.19143792  0.25125572  1
  Ta  Ta103  1  0.80180593  0.17954138  0.74844755  1
  Ta  Ta104  1  0.83006922  0.54187046  0.24818782  1
  Ta  Ta105  1  0.79751647  0.49129014  0.74555526  1
  Ta  Ta106  1  0.82851424  0.79343599  0.25558736  1
  Ta  Ta107  1  0.83522486  0.87382715  0.75388328  1
  Ta  Ta108  1  0.02112761  0.00466928  0.24601035  1
  Ta  Ta109  1  0.00084319  -0.03835498  0.75590456  1
  Ta  Ta110  1  -0.00946214  0.29010824  0.24835008  1
  Ta  Ta111  1  0.00387305  0.33439648  0.74983208  1
  Ta  Ta112  1  -0.03473124  0.66862861  0.25152469  1
  Ta  Ta113  1  0.04396200  0.66450018  0.74681018  1
  Ta  Ta114  1  0.37985540  -0.00169145  0.24296752  1
  Ta  Ta115  1  0.33970024  0.03619002  0.75195731  1
  Ta  Ta116  1  0.33556536  0.37505919  0.25486020  1
  Ta  Ta117  1  0.33657901  0.29290575  0.74916103  1
  Ta  Ta118  1  0.33661243  0.63258727  0.25534161  1
  Ta  Ta119  1  0.37335537  0.67084126  0.75041650  1
  Ta  Ta120  1  0.63200576  -0.00180963  0.25067559  1
  Ta  Ta121  1  0.70843076  0.00750272  0.75211208  1
  Ta  Ta122  1  0.70059218  0.31108436  0.25156264  1
  Ta  Ta123  1  0.70153487  0.32971656  0.74370184  1
  Ta  Ta124  1  0.71588481  0.66491066  0.24833721  1
  Ta  Ta125  1  0.66949857  0.62615714  0.75267403  1
  Ta  Ta126  1  -0.00244402  -0.03673406  -0.01056953  1
  Ta  Ta127  1  0.04842699  -0.00429570  0.49770541  1
  Ta  Ta128  1  0.04180657  0.33232106  0.00505414  1
  Ta  Ta129  1  0.00265498  0.36940933  0.49381148  1
  Ta  Ta130  1  0.02847929  0.67450445  0.00438280  1
  Ta  Ta131  1  0.00505753  0.62384786  0.49441872  1
  Ta  Ta132  1  0.36226754  -0.00699876  0.00417780  1
  Ta  Ta133  1  0.29911653  -0.00443680  0.49829165  1
  Ta  Ta134  1  0.29317428  0.33392237  -0.00219471  1
  Ta  Ta135  1  0.38355495  0.33608804  0.50478818  1
  Ta  Ta136  1  0.36924498  0.68249063  -0.00038328  1
  Ta  Ta137  1  0.37010630  0.65778361  0.50372631  1
  Ta  Ta138  1  0.71038046  0.01167596  0.00542287  1
  Ta  Ta139  1  0.67163615  -0.03671219  0.50027089  1
  Ta  Ta140  1  0.68923403  0.33019409  0.01090503  1
  Ta  Ta141  1  0.65762604  0.30409108  0.49688817  1
  Ta  Ta142  1  0.67158116  0.62312746  -0.00165372  1
  Ta  Ta143  1  0.67194167  0.71812406  0.50419138  1
  N  N144  1  0.82837101  0.83941956  0.63268492  1
  N  N145  1  0.15852708  0.49692833  0.37208636  1
  N  N146  1  0.00235494  0.32961505  0.12848798  1
  N  N147  1  0.15489334  0.83914054  0.12456302  1
  N  N148  1  0.00313493  0.66334320  0.12299735  1
  N  N149  1  0.15508762  0.16786924  0.12469914  1
  N  N150  1  0.32887344  -0.00061764  0.13000962  1
  N  N151  1  0.49209245  0.50543085  0.12956292  1
  N  N152  1  0.66131483  -0.01082573  0.37864235  1
  N  N153  1  0.82280072  0.82814326  0.87815556  1
  N  N154  1  0.15917724  0.83245258  0.87030908  1
  N  N155  1  0.67183368  0.33758395  0.37054649  1
  N  N156  1  0.33270424  0.00264266  0.62580147  1
  N  N157  1  0.51316268  0.50081735  0.36747547  1
  N  N158  1  0.65937892  0.33371794  0.13036555  1
  N  N159  1  0.67761572  0.65818548  0.87191271  1
  N  N160  1  0.32567697  0.33030781  0.87753559  1
  N  N161  1  0.34516253  0.66165851  0.62192498  1
  N  N162  1  0.67038785  0.33226035  0.62287749  1
  N  N163  1  0.50208188  0.83235396  0.62652715  1
  N  N164  1  0.00026768  0.65866543  0.37152621  1
  N  N165  1  0.34402714  0.33293984  0.62424756  1
  N  N166  1  0.34247868  0.00090174  0.38056189  1
  N  N167  1  0.50295286  0.50041120  0.62321616  1
  N  N168  1  0.34907973  0.66749595  0.88035294  1
  N  N169  1  0.67912152  0.00032170  0.12710524  1
  N  N170  1  0.01443580  0.00462775  0.87295741  1
  N  N171  1  0.00216788  0.32867672  0.37426599  1
  N  N172  1  0.82570144  0.82981331  0.37403257  1
  N  N173  1  0.01028807  0.33438099  0.87143809  1
  N  N174  1  0.49333056  0.50293485  0.87733147  1
  N  N175  1  0.16891484  0.49773196  0.12576212  1
  N  N176  1  0.33943268  0.00175047  0.87718521  1
  O  O177  1  0.16961476  0.17607480  0.87348729  1
  O  O178  1  0.47411438  0.16594152  0.88060028  1
  O  O179  1  0.49416538  0.16383784  0.37444856  1
  O  O180  1  0.15646512  0.50713325  0.62300397  1
  O  O181  1  0.82556264  0.16786960  0.37304571  1
  O  O182  1  0.15441572  0.14735568  0.36742336  1
  O  O183  1  0.01699322  -0.00178341  0.37119005  1
  O  O184  1  0.16032662  0.84949204  0.37137118  1
  O  O185  1  0.81872314  0.51462550  0.12498558  1
  O  O186  1  0.68581208  0.01600776  0.87518215  1
  O  O187  1  0.50247734  0.85362277  0.37881518  1
  O  O188  1  0.68698684  0.66582293  0.11890877  1
  O  O189  1  0.68251842  0.67536816  0.38177395  1
  O  O190  1  0.83353210  0.49860293  0.62184836  1
  O  O191  1  0.02152825  0.65461321  0.87106584  1
  O  O192  1  0.00144362  -0.00330979  0.11996672  1
  O  O193  1  0.15807096  0.84222480  0.61998197  1
  O  O194  1  0.82776958  0.16955211  0.12352888  1
  O  O195  1  0.00111479  0.32760677  0.61772328  1
  O  O196  1  0.48267424  0.17072994  0.62055404  1
  O  O197  1  0.34639585  0.65889502  0.13181990  1
  O  O198  1  0.01923799  0.66455012  0.62118197  1
  O  O199  1  0.15702720  0.50286464  0.87232853  1
  O  O200  1  0.80136623  0.18213487  0.87319892  1
  O  O201  1  0.67871108  0.67421417  0.62855556  1
  O  O202  1  0.01920688  -0.01070657  0.63019697  1
  O  O203  1  0.67787129  0.32351752  0.87334932  1
  O  O204  1  0.32542554  0.35213962  0.12864261  1
  O  O205  1  0.82746841  0.83127976  0.11494574  1
  O  O206  1  0.84493227  0.51513002  0.37602555  1
  O  O207  1  0.48756280  0.83998078  0.12954667  1
  O  O208  1  0.80614404  0.48880805  0.87420260  1
  O  O209  1  0.80762454  0.16879369  0.61860210  1
  O  O210  1  0.48170610  0.83668494  0.87592735  1
  O  O211  1  0.17493575  0.14839483  0.62471201  1
  O  O212  1  0.33436436  0.65915809  0.37802908  1
  O  O213  1  0.33815393  0.34690838  0.37890927  1
  O  O214  1  0.48717772  0.16343172  0.13064823  1
  O  O215  1  0.68592968  -0.00033727  0.62966241  1
