# generated using pymatgen
data_Sr24Ta24N11O13
_symmetry_space_group_name_H-M   'P 1'
_cell_length_a   17.57737986
_cell_length_b   16.45441777
_cell_length_c   15.36560461
_cell_angle_alpha   90.64662960
_cell_angle_beta   90.65903725
_cell_angle_gamma   91.03532069
_symmetry_Int_Tables_number   1
_chemical_formula_structural   Sr24Ta24N11O13
_chemical_formula_sum   'Sr72 Ta72 N33 O39'
_cell_volume   4442.81240073
_cell_formula_units_Z   3
loop_
 _symmetry_equiv_pos_site_id
 _symmetry_equiv_pos_as_xyz
  1  'x, y, z'
loop_
 _atom_site_type_symbol
 _atom_site_label
 _atom_site_symmetry_multiplicity
 _atom_site_fract_x
 _atom_site_fract_y
 _atom_site_fract_z
 _atom_site_occupancy
  Sr  Sr0  1  0.01656602  0.16600953  0.12025471  1
  Sr  Sr1  1  0.02533859  0.15433289  0.64070687  1
  Sr  Sr2  1  0.03339220  0.49844982  0.14088500  1
  Sr  Sr3  1  0.00898981  0.49795261  0.61453969  1
  Sr  Sr4  1  0.01343815  0.82592161  0.11375638  1
  Sr  Sr5  1  0.02769112  0.82791651  0.62351165  1
  Sr  Sr6  1  0.36200610  0.18219554  0.17605770  1
  Sr  Sr7  1  0.33578550  0.15178557  0.59970944  1
  Sr  Sr8  1  0.33963650  0.48730003  0.07911511  1
  Sr  Sr9  1  0.33523335  0.50656139  0.62982059  1
  Sr  Sr10  1  0.33916030  0.85415558  0.11103263  1
  Sr  Sr11  1  0.36552776  0.83671280  0.66612843  1
  Sr  Sr12  1  0.67634852  0.15490804  0.10501557  1
  Sr  Sr13  1  0.70828320  0.16174816  0.63614688  1
  Sr  Sr14  1  0.67851237  0.50098453  0.13288102  1
  Sr  Sr15  1  0.71060428  0.48881919  0.64158332  1
  Sr  Sr16  1  0.70803564  0.82966078  0.15766192  1
  Sr  Sr17  1  0.66960917  0.83645945  0.61303445  1
  Sr  Sr18  1  0.16281338  -0.01376766  0.07081822  1
  Sr  Sr19  1  0.16090405  0.00110315  0.62612389  1
  Sr  Sr20  1  0.16625289  0.33662380  0.11276166  1
  Sr  Sr21  1  0.12599117  0.33176056  0.67225751  1
  Sr  Sr22  1  0.15365286  0.68125490  0.18208455  1
  Sr  Sr23  1  0.15161665  0.65185667  0.60519147  1
  Sr  Sr24  1  0.49208242  0.00712309  0.12136244  1
  Sr  Sr25  1  0.47606764  0.01035783  0.63718416  1
  Sr  Sr26  1  0.49460153  0.34232385  0.14775327  1
  Sr  Sr27  1  0.45702820  0.32928616  0.61403544  1
  Sr  Sr28  1  0.46268946  0.67321006  0.11050622  1
  Sr  Sr29  1  0.47720975  0.66710755  0.62393128  1
  Sr  Sr30  1  0.82447764  0.01579247  0.14895976  1
  Sr  Sr31  1  0.80632288  -0.01199488  0.61113240  1
  Sr  Sr32  1  0.79409675  0.33775431  0.09388245  1
  Sr  Sr33  1  0.83832821  0.33527320  0.61323132  1
  Sr  Sr34  1  0.83352330  0.67064228  0.11235389  1
  Sr  Sr35  1  0.80809864  0.67797354  0.62946929  1
  Sr  Sr36  1  0.00818253  0.16110879  0.35092219  1
  Sr  Sr37  1  0.04096258  0.17176934  0.88476187  1
  Sr  Sr38  1  0.01432657  0.48823760  0.37540295  1
  Sr  Sr39  1  0.02696874  0.49658363  0.86789947  1
  Sr  Sr40  1  0.04823923  0.82547376  0.38782251  1
  Sr  Sr41  1  0.01653398  0.83121891  0.88356217  1
  Sr  Sr42  1  0.33700739  0.16547277  0.38602159  1
  Sr  Sr43  1  0.37004474  0.16764479  0.83332146  1
  Sr  Sr44  1  0.35519310  0.50565555  0.42760550  1
  Sr  Sr45  1  0.34604173  0.50496187  0.86726053  1
  Sr  Sr46  1  0.33896303  0.81885576  0.32471866  1
  Sr  Sr47  1  0.35502407  0.84882380  0.89607370  1
  Sr  Sr48  1  0.70559389  0.16265881  0.39967522  1
  Sr  Sr49  1  0.66731549  0.16059230  0.88852856  1
  Sr  Sr50  1  0.66924103  0.48338797  0.35766480  1
  Sr  Sr51  1  0.69048836  0.50361622  0.87925332  1
  Sr  Sr52  1  0.67308711  0.83110574  0.39211497  1
  Sr  Sr53  1  0.69408579  0.82174368  0.86197393  1
  Sr  Sr54  1  0.16630254  0.01791936  0.41890457  1
  Sr  Sr55  1  0.15616950  -0.00048221  0.86597912  1
  Sr  Sr56  1  0.14337179  0.31537790  0.32184640  1
  Sr  Sr57  1  0.16457117  0.35002539  0.90031929  1
  Sr  Sr58  1  0.17180083  0.63726634  0.39291491  1
  Sr  Sr59  1  0.13221200  0.66886198  0.83651644  1
  Sr  Sr60  1  0.46537976  0.00256633  0.35450615  1
  Sr  Sr61  1  0.49418767  0.00515442  0.88843638  1
  Sr  Sr62  1  0.48722693  0.33785661  0.37627296  1
  Sr  Sr63  1  0.47413390  0.34560654  0.85641489  1
  Sr  Sr64  1  0.48096631  0.67227092  0.39512354  1
  Sr  Sr65  1  0.47263192  0.67101909  0.86906909  1
  Sr  Sr66  1  0.81685346  -0.00275665  0.36873737  1
  Sr  Sr67  1  0.79883517  0.00592946  0.85841806  1
  Sr  Sr68  1  0.82131044  0.34440718  0.39225723  1
  Sr  Sr69  1  0.79173323  0.33145274  0.86345041  1
  Sr  Sr70  1  0.78779592  0.66679538  0.35110591  1
  Sr  Sr71  1  0.82806817  0.66764128  0.88874334  1
  Ta  Ta72  1  0.21991390  0.16992098  0.00054182  1
  Ta  Ta73  1  0.15917184  0.21893199  0.50117982  1
  Ta  Ta74  1  0.16985556  0.56123223  0.00609952  1
  Ta  Ta75  1  0.16414963  0.43260183  0.49985084  1
  Ta  Ta76  1  0.17575220  0.77660425  0.00645339  1
  Ta  Ta77  1  0.21245825  0.83103603  0.49789966  1
  Ta  Ta78  1  0.49247679  0.18998886  -0.00186915  1
  Ta  Ta79  1  0.53406395  0.16752405  0.49291033  1
  Ta  Ta80  1  0.52705705  0.50197685  -0.00513598  1
  Ta  Ta81  1  0.54429987  0.49044344  0.52391522  1
  Ta  Ta82  1  0.54726246  0.82969557  0.00977533  1
  Ta  Ta83  1  0.48537012  0.85062080  0.49621783  1
  Ta  Ta84  1  0.86785673  0.16593249  -0.01519371  1
  Ta  Ta85  1  0.88392607  0.16036522  0.49949117  1
  Ta  Ta86  1  0.88133085  0.49524727  -0.00021038  1
  Ta  Ta87  1  0.84739675  0.52947308  0.49459702  1
  Ta  Ta88  1  0.84770915  0.86680041  0.00898910  1
  Ta  Ta89  1  0.87634318  0.82413698  0.47667771  1
  Ta  Ta90  1  0.16882311  0.10854865  0.24120911  1
  Ta  Ta91  1  0.20640095  0.17340677  0.74397182  1
  Ta  Ta92  1  0.20998132  0.49413564  0.24909480  1
  Ta  Ta93  1  0.19256143  0.49975877  0.74550228  1
  Ta  Ta94  1  0.16950036  0.89181038  0.24223925  1
  Ta  Ta95  1  0.20070922  0.83116366  0.75352416  1
  Ta  Ta96  1  0.54668221  0.16565101  0.26909155  1
  Ta  Ta97  1  0.53976311  0.17930511  0.73959040  1
  Ta  Ta98  1  0.47879505  0.51794939  0.25521400  1
  Ta  Ta99  1  0.54077789  0.49694645  0.72619194  1
  Ta  Ta100  1  0.53202967  0.83175765  0.23611181  1
  Ta  Ta101  1  0.53451455  0.83721117  0.76164108  1
  Ta  Ta102  1  0.83800791  0.20435119  0.23562907  1
  Ta  Ta103  1  0.87717538  0.16709891  0.76891101  1
  Ta  Ta104  1  0.86326004  0.49209607  0.23334649  1
  Ta  Ta105  1  0.87284905  0.50123607  0.75709128  1
  Ta  Ta106  1  0.88646783  0.83169512  0.26592852  1
  Ta  Ta107  1  0.87070802  0.83743233  0.74754112  1
  Ta  Ta108  1  0.02901909  -0.01368720  0.24481132  1
  Ta  Ta109  1  -0.03914520  -0.00527512  0.75575828  1
  Ta  Ta110  1  -0.04522531  0.33477549  0.22714783  1
  Ta  Ta111  1  -0.03894448  0.32896213  0.77475497  1
  Ta  Ta112  1  -0.03408950  0.66453588  0.26393166  1
  Ta  Ta113  1  -0.03667612  0.66639715  0.75023898  1
  Ta  Ta114  1  0.29264962  0.00708678  0.24708373  1
  Ta  Ta115  1  0.30515124  -0.00053664  0.75462924  1
  Ta  Ta116  1  0.33268951  0.38785438  0.25124714  1
  Ta  Ta117  1  0.29525923  0.33319424  0.75260145  1
  Ta  Ta118  1  0.33417229  0.60569182  0.25590170  1
  Ta  Ta119  1  0.29359493  0.67506801  0.74605656  1
  Ta  Ta120  1  0.63724808  0.00309028  0.26173336  1
  Ta  Ta121  1  0.63010709  -0.00238639  0.74966912  1
  Ta  Ta122  1  0.66479344  0.29948885  0.25482405  1
  Ta  Ta123  1  0.62463682  0.32942941  0.73246854  1
  Ta  Ta124  1  0.60915869  0.66966320  0.25323060  1
  Ta  Ta125  1  0.62933042  0.65776956  0.73910159  1
  Ta  Ta126  1  -0.04525536  0.00548713  -0.00869715  1
  Ta  Ta127  1  -0.02892822  0.00031780  0.49491128  1
  Ta  Ta128  1  -0.03434519  0.33496064  -0.00049008  1
  Ta  Ta129  1  0.00947320  0.31349374  0.49704731  1
  Ta  Ta130  1  0.01179357  0.65062958  0.00585947  1
  Ta  Ta131  1  -0.04602636  0.66805217  0.48128295  1
  Ta  Ta132  1  0.33687453  0.06137918  0.00377047  1
  Ta  Ta133  1  0.33351203  -0.05165106  0.49824461  1
  Ta  Ta134  1  0.33926467  0.28793625  0.00700841  1
  Ta  Ta135  1  0.28257762  0.33074345  0.49538880  1
  Ta  Ta136  1  0.29381666  0.67047875  0.00349931  1
  Ta  Ta137  1  0.32376804  0.72019304  0.50577652  1
  Ta  Ta138  1  0.66474629  -0.03477168  0.00794421  1
  Ta  Ta139  1  0.61551753  0.00614992  0.49554773  1
  Ta  Ta140  1  0.61637405  0.34028238  0.00118750  1
  Ta  Ta141  1  0.63286864  0.32883984  0.51130294  1
  Ta  Ta142  1  0.62830510  0.66651328  -0.00002586  1
  Ta  Ta143  1  0.64265432  0.62662226  0.51280303  1
  N  N144  1  0.33664447  0.01314074  0.12213998  1
  N  N145  1  0.64728375  0.33069737  0.12533402  1
  N  N146  1  0.65542762  0.00097431  0.62038384  1
  N  N147  1  0.33713978  0.00872127  0.88041686  1
  N  N148  1  0.67032495  -0.00169575  0.13734381  1
  N  N149  1  0.47292657  0.49251122  0.62441202  1
  N  N150  1  0.65609096  -0.00153144  0.88237694  1
  N  N151  1  0.32592448  -0.00506655  0.62278733  1
  N  N152  1  0.82888274  0.17429892  0.11335547  1
  N  N153  1  0.50609360  0.83064910  0.88284889  1
  N  N154  1  0.66088213  0.32822674  0.38887286  1
  N  N155  1  0.81163687  0.17037415  0.87319050  1
  N  N156  1  0.81722732  0.83481746  0.36555633  1
  N  N157  1  0.17295866  0.16822100  0.61638437  1
  N  N158  1  0.82647868  0.50848429  0.11575692  1
  N  N159  1  0.16719649  0.48777286  0.61996504  1
  N  N160  1  0.01892459  0.33149693  0.88405359  1
  N  N161  1  0.48727566  0.17390133  0.37663637  1
  N  N162  1  0.33339648  0.33535200  0.12744753  1
  N  N163  1  0.85668338  0.84392468  0.13431371  1
  N  N164  1  0.67328817  -0.00737255  0.38934863  1
  N  N165  1  -0.01324541  0.67086149  0.87697465  1
  N  N166  1  0.18029144  0.50933437  0.11947389  1
  N  N167  1  0.32464283  0.66891651  0.61991199  1
  N  N168  1  0.51244661  0.17700782  0.87285917  1
  N  N169  1  0.32072657  0.00037022  0.38301519  1
  N  N170  1  0.83722611  0.50316874  0.88182204  1
  N  N171  1  -0.00516334  0.66534255  0.14388807  1
  N  N172  1  0.66017764  0.68453549  0.62045980  1
  N  N173  1  0.85385839  0.50577311  0.61827890  1
  N  N174  1  0.17454515  0.83381083  0.11869838  1
  N  N175  1  0.01387656  0.32790486  0.12020450  1
  N  N176  1  0.48727923  0.83874409  0.11942878  1
  O  O177  1  0.85889221  0.17445493  0.37125522  1
  O  O178  1  0.31335768  0.33491360  0.62623790  1
  O  O179  1  0.50954168  0.83671155  0.62250306  1
  O  O180  1  0.62992338  0.65716851  0.13123530  1
  O  O181  1  0.84767121  0.83259206  0.87466454  1
  O  O182  1  0.82291128  0.49948207  0.36265503  1
  O  O183  1  0.32040793  0.66723140  0.87372473  1
  O  O184  1  0.00752865  -0.00294101  0.87755533  1
  O  O185  1  -0.02448708  0.67304630  0.61200620  1
  O  O186  1  0.32003767  0.65174845  0.13654689  1
  O  O187  1  0.49825931  0.50070407  0.38487656  1
  O  O188  1  0.48632853  0.16947045  0.62225012  1
  O  O189  1  0.49659256  0.50939615  0.12027802  1
  O  O190  1  -0.01272352  0.32715251  0.62837030  1
  O  O191  1  0.16074087  0.47503654  0.37305476  1
  O  O192  1  0.50879613  0.17134056  0.14099916  1
  O  O193  1  0.01612252  -0.00381492  0.37868284  1
  O  O194  1  0.86733662  0.83290339  0.61629209  1
  O  O195  1  0.15639394  0.16459990  0.36590268  1
  O  O196  1  0.48733586  0.83662280  0.36486456  1
  O  O197  1  -0.00446943  0.32686028  0.36397676  1
  O  O198  1  0.51972645  0.49931943  0.86402151  1
  O  O199  1  0.62905826  0.66365917  0.38362956  1
  O  O200  1  0.32044404  0.34049504  0.88263989  1
  O  O201  1  0.32751524  0.65862707  0.38272002  1
  O  O202  1  -0.00055897  -0.00000737  0.12001641  1
  O  O203  1  0.17525393  0.82591663  0.88119783  1
  O  O204  1  0.69682396  0.32446680  0.63020736  1
  O  O205  1  0.18403898  0.16263572  0.87421406  1
  O  O206  1  0.17653140  0.51052107  0.88070271  1
  O  O207  1  0.64503037  0.66174515  0.87352310  1
  O  O208  1  0.03010362  0.64804179  0.37881345  1
  O  O209  1  0.63914332  0.34007353  0.86909658  1
  O  O210  1  -0.03885336  -0.00319403  0.62896273  1
  O  O211  1  0.33475971  0.34743759  0.37682580  1
  O  O212  1  0.18148865  0.83616252  0.62745994  1
  O  O213  1  0.16787214  0.15197925  0.11991804  1
  O  O214  1  0.18925747  0.84690253  0.36186223  1
  O  O215  1  0.86962932  0.16462695  0.62826561  1
