# generated using pymatgen
data_Sr24Ta24N11O13
_symmetry_space_group_name_H-M   'P 1'
_cell_length_a   18.73140571
_cell_length_b   16.44299105
_cell_length_c   14.64565640
_cell_angle_alpha   90.60779498
_cell_angle_beta   88.13691887
_cell_angle_gamma   88.73935797
_symmetry_Int_Tables_number   1
_chemical_formula_structural   Sr24Ta24N11O13
_chemical_formula_sum   'Sr72 Ta72 N33 O39'
_cell_volume   4507.10188055
_cell_formula_units_Z   3
loop_
 _symmetry_equiv_pos_site_id
 _symmetry_equiv_pos_as_xyz
  1  'x, y, z'
loop_
 _atom_site_type_symbol
 _atom_site_label
 _atom_site_symmetry_multiplicity
 _atom_site_fract_x
 _atom_site_fract_y
 _atom_site_fract_z
 _atom_site_occupancy
  Sr  Sr0  1  -0.07568939  0.15912425  0.20668417  1
  Sr  Sr1  1  0.06275762  0.16386927  0.59647461  1
  Sr  Sr2  1  0.02390774  0.49768732  0.11294191  1
  Sr  Sr3  1  0.03891885  0.51270087  0.61452599  1
  Sr  Sr4  1  -0.00538243  0.85886502  0.12417672  1
  Sr  Sr5  1  0.07031030  0.85594226  0.58234230  1
  Sr  Sr6  1  0.38883500  0.14400189  0.05962045  1
  Sr  Sr7  1  0.33072947  0.17683943  0.71954178  1
  Sr  Sr8  1  0.33935513  0.51588517  0.18672396  1
  Sr  Sr9  1  0.33048691  0.48495212  0.60823061  1
  Sr  Sr10  1  0.40730603  0.83730044  0.06284185  1
  Sr  Sr11  1  0.32401758  0.79541365  0.59445824  1
  Sr  Sr12  1  0.72967282  0.12214159  -0.00334735  1
  Sr  Sr13  1  0.60050842  0.14663029  0.60183101  1
  Sr  Sr14  1  0.68800187  0.51721579  0.11225046  1
  Sr  Sr15  1  0.65670299  0.51081246  0.67039095  1
  Sr  Sr16  1  0.66238806  0.83826464  0.13155442  1
  Sr  Sr17  1  0.77072488  0.77544350  0.59265938  1
  Sr  Sr18  1  0.11160140  0.00730859  0.19882589  1
  Sr  Sr19  1  0.24400998  -0.02626769  0.60668328  1
  Sr  Sr20  1  0.08298013  0.26144556  0.13651049  1
  Sr  Sr21  1  0.16803987  0.33965363  0.64046995  1
  Sr  Sr22  1  0.10363741  0.69827650  0.10682467  1
  Sr  Sr23  1  0.18995267  0.68125117  0.65904403  1
  Sr  Sr24  1  0.49161634  -0.01745234  0.17559220  1
  Sr  Sr25  1  0.43361460  -0.00915500  0.64451624  1
  Sr  Sr26  1  0.47654923  0.34070747  0.14480500  1
  Sr  Sr27  1  0.45873403  0.32783971  0.63780244  1
  Sr  Sr28  1  0.49824354  0.64160459  0.08830062  1
  Sr  Sr29  1  0.44917484  0.64734034  0.64766001  1
  Sr  Sr30  1  0.81248713  -0.02705874  0.13049616  1
  Sr  Sr31  1  0.78877562  0.00485852  0.61373986  1
  Sr  Sr32  1  0.81316979  0.35073322  0.12430185  1
  Sr  Sr33  1  0.76358122  0.31774486  0.62611403  1
  Sr  Sr34  1  0.80348198  0.67160435  0.12995607  1
  Sr  Sr35  1  0.93422899  0.67624023  0.51856452  1
  Sr  Sr36  1  0.04532754  0.16938448  0.36207496  1
  Sr  Sr37  1  0.00773368  0.18078295  0.84310297  1
  Sr  Sr38  1  0.03241727  0.50249836  0.37260314  1
  Sr  Sr39  1  0.00523149  0.50758408  0.84691584  1
  Sr  Sr40  1  0.04631436  0.82534976  0.34221919  1
  Sr  Sr41  1  0.02286042  0.84754767  0.90114970  1
  Sr  Sr42  1  0.45281238  0.16301892  0.28226983  1
  Sr  Sr43  1  0.25056819  0.19697580  0.91853442  1
  Sr  Sr44  1  0.32860408  0.45692009  0.38490746  1
  Sr  Sr45  1  0.37053460  0.51625476  0.98291146  1
  Sr  Sr46  1  0.37324176  0.86638161  0.38037927  1
  Sr  Sr47  1  0.33238426  0.80043426  0.83514045  1
  Sr  Sr48  1  0.63711118  0.18095976  0.38766743  1
  Sr  Sr49  1  0.70864098  0.15745396  0.78109752  1
  Sr  Sr50  1  0.68466103  0.49891997  0.38545342  1
  Sr  Sr51  1  0.70898828  0.51521217  0.87629421  1
  Sr  Sr52  1  0.66526967  0.83274172  0.38759041  1
  Sr  Sr53  1  0.72810103  0.86983156  0.85010143  1
  Sr  Sr54  1  0.15202146  -0.00639660  0.41600460  1
  Sr  Sr55  1  0.11659985  0.05410227  0.97291634  1
  Sr  Sr56  1  0.14379566  0.32803046  0.41672948  1
  Sr  Sr57  1  0.12250097  0.33781973  0.88369626  1
  Sr  Sr58  1  0.17815039  0.61233936  0.26529550  1
  Sr  Sr59  1  0.14707126  0.66109673  0.89164010  1
  Sr  Sr60  1  0.52157272  -0.01544128  0.41220726  1
  Sr  Sr61  1  0.43460435  -0.00286560  0.90613538  1
  Sr  Sr62  1  0.49270816  0.34728995  0.38566995  1
  Sr  Sr63  1  0.41780895  0.31161410  0.92076489  1
  Sr  Sr64  1  0.45150114  0.64112259  0.40035221  1
  Sr  Sr65  1  0.47711848  0.67286776  0.86608459  1
  Sr  Sr66  1  0.76777481  0.01522192  0.38037962  1
  Sr  Sr67  1  0.85755563  0.01729542  0.83856857  1
  Sr  Sr68  1  0.78856470  0.32227822  0.38057874  1
  Sr  Sr69  1  0.81745401  0.33199636  0.85716468  1
  Sr  Sr70  1  0.78395344  0.66112019  0.38554645  1
  Sr  Sr71  1  0.82658608  0.66690793  0.80582495  1
  Ta  Ta72  1  0.23171907  0.15905665  0.15219868  1
  Ta  Ta73  1  0.24233683  0.16385809  0.52763724  1
  Ta  Ta74  1  0.19866901  0.48756791  0.00121479  1
  Ta  Ta75  1  0.18326613  0.52728996  0.48460295  1
  Ta  Ta76  1  0.19816546  0.85579661  -0.00664059  1
  Ta  Ta77  1  0.21180730  0.79011994  0.37816764  1
  Ta  Ta78  1  0.54890132  0.17572960  -0.02649392  1
  Ta  Ta79  1  0.43272536  0.15979541  0.52556605  1
  Ta  Ta80  1  0.54991815  0.44938686  -0.03332457  1
  Ta  Ta81  1  0.53403207  0.49915624  0.52365610  1
  Ta  Ta82  1  0.56067188  0.84052918  -0.07718822  1
  Ta  Ta83  1  0.52276398  0.80499256  0.54321932  1
  Ta  Ta84  1  0.88192760  0.18477307  -0.00725162  1
  Ta  Ta85  1  0.86792367  0.16437713  0.48185646  1
  Ta  Ta86  1  0.86790957  0.51283555  -0.01864565  1
  Ta  Ta87  1  0.86924424  0.46906863  0.49998980  1
  Ta  Ta88  1  0.86374631  0.81243964  -0.01396568  1
  Ta  Ta89  1  0.89211984  0.87331755  0.45124305  1
  Ta  Ta90  1  0.22664923  0.15644355  0.33603912  1
  Ta  Ta91  1  0.15879071  0.07478878  0.76469409  1
  Ta  Ta92  1  0.17914156  0.42344652  0.22183381  1
  Ta  Ta93  1  0.18678913  0.50381048  0.76024417  1
  Ta  Ta94  1  0.23135608  0.84458153  0.18785219  1
  Ta  Ta95  1  0.15892174  0.89487920  0.78136786  1
  Ta  Ta96  1  0.60634675  0.19337475  0.15119387  1
  Ta  Ta97  1  0.50590605  0.16149584  0.78524545  1
  Ta  Ta98  1  0.54390112  0.50980160  0.24582873  1
  Ta  Ta99  1  0.47077452  0.47444296  0.79170754  1
  Ta  Ta100  1  0.51020075  0.77900855  0.27662360  1
  Ta  Ta101  1  0.50984315  0.84418477  0.74272506  1
  Ta  Ta102  1  0.75406850  0.17518471  0.21780702  1
  Ta  Ta103  1  0.88762889  0.18371699  0.68211773  1
  Ta  Ta104  1  0.86996708  0.51009975  0.26524579  1
  Ta  Ta105  1  0.86580082  0.47993515  0.70748133  1
  Ta  Ta106  1  0.86616328  0.81562424  0.27433521  1
  Ta  Ta107  1  0.91577223  0.83887124  0.71996891  1
  Ta  Ta108  1  -0.06197265  -0.02103825  0.30058893  1
  Ta  Ta109  1  0.02248186  -0.00615295  0.74903830  1
  Ta  Ta110  1  -0.04889802  0.35654986  0.27842240  1
  Ta  Ta111  1  -0.03610677  0.34093062  0.70091431  1
  Ta  Ta112  1  -0.04385129  0.66712765  0.26346746  1
  Ta  Ta113  1  0.01266906  0.70458526  0.72452798  1
  Ta  Ta114  1  0.31709943  0.01760520  0.23856501  1
  Ta  Ta115  1  0.26473218  -0.01052492  0.85335347  1
  Ta  Ta116  1  0.29953285  0.29355196  0.24522366  1
  Ta  Ta117  1  0.29826546  0.41962825  0.81972172  1
  Ta  Ta118  1  0.32995565  0.71524668  0.24700637  1
  Ta  Ta119  1  0.31227215  0.59421719  0.80562315  1
  Ta  Ta120  1  0.65373783  0.04849973  0.19673055  1
  Ta  Ta121  1  0.59576850  -0.00094251  0.79293711  1
  Ta  Ta122  1  0.64550237  0.33869441  0.24559571  1
  Ta  Ta123  1  0.59216327  0.32796636  0.79636196  1
  Ta  Ta124  1  0.61601715  0.66567537  0.25085606  1
  Ta  Ta125  1  0.62652802  0.72798351  0.72448311  1
  Ta  Ta126  1  -0.04637890  0.03300468  0.01239736  1
  Ta  Ta127  1  -0.03833337  0.02337453  0.49117182  1
  Ta  Ta128  1  -0.04464983  0.33969173  -0.00819098  1
  Ta  Ta129  1  -0.04353124  0.32265188  0.50088516  1
  Ta  Ta130  1  -0.05151898  0.66760047  -0.01553832  1
  Ta  Ta131  1  0.10933847  0.67525193  0.47069124  1
  Ta  Ta132  1  0.27638349  -0.00949050  0.05363178  1
  Ta  Ta133  1  0.34169165  0.06049616  0.43038700  1
  Ta  Ta134  1  0.25715162  0.33557488  0.07355476  1
  Ta  Ta135  1  0.33517479  0.26476808  0.44023805  1
  Ta  Ta136  1  0.28402939  0.69971398  0.04579415  1
  Ta  Ta137  1  0.27296746  0.65521787  0.43605898  1
  Ta  Ta138  1  0.60890499  0.00042206  -0.00657616  1
  Ta  Ta139  1  0.62865257  -0.09838024  0.62618148  1
  Ta  Ta140  1  0.64745304  0.31225430  -0.00682932  1
  Ta  Ta141  1  0.61849551  0.35549540  0.52548345  1
  Ta  Ta142  1  0.65066033  0.69791149  -0.03565491  1
  Ta  Ta143  1  0.61411962  0.66242050  0.52494373  1
  N  N144  1  0.27110951  0.38740891  0.95357759  1
  N  N145  1  0.18387506  0.50287242  0.62320339  1
  N  N146  1  0.68362506  -0.01554573  0.08082373  1
  N  N147  1  0.16395549  0.51803861  0.12552659  1
  N  N148  1  0.14938596  0.15432106  0.24210802  1
  N  N149  1  0.81676713  0.18894986  0.11128957  1
  N  N150  1  0.01305826  0.32815186  0.37443025  1
  N  N151  1  0.03223740  0.33689467  0.59248396  1
  N  N152  1  0.67231115  0.02118385  0.87768067  1
  N  N153  1  0.05670813  0.68977050  0.59884951  1
  N  N154  1  0.49262870  0.53175536  0.90960683  1
  N  N155  1  0.64214140  0.33950773  0.37944318  1
  N  N156  1  0.17786926  0.46814040  0.34610736  1
  N  N157  1  0.36795176  -0.01600669  0.11524351  1
  N  N158  1  0.38350301  0.30098774  0.31667722  1
  N  N159  1  0.45524197  0.16033047  0.90263950  1
  N  N160  1  0.61446176  0.33174816  0.66593855  1
  N  N161  1  0.44568279  0.81173111  0.64265516  1
  N  N162  1  0.46094440  0.15845551  0.65633297  1
  N  N163  1  0.30523921  0.06061739  0.94833912  1
  N  N164  1  0.67878979  0.66305469  0.62840837  1
  N  N165  1  0.15761174  0.15765660  0.45410353  1
  N  N166  1  0.46318025  0.83231014  0.87563664  1
  N  N167  1  0.50749774  0.18952995  0.10176708  1
  N  N168  1  0.80879832  0.16393192  0.60187536  1
  N  N169  1  0.40130124  0.01756460  0.31669886  1
  N  N170  1  0.85296233  0.50260448  0.84753399  1
  N  N171  1  -0.00895432  0.01282101  0.88239847  1
  N  N172  1  0.31587857  0.66120471  0.92604755  1
  N  N173  1  0.32573375  0.61387896  0.32018263  1
  N  N174  1  0.02422719  0.00643818  0.36553181  1
  N  N175  1  0.50782916  0.82013105  0.40417698  1
  N  N176  1  0.82329133  0.50516171  0.39180307  1
  O  O177  1  0.84901477  0.51453336  0.12842642  1
  O  O178  1  0.36790774  0.65982220  0.12194413  1
  O  O179  1  0.86993271  0.17605249  0.82831639  1
  O  O180  1  0.68722403  0.67525867  0.83945443  1
  O  O181  1  0.19619042  0.83916486  0.66844779  1
  O  O182  1  0.54624687  0.48920238  0.10558258  1
  O  O183  1  0.16130786  0.88380148  0.29160725  1
  O  O184  1  0.68178813  0.36720682  0.10490165  1
  O  O185  1  0.01552474  0.00773627  0.60426499  1
  O  O186  1  0.90299744  0.83609577  0.58552653  1
  O  O187  1  0.63490517  0.67958045  0.10000677  1
  O  O188  1  -0.03063601  0.66347086  0.12497117  1
  O  O189  1  0.52216014  0.13900431  0.45351414  1
  O  O190  1  0.02430601  0.66964201  0.37103151  1
  O  O191  1  0.35849403  0.36147406  0.51458202  1
  O  O192  1  0.35188527  -0.04061694  0.51159984  1
  O  O193  1  0.32306904  0.68265477  0.71389370  1
  O  O194  1  -0.02035214  0.34202976  0.85463294  1
  O  O195  1  0.15518709  0.80487788  0.87124163  1
  O  O196  1  0.53230115  0.50489840  0.37967532  1
  O  O197  1  0.14017385  0.18032385  0.83251616  1
  O  O198  1  0.12819567  0.50038828  0.90161854  1
  O  O199  1  0.20622607  0.12255377  0.65251681  1
  O  O200  1  0.85748815  0.82011166  0.12547636  1
  O  O201  1  0.64457917  0.66274824  0.38951457  1
  O  O202  1  0.88208795  0.84418047  0.85679238  1
  O  O203  1  -0.05363453  0.00596605  0.15449271  1
  O  O204  1  -0.03883394  0.34610241  0.13191364  1
  O  O205  1  0.00418203  0.67313405  0.86171521  1
  O  O206  1  0.49953712  0.49792752  0.66064231  1
  O  O207  1  0.89878192  0.54946765  0.60236984  1
  O  O208  1  0.53535439  0.91027286  0.03599417  1
  O  O209  1  0.12981644  0.84801361  0.10435441  1
  O  O210  1  0.35042393  0.36359710  0.12722601  1
  O  O211  1  0.68798652  0.29817024  0.85647699  1
  O  O212  1  0.79736538  0.16693326  0.35036240  1
  O  O213  1  0.80756638  0.81100481  0.40106643  1
  O  O214  1  0.70580184  -0.09538590  0.53052940  1
  O  O215  1  0.65265108  0.01721872  0.67139872  1
