# generated using pymatgen
data_Sr24Ta24N11O13
_symmetry_space_group_name_H-M   'P 1'
_cell_length_a   16.90938148
_cell_length_b   16.74059285
_cell_length_c   15.69391425
_cell_angle_alpha   90.30317455
_cell_angle_beta   89.55036999
_cell_angle_gamma   89.80431972
_symmetry_Int_Tables_number   1
_chemical_formula_structural   Sr24Ta24N11O13
_chemical_formula_sum   'Sr72 Ta72 N33 O39'
_cell_volume   4442.29897221
_cell_formula_units_Z   3
loop_
 _symmetry_equiv_pos_site_id
 _symmetry_equiv_pos_as_xyz
  1  'x, y, z'
loop_
 _atom_site_type_symbol
 _atom_site_label
 _atom_site_symmetry_multiplicity
 _atom_site_fract_x
 _atom_site_fract_y
 _atom_site_fract_z
 _atom_site_occupancy
  Sr  Sr0  1  0.03196825  0.16931001  0.10440663  1
  Sr  Sr1  1  0.00797268  0.17944103  0.64647934  1
  Sr  Sr2  1  0.01203926  0.49511672  0.12194934  1
  Sr  Sr3  1  0.02187394  0.49871089  0.63081637  1
  Sr  Sr4  1  0.00778696  0.84204794  0.14480525  1
  Sr  Sr5  1  -0.00901836  0.83633847  0.60396883  1
  Sr  Sr6  1  0.33981708  0.18039413  0.16518909  1
  Sr  Sr7  1  0.33492490  0.16221564  0.62296901  1
  Sr  Sr8  1  0.34717341  0.48103115  0.07870364  1
  Sr  Sr9  1  0.33156237  0.50770127  0.63537267  1
  Sr  Sr10  1  0.33417068  0.82334886  0.13037359  1
  Sr  Sr11  1  0.36925264  0.83425965  0.59151910  1
  Sr  Sr12  1  0.69503552  0.16363877  0.12443204  1
  Sr  Sr13  1  0.68560533  0.16030565  0.57708186  1
  Sr  Sr14  1  0.66031486  0.49367964  0.17096772  1
  Sr  Sr15  1  0.67277490  0.49932019  0.61209083  1
  Sr  Sr16  1  0.69247877  0.83405739  0.10287723  1
  Sr  Sr17  1  0.66839230  0.85570343  0.67116740  1
  Sr  Sr18  1  0.15320367  -0.01300300  0.08100176  1
  Sr  Sr19  1  0.13516467  0.00004251  0.65194504  1
  Sr  Sr20  1  0.15717572  0.33019216  0.14006529  1
  Sr  Sr21  1  0.16883724  0.33451759  0.58488492  1
  Sr  Sr22  1  0.14783363  0.66984074  0.16239168  1
  Sr  Sr23  1  0.14412412  0.67933552  0.62991741  1
  Sr  Sr24  1  0.45725496  0.00172387  0.15644047  1
  Sr  Sr25  1  0.49850209  0.00406580  0.62172105  1
  Sr  Sr26  1  0.50220451  0.32969269  0.11279314  1
  Sr  Sr27  1  0.49108617  0.35238197  0.67085593  1
  Sr  Sr28  1  0.50058662  0.66384000  0.12733100  1
  Sr  Sr29  1  0.48886437  0.66074624  0.58790057  1
  Sr  Sr30  1  0.82495707  -0.01045240  0.13938074  1
  Sr  Sr31  1  0.81919702  -0.00448176  0.61533686  1
  Sr  Sr32  1  0.81589697  0.33708028  0.14141299  1
  Sr  Sr33  1  0.82716822  0.33706003  0.62586172  1
  Sr  Sr34  1  0.83155636  0.65597727  0.09788265  1
  Sr  Sr35  1  0.80913299  0.67040926  0.62686349  1
  Sr  Sr36  1  0.02938341  0.18242654  0.37495603  1
  Sr  Sr37  1  0.01821348  0.16926658  0.87365559  1
  Sr  Sr38  1  0.03629637  0.49525952  0.34785323  1
  Sr  Sr39  1  0.00157515  0.50408638  0.89176295  1
  Sr  Sr40  1  -0.01139355  0.83441393  0.38166396  1
  Sr  Sr41  1  0.03777294  0.84036611  0.84932909  1
  Sr  Sr42  1  0.33187596  0.17039634  0.37980026  1
  Sr  Sr43  1  0.34856720  0.15529604  0.83356428  1
  Sr  Sr44  1  0.34035191  0.50190175  0.40951788  1
  Sr  Sr45  1  0.34051011  0.49636889  0.87033998  1
  Sr  Sr46  1  0.35676418  0.82453085  0.35933666  1
  Sr  Sr47  1  0.34443577  0.83930697  0.91127595  1
  Sr  Sr48  1  0.69139095  0.15473935  0.37282836  1
  Sr  Sr49  1  0.66471365  0.18306238  0.91898429  1
  Sr  Sr50  1  0.66394494  0.50200884  0.38268767  1
  Sr  Sr51  1  0.67293622  0.47529603  0.82548577  1
  Sr  Sr52  1  0.68275785  0.84874742  0.34253969  1
  Sr  Sr53  1  0.66428641  0.81472486  0.88455207  1
  Sr  Sr54  1  0.13530355  -0.01461523  0.39724776  1
  Sr  Sr55  1  0.16621026  0.01557951  0.86735449  1
  Sr  Sr56  1  0.17662866  0.33226121  0.37208423  1
  Sr  Sr57  1  0.15454228  0.34472612  0.92611562  1
  Sr  Sr58  1  0.15152233  0.67721266  0.36435274  1
  Sr  Sr59  1  0.16093443  0.64856855  0.83576131  1
  Sr  Sr60  1  0.48272759  0.00578963  0.39040868  1
  Sr  Sr61  1  0.49733533  -0.00736182  0.84568918  1
  Sr  Sr62  1  0.49291359  0.33434086  0.34468793  1
  Sr  Sr63  1  0.49761791  0.33685487  0.87912387  1
  Sr  Sr64  1  0.49858662  0.66527357  0.37070419  1
  Sr  Sr65  1  0.48495121  0.67486059  0.91344105  1
  Sr  Sr66  1  0.83099501  -0.00750336  0.36543193  1
  Sr  Sr67  1  0.78457675  -0.00738943  0.90152202  1
  Sr  Sr68  1  0.80657553  0.33522467  0.38586568  1
  Sr  Sr69  1  0.83162419  0.33170005  0.85416173  1
  Sr  Sr70  1  0.81636991  0.65818641  0.39776708  1
  Sr  Sr71  1  0.81548133  0.66310737  0.87659744  1
  Ta  Ta72  1  0.21832286  0.16769182  -0.00186226  1
  Ta  Ta73  1  0.16813495  0.14140549  0.51226784  1
  Ta  Ta74  1  0.17135809  0.54160615  0.00525267  1
  Ta  Ta75  1  0.17023570  0.52718361  0.49704319  1
  Ta  Ta76  1  0.16526319  0.78365312  0.00278717  1
  Ta  Ta77  1  0.20027066  0.83070383  0.49860842  1
  Ta  Ta78  1  0.47592662  0.14756248  0.00093343  1
  Ta  Ta79  1  0.50280071  0.21251141  0.50393898  1
  Ta  Ta80  1  0.54036166  0.49726363  -0.00450672  1
  Ta  Ta81  1  0.50120844  0.46379931  0.50608353  1
  Ta  Ta82  1  0.51103693  0.86785733  0.00481286  1
  Ta  Ta83  1  0.54970304  0.83884140  0.49855229  1
  Ta  Ta84  1  0.86334651  0.16831291  -0.00106966  1
  Ta  Ta85  1  0.87575261  0.16789263  0.49974705  1
  Ta  Ta86  1  0.80369969  0.48446571  -0.00011934  1
  Ta  Ta87  1  0.88181254  0.49605099  0.48526529  1
  Ta  Ta88  1  0.88180821  0.83370877  -0.00560172  1
  Ta  Ta89  1  0.79765200  0.83224786  0.50032794  1
  Ta  Ta90  1  0.16862774  0.11920851  0.24423228  1
  Ta  Ta91  1  0.17308222  0.22026196  0.75762470  1
  Ta  Ta92  1  0.21881752  0.49949750  0.24518922  1
  Ta  Ta93  1  0.16931952  0.45171066  0.75996654  1
  Ta  Ta94  1  0.17534981  0.86630180  0.24534463  1
  Ta  Ta95  1  0.22426969  0.82808946  0.75094695  1
  Ta  Ta96  1  0.53101286  0.16323024  0.25255940  1
  Ta  Ta97  1  0.53878731  0.17077884  0.74584907  1
  Ta  Ta98  1  0.46372259  0.49985694  0.24390044  1
  Ta  Ta99  1  0.50205687  0.54631243  0.75304307  1
  Ta  Ta100  1  0.53170392  0.83707010  0.24704433  1
  Ta  Ta101  1  0.48881995  0.80287136  0.75143457  1
  Ta  Ta102  1  0.87988122  0.17068676  0.24989907  1
  Ta  Ta103  1  0.81491402  0.15126686  0.75259650  1
  Ta  Ta104  1  0.85551310  0.50834901  0.26153658  1
  Ta  Ta105  1  0.86361805  0.51278317  0.74413909  1
  Ta  Ta106  1  0.83763780  0.79356708  0.24855660  1
  Ta  Ta107  1  0.85675112  0.83492213  0.75370987  1
  Ta  Ta108  1  0.00624750  0.02428393  0.24946848  1
  Ta  Ta109  1  -0.05573832  0.00182183  0.76810575  1
  Ta  Ta110  1  -0.02892837  0.33003404  0.25542943  1
  Ta  Ta111  1  0.02507721  0.34634533  0.74836615  1
  Ta  Ta112  1  -0.04399677  0.65939618  0.25403862  1
  Ta  Ta113  1  -0.03332793  0.66650686  0.74678287  1
  Ta  Ta114  1  0.28257656  -0.00430525  0.24815433  1
  Ta  Ta115  1  0.32367473  -0.04201134  0.75101835  1
  Ta  Ta116  1  0.33430056  0.37238101  0.25145245  1
  Ta  Ta117  1  0.29700705  0.33412405  0.75651832  1
  Ta  Ta118  1  0.33171701  0.62470172  0.24858975  1
  Ta  Ta119  1  0.34770671  0.69128176  0.74979095  1
  Ta  Ta120  1  0.62865782  0.00595129  0.24367012  1
  Ta  Ta121  1  0.66470663  0.05944761  0.74365519  1
  Ta  Ta122  1  0.64860847  0.30703789  0.25151135  1
  Ta  Ta123  1  0.66589091  0.27620137  0.73912003  1
  Ta  Ta124  1  0.67704950  0.68372812  0.24453513  1
  Ta  Ta125  1  0.62356343  0.66297011  0.75040329  1
  Ta  Ta126  1  -0.03539987  -0.00165065  -0.01485483  1
  Ta  Ta127  1  -0.01902065  0.03661416  0.50226682  1
  Ta  Ta128  1  -0.04171645  0.32803934  0.00733674  1
  Ta  Ta129  1  -0.01851976  0.34063483  0.49279563  1
  Ta  Ta130  1  0.01721879  0.68549306  -0.00146598  1
  Ta  Ta131  1  -0.00951912  0.63707981  0.49105101  1
  Ta  Ta132  1  0.34388649  0.03226525  -0.00564844  1
  Ta  Ta133  1  0.29060394  -0.00327620  0.50329535  1
  Ta  Ta134  1  0.33603582  0.28775956  -0.00693917  1
  Ta  Ta135  1  0.37199379  0.33135364  0.50175063  1
  Ta  Ta136  1  0.28900997  0.66219224  0.00311121  1
  Ta  Ta137  1  0.29755298  0.67227962  0.49301351  1
  Ta  Ta138  1  0.60993107  0.00821833  0.01845755  1
  Ta  Ta139  1  0.66039721  -0.03103452  0.49541635  1
  Ta  Ta140  1  0.67497215  0.37655367  0.00321409  1
  Ta  Ta141  1  0.62158748  0.33101925  0.50290027  1
  Ta  Ta142  1  0.66429689  0.60111950  -0.00439310  1
  Ta  Ta143  1  0.65894846  0.72047535  0.50073886  1
  N  N144  1  0.16651299  0.49629170  0.87648889  1
  N  N145  1  -0.00313332  0.67076252  0.37235143  1
  N  N146  1  0.16867833  0.82814707  0.12375016  1
  N  N147  1  0.50223552  0.50097949  0.86894793  1
  N  N148  1  0.18304820  0.15705326  0.12600357  1
  N  N149  1  0.50412785  0.83524777  0.88452924  1
  N  N150  1  0.66327536  0.33765794  0.12147169  1
  N  N151  1  0.65567721  0.33332043  0.37373024  1
  N  N152  1  0.33863507  0.33898135  0.37765722  1
  N  N153  1  0.16824830  0.17048590  0.63104550  1
  N  N154  1  0.33670537  -0.00131567  0.87058409  1
  N  N155  1  0.01055509  0.00884730  0.86685636  1
  N  N156  1  0.66005883  0.01295412  0.62716845  1
  N  N157  1  -0.01082332  0.01234838  0.37314857  1
  N  N158  1  0.66558203  0.32758032  0.62767011  1
  N  N159  1  0.18374685  0.50347481  0.37769650  1
  N  N160  1  0.83324718  0.82398208  0.37767604  1
  N  N161  1  0.67216153  0.00429925  0.12186202  1
  N  N162  1  0.49978676  0.50373973  0.62447156  1
  N  N163  1  0.51240661  0.83540446  0.36751929  1
  N  N164  1  0.65725977  0.00391526  0.37355273  1
  N  N165  1  0.85005684  0.82270358  0.11281884  1
  N  N166  1  0.17625874  0.17438488  0.87299572  1
  N  N167  1  0.81878279  0.49449382  0.37848300  1
  N  N168  1  0.51437607  0.83310464  0.63349748  1
  N  N169  1  0.17353992  0.49892560  0.12184869  1
  N  N170  1  0.49938387  0.49625112  0.12586247  1
  N  N171  1  0.32758376  0.66575521  0.37243028  1
  N  N172  1  0.83406143  0.83273070  0.63304685  1
  N  N173  1  -0.00539632  0.33774513  0.12519267  1
  N  N174  1  0.34005645  0.33185719  0.87765739  1
  N  N175  1  0.02027859  0.33894473  0.37326765  1
  N  N176  1  0.00819011  0.33930281  0.62566133  1
  O  O177  1  0.67277099  0.64830077  0.12265494  1
  O  O178  1  -0.01963869  0.67205685  0.62057330  1
  O  O179  1  0.49521242  0.16443657  0.62109467  1
  O  O180  1  0.82368818  0.49530475  0.13206873  1
  O  O181  1  0.17360118  0.49365976  0.62768476  1
  O  O182  1  -0.00360843  0.00625096  0.11068838  1
  O  O183  1  0.34114621  0.32961994  0.12440480  1
  O  O184  1  0.31221445  -0.00391130  0.11488402  1
  O  O185  1  0.18142765  0.83217727  0.36963293  1
  O  O186  1  0.85754007  0.49945359  0.61887619  1
  O  O187  1  -0.01203363  0.34286212  0.88250299  1
  O  O188  1  0.32987286  0.67269446  0.87640076  1
  O  O189  1  0.65283552  0.65289382  0.87824039  1
  O  O190  1  0.30330300  0.00043730  0.37903222  1
  O  O191  1  0.17683360  0.15500421  0.37421640  1
  O  O192  1  0.83364508  0.49904215  0.86746983  1
  O  O193  1  0.84297498  0.16667272  0.62812657  1
  O  O194  1  0.81906975  0.81884905  0.88534439  1
  O  O195  1  0.85839669  0.15956994  0.12266030  1
  O  O196  1  0.31369516  -0.00150835  0.62767931  1
  O  O197  1  0.18972769  0.81632324  0.87911931  1
  O  O198  1  0.00050682  0.66949490  0.87314633  1
  O  O199  1  -0.02335408  0.01291929  0.64043663  1
  O  O200  1  0.49884979  0.49859311  0.37700144  1
  O  O201  1  0.33027379  0.66569237  0.12542549  1
  O  O202  1  0.64480253  0.67677324  0.62555181  1
  O  O203  1  0.19923045  0.82769633  0.62282627  1
  O  O204  1  0.49166724  0.16238742  0.12699754  1
  O  O205  1  0.33668183  0.33430129  0.62664291  1
  O  O206  1  0.50133354  0.16004656  0.87587586  1
  O  O207  1  0.48688516  0.81965622  0.12214008  1
  O  O208  1  0.33429566  0.67486540  0.62337713  1
  O  O209  1  -0.00415438  0.67090130  0.12419622  1
  O  O210  1  0.82349641  0.16883735  0.87656593  1
  O  O211  1  0.85833016  0.17092483  0.37222154  1
  O  O212  1  0.67758207  0.32725967  0.86617686  1
  O  O213  1  0.64246843  0.03179816  0.88943621  1
  O  O214  1  0.51603775  0.16705997  0.38041283  1
  O  O215  1  0.66144482  0.68108527  0.37097168  1
