# generated using pymatgen
data_Sr24Ta24N11O13
_symmetry_space_group_name_H-M   'P 1'
_cell_length_a   16.82134895
_cell_length_b   16.77260164
_cell_length_c   15.77781047
_cell_angle_alpha   90.01716181
_cell_angle_beta   90.02066206
_cell_angle_gamma   90.25591924
_symmetry_Int_Tables_number   1
_chemical_formula_structural   Sr24Ta24N11O13
_chemical_formula_sum   'Sr72 Ta72 N33 O39'
_cell_volume   4451.47159916
_cell_formula_units_Z   3
loop_
 _symmetry_equiv_pos_site_id
 _symmetry_equiv_pos_as_xyz
  1  'x, y, z'
loop_
 _atom_site_type_symbol
 _atom_site_label
 _atom_site_symmetry_multiplicity
 _atom_site_fract_x
 _atom_site_fract_y
 _atom_site_fract_z
 _atom_site_occupancy
  Sr  Sr0  1  -0.01242114  0.16956777  0.13259740  1
  Sr  Sr1  1  0.02040585  0.16534563  0.59631878  1
  Sr  Sr2  1  0.02160637  0.52148772  0.15354743  1
  Sr  Sr3  1  0.00061358  0.50141246  0.62148120  1
  Sr  Sr4  1  -0.00125121  0.82466202  0.09178375  1
  Sr  Sr5  1  0.01683287  0.83709386  0.63217056  1
  Sr  Sr6  1  0.34726672  0.17177766  0.12698464  1
  Sr  Sr7  1  0.33114277  0.15376369  0.66322372  1
  Sr  Sr8  1  0.33005430  0.50148499  0.11153962  1
  Sr  Sr9  1  0.34310342  0.49160252  0.62431656  1
  Sr  Sr10  1  0.33548119  0.83065329  0.13173586  1
  Sr  Sr11  1  0.35086074  0.84040125  0.58887054  1
  Sr  Sr12  1  0.66016847  0.15821679  0.08444201  1
  Sr  Sr13  1  0.67896042  0.17535470  0.64103772  1
  Sr  Sr14  1  0.67045775  0.49472869  0.13506969  1
  Sr  Sr15  1  0.68239927  0.51566939  0.59373807  1
  Sr  Sr16  1  0.68394329  0.84547394  0.15207675  1
  Sr  Sr17  1  0.67902917  0.82536123  0.64557278  1
  Sr  Sr18  1  0.13555360  -0.02406836  0.07874191  1
  Sr  Sr19  1  0.16822455  -0.00005312  0.63460928  1
  Sr  Sr20  1  0.15983240  0.31404314  0.12477037  1
  Sr  Sr21  1  0.15375709  0.33891193  0.57999900  1
  Sr  Sr22  1  0.16916208  0.66106639  0.14437905  1
  Sr  Sr23  1  0.16808771  0.64506454  0.66162279  1
  Sr  Sr24  1  0.48807719  -0.00437141  0.13256845  1
  Sr  Sr25  1  0.49079148  -0.00165976  0.59972271  1
  Sr  Sr26  1  0.49287751  0.34425834  0.16326230  1
  Sr  Sr27  1  0.49763755  0.32528793  0.61707265  1
  Sr  Sr28  1  0.48258228  0.65558289  0.08016961  1
  Sr  Sr29  1  0.49744290  0.67123565  0.63782657  1
  Sr  Sr30  1  0.83252231  0.00335974  0.15675107  1
  Sr  Sr31  1  0.81304882  0.01522412  0.62915685  1
  Sr  Sr32  1  0.81714221  0.31918464  0.10995025  1
  Sr  Sr33  1  0.84411032  0.34344289  0.66720702  1
  Sr  Sr34  1  0.82220278  0.67359619  0.12772849  1
  Sr  Sr35  1  0.83753840  0.67256991  0.59264954  1
  Sr  Sr36  1  -0.01916353  0.16384186  0.36314392  1
  Sr  Sr37  1  0.01240293  0.18097271  0.90819544  1
  Sr  Sr38  1  0.01129303  0.51034593  0.38766891  1
  Sr  Sr39  1  0.00280768  0.50143226  0.83748544  1
  Sr  Sr40  1  0.00624824  0.82919276  0.39911633  1
  Sr  Sr41  1  0.01417520  0.83611898  0.87341366  1
  Sr  Sr42  1  0.34040805  0.16250220  0.33191580  1
  Sr  Sr43  1  0.33886074  0.16772047  0.86957378  1
  Sr  Sr44  1  0.33944926  0.49436331  0.38850171  1
  Sr  Sr45  1  0.34631607  0.50902389  0.85977828  1
  Sr  Sr46  1  0.32905835  0.83252660  0.36728295  1
  Sr  Sr47  1  0.35830241  0.84094567  0.91616124  1
  Sr  Sr48  1  0.64487946  0.15696648  0.42870934  1
  Sr  Sr49  1  0.67281139  0.18181250  0.86533899  1
  Sr  Sr50  1  0.67573885  0.50030463  0.36324716  1
  Sr  Sr51  1  0.68552741  0.51703253  0.91887531  1
  Sr  Sr52  1  0.68560954  0.83419969  0.35526058  1
  Sr  Sr53  1  0.67415592  0.82792289  0.85060163  1
  Sr  Sr54  1  0.15101058  -0.02197115  0.41496985  1
  Sr  Sr55  1  0.16102330  0.00223777  0.85552820  1
  Sr  Sr56  1  0.15331100  0.30671541  0.37086847  1
  Sr  Sr57  1  0.17892090  0.33040349  0.91318083  1
  Sr  Sr58  1  0.17297310  0.66010383  0.34087935  1
  Sr  Sr59  1  0.16019682  0.64935957  0.85599524  1
  Sr  Sr60  1  0.49066704  -0.01020903  0.36415895  1
  Sr  Sr61  1  0.49185042  0.01142236  0.90951625  1
  Sr  Sr62  1  0.50494699  0.33253288  0.38431916  1
  Sr  Sr63  1  0.48666278  0.32928595  0.82864770  1
  Sr  Sr64  1  0.47787474  0.66886551  0.40739929  1
  Sr  Sr65  1  0.50269695  0.66763310  0.86824300  1
  Sr  Sr66  1  0.82096378  0.01824552  0.37749841  1
  Sr  Sr67  1  0.80468236  -0.00367750  0.83777056  1
  Sr  Sr68  1  0.82464443  0.33522284  0.33631101  1
  Sr  Sr69  1  0.83137604  0.33026601  0.88743343  1
  Sr  Sr70  1  0.81855629  0.66325807  0.37493478  1
  Sr  Sr71  1  0.83407083  0.68171391  0.90302058  1
  Ta  Ta72  1  0.18805113  0.14606878  -0.00045495  1
  Ta  Ta73  1  0.21555907  0.15757627  0.49794505  1
  Ta  Ta74  1  0.14829807  0.50854308  0.00316650  1
  Ta  Ta75  1  0.17425415  0.53058509  0.49998679  1
  Ta  Ta76  1  0.17837095  0.79272005  -0.00138753  1
  Ta  Ta77  1  0.17435880  0.78103997  0.50556652  1
  Ta  Ta78  1  0.49708943  0.20936215  -0.00162584  1
  Ta  Ta79  1  0.44919356  0.16152408  0.49376018  1
  Ta  Ta80  1  0.50312676  0.46268043  -0.00449057  1
  Ta  Ta81  1  0.51800192  0.50614683  0.50156895  1
  Ta  Ta82  1  0.54649549  0.83496423  0.00531524  1
  Ta  Ta83  1  0.53838459  0.83138471  0.49649412  1
  Ta  Ta84  1  0.83107464  0.12240695  -0.00937260  1
  Ta  Ta85  1  0.83150941  0.21060750  0.49955665  1
  Ta  Ta86  1  0.88282687  0.50662051  0.00205607  1
  Ta  Ta87  1  0.83979317  0.45929755  0.49356898  1
  Ta  Ta88  1  0.82093183  0.86829666  -0.00226377  1
  Ta  Ta89  1  0.83341901  0.86116746  0.50506319  1
  Ta  Ta90  1  0.15512762  0.11055732  0.24885206  1
  Ta  Ta91  1  0.15485896  0.20142808  0.75357999  1
  Ta  Ta92  1  0.18180011  0.46770269  0.25558199  1
  Ta  Ta93  1  0.16879498  0.44695483  0.74282688  1
  Ta  Ta94  1  0.14498318  0.85309051  0.24333422  1
  Ta  Ta95  1  0.21454787  0.82978416  0.75257778  1
  Ta  Ta96  1  0.53787264  0.16533113  0.24905348  1
  Ta  Ta97  1  0.50854507  0.13542210  0.75133860  1
  Ta  Ta98  1  0.49464503  0.53427140  0.24356740  1
  Ta  Ta99  1  0.55464857  0.50317544  0.75711593  1
  Ta  Ta100  1  0.50622795  0.78896484  0.24153441  1
  Ta  Ta101  1  0.48888393  0.85584953  0.75780273  1
  Ta  Ta102  1  0.77174779  0.16867462  0.25710282  1
  Ta  Ta103  1  0.88247966  0.16942104  0.75804661  1
  Ta  Ta104  1  0.86549354  0.50415887  0.25333882  1
  Ta  Ta105  1  0.81487760  0.52969827  0.75137033  1
  Ta  Ta106  1  0.87858235  0.83220838  0.24757786  1
  Ta  Ta107  1  0.85657078  0.81767666  0.75093721  1
  Ta  Ta108  1  0.01776241  -0.02208059  0.24803089  1
  Ta  Ta109  1  -0.02005379  0.02548456  0.76114534  1
  Ta  Ta110  1  -0.00337548  0.36292228  0.25011219  1
  Ta  Ta111  1  0.03192087  0.31438259  0.74973343  1
  Ta  Ta112  1  -0.01497930  0.68943433  0.25376391  1
  Ta  Ta113  1  -0.03440147  0.67303198  0.74718626  1
  Ta  Ta114  1  0.27060026  -0.00908596  0.24560247  1
  Ta  Ta115  1  0.34708225  -0.03268819  0.75163319  1
  Ta  Ta116  1  0.31498261  0.34944627  0.24986833  1
  Ta  Ta117  1  0.29210283  0.33144748  0.74455363  1
  Ta  Ta118  1  0.36282064  0.65880006  0.24595504  1
  Ta  Ta119  1  0.33655213  0.71588436  0.75669458  1
  Ta  Ta120  1  0.65616296  0.04132286  0.25764314  1
  Ta  Ta121  1  0.61960607  0.00083048  0.74436835  1
  Ta  Ta122  1  0.65791310  0.28334678  0.25132820  1
  Ta  Ta123  1  0.67181771  0.38765454  0.75661768  1
  Ta  Ta124  1  0.61995178  0.66481327  0.25071771  1
  Ta  Ta125  1  0.68735494  0.64075509  0.75023779  1
  Ta  Ta126  1  -0.04970972  0.00390737  -0.01241566  1
  Ta  Ta127  1  -0.03134236  -0.00836616  0.50512292  1
  Ta  Ta128  1  0.00037127  0.38516898  -0.00019768  1
  Ta  Ta129  1  -0.04682613  0.33486864  0.49639587  1
  Ta  Ta130  1  0.01559112  0.64142827  -0.00712405  1
  Ta  Ta131  1  0.04645048  0.66936046  0.50854464  1
  Ta  Ta132  1  0.30714646  0.01730951  -0.00489725  1
  Ta  Ta133  1  0.32507713  0.03087658  0.49986301  1
  Ta  Ta134  1  0.36750605  0.33576137  -0.00886179  1
  Ta  Ta135  1  0.32698461  0.28809343  0.50285805  1
  Ta  Ta136  1  0.29746053  0.66605169  -0.00327885  1
  Ta  Ta137  1  0.29699406  0.66475636  0.49853152  1
  Ta  Ta138  1  0.67992705  -0.01994588  -0.00022360  1
  Ta  Ta139  1  0.66139959  -0.03504764  0.50117222  1
  Ta  Ta140  1  0.61505947  0.33725069  -0.00136335  1
  Ta  Ta141  1  0.70266793  0.34091741  0.50312538  1
  Ta  Ta142  1  0.65959953  0.70117839  0.00322875  1
  Ta  Ta143  1  0.64709202  0.68723155  0.49843932  1
  N  N144  1  0.83525735  0.83822892  0.87597469  1
  N  N145  1  0.32986725  0.00373987  0.87252478  1
  N  N146  1  0.16199305  0.82143273  0.12290098  1
  N  N147  1  0.83550556  0.17227988  0.87271471  1
  N  N148  1  0.00758580  0.66297531  0.62819749  1
  N  N149  1  0.50197004  0.50182343  0.12487731  1
  N  N150  1  0.67078252  0.66956033  0.62703191  1
  N  N151  1  0.16585997  0.48865873  0.62540950  1
  N  N152  1  0.50297022  0.17150370  0.11791235  1
  N  N153  1  0.50544602  0.83506699  0.12777152  1
  N  N154  1  0.32820553  -0.00238014  0.62191818  1
  N  N155  1  0.33839198  0.67368917  0.87500015  1
  N  N156  1  0.51474103  0.50402352  0.87605387  1
  N  N157  1  0.16972407  0.49328623  0.12245175  1
  N  N158  1  0.67174444  0.67309060  0.88275023  1
  N  N159  1  0.32552817  0.66580996  0.37633420  1
  N  N160  1  0.83699799  0.50386474  0.37571145  1
  N  N161  1  0.16891743  0.49482028  0.37794850  1
  N  N162  1  0.65849447  0.66390553  0.37184255  1
  N  N163  1  0.32855616  0.32385343  0.62368105  1
  N  N164  1  0.49197980  0.16424449  0.37786558  1
  N  N165  1  0.16854815  0.16835702  0.87754551  1
  N  N166  1  0.50994882  0.84085506  0.87823062  1
  N  N167  1  0.65797341  0.00339370  0.37838506  1
  N  N168  1  0.50095917  0.16873521  0.86874035  1
  N  N169  1  0.00173531  0.66156702  0.87270409  1
  N  N170  1  0.00866694  0.00279696  0.88004317  1
  N  N171  1  0.32770723  0.66326215  0.12632873  1
  N  N172  1  0.81282904  0.17763252  0.38217544  1
  N  N173  1  0.84332135  0.84137845  0.12809744  1
  N  N174  1  0.83421737  0.84318041  0.62592471  1
  N  N175  1  0.33573501  0.33563558  0.87266958  1
  N  N176  1  0.65686889  0.00058927  0.62736361  1
  O  O177  1  0.67086381  0.00121280  0.12652239  1
  O  O178  1  0.50555432  0.50846419  0.37691190  1
  O  O179  1  0.52291107  0.50842454  0.62623931  1
  O  O180  1  0.33969015  0.68341320  0.63047688  1
  O  O181  1  0.16241503  0.82163218  0.37033576  1
  O  O182  1  0.66840749  0.34846532  0.87804428  1
  O  O183  1  0.18536391  0.83335389  0.87544544  1
  O  O184  1  -0.00385492  0.33749882  0.37438677  1
  O  O185  1  0.83938606  0.18920242  0.63857987  1
  O  O186  1  0.14601792  0.13545952  0.12579617  1
  O  O187  1  -0.02158335  0.00819404  0.62762886  1
  O  O188  1  0.17384629  0.16219449  0.62942288  1
  O  O189  1  0.67022496  0.32463664  0.38203750  1
  O  O190  1  -0.01037088  -0.00578065  0.12080963  1
  O  O191  1  0.19246054  0.82688229  0.62533564  1
  O  O192  1  0.66640256  0.65694480  0.12517863  1
  O  O193  1  0.81152238  0.15687705  0.11540839  1
  O  O194  1  0.68989527  0.35746705  0.63438997  1
  O  O195  1  0.32098009  0.32402671  0.37246686  1
  O  O196  1  0.65209234  0.32420274  0.12148682  1
  O  O197  1  0.00731026  0.67561833  0.37830148  1
  O  O198  1  0.50844992  0.83399085  0.62149590  1
  O  O199  1  -0.00348400  -0.01170292  0.38071704  1
  O  O200  1  -0.00149501  0.67260480  0.12681262  1
  O  O201  1  0.65527535  -0.00877371  0.87574959  1
  O  O202  1  0.33593808  0.33933250  0.12466532  1
  O  O203  1  0.29588119  -0.01171976  0.12392707  1
  O  O204  1  0.17250764  0.14007617  0.37226950  1
  O  O205  1  0.83451628  0.49923268  0.62681727  1
  O  O206  1  0.85994699  0.51579784  0.12292908  1
  O  O207  1  0.84572079  0.84400712  0.36948059  1
  O  O208  1  0.48446921  0.16302219  0.62451046  1
  O  O209  1  0.30030763  -0.01002026  0.37154247  1
  O  O210  1  -0.00361431  0.32718797  0.62076359  1
  O  O211  1  0.51922814  0.83091116  0.36744368  1
  O  O212  1  0.00440074  0.35998394  0.12579514  1
  O  O213  1  0.15797574  0.48836874  0.86579207  1
  O  O214  1  0.84681242  0.51206431  0.87735701  1
  O  O215  1  0.00734793  0.34915243  0.87790111  1
