# generated using pymatgen
data_Sr24Ta24N11O13
_symmetry_space_group_name_H-M   'P 1'
_cell_length_a   16.88237184
_cell_length_b   16.73291582
_cell_length_c   15.65887503
_cell_angle_alpha   89.82073527
_cell_angle_beta   89.56209500
_cell_angle_gamma   89.76208424
_symmetry_Int_Tables_number   1
_chemical_formula_structural   Sr24Ta24N11O13
_chemical_formula_sum   'Sr72 Ta72 N33 O39'
_cell_volume   4423.30752633
_cell_formula_units_Z   3
loop_
 _symmetry_equiv_pos_site_id
 _symmetry_equiv_pos_as_xyz
  1  'x, y, z'
loop_
 _atom_site_type_symbol
 _atom_site_label
 _atom_site_symmetry_multiplicity
 _atom_site_fract_x
 _atom_site_fract_y
 _atom_site_fract_z
 _atom_site_occupancy
  Sr  Sr0  1  -0.00972310  0.14348548  0.11223422  1
  Sr  Sr1  1  0.01586679  0.17516978  0.58402374  1
  Sr  Sr2  1  -0.00133764  0.51047520  0.11872884  1
  Sr  Sr3  1  -0.00804573  0.49316925  0.64647102  1
  Sr  Sr4  1  -0.02570719  0.84148296  0.16320547  1
  Sr  Sr5  1  -0.00587744  0.84105837  0.62199718  1
  Sr  Sr6  1  0.34074776  0.17015911  0.11527579  1
  Sr  Sr7  1  0.31758340  0.15916553  0.67235215  1
  Sr  Sr8  1  0.33702608  0.49687221  0.08513587  1
  Sr  Sr9  1  0.33311859  0.49508934  0.63171033  1
  Sr  Sr10  1  0.31986718  0.81968612  0.14264076  1
  Sr  Sr11  1  0.32478300  0.84864283  0.58926892  1
  Sr  Sr12  1  0.67358995  0.14539078  0.15799598  1
  Sr  Sr13  1  0.65543988  0.15614534  0.60957002  1
  Sr  Sr14  1  0.65627725  0.47498295  0.14396075  1
  Sr  Sr15  1  0.66015657  0.49927780  0.61064754  1
  Sr  Sr16  1  0.66755271  0.83890862  0.11658854  1
  Sr  Sr17  1  0.61281197  0.82238081  0.66661383  1
  Sr  Sr18  1  0.18517978  0.01502956  0.10604057  1
  Sr  Sr19  1  0.17301210  0.00118514  0.64083253  1
  Sr  Sr20  1  0.16974753  0.33064466  0.16024732  1
  Sr  Sr21  1  0.17086423  0.33806142  0.61454737  1
  Sr  Sr22  1  0.15345586  0.66143621  0.13398146  1
  Sr  Sr23  1  0.19424198  0.67986229  0.59326906  1
  Sr  Sr24  1  0.52055574  -0.00519064  0.08584863  1
  Sr  Sr25  1  0.48894341  0.00991249  0.64143074  1
  Sr  Sr26  1  0.50727129  0.32269738  0.13488264  1
  Sr  Sr27  1  0.50656343  0.34850563  0.57394051  1
  Sr  Sr28  1  0.51526099  0.68347210  0.13643623  1
  Sr  Sr29  1  0.49521042  0.65173525  0.66320297  1
  Sr  Sr30  1  0.82455262  -0.00572628  0.14336539  1
  Sr  Sr31  1  0.85904112  0.01997372  0.59197292  1
  Sr  Sr32  1  0.84522256  0.34641406  0.10727346  1
  Sr  Sr33  1  0.81393575  0.33998359  0.66356791  1
  Sr  Sr34  1  0.83418576  0.67886642  0.09311158  1
  Sr  Sr35  1  0.86570495  0.66746469  0.63283955  1
  Sr  Sr36  1  -0.00344594  0.16077869  0.38493534  1
  Sr  Sr37  1  -0.00563265  0.15696903  0.90873517  1
  Sr  Sr38  1  0.00837662  0.49579114  0.34776664  1
  Sr  Sr39  1  -0.00104823  0.50743486  0.87958786  1
  Sr  Sr40  1  -0.03624882  0.83187993  0.39404147  1
  Sr  Sr41  1  -0.00865687  0.84983294  0.82953149  1
  Sr  Sr42  1  0.32644867  0.18228634  0.33022982  1
  Sr  Sr43  1  0.33563725  0.16309767  0.88228353  1
  Sr  Sr44  1  0.32518943  0.47845722  0.42034562  1
  Sr  Sr45  1  0.33811102  0.50684663  0.86610281  1
  Sr  Sr46  1  0.33367854  0.82173732  0.36702080  1
  Sr  Sr47  1  0.28861338  0.82603771  0.91942641  1
  Sr  Sr48  1  0.65421540  0.15119158  0.39363875  1
  Sr  Sr49  1  0.68560457  0.16572783  0.82404374  1
  Sr  Sr50  1  0.65729315  0.49681324  0.37149690  1
  Sr  Sr51  1  0.65894432  0.47018496  0.88171479  1
  Sr  Sr52  1  0.65247055  0.82713135  0.36170330  1
  Sr  Sr53  1  0.66040933  0.83804457  0.89593866  1
  Sr  Sr54  1  0.20887325  0.00305149  0.35785606  1
  Sr  Sr55  1  0.15695196  0.01001393  0.87837840  1
  Sr  Sr56  1  0.15637912  0.33113550  0.38456575  1
  Sr  Sr57  1  0.18229797  0.34953830  0.82663610  1
  Sr  Sr58  1  0.17225147  0.67153063  0.36013164  1
  Sr  Sr59  1  0.17777326  0.65930130  0.91882592  1
  Sr  Sr60  1  0.50081142  -0.01733569  0.42562851  1
  Sr  Sr61  1  0.52290017  0.00493044  0.85440606  1
  Sr  Sr62  1  0.50505389  0.32376456  0.36277008  1
  Sr  Sr63  1  0.48635387  0.34161376  0.91991073  1
  Sr  Sr64  1  0.51304981  0.66877598  0.33843828  1
  Sr  Sr65  1  0.51873693  0.66986004  0.86291683  1
  Sr  Sr66  1  0.82849836  0.00713818  0.36858851  1
  Sr  Sr67  1  0.84482594  0.00424636  0.86771151  1
  Sr  Sr68  1  0.84378588  0.36878293  0.32914136  1
  Sr  Sr69  1  0.84352641  0.33974265  0.88295300  1
  Sr  Sr70  1  0.82841937  0.65855990  0.42581325  1
  Sr  Sr71  1  0.85722011  0.67917604  0.86855682  1
  Ta  Ta72  1  0.16897980  0.20945368  -0.00529871  1
  Ta  Ta73  1  0.19869943  0.15533128  0.49729007  1
  Ta  Ta74  1  0.16371353  0.46389730  0.00054981  1
  Ta  Ta75  1  0.13800216  0.51403122  0.49769900  1
  Ta  Ta76  1  0.10942035  0.84538901  0.00041418  1
  Ta  Ta77  1  0.14276771  0.84819571  0.49284610  1
  Ta  Ta78  1  0.54988923  0.16257651  -0.00709613  1
  Ta  Ta79  1  0.45557154  0.16678864  0.50280187  1
  Ta  Ta80  1  0.51049707  0.53092145  0.00269036  1
  Ta  Ta81  1  0.49682081  0.54275449  0.49603422  1
  Ta  Ta82  1  0.46690631  0.82964973  -0.00872442  1
  Ta  Ta83  1  0.49717138  0.78968585  0.49811539  1
  Ta  Ta84  1  0.79523117  0.16495345  -0.00264502  1
  Ta  Ta85  1  0.83553009  0.22829813  0.48935123  1
  Ta  Ta86  1  0.80509695  0.51765496  0.00777004  1
  Ta  Ta87  1  0.83768421  0.46573301  0.49529631  1
  Ta  Ta88  1  0.86298979  0.84716343  -0.00860616  1
  Ta  Ta89  1  0.77631719  0.83113930  0.52425980  1
  Ta  Ta90  1  0.13637499  0.15779317  0.24794215  1
  Ta  Ta91  1  0.12695002  0.17308858  0.74970032  1
  Ta  Ta92  1  0.20807114  0.49902932  0.24892558  1
  Ta  Ta93  1  0.16858109  0.54548903  0.75234645  1
  Ta  Ta94  1  0.13788027  0.85885120  0.24591284  1
  Ta  Ta95  1  0.18155616  0.81668042  0.75511061  1
  Ta  Ta96  1  0.50383386  0.12233351  0.25752305  1
  Ta  Ta97  1  0.50192463  0.21419942  0.74194871  1
  Ta  Ta98  1  0.46093029  0.49447875  0.25108773  1
  Ta  Ta99  1  0.50469661  0.46275461  0.74942064  1
  Ta  Ta100  1  0.49577989  0.86955391  0.24541199  1
  Ta  Ta101  1  0.43486580  0.83222210  0.77005849  1
  Ta  Ta102  1  0.84178764  0.19304088  0.25167961  1
  Ta  Ta103  1  0.87880618  0.16961219  0.74183411  1
  Ta  Ta104  1  0.83027808  0.54899041  0.25100594  1
  Ta  Ta105  1  0.80725507  0.52031029  0.75300428  1
  Ta  Ta106  1  0.81723264  0.79008390  0.25996269  1
  Ta  Ta107  1  0.79729912  0.83522631  0.74350935  1
  Ta  Ta108  1  0.03041532  0.00098880  0.26379504  1
  Ta  Ta109  1  -0.00016194  0.04323972  0.73628929  1
  Ta  Ta110  1  -0.00365581  0.29504617  0.24695309  1
  Ta  Ta111  1  -0.00112837  0.29784253  0.74894683  1
  Ta  Ta112  1  -0.04148099  0.67334220  0.25129560  1
  Ta  Ta113  1  0.05632754  0.67267307  0.74929167  1
  Ta  Ta114  1  0.38918974  0.00010674  0.25031599  1
  Ta  Ta115  1  0.32717515  -0.04544436  0.76209448  1
  Ta  Ta116  1  0.33484749  0.37983998  0.24917235  1
  Ta  Ta117  1  0.37567489  0.33245732  0.74660880  1
  Ta  Ta118  1  0.33856591  0.61095704  0.24987631  1
  Ta  Ta119  1  0.31233315  0.69171633  0.75892255  1
  Ta  Ta120  1  0.61735425  -0.01080185  0.25991836  1
  Ta  Ta121  1  0.70391753  -0.01939048  0.73220178  1
  Ta  Ta122  1  0.69205169  0.30387105  0.25565242  1
  Ta  Ta123  1  0.61886022  0.33542959  0.74369071  1
  Ta  Ta124  1  0.70635214  0.66351915  0.25534840  1
  Ta  Ta125  1  0.69852745  0.65385978  0.75211734  1
  Ta  Ta126  1  -0.01022443  -0.03921412  0.00392626  1
  Ta  Ta127  1  0.04584276  -0.00587269  0.48547296  1
  Ta  Ta128  1  0.05159257  0.33254429  -0.00315247  1
  Ta  Ta129  1  -0.03350115  0.34818390  0.49138999  1
  Ta  Ta130  1  0.00175358  0.71876320  0.00345247  1
  Ta  Ta131  1  0.02676182  0.65335307  0.50251456  1
  Ta  Ta132  1  0.35710000  -0.01475102  -0.00659542  1
  Ta  Ta133  1  0.33293340  0.05163029  0.50335319  1
  Ta  Ta134  1  0.29045363  0.33246132  -0.00835593  1
  Ta  Ta135  1  0.33259665  0.28228407  0.50645653  1
  Ta  Ta136  1  0.37453884  0.66923462  -0.00044387  1
  Ta  Ta137  1  0.37304770  0.66212360  0.49779164  1
  Ta  Ta138  1  0.68488918  0.03677266  -0.01660339  1
  Ta  Ta139  1  0.67662324  -0.04104376  0.52134607  1
  Ta  Ta140  1  0.67385258  0.28450323  0.00345951  1
  Ta  Ta141  1  0.70837564  0.33178854  0.48628876  1
  Ta  Ta142  1  0.66961804  0.63437098  0.00318182  1
  Ta  Ta143  1  0.64027158  0.68173571  0.50212964  1
  N  N144  1  0.66751809  0.66448596  0.38227586  1
  N  N145  1  0.50700400  0.83593452  0.86643140  1
  N  N146  1  0.16969509  0.50024784  0.12174022  1
  N  N147  1  0.16667326  0.50010784  0.37784827  1
  N  N148  1  0.33548373  0.66670180  0.87866914  1
  N  N149  1  0.17068409  0.16826501  0.37338042  1
  N  N150  1  0.16955065  0.50842945  0.87062600  1
  N  N151  1  0.68168999  0.00702071  0.86195316  1
  N  N152  1  0.02037202  0.67428131  0.62670168  1
  N  N153  1  0.49036323  0.82461369  0.37881833  1
  N  N154  1  0.33448338  0.32575993  0.62332311  1
  N  N155  1  0.67225293  0.31212578  0.12707781  1
  N  N156  1  0.01232781  0.01251632  0.61447740  1
  N  N157  1  0.33453885  0.33434463  0.87442115  1
  N  N158  1  -0.01723058  0.00062455  0.38020380  1
  N  N159  1  0.82902807  0.50380748  0.12822523  1
  N  N160  1  0.49698277  0.49780036  0.37958212  1
  N  N161  1  0.16661030  0.17059954  0.63014186  1
  N  N162  1  0.49618936  0.15891533  0.37722515  1
  N  N163  1  0.50007393  0.49543564  0.12350820  1
  N  N164  1  0.14434303  0.83900332  0.87087985  1
  N  N165  1  0.83043958  0.83449974  0.86966000  1
  N  N166  1  -0.00873304  0.68228199  0.12715412  1
  N  N167  1  0.16899142  0.17062312  0.87463840  1
  N  N168  1  0.49561510  0.83726754  0.12010475  1
  N  N169  1  0.63629481  -0.00211580  0.63336963  1
  N  N170  1  0.65466754  0.32732042  0.37634247  1
  N  N171  1  0.16982420  0.16929516  0.12651752  1
  N  N172  1  0.50022461  0.16915582  0.62651838  1
  N  N173  1  0.50182919  0.49808363  0.87456863  1
  N  N174  1  0.49959481  0.50102419  0.62181390  1
  N  N175  1  0.83338605  0.51205617  0.38138595  1
  N  N176  1  -0.00124527  0.33326422  0.36945275  1
  O  O177  1  0.34532927  0.67071953  0.62535838  1
  O  O178  1  0.00149784  0.31613457  0.87763648  1
  O  O179  1  -0.01617362  -0.00614710  0.13877238  1
  O  O180  1  0.68156632  0.66010937  0.88154013  1
  O  O181  1  0.66868322  -0.00554195  0.13278223  1
  O  O182  1  0.83940441  0.16842472  0.37893837  1
  O  O183  1  0.34516567  0.65576667  0.12722028  1
  O  O184  1  0.52266983  0.15338133  0.11869232  1
  O  O185  1  0.66658052  0.65732334  0.13024140  1
  O  O186  1  0.33079056  0.33127638  0.37280717  1
  O  O187  1  0.32997685  -0.00014202  0.63656259  1
  O  O188  1  0.83284985  0.16867139  0.12410303  1
  O  O189  1  -0.00116943  0.00325072  0.86811677  1
  O  O190  1  0.46799192  0.81994238  0.63590236  1
  O  O191  1  0.36667526  -0.00052371  0.11751042  1
  O  O192  1  0.65168745  -0.01763884  0.39077247  1
  O  O193  1  0.34657694  0.65910204  0.37081887  1
  O  O194  1  0.35561933  0.00943237  0.38136989  1
  O  O195  1  0.84290008  0.17065548  0.86802705  1
  O  O196  1  0.17477171  0.50419287  0.62202456  1
  O  O197  1  0.31126820  0.00388335  0.87923937  1
  O  O198  1  0.14189267  0.82820834  0.36484554  1
  O  O199  1  -0.00400587  0.67351952  0.37718188  1
  O  O200  1  0.82233041  0.50180181  0.87696125  1
  O  O201  1  0.16254043  0.85563384  0.12184892  1
  O  O202  1  0.82456000  0.82856536  0.12941031  1
  O  O203  1  0.80544586  0.81343938  0.39203443  1
  O  O204  1  0.82191985  0.49871981  0.62656091  1
  O  O205  1  0.01301009  0.68603756  0.87278097  1
  O  O206  1  0.66333809  0.33698776  0.61936292  1
  O  O207  1  0.84865621  0.82038110  0.62430849  1
  O  O208  1  0.32694097  0.33917713  0.12609404  1
  O  O209  1  0.52722474  0.16901772  0.86746306  1
  O  O210  1  0.85492443  0.19016728  0.61759924  1
  O  O211  1  0.65989508  0.31769285  0.86553007  1
  O  O212  1  0.01137114  0.32322367  0.12102605  1
  O  O213  1  0.66787172  0.65842760  0.63141386  1
  O  O214  1  -0.00909381  0.32962840  0.62552700  1
  O  O215  1  0.16516116  0.83790556  0.61835838  1
