# generated using pymatgen
data_Sr24Ta24N11O13
_symmetry_space_group_name_H-M   'P 1'
_cell_length_a   16.72392331
_cell_length_b   16.88522463
_cell_length_c   15.68370113
_cell_angle_alpha   89.94589277
_cell_angle_beta   89.61392172
_cell_angle_gamma   90.17427662
_symmetry_Int_Tables_number   1
_chemical_formula_structural   Sr24Ta24N11O13
_chemical_formula_sum   'Sr72 Ta72 N33 O39'
_cell_volume   4428.75337876
_cell_formula_units_Z   3
loop_
 _symmetry_equiv_pos_site_id
 _symmetry_equiv_pos_as_xyz
  1  'x, y, z'
loop_
 _atom_site_type_symbol
 _atom_site_label
 _atom_site_symmetry_multiplicity
 _atom_site_fract_x
 _atom_site_fract_y
 _atom_site_fract_z
 _atom_site_occupancy
  Sr  Sr0  1  0.00044622  0.15986532  0.11083730  1
  Sr  Sr1  1  -0.00818222  0.15965726  0.66359389  1
  Sr  Sr2  1  0.00803955  0.51113135  0.08667888  1
  Sr  Sr3  1  -0.00092521  0.49646811  0.63416881  1
  Sr  Sr4  1  -0.01463126  0.81422638  0.17648985  1
  Sr  Sr5  1  0.01549378  0.83540550  0.60175385  1
  Sr  Sr6  1  0.34137529  0.15339614  0.11620896  1
  Sr  Sr7  1  0.34045619  0.16486568  0.62874103  1
  Sr  Sr8  1  0.33145100  0.46977024  0.15986204  1
  Sr  Sr9  1  0.33728620  0.50065481  0.61779571  1
  Sr  Sr10  1  0.33280891  0.82674121  0.12371874  1
  Sr  Sr11  1  0.31673972  0.80793547  0.65461820  1
  Sr  Sr12  1  0.65606860  0.15607348  0.12558088  1
  Sr  Sr13  1  0.68923583  0.18686162  0.56161945  1
  Sr  Sr14  1  0.66380367  0.48134167  0.14497272  1
  Sr  Sr15  1  0.66666449  0.46242519  0.63694921  1
  Sr  Sr16  1  0.68002871  0.81068785  0.08856976  1
  Sr  Sr17  1  0.65937726  0.86135576  0.64529613  1
  Sr  Sr18  1  0.18095179  0.00878473  0.07749110  1
  Sr  Sr19  1  0.16948346  0.02768471  0.63317159  1
  Sr  Sr20  1  0.15575263  0.33507082  0.14112053  1
  Sr  Sr21  1  0.17923007  0.35105512  0.57888449  1
  Sr  Sr22  1  0.17186229  0.66571987  0.12382123  1
  Sr  Sr23  1  0.16154785  0.66307121  0.66151397  1
  Sr  Sr24  1  0.47956470  0.00134016  0.18793549  1
  Sr  Sr25  1  0.51011164  0.01278648  0.60711791  1
  Sr  Sr26  1  0.49933567  0.33398845  0.10479360  1
  Sr  Sr27  1  0.48643641  0.34999211  0.66571145  1
  Sr  Sr28  1  0.50187230  0.69503143  0.10212375  1
  Sr  Sr29  1  0.50786204  0.67613967  0.61139887  1
  Sr  Sr30  1  0.81489158  0.01329885  0.11099640  1
  Sr  Sr31  1  0.83976656  0.00913133  0.65338200  1
  Sr  Sr32  1  0.82578320  0.34953387  0.15786673  1
  Sr  Sr33  1  0.84047618  0.33897721  0.61575402  1
  Sr  Sr34  1  0.83187580  0.65948062  0.12873504  1
  Sr  Sr35  1  0.82289349  0.70959281  0.59668048  1
  Sr  Sr36  1  -0.00004126  0.17985956  0.32551984  1
  Sr  Sr37  1  -0.00447038  0.15982262  0.88082720  1
  Sr  Sr38  1  -0.00326250  0.47679793  0.42219956  1
  Sr  Sr39  1  -0.00375152  0.51339046  0.87012128  1
  Sr  Sr40  1  0.00496025  0.83287075  0.38264748  1
  Sr  Sr41  1  0.01633604  0.81941746  0.84642951  1
  Sr  Sr42  1  0.32058713  0.14658527  0.40350676  1
  Sr  Sr43  1  0.34863194  0.15929279  0.86214793  1
  Sr  Sr44  1  0.32503862  0.49450425  0.38070197  1
  Sr  Sr45  1  0.34757545  0.47995535  0.85835883  1
  Sr  Sr46  1  0.34551777  0.82642711  0.34093047  1
  Sr  Sr47  1  0.31705247  0.81094100  0.90145855  1
  Sr  Sr48  1  0.65535164  0.13702435  0.35982144  1
  Sr  Sr49  1  0.66653330  0.15152663  0.91034919  1
  Sr  Sr50  1  0.67533451  0.49290874  0.35481326  1
  Sr  Sr51  1  0.65708092  0.46733027  0.86241293  1
  Sr  Sr52  1  0.65815029  0.81444214  0.42653621  1
  Sr  Sr53  1  0.68247150  0.85163261  0.86643390  1
  Sr  Sr54  1  0.16260693  0.00051451  0.41750629  1
  Sr  Sr55  1  0.17152599  0.02860828  0.86799943  1
  Sr  Sr56  1  0.16981918  0.33400807  0.36980678  1
  Sr  Sr57  1  0.12575424  0.34638140  0.91554191  1
  Sr  Sr58  1  0.17154442  0.68144798  0.35047110  1
  Sr  Sr59  1  0.16402589  0.65182102  0.87596817  1
  Sr  Sr60  1  0.50214560  -0.00611525  0.39313919  1
  Sr  Sr61  1  0.52474311  -0.00696571  0.83838429  1
  Sr  Sr62  1  0.49187309  0.37835986  0.31855989  1
  Sr  Sr63  1  0.50154465  0.32024384  0.88807476  1
  Sr  Sr64  1  0.49866811  0.67350802  0.40224190  1
  Sr  Sr65  1  0.52082833  0.69854262  0.88758295  1
  Sr  Sr66  1  0.86655300  0.00781158  0.32498655  1
  Sr  Sr67  1  0.82570751  0.01290680  0.88012162  1
  Sr  Sr68  1  0.81771147  0.34229349  0.39148096  1
  Sr  Sr69  1  0.83451184  0.35833491  0.82941965  1
  Sr  Sr70  1  0.83652560  0.68076511  0.37435744  1
  Sr  Sr71  1  0.82045542  0.67702226  0.89717833  1
  Ta  Ta72  1  0.19209015  0.19460162  -0.00672620  1
  Ta  Ta73  1  0.11330337  0.17332467  0.49730802  1
  Ta  Ta74  1  0.20581335  0.49599790  0.00592659  1
  Ta  Ta75  1  0.16501356  0.54386279  0.50362058  1
  Ta  Ta76  1  0.11439133  0.83397190  0.00434905  1
  Ta  Ta77  1  0.20431317  0.82277314  0.50235746  1
  Ta  Ta78  1  0.49812869  0.10546296  0.00643012  1
  Ta  Ta79  1  0.49531114  0.20455861  0.48486906  1
  Ta  Ta80  1  0.49627276  0.51940287  0.01142173  1
  Ta  Ta81  1  0.51350817  0.49011616  0.49484043  1
  Ta  Ta82  1  0.50141635  0.88320255  0.01417145  1
  Ta  Ta83  1  0.45011056  0.83678669  0.51504119  1
  Ta  Ta84  1  0.83275183  0.21340042  -0.00226524  1
  Ta  Ta85  1  0.87281928  0.14770629  0.49272591  1
  Ta  Ta86  1  0.81712187  0.48594995  0.00464733  1
  Ta  Ta87  1  0.81986433  0.52959730  0.50913160  1
  Ta  Ta88  1  0.88452139  0.83963166  0.00493508  1
  Ta  Ta89  1  0.84192778  0.88719616  0.48807257  1
  Ta  Ta90  1  0.18218134  0.14485886  0.25308428  1
  Ta  Ta91  1  0.16487771  0.22339421  0.74991848  1
  Ta  Ta92  1  0.12888820  0.50472013  0.25781183  1
  Ta  Ta93  1  0.17140487  0.46208512  0.75255530  1
  Ta  Ta94  1  0.16859152  0.86978115  0.24732580  1
  Ta  Ta95  1  0.16920568  0.86672154  0.75450304  1
  Ta  Ta96  1  0.48898257  0.19410421  0.26342533  1
  Ta  Ta97  1  0.53096614  0.16772050  0.74262527  1
  Ta  Ta98  1  0.49831771  0.55590255  0.24489355  1
  Ta  Ta99  1  0.50704107  0.54160895  0.74876016  1
  Ta  Ta100  1  0.53781495  0.81797944  0.25346627  1
  Ta  Ta101  1  0.46733774  0.83148796  0.74585709  1
  Ta  Ta102  1  0.81222140  0.18833133  0.24257810  1
  Ta  Ta103  1  0.80220195  0.18070007  0.75194242  1
  Ta  Ta104  1  0.87231854  0.50870808  0.26004704  1
  Ta  Ta105  1  0.82417362  0.55021744  0.73547922  1
  Ta  Ta106  1  0.78977473  0.83273061  0.25682598  1
  Ta  Ta107  1  0.86433791  0.83303983  0.74966733  1
  Ta  Ta108  1  0.06803932  -0.00011130  0.24507699  1
  Ta  Ta109  1  0.00863968  -0.02702356  0.74913953  1
  Ta  Ta110  1  -0.00688089  0.37599998  0.25344068  1
  Ta  Ta111  1  0.03322344  0.33579305  0.73942299  1
  Ta  Ta112  1  0.00027859  0.61894179  0.26264978  1
  Ta  Ta113  1  -0.04163232  0.67400176  0.74733985  1
  Ta  Ta114  1  0.28081656  -0.00166045  0.24817831  1
  Ta  Ta115  1  0.33496269  -0.03592529  0.75600560  1
  Ta  Ta116  1  0.33282069  0.28593119  0.25557121  1
  Ta  Ta117  1  0.29212613  0.32792849  0.74994465  1
  Ta  Ta118  1  0.35941449  0.65191360  0.24794496  1
  Ta  Ta119  1  0.36847164  0.65668126  0.75311700  1
  Ta  Ta120  1  0.66833725  -0.05452603  0.26109510  1
  Ta  Ta121  1  0.66916575  0.07305835  0.71942451  1
  Ta  Ta122  1  0.65662410  0.29860007  0.25434820  1
  Ta  Ta123  1  0.66062151  0.27323017  0.75143370  1
  Ta  Ta124  1  0.65313381  0.68234975  0.25890397  1
  Ta  Ta125  1  0.67045000  0.64048287  0.74394753  1
  Ta  Ta126  1  -0.00011245  -0.04155829  0.00274496  1
  Ta  Ta127  1  -0.01814134  0.02599600  0.50210053  1
  Ta  Ta128  1  -0.05989546  0.34096848  -0.00226704  1
  Ta  Ta129  1  -0.00324191  0.29138269  0.49648602  1
  Ta  Ta130  1  -0.00171873  0.70318389  -0.00143535  1
  Ta  Ta131  1  0.01613247  0.65369458  0.49491053  1
  Ta  Ta132  1  0.37261171  -0.00817186  0.00496640  1
  Ta  Ta133  1  0.32973597  -0.04589883  0.50565518  1
  Ta  Ta134  1  0.31007051  0.32796398  0.00382811  1
  Ta  Ta135  1  0.38710981  0.32948254  0.48684421  1
  Ta  Ta136  1  0.34314184  0.61302117  0.00277468  1
  Ta  Ta137  1  0.31301972  0.68048170  0.50757997  1
  Ta  Ta138  1  0.61661793  -0.01099801  0.03756872  1
  Ta  Ta139  1  0.72214650  -0.00209988  0.48543151  1
  Ta  Ta140  1  0.70704122  0.33133234  -0.00410383  1
  Ta  Ta141  1  0.59596529  0.33925948  0.48471302  1
  Ta  Ta142  1  0.66264655  0.61371238  0.00473092  1
  Ta  Ta143  1  0.67105999  0.61985893  0.50354467  1
  N  N144  1  0.33374472  0.65720479  0.62943925  1
  N  N145  1  0.16361139  0.18186689  0.87252255  1
  N  N146  1  -0.00725124  0.33001919  0.36762307  1
  N  N147  1  -0.00048533  0.33414422  0.62080404  1
  N  N148  1  0.65465480  0.33597606  0.37147452  1
  N  N149  1  0.32868260  0.31888362  0.12677832  1
  N  N150  1  0.16675516  0.49714201  0.12507641  1
  N  N151  1  0.83570994  0.50430060  0.38247507  1
  N  N152  1  0.50028368  0.52159052  0.37013382  1
  N  N153  1  0.00171306  0.67810761  0.37544708  1
  N  N154  1  -0.01086073  0.66869714  0.87380096  1
  N  N155  1  0.16976549  0.49549347  0.87525598  1
  N  N156  1  0.49697901  0.84182878  0.14035940  1
  N  N157  1  0.84489121  0.84324854  0.36723732  1
  N  N158  1  0.83755136  0.49053664  0.63139362  1
  N  N159  1  0.50058946  0.49187866  0.13216432  1
  N  N160  1  0.65668511  0.00635909  0.15846574  1
  N  N161  1  0.00628047  0.00055392  0.62663566  1
  N  N162  1  0.83504170  0.50267482  0.12579789  1
  N  N163  1  0.49522677  0.14438343  0.37398637  1
  N  N164  1  0.50341925  0.50612600  0.63108378  1
  N  N165  1  0.50555228  0.84247767  0.62446220  1
  N  N166  1  0.66817164  0.31279248  0.87899979  1
  N  N167  1  0.83434092  0.17370981  0.87137839  1
  N  N168  1  0.83049910  0.16941819  0.12343649  1
  N  N169  1  0.33201391  0.33101302  0.37593753  1
  N  N170  1  0.16884042  0.50586352  0.62564012  1
  N  N171  1  0.15736693  0.16367670  0.37495115  1
  N  N172  1  0.16632782  0.50466233  0.37699752  1
  N  N173  1  0.67485563  0.02506210  0.60383112  1
  N  N174  1  0.32877808  -0.01004745  0.13128199  1
  N  N175  1  0.66510568  0.65913910  0.38276352  1
  N  N176  1  0.65517318  -0.01318887  0.38596534  1
  O  O177  1  0.51049395  0.14324640  0.88069245  1
  O  O178  1  0.16549990  0.85317842  0.88251353  1
  O  O179  1  0.83154676  0.51125595  0.86158770  1
  O  O180  1  0.31745740  -0.02182596  0.37738349  1
  O  O181  1  0.49505269  0.15030278  0.13347799  1
  O  O182  1  0.34219235  0.32483664  0.86705722  1
  O  O183  1  0.84289533  0.16678825  0.61807858  1
  O  O184  1  0.33172520  -0.02208568  0.88160345  1
  O  O185  1  0.49257326  0.83028548  0.38682819  1
  O  O186  1  0.02674725  0.00262077  0.12280144  1
  O  O187  1  -0.00006374  0.67554604  0.62567374  1
  O  O188  1  0.16887605  0.16465048  0.11625723  1
  O  O189  1  0.66637643  0.62841283  0.87841206  1
  O  O190  1  0.67128729  0.64447842  0.12787743  1
  O  O191  1  0.14885609  0.17874641  0.62381733  1
  O  O192  1  0.00327127  -0.00290862  0.87938790  1
  O  O193  1  0.50366389  0.84655296  0.86941855  1
  O  O194  1  0.32913433  -0.01625703  0.63233441  1
  O  O195  1  -0.01742254  0.35549220  0.11781365  1
  O  O196  1  0.66003265  0.32780193  0.12029253  1
  O  O197  1  0.33291972  0.65069237  0.87766193  1
  O  O198  1  0.84691998  0.16335097  0.36678756  1
  O  O199  1  0.84487411  0.83736817  0.87784449  1
  O  O200  1  0.49975065  0.17425383  0.61531439  1
  O  O201  1  0.16930506  0.83840188  0.62743113  1
  O  O202  1  0.33770696  0.32621329  0.62307454  1
  O  O203  1  0.63676793  0.31988607  0.61065111  1
  O  O204  1  -0.00589275  0.66434421  0.12423188  1
  O  O205  1  0.85564524  0.85469451  0.62259224  1
  O  O206  1  0.18582843  0.83870241  0.37782555  1
  O  O207  1  0.83730651  0.83342188  0.12696160  1
  O  O208  1  0.33779644  0.66614325  0.37249709  1
  O  O209  1  0.68122306  -0.01561842  0.79916332  1
  O  O210  1  0.01861534  0.00457262  0.36567158  1
  O  O211  1  -0.01825837  0.34071976  0.87121759  1
  O  O212  1  0.66618130  0.67776627  0.62427550  1
  O  O213  1  0.50335656  0.49456217  0.87111066  1
  O  O214  1  0.15813746  0.84171255  0.12062127  1
  O  O215  1  0.33861347  0.65942586  0.11948467  1
