# generated using pymatgen
data_Sr24Ta24N11O13
_symmetry_space_group_name_H-M   'P 1'
_cell_length_a   16.72962492
_cell_length_b   16.75340018
_cell_length_c   15.65689591
_cell_angle_alpha   89.73741115
_cell_angle_beta   89.58338551
_cell_angle_gamma   89.52178268
_symmetry_Int_Tables_number   1
_chemical_formula_structural   Sr24Ta24N11O13
_chemical_formula_sum   'Sr72 Ta72 N33 O39'
_cell_volume   4387.97132310
_cell_formula_units_Z   3
loop_
 _symmetry_equiv_pos_site_id
 _symmetry_equiv_pos_as_xyz
  1  'x, y, z'
loop_
 _atom_site_type_symbol
 _atom_site_label
 _atom_site_symmetry_multiplicity
 _atom_site_fract_x
 _atom_site_fract_y
 _atom_site_fract_z
 _atom_site_occupancy
  Sr  Sr0  1  0.00138988  0.17056956  0.12776113  1
  Sr  Sr1  1  0.00400453  0.19580600  0.58028972  1
  Sr  Sr2  1  0.00282601  0.52208753  0.11924846  1
  Sr  Sr3  1  -0.01538041  0.49508953  0.67135038  1
  Sr  Sr4  1  -0.01722551  0.84440130  0.16909984  1
  Sr  Sr5  1  0.01988816  0.83389572  0.60219124  1
  Sr  Sr6  1  0.32207186  0.19309484  0.11531749  1
  Sr  Sr7  1  0.32211479  0.16459644  0.62375433  1
  Sr  Sr8  1  0.32437640  0.50117324  0.10085322  1
  Sr  Sr9  1  0.36041305  0.51279666  0.62722369  1
  Sr  Sr10  1  0.33679316  0.83654905  0.11842367  1
  Sr  Sr11  1  0.33845938  0.83551928  0.67090971  1
  Sr  Sr12  1  0.65072924  0.15119384  0.17245832  1
  Sr  Sr13  1  0.67856207  0.16529609  0.61763655  1
  Sr  Sr14  1  0.65284345  0.51224641  0.14389079  1
  Sr  Sr15  1  0.67528969  0.49869586  0.58641860  1
  Sr  Sr16  1  0.68152144  0.84587673  0.07450758  1
  Sr  Sr17  1  0.66612565  0.81768797  0.63881895  1
  Sr  Sr18  1  0.17376024  -0.01211467  0.11489632  1
  Sr  Sr19  1  0.17955518  -0.01540723  0.65274802  1
  Sr  Sr20  1  0.14878081  0.33532766  0.17184013  1
  Sr  Sr21  1  0.17626760  0.32989454  0.60221878  1
  Sr  Sr22  1  0.17986903  0.65923753  0.09349693  1
  Sr  Sr23  1  0.15624603  0.66121159  0.60822449  1
  Sr  Sr24  1  0.50254885  -0.00899181  0.13209335  1
  Sr  Sr25  1  0.51529805  0.01019125  0.57458309  1
  Sr  Sr26  1  0.48790264  0.34964264  0.10763551  1
  Sr  Sr27  1  0.49619542  0.31106750  0.66890513  1
  Sr  Sr28  1  0.49362882  0.66850881  0.16842958  1
  Sr  Sr29  1  0.51918750  0.66760128  0.61147627  1
  Sr  Sr30  1  0.83635324  0.00578829  0.12825895  1
  Sr  Sr31  1  0.84682288  -0.01798787  0.65025980  1
  Sr  Sr32  1  0.83943358  0.31850422  0.08517396  1
  Sr  Sr33  1  0.82351966  0.32634231  0.63040432  1
  Sr  Sr34  1  0.82851212  0.66440799  0.11894614  1
  Sr  Sr35  1  0.84353692  0.65442431  0.64607298  1
  Sr  Sr36  1  0.00174877  0.19047611  0.37062626  1
  Sr  Sr37  1  -0.01624660  0.16390323  0.92068595  1
  Sr  Sr38  1  -0.00222751  0.50538336  0.33470732  1
  Sr  Sr39  1  -0.00318769  0.51326668  0.87757130  1
  Sr  Sr40  1  0.00008482  0.82296141  0.38713027  1
  Sr  Sr41  1  0.00775789  0.87881878  0.82914621  1
  Sr  Sr42  1  0.32085027  0.18120368  0.39505457  1
  Sr  Sr43  1  0.32491315  0.17901309  0.86223163  1
  Sr  Sr44  1  0.30742340  0.50448331  0.41611811  1
  Sr  Sr45  1  0.34046657  0.50452624  0.87842809  1
  Sr  Sr46  1  0.35027236  0.83697598  0.32936966  1
  Sr  Sr47  1  0.31791297  0.84076227  0.89188028  1
  Sr  Sr48  1  0.66686966  0.14847634  0.38326899  1
  Sr  Sr49  1  0.67502122  0.17560190  0.82887580  1
  Sr  Sr50  1  0.66963961  0.50963649  0.36516634  1
  Sr  Sr51  1  0.66620453  0.48417166  0.92387631  1
  Sr  Sr52  1  0.63614073  0.82895855  0.42049051  1
  Sr  Sr53  1  0.67659786  0.81861515  0.86245686  1
  Sr  Sr54  1  0.17474701  -0.03783738  0.36222239  1
  Sr  Sr55  1  0.17397599  0.01312063  0.88142811  1
  Sr  Sr56  1  0.16004638  0.33086617  0.38272715  1
  Sr  Sr57  1  0.15052744  0.34525657  0.83342688  1
  Sr  Sr58  1  0.16777066  0.66459648  0.40173605  1
  Sr  Sr59  1  0.16330800  0.65387997  0.89782369  1
  Sr  Sr60  1  0.50215995  0.00114312  0.36676014  1
  Sr  Sr61  1  0.50691474  -0.02358771  0.91676683  1
  Sr  Sr62  1  0.53341572  0.33080167  0.32201207  1
  Sr  Sr63  1  0.48867006  0.33995557  0.88611727  1
  Sr  Sr64  1  0.51045449  0.65436221  0.38694618  1
  Sr  Sr65  1  0.49169554  0.68052445  0.82750565  1
  Sr  Sr66  1  0.84740152  -0.00878090  0.34745468  1
  Sr  Sr67  1  0.81950166  -0.00418332  0.86849336  1
  Sr  Sr68  1  0.81916447  0.31661139  0.42303090  1
  Sr  Sr69  1  0.83346132  0.32733635  0.86895394  1
  Sr  Sr70  1  0.85083833  0.65932264  0.34050975  1
  Sr  Sr71  1  0.82543775  0.65686808  0.89078819  1
  Ta  Ta72  1  0.16163182  0.21642784  -0.00391670  1
  Ta  Ta73  1  0.15753329  0.11304920  0.48651245  1
  Ta  Ta74  1  0.15681011  0.45771055  -0.00046284  1
  Ta  Ta75  1  0.10581345  0.49581213  0.50345133  1
  Ta  Ta76  1  0.11549061  0.83485288  -0.00601033  1
  Ta  Ta77  1  0.22930932  0.83086985  0.50925279  1
  Ta  Ta78  1  0.52755016  0.16213594  -0.00144645  1
  Ta  Ta79  1  0.50075663  0.21110094  0.49478724  1
  Ta  Ta80  1  0.49678623  0.54994057  0.00506838  1
  Ta  Ta81  1  0.50598248  0.45060315  0.49434301  1
  Ta  Ta82  1  0.50136000  0.78913744  0.00159339  1
  Ta  Ta83  1  0.44753021  0.83585114  0.50522626  1
  Ta  Ta84  1  0.78859206  0.15821500  -0.00562519  1
  Ta  Ta85  1  0.84439455  0.11654677  0.50301877  1
  Ta  Ta86  1  0.84683994  0.48398163  0.00789495  1
  Ta  Ta87  1  0.85778239  0.50972692  0.49646925  1
  Ta  Ta88  1  0.88346224  0.84041356  -0.00720572  1
  Ta  Ta89  1  0.82266491  0.82648807  0.49762086  1
  Ta  Ta90  1  0.16968080  0.13737322  0.25623192  1
  Ta  Ta91  1  0.12854108  0.17161191  0.74950135  1
  Ta  Ta92  1  0.18377422  0.52374423  0.24696271  1
  Ta  Ta93  1  0.18455599  0.51769736  0.74997146  1
  Ta  Ta94  1  0.17015454  0.79445417  0.24355200  1
  Ta  Ta95  1  0.16491466  0.79487867  0.75456263  1
  Ta  Ta96  1  0.45605250  0.16492024  0.24689264  1
  Ta  Ta97  1  0.50418723  0.11814094  0.74672407  1
  Ta  Ta98  1  0.44733937  0.49800468  0.25373901  1
  Ta  Ta99  1  0.54083335  0.49549448  0.75087292  1
  Ta  Ta100  1  0.54902931  0.83418460  0.24152198  1
  Ta  Ta101  1  0.50463165  0.87885493  0.74239662  1
  Ta  Ta102  1  0.83559318  0.19060263  0.25029633  1
  Ta  Ta103  1  0.87218813  0.16351898  0.74586607  1
  Ta  Ta104  1  0.82663679  0.45939056  0.23979664  1
  Ta  Ta105  1  0.78762818  0.49211891  0.75935931  1
  Ta  Ta106  1  0.78493730  0.83105952  0.24933270  1
  Ta  Ta107  1  0.85592857  0.80699992  0.75639416  1
  Ta  Ta108  1  0.02697941  0.02566206  0.25331558  1
  Ta  Ta109  1  0.00642471  0.06398123  0.74744410  1
  Ta  Ta110  1  -0.05904329  0.33526637  0.25313728  1
  Ta  Ta111  1  -0.00694648  0.28253788  0.74870519  1
  Ta  Ta112  1  0.04673394  0.67642105  0.24599920  1
  Ta  Ta113  1  0.00956274  0.69272678  0.75779338  1
  Ta  Ta114  1  0.33091679  0.04106924  0.24646121  1
  Ta  Ta115  1  0.38584634  0.00649698  0.74825596  1
  Ta  Ta116  1  0.33749483  0.35797609  0.26456910  1
  Ta  Ta117  1  0.31891804  0.35612589  0.73799698  1
  Ta  Ta118  1  0.31161539  0.64791701  0.24867563  1
  Ta  Ta119  1  0.29688529  0.66345947  0.75633849  1
  Ta  Ta120  1  0.67019251  -0.04475397  0.25259278  1
  Ta  Ta121  1  0.62541335  -0.00238176  0.74667406  1
  Ta  Ta122  1  0.72553586  0.32286447  0.24865056  1
  Ta  Ta123  1  0.66206462  0.37245936  0.74966832  1
  Ta  Ta124  1  0.66965687  0.70963192  0.24829745  1
  Ta  Ta125  1  0.67132851  0.62192754  0.75334203  1
  Ta  Ta126  1  -0.00126488  -0.02820969  0.00587947  1
  Ta  Ta127  1  0.00249965  0.01807729  0.49694114  1
  Ta  Ta128  1  0.02354060  0.34527247  0.00204171  1
  Ta  Ta129  1  -0.01169732  0.38440401  0.49715924  1
  Ta  Ta130  1  -0.00450890  0.71218383  -0.00199227  1
  Ta  Ta131  1  -0.01533765  0.63356470  0.50126803  1
  Ta  Ta132  1  0.34417896  0.03106553  0.01043996  1
  Ta  Ta133  1  0.32620755  -0.02272591  0.50385528  1
  Ta  Ta134  1  0.27790241  0.33962855  -0.00200320  1
  Ta  Ta135  1  0.38775506  0.33822395  0.49239446  1
  Ta  Ta136  1  0.37585895  0.67106318  -0.00008916  1
  Ta  Ta137  1  0.34158723  0.70174153  0.50539891  1
  Ta  Ta138  1  0.66691971  0.04549007  0.00559282  1
  Ta  Ta139  1  0.71601905  -0.01543266  0.49855703  1
  Ta  Ta140  1  0.66064756  0.28278119  0.00325948  1
  Ta  Ta141  1  0.62363951  0.32719481  0.50496900  1
  Ta  Ta142  1  0.62387999  0.66571904  0.00204361  1
  Ta  Ta143  1  0.71719684  0.66999394  0.49652949  1
  N  N144  1  0.31662272  0.34177767  0.38568899  1
  N  N145  1  0.83593564  0.83571222  0.87496294  1
  N  N146  1  0.81245234  0.51006232  0.12576743  1
  N  N147  1  0.83734923  0.16134608  0.61656480  1
  N  N148  1  0.48339160  0.50971026  0.13515262  1
  N  N149  1  0.33338314  0.34058556  0.61659205  1
  N  N150  1  0.67346008  0.66750915  0.37847341  1
  N  N151  1  0.33443923  0.67339246  0.87226573  1
  N  N152  1  0.16316460  0.49931396  0.87154205  1
  N  N153  1  0.00250943  0.00404167  0.13367980  1
  N  N154  1  0.16069656  0.83805152  0.87860031  1
  N  N155  1  -0.02085292  0.34513908  0.37452322  1
  N  N156  1  0.16301857  0.49728559  0.12869059  1
  N  N157  1  0.66727184  0.00198543  0.12274927  1
  N  N158  1  0.66532081  0.67117484  0.12242041  1
  N  N159  1  0.33497617  0.66776200  0.12817874  1
  N  N160  1  0.00323336  0.67812630  0.12802166  1
  N  N161  1  0.16453165  0.17291316  0.38136434  1
  N  N162  1  0.00693249  0.66646002  0.37205747  1
  N  N163  1  0.82722541  0.16343326  0.87524830  1
  N  N164  1  0.67349016  -0.01031511  0.38367879  1
  N  N165  1  0.34591251  0.00390839  0.62464333  1
  N  N166  1  0.66078564  0.65962050  0.87195230  1
  N  N167  1  0.15439392  0.17943896  0.87646795  1
  N  N168  1  0.82488336  0.49289482  0.88087618  1
  N  N169  1  -0.00088529  0.66357937  0.87980108  1
  N  N170  1  0.65979663  0.33089533  0.62873018  1
  N  N171  1  0.67750550  0.65797218  0.61755482  1
  N  N172  1  0.51136520  0.83281318  0.11951958  1
  N  N173  1  0.00028168  0.66489660  0.62225389  1
  N  N174  1  0.17987365  0.82668232  0.62553011  1
  N  N175  1  0.33508433  -0.00803901  0.12690873  1
  N  N176  1  0.50131891  0.84000365  0.61594430  1
  O  O177  1  0.51062708  0.49343461  0.36907106  1
  O  O178  1  0.16127657  0.18129426  0.13307165  1
  O  O179  1  0.15380967  0.50500390  0.38077621  1
  O  O180  1  0.83432869  0.50211234  0.36875046  1
  O  O181  1  0.51320477  0.50489383  0.87642705  1
  O  O182  1  0.00490327  0.01913836  0.62450069  1
  O  O183  1  0.51497660  0.15152458  0.87465475  1
  O  O184  1  -0.00285832  0.33412896  0.12871764  1
  O  O185  1  0.49357650  0.84220363  0.37660031  1
  O  O186  1  0.67832060  0.30173308  0.12788419  1
  O  O187  1  0.30556100  0.34432196  0.13375892  1
  O  O188  1  0.50463402  0.83222067  0.86589542  1
  O  O189  1  -0.01599731  0.33718793  0.63048344  1
  O  O190  1  0.19452553  0.81342032  0.37170152  1
  O  O191  1  0.67671008  0.32474076  0.37164184  1
  O  O192  1  0.14009811  0.50244439  0.62967263  1
  O  O193  1  0.65909828  0.00725821  0.87266726  1
  O  O194  1  0.84281060  0.82124987  0.62258303  1
  O  O195  1  0.00035242  -0.02148305  0.37041369  1
  O  O196  1  0.16089511  0.15719755  0.60803943  1
  O  O197  1  0.50015236  0.17708610  0.36617536  1
  O  O198  1  0.83086065  0.84057508  0.12513948  1
  O  O199  1  0.83736589  0.16385478  0.37816943  1
  O  O200  1  0.35488041  0.01743391  0.88222144  1
  O  O201  1  0.50213586  0.16319415  0.61596208  1
  O  O202  1  0.30809329  0.34051398  0.86828918  1
  O  O203  1  0.49861931  0.17376470  0.12673535  1
  O  O204  1  0.83651292  0.82893725  0.37073384  1
  O  O205  1  0.83463627  0.16681201  0.12279906  1
  O  O206  1  -0.00091863  0.32285009  0.87556978  1
  O  O207  1  0.51750128  0.49086254  0.62100205  1
  O  O208  1  0.16645504  0.82265337  0.11841131  1
  O  O209  1  0.33335251  0.67684235  0.38008978  1
  O  O210  1  0.65522331  0.32186753  0.87958596  1
  O  O211  1  0.67030852  -0.00654419  0.62412354  1
  O  O212  1  0.83292883  0.49677625  0.62565595  1
  O  O213  1  0.00840951  0.02018755  0.88321492  1
  O  O214  1  0.34481944  0.67393468  0.63317293  1
  O  O215  1  0.33548617  -0.00281357  0.36691866  1
