# generated using pymatgen
data_Sr24Ta24N11O13
_symmetry_space_group_name_H-M   'P 1'
_cell_length_a   16.72776925
_cell_length_b   16.77773205
_cell_length_c   15.73364680
_cell_angle_alpha   90.10644233
_cell_angle_beta   89.68411560
_cell_angle_gamma   89.97955887
_symmetry_Int_Tables_number   1
_chemical_formula_structural   Sr24Ta24N11O13
_chemical_formula_sum   'Sr72 Ta72 N33 O39'
_cell_volume   4415.63635935
_cell_formula_units_Z   3
loop_
 _symmetry_equiv_pos_site_id
 _symmetry_equiv_pos_as_xyz
  1  'x, y, z'
loop_
 _atom_site_type_symbol
 _atom_site_label
 _atom_site_symmetry_multiplicity
 _atom_site_fract_x
 _atom_site_fract_y
 _atom_site_fract_z
 _atom_site_occupancy
  Sr  Sr0  1  0.00558919  0.15630783  0.10779260  1
  Sr  Sr1  1  -0.00954353  0.17978741  0.60806006  1
  Sr  Sr2  1  -0.00705072  0.50742463  0.13502058  1
  Sr  Sr3  1  0.02486325  0.50610156  0.58564917  1
  Sr  Sr4  1  0.01121881  0.84461782  0.15930223  1
  Sr  Sr5  1  0.00779918  0.83602400  0.62184931  1
  Sr  Sr6  1  0.32862933  0.16317530  0.16065060  1
  Sr  Sr7  1  0.33486221  0.17293033  0.61700097  1
  Sr  Sr8  1  0.33966283  0.48341832  0.12197619  1
  Sr  Sr9  1  0.32204872  0.51965027  0.67727421  1
  Sr  Sr10  1  0.32932333  0.84023558  0.12271506  1
  Sr  Sr11  1  0.34486326  0.82422630  0.58594602  1
  Sr  Sr12  1  0.65456517  0.18146207  0.12227056  1
  Sr  Sr13  1  0.66943444  0.17256864  0.66333665  1
  Sr  Sr14  1  0.65985715  0.49538062  0.07875024  1
  Sr  Sr15  1  0.66894661  0.50007152  0.63239927  1
  Sr  Sr16  1  0.67402757  0.82676586  0.12617095  1
  Sr  Sr17  1  0.66072792  0.87113214  0.61032161  1
  Sr  Sr18  1  0.17010992  0.00238814  0.12271047  1
  Sr  Sr19  1  0.17440610  0.00483605  0.66479871  1
  Sr  Sr20  1  0.14580635  0.33407465  0.08558139  1
  Sr  Sr21  1  0.17516684  0.33210353  0.63347027  1
  Sr  Sr22  1  0.16244005  0.65256872  0.11821642  1
  Sr  Sr23  1  0.16381558  0.67636740  0.62031322  1
  Sr  Sr24  1  0.50826679  -0.01976766  0.07190301  1
  Sr  Sr25  1  0.49602964  0.01994744  0.63277895  1
  Sr  Sr26  1  0.48199053  0.31606786  0.14675264  1
  Sr  Sr27  1  0.50153280  0.33732747  0.58986827  1
  Sr  Sr28  1  0.48638188  0.67850258  0.16646130  1
  Sr  Sr29  1  0.50224439  0.65314951  0.62424952  1
  Sr  Sr30  1  0.82848631  -0.01679359  0.12318617  1
  Sr  Sr31  1  0.85704735  -0.00971318  0.59208672  1
  Sr  Sr32  1  0.84556499  0.31653572  0.16041252  1
  Sr  Sr33  1  0.82381340  0.32734010  0.63527229  1
  Sr  Sr34  1  0.82040695  0.65380551  0.10974208  1
  Sr  Sr35  1  0.82001943  0.65248829  0.65037884  1
  Sr  Sr36  1  -0.00658094  0.17192627  0.38427654  1
  Sr  Sr37  1  0.00017404  0.17274375  0.89254166  1
  Sr  Sr38  1  -0.00431650  0.50610354  0.36282410  1
  Sr  Sr39  1  0.00635940  0.51198060  0.91602468  1
  Sr  Sr40  1  0.00239747  0.84221702  0.39051538  1
  Sr  Sr41  1  0.00649023  0.82587250  0.82867636  1
  Sr  Sr42  1  0.34334189  0.17612351  0.38588690  1
  Sr  Sr43  1  0.32690707  0.15156969  0.83068136  1
  Sr  Sr44  1  0.34435434  0.50434887  0.33388350  1
  Sr  Sr45  1  0.33561558  0.48921398  0.88371819  1
  Sr  Sr46  1  0.34043398  0.83418729  0.37467330  1
  Sr  Sr47  1  0.32736637  0.84227122  0.91376199  1
  Sr  Sr48  1  0.66599863  0.18869536  0.33201923  1
  Sr  Sr49  1  0.65815569  0.17599662  0.87473140  1
  Sr  Sr50  1  0.64955202  0.49889752  0.42103405  1
  Sr  Sr51  1  0.67880540  0.51673472  0.85838951  1
  Sr  Sr52  1  0.67240624  0.82806649  0.35129688  1
  Sr  Sr53  1  0.66407148  0.85489869  0.90341711  1
  Sr  Sr54  1  0.18272978  0.00747098  0.33197953  1
  Sr  Sr55  1  0.16814226  -0.00190189  0.87948732  1
  Sr  Sr56  1  0.15378169  0.32048201  0.42243965  1
  Sr  Sr57  1  0.17146845  0.33463520  0.86802274  1
  Sr  Sr58  1  0.15026861  0.65971732  0.39749697  1
  Sr  Sr59  1  0.17463862  0.66636227  0.87530489  1
  Sr  Sr60  1  0.48847320  -0.00494600  0.41476372  1
  Sr  Sr61  1  0.51122556  0.01524403  0.85655623  1
  Sr  Sr62  1  0.48897260  0.33107528  0.36554785  1
  Sr  Sr63  1  0.51436747  0.34677290  0.93108003  1
  Sr  Sr64  1  0.49248436  0.66163916  0.37574814  1
  Sr  Sr65  1  0.49917180  0.64792490  0.83494501  1
  Sr  Sr66  1  0.81905478  -0.02121506  0.37668580  1
  Sr  Sr67  1  0.85042154  -0.00178943  0.89936990  1
  Sr  Sr68  1  0.83072355  0.32805384  0.36533625  1
  Sr  Sr69  1  0.83211818  0.31574163  0.83649986  1
  Sr  Sr70  1  0.82256040  0.64682431  0.36129052  1
  Sr  Sr71  1  0.82918718  0.66013021  0.88143000  1
  Ta  Ta72  1  0.20617728  0.16531523  0.00013759  1
  Ta  Ta73  1  0.16854388  0.13012134  0.50309204  1
  Ta  Ta74  1  0.18222995  0.50249383  0.00411516  1
  Ta  Ta75  1  0.21557589  0.49942666  0.50388258  1
  Ta  Ta76  1  0.13120462  0.82860110  -0.00130671  1
  Ta  Ta77  1  0.17212594  0.87833960  0.50408634  1
  Ta  Ta78  1  0.46066976  0.16380478  -0.00117232  1
  Ta  Ta79  1  0.54824003  0.16933047  0.49645813  1
  Ta  Ta80  1  0.49362536  0.54822974  -0.00093475  1
  Ta  Ta81  1  0.44409817  0.50175402  0.50393234  1
  Ta  Ta82  1  0.49666848  0.78206004  0.00158734  1
  Ta  Ta83  1  0.52430461  0.81302831  0.49522930  1
  Ta  Ta84  1  0.82007536  0.18433220  -0.00082517  1
  Ta  Ta85  1  0.79407489  0.16873906  0.49817242  1
  Ta  Ta86  1  0.83422751  0.45536048  -0.00744579  1
  Ta  Ta87  1  0.84121968  0.48932353  0.50406578  1
  Ta  Ta88  1  0.88228078  0.82590067  -0.00105745  1
  Ta  Ta89  1  0.82268039  0.79092260  0.49917650  1
  Ta  Ta90  1  0.15385526  0.19998944  0.24696595  1
  Ta  Ta91  1  0.13273241  0.16966516  0.74666990  1
  Ta  Ta92  1  0.16465638  0.46504141  0.25377946  1
  Ta  Ta93  1  0.12655381  0.50327004  0.74739804  1
  Ta  Ta94  1  0.17078907  0.80365710  0.25609438  1
  Ta  Ta95  1  0.20542926  0.83206662  0.74482102  1
  Ta  Ta96  1  0.50114499  0.10952254  0.24020442  1
  Ta  Ta97  1  0.49849717  0.22254684  0.75875502  1
  Ta  Ta98  1  0.54293287  0.49882312  0.24651169  1
  Ta  Ta99  1  0.49938442  0.45357894  0.75940033  1
  Ta  Ta100  1  0.50304166  0.87705772  0.24075642  1
  Ta  Ta101  1  0.48359436  0.82790265  0.75164495  1
  Ta  Ta102  1  0.84532601  0.13223175  0.24444348  1
  Ta  Ta103  1  0.84652467  0.12718085  0.75265602  1
  Ta  Ta104  1  0.78202699  0.49426655  0.24619720  1
  Ta  Ta105  1  0.88950086  0.49298583  0.75400869  1
  Ta  Ta106  1  0.85525170  0.80914451  0.25383313  1
  Ta  Ta107  1  0.81096417  0.84595034  0.74984696  1
  Ta  Ta108  1  -0.01556318  0.01360109  0.24977852  1
  Ta  Ta109  1  -0.00578871  0.02600273  0.74621152  1
  Ta  Ta110  1  0.03827325  0.33119347  0.25519604  1
  Ta  Ta111  1  0.00886212  0.36017164  0.74842218  1
  Ta  Ta112  1  -0.00251890  0.68743202  0.25602832  1
  Ta  Ta113  1  0.00179321  0.63095057  0.75354881  1
  Ta  Ta114  1  0.37650969  -0.00557174  0.24030925  1
  Ta  Ta115  1  0.34310344  -0.04856739  0.74913943  1
  Ta  Ta116  1  0.27557787  0.33177492  0.25688059  1
  Ta  Ta117  1  0.37471924  0.33297636  0.75653307  1
  Ta  Ta118  1  0.29890087  0.68164332  0.25608349  1
  Ta  Ta119  1  0.33337651  0.71442120  0.74939393  1
  Ta  Ta120  1  0.63803439  0.00373487  0.24138759  1
  Ta  Ta121  1  0.71510005  -0.00138557  0.75561095  1
  Ta  Ta122  1  0.66230359  0.38146342  0.24693490  1
  Ta  Ta123  1  0.62822189  0.34318953  0.75205476  1
  Ta  Ta124  1  0.66172422  0.62046403  0.24371849  1
  Ta  Ta125  1  0.66556233  0.72619075  0.75765962  1
  Ta  Ta126  1  0.00801227  -0.04720305  0.00237396  1
  Ta  Ta127  1  0.05419055  0.00560415  0.50223453  1
  Ta  Ta128  1  -0.04400869  0.33706227  -0.00521618  1
  Ta  Ta129  1  -0.03237391  0.35031042  0.50130633  1
  Ta  Ta130  1  0.00409665  0.70814029  -0.00199247  1
  Ta  Ta131  1  -0.04550668  0.67166130  0.50169014  1
  Ta  Ta132  1  0.33404887  0.03544309  -0.00393182  1
  Ta  Ta133  1  0.29605703  0.00150452  0.50696172  1
  Ta  Ta134  1  0.32823956  0.29024853  -0.00359257  1
  Ta  Ta135  1  0.33031085  0.37530632  0.49929484  1
  Ta  Ta136  1  0.35573271  0.65905230  -0.00382967  1
  Ta  Ta137  1  0.33320831  0.63318383  0.50304638  1
  Ta  Ta138  1  0.68541740  0.03313306  -0.00117741  1
  Ta  Ta139  1  0.66827216  0.04928410  0.49805460  1
  Ta  Ta140  1  0.72168300  0.32887183  -0.00245864  1
  Ta  Ta141  1  0.67481929  0.30370608  0.50390667  1
  Ta  Ta142  1  0.62518293  0.67242952  -0.00127887  1
  Ta  Ta143  1  0.66798527  0.69432991  0.50100894  1
  N  N144  1  0.50261053  0.49719127  0.88018026  1
  N  N145  1  0.33916807  -0.00338459  0.62339044  1
  N  N146  1  0.00148684  0.66982761  0.87450755  1
  N  N147  1  -0.00785992  0.66724670  0.38166096  1
  N  N148  1  0.49667776  0.15717685  0.12542426  1
  N  N149  1  0.16495504  0.49403696  0.12490093  1
  N  N150  1  0.17023567  0.83784527  0.62425135  1
  N  N151  1  0.33449157  0.67060595  0.63015185  1
  N  N152  1  0.84045817  0.49231979  0.86576464  1
  N  N153  1  -0.00520887  0.33267794  0.87799815  1
  N  N154  1  0.00054624  0.33659200  0.61997452  1
  N  N155  1  0.83010923  0.82279250  0.37346868  1
  N  N156  1  0.33488954  0.32784517  0.87802899  1
  N  N157  1  0.17402413  0.50429162  0.63115372  1
  N  N158  1  0.65898611  0.65879863  0.12494805  1
  N  N159  1  0.32177809  0.33660134  0.37309216  1
  N  N160  1  0.16873936  0.16989629  0.12448111  1
  N  N161  1  0.16458932  0.17205777  0.62813263  1
  N  N162  1  0.33783518  -0.00436244  0.86653645  1
  N  N163  1  0.67172169  0.00936510  0.87107246  1
  N  N164  1  0.66595425  0.68312470  0.87184848  1
  N  N165  1  -0.00115571  0.33442134  0.37329292  1
  N  N166  1  0.01061860  0.00305432  0.62594424  1
  N  N167  1  0.00124615  -0.00464661  0.12545385  1
  N  N168  1  0.84070309  0.15787157  0.12553535  1
  N  N169  1  0.33863393  -0.00276264  0.11880016  1
  N  N170  1  0.66594084  0.00032517  0.11891616  1
  N  N171  1  0.50122514  0.82865945  0.12473458  1
  N  N172  1  0.49895979  0.17812008  0.87547079  1
  N  N173  1  0.84175279  0.15936262  0.87144714  1
  N  N174  1  0.66195400  0.33739928  0.62481515  1
  N  N175  1  0.33673250  0.67106113  0.87392870  1
  N  N176  1  0.32660300  0.66679319  0.37574703  1
  O  O177  1  0.48864195  0.82163807  0.87746075  1
  O  O178  1  0.16065085  0.81895811  0.12729664  1
  O  O179  1  0.50292585  0.51119186  0.12332963  1
  O  O180  1  0.48493618  0.49346664  0.62612471  1
  O  O181  1  0.67449838  0.33615037  0.87515139  1
  O  O182  1  0.02011105  0.00663272  0.37212952  1
  O  O183  1  0.16546196  0.16672162  0.87315649  1
  O  O184  1  0.81681272  0.83927995  0.62045998  1
  O  O185  1  0.66304498  0.02141412  0.37470734  1
  O  O186  1  0.66399710  0.65904521  0.37861433  1
  O  O187  1  0.51874662  0.18253053  0.62269388  1
  O  O188  1  -0.01316603  0.66790433  0.62682887  1
  O  O189  1  0.84758354  0.83560571  0.86883315  1
  O  O190  1  0.32471661  0.66861184  0.13033969  1
  O  O191  1  0.17243416  0.49909971  0.37801023  1
  O  O192  1  0.50544003  0.82202318  0.61848721  1
  O  O193  1  0.68053463  0.33985503  0.12052323  1
  O  O194  1  0.16924370  0.83254030  0.37903650  1
  O  O195  1  0.67970980  0.02164681  0.62903295  1
  O  O196  1  0.81630875  0.16568892  0.37029380  1
  O  O197  1  0.15806953  0.83277466  0.87256084  1
  O  O198  1  0.83508945  0.49279428  0.63148357  1
  O  O199  1  0.33581344  -0.00624479  0.37837718  1
  O  O200  1  0.80888934  0.48924260  0.38121109  1
  O  O201  1  0.32553918  0.32560104  0.13462682  1
  O  O202  1  0.81233498  0.49556297  0.11790638  1
  O  O203  1  -0.00454917  0.34161529  0.12919271  1
  O  O204  1  0.84598797  0.81807801  0.12013506  1
  O  O205  1  0.82316678  0.15921421  0.62197814  1
  O  O206  1  0.16260339  0.16508163  0.37730408  1
  O  O207  1  0.51932072  0.15571266  0.37144936  1
  O  O208  1  0.51402306  0.83751560  0.37009508  1
  O  O209  1  0.49556647  0.50236716  0.38205249  1
  O  O210  1  0.66841359  0.34420923  0.37985299  1
  O  O211  1  0.00570406  0.66792117  0.12384672  1
  O  O212  1  0.16570899  0.50124152  0.87391375  1
  O  O213  1  0.66440513  0.69117458  0.63209816  1
  O  O214  1  0.00624827  -0.00967515  0.87739666  1
  O  O215  1  0.33716524  0.33330624  0.62347687  1
