# generated using pymatgen
data_Sr24Ta24N11O13
_symmetry_space_group_name_H-M   'P 1'
_cell_length_a   16.72164634
_cell_length_b   16.86747253
_cell_length_c   15.63858339
_cell_angle_alpha   90.37395802
_cell_angle_beta   90.11120829
_cell_angle_gamma   89.70817463
_symmetry_Int_Tables_number   1
_chemical_formula_structural   Sr24Ta24N11O13
_chemical_formula_sum   'Sr72 Ta72 N33 O39'
_cell_volume   4410.73313089
_cell_formula_units_Z   3
loop_
 _symmetry_equiv_pos_site_id
 _symmetry_equiv_pos_as_xyz
  1  'x, y, z'
loop_
 _atom_site_type_symbol
 _atom_site_label
 _atom_site_symmetry_multiplicity
 _atom_site_fract_x
 _atom_site_fract_y
 _atom_site_fract_z
 _atom_site_occupancy
  Sr  Sr0  1  0.00954481  0.17167735  0.14504167  1
  Sr  Sr1  1  -0.01010869  0.17326064  0.58403750  1
  Sr  Sr2  1  -0.01215975  0.50903571  0.18363941  1
  Sr  Sr3  1  0.00256244  0.50200352  0.62171175  1
  Sr  Sr4  1  0.00253626  0.82710493  0.09898895  1
  Sr  Sr5  1  0.01962896  0.84400731  0.66895231  1
  Sr  Sr6  1  0.33182764  0.17678583  0.09639319  1
  Sr  Sr7  1  0.32782809  0.17809472  0.63451962  1
  Sr  Sr8  1  0.33507062  0.49332268  0.13522318  1
  Sr  Sr9  1  0.32077749  0.52551245  0.58525927  1
  Sr  Sr10  1  0.34368931  0.85793339  0.11299279  1
  Sr  Sr11  1  0.34180596  0.83587190  0.62376408  1
  Sr  Sr12  1  0.66988099  0.17351729  0.11451150  1
  Sr  Sr13  1  0.67655333  0.18123593  0.66487410  1
  Sr  Sr14  1  0.68214808  0.50073784  0.08102592  1
  Sr  Sr15  1  0.64701472  0.50873940  0.62520156  1
  Sr  Sr16  1  0.66804022  0.80719156  0.17496490  1
  Sr  Sr17  1  0.67585973  0.84872445  0.61044311  1
  Sr  Sr18  1  0.15111952  -0.02064385  0.13269223  1
  Sr  Sr19  1  0.17526084  -0.01018171  0.67063054  1
  Sr  Sr20  1  0.17051098  0.31343556  0.10172887  1
  Sr  Sr21  1  0.16291782  0.31732331  0.62928463  1
  Sr  Sr22  1  0.16402869  0.63256524  0.14997314  1
  Sr  Sr23  1  0.15128534  0.66016112  0.61668930  1
  Sr  Sr24  1  0.52078084  0.01073691  0.13238055  1
  Sr  Sr25  1  0.48524628  -0.00425756  0.56745221  1
  Sr  Sr26  1  0.49370340  0.33469592  0.16690817  1
  Sr  Sr27  1  0.49961539  0.35873175  0.60305868  1
  Sr  Sr28  1  0.49003459  0.65735621  0.11168027  1
  Sr  Sr29  1  0.51442121  0.68983938  0.67470042  1
  Sr  Sr30  1  0.84213196  -0.02673608  0.08583167  1
  Sr  Sr31  1  0.83140831  0.00639970  0.63441996  1
  Sr  Sr32  1  0.83602961  0.31936065  0.12215739  1
  Sr  Sr33  1  0.83803744  0.32674621  0.63748877  1
  Sr  Sr34  1  0.83591132  0.66560883  0.13219006  1
  Sr  Sr35  1  0.81508022  0.63346979  0.56441081  1
  Sr  Sr36  1  0.00392564  0.14821291  0.36856115  1
  Sr  Sr37  1  0.00293922  0.21177307  0.92096963  1
  Sr  Sr38  1  -0.00280770  0.53690436  0.38967883  1
  Sr  Sr39  1  -0.00060505  0.49139813  0.83310302  1
  Sr  Sr40  1  0.01407619  0.84570024  0.37285189  1
  Sr  Sr41  1  -0.01392688  0.81938476  0.88678620  1
  Sr  Sr42  1  0.34622279  0.17174375  0.41465317  1
  Sr  Sr43  1  0.31981764  0.17280332  0.86215405  1
  Sr  Sr44  1  0.34371646  0.51243497  0.35491166  1
  Sr  Sr45  1  0.30973564  0.50565310  0.91202342  1
  Sr  Sr46  1  0.33332652  0.85360771  0.38750567  1
  Sr  Sr47  1  0.36376949  0.84385811  0.88431959  1
  Sr  Sr48  1  0.65816080  0.18528149  0.32821398  1
  Sr  Sr49  1  0.67673268  0.16003461  0.88266856  1
  Sr  Sr50  1  0.66484512  0.49532176  0.41640191  1
  Sr  Sr51  1  0.64467807  0.51779329  0.86641425  1
  Sr  Sr52  1  0.67609998  0.84375223  0.38763820  1
  Sr  Sr53  1  0.65885635  0.82412722  0.82650149  1
  Sr  Sr54  1  0.15831625  -0.01383807  0.34149159  1
  Sr  Sr55  1  0.15966190  -0.03212075  0.87139846  1
  Sr  Sr56  1  0.16220201  0.28486630  0.40319004  1
  Sr  Sr57  1  0.17271550  0.33695935  0.87542897  1
  Sr  Sr58  1  0.18155525  0.66297362  0.39855775  1
  Sr  Sr59  1  0.13087021  0.64907998  0.86133596  1
  Sr  Sr60  1  0.52268807  0.00311432  0.36186623  1
  Sr  Sr61  1  0.49085193  0.01185707  0.92135720  1
  Sr  Sr62  1  0.50071589  0.34532938  0.38417948  1
  Sr  Sr63  1  0.49886523  0.30000099  0.81497597  1
  Sr  Sr64  1  0.50530005  0.67665596  0.33492138  1
  Sr  Sr65  1  0.48372723  0.66710945  0.88799419  1
  Sr  Sr66  1  0.85106768  -0.00237017  0.41415066  1
  Sr  Sr67  1  0.82643638  -0.02114373  0.85448084  1
  Sr  Sr68  1  0.84009939  0.30186221  0.34607062  1
  Sr  Sr69  1  0.82215236  0.33391555  0.88604831  1
  Sr  Sr70  1  0.82497848  0.67329327  0.36122500  1
  Sr  Sr71  1  0.83045071  0.64966387  0.90703623  1
  Ta  Ta72  1  0.15974707  0.12611783  0.00025386  1
  Ta  Ta73  1  0.16471082  0.11274853  0.50595093  1
  Ta  Ta74  1  0.12617193  0.49552729  0.01039042  1
  Ta  Ta75  1  0.16014610  0.46142667  0.48324176  1
  Ta  Ta76  1  0.18415193  0.80460936  -0.00937138  1
  Ta  Ta77  1  0.16223672  0.85471543  0.51215557  1
  Ta  Ta78  1  0.49955889  0.20299970  0.00095068  1
  Ta  Ta79  1  0.54542859  0.17381413  0.49743841  1
  Ta  Ta80  1  0.49404178  0.46956389  0.00154313  1
  Ta  Ta81  1  0.49327566  0.55287845  0.49751256  1
  Ta  Ta82  1  0.56400210  0.83629992  0.00106344  1
  Ta  Ta83  1  0.50666094  0.80431466  0.49916073  1
  Ta  Ta84  1  0.85104745  0.13638740  -0.00277135  1
  Ta  Ta85  1  0.79883261  0.17300558  0.50453168  1
  Ta  Ta86  1  0.87723227  0.49225731  0.00985566  1
  Ta  Ta87  1  0.83938615  0.45162791  0.48538142  1
  Ta  Ta88  1  0.77127273  0.82099923  -0.00677862  1
  Ta  Ta89  1  0.86864851  0.82709761  0.51465790  1
  Ta  Ta90  1  0.20371711  0.16091048  0.25180496  1
  Ta  Ta91  1  0.11860241  0.16294387  0.75391776  1
  Ta  Ta92  1  0.16814503  0.44402319  0.27222815  1
  Ta  Ta93  1  0.19797522  0.49595793  0.73552905  1
  Ta  Ta94  1  0.17433136  0.80345187  0.25370938  1
  Ta  Ta95  1  0.20303298  0.79829694  0.76269257  1
  Ta  Ta96  1  0.46104300  0.16536990  0.25203193  1
  Ta  Ta97  1  0.49941122  0.10638710  0.74177436  1
  Ta  Ta98  1  0.53838412  0.50454092  0.25033751  1
  Ta  Ta99  1  0.45000419  0.50660681  0.74597554  1
  Ta  Ta100  1  0.48023744  0.84116639  0.25150948  1
  Ta  Ta101  1  0.50170362  0.89934299  0.74098375  1
  Ta  Ta102  1  0.83643859  0.11375351  0.24068822  1
  Ta  Ta103  1  0.87656324  0.16640560  0.75883047  1
  Ta  Ta104  1  0.80044183  0.49114355  0.25876667  1
  Ta  Ta105  1  0.81771823  0.50671448  0.73727809  1
  Ta  Ta106  1  0.85065420  0.85521336  0.25101295  1
  Ta  Ta107  1  0.83539478  0.79116903  0.74761424  1
  Ta  Ta108  1  -0.03804337  -0.01155306  0.23708562  1
  Ta  Ta109  1  -0.00042808  0.04958146  0.76803415  1
  Ta  Ta110  1  0.02667378  0.34237618  0.26935009  1
  Ta  Ta111  1  0.00043569  0.30391687  0.74317758  1
  Ta  Ta112  1  0.00542286  0.70339724  0.24972192  1
  Ta  Ta113  1  -0.06536237  0.66201659  0.73532477  1
  Ta  Ta114  1  0.34144569  0.03097485  0.25094716  1
  Ta  Ta115  1  0.36615430  0.00294315  0.75067064  1
  Ta  Ta116  1  0.30890100  0.31348488  0.25582680  1
  Ta  Ta117  1  0.33237677  0.38385110  0.74401558  1
  Ta  Ta118  1  0.32967653  0.71070941  0.24868986  1
  Ta  Ta119  1  0.31679988  0.65180788  0.74900556  1
  Ta  Ta120  1  0.71946123  -0.00714749  0.25067315  1
  Ta  Ta121  1  0.63212241  0.00605949  0.74069443  1
  Ta  Ta122  1  0.67029313  0.38111582  0.25059228  1
  Ta  Ta123  1  0.67508452  0.36297071  0.74361986  1
  Ta  Ta124  1  0.66699204  0.61262959  0.24877588  1
  Ta  Ta125  1  0.72164321  0.66174542  0.73490840  1
  Ta  Ta126  1  0.00352110  0.02929857  -0.00983006  1
  Ta  Ta127  1  0.03559008  -0.01277539  0.51402799  1
  Ta  Ta128  1  0.00422309  0.38975803  0.01243721  1
  Ta  Ta129  1  -0.00499381  0.35491928  0.48870037  1
  Ta  Ta130  1  0.00252167  0.60986671  0.01124497  1
  Ta  Ta131  1  -0.01554405  0.71150556  0.51363326  1
  Ta  Ta132  1  0.29966613  0.01383384  -0.00492971  1
  Ta  Ta133  1  0.28121168  0.00124329  0.50283615  1
  Ta  Ta134  1  0.39058412  0.33790629  -0.00721658  1
  Ta  Ta135  1  0.31301201  0.36039355  0.48876286  1
  Ta  Ta136  1  0.29476217  0.68783331  -0.00137428  1
  Ta  Ta137  1  0.38823742  0.68513536  0.49909506  1
  Ta  Ta138  1  0.67353093  -0.03517586  -0.00356666  1
  Ta  Ta139  1  0.67274715  0.05268690  0.50046771  1
  Ta  Ta140  1  0.60104920  0.33831688  -0.00593838  1
  Ta  Ta141  1  0.68419640  0.31040527  0.49571210  1
  Ta  Ta142  1  0.65921444  0.69581313  -0.00432320  1
  Ta  Ta143  1  0.62322694  0.67723968  0.49956809  1
  N  N144  1  0.81827433  0.82075032  0.87612675  1
  N  N145  1  -0.00602153  0.65933949  0.62771277  1
  N  N146  1  0.48566611  0.51841922  0.62857755  1
  N  N147  1  0.50746471  0.84922082  0.62527174  1
  N  N148  1  -0.00193753  0.65994662  0.13482261  1
  N  N149  1  0.16633716  0.15286882  0.12320343  1
  N  N150  1  0.33008822  0.00094371  0.87650473  1
  N  N151  1  0.50560139  0.17380705  0.37888906  1
  N  N152  1  -0.00136285  0.29619943  0.37997898  1
  N  N153  1  0.17492190  0.82558168  0.63603561  1
  N  N154  1  0.14178633  0.81491814  0.86738084  1
  N  N155  1  0.50067219  0.51024964  0.37810976  1
  N  N156  1  0.66913484  0.00929742  0.61620265  1
  N  N157  1  0.17330055  0.82579790  0.37666062  1
  N  N158  1  0.16890434  0.13912022  0.36972262  1
  N  N159  1  0.00314648  0.33017620  0.62233458  1
  N  N160  1  0.83636611  0.49461654  0.13128057  1
  N  N161  1  0.66739044  0.67375558  0.62492253  1
  N  N162  1  0.49655141  0.17346466  0.12890068  1
  N  N163  1  0.16880245  0.51525590  0.36995590  1
  N  N164  1  0.66801827  0.33764138  0.36845510  1
  N  N165  1  0.16480448  0.49255038  0.61643471  1
  N  N166  1  0.83180266  0.17398629  0.87550742  1
  N  N167  1  0.83392220  0.16519332  0.62560535  1
  N  N168  1  0.82805891  0.48781186  0.61445713  1
  N  N169  1  0.49852729  0.50020720  0.12442895  1
  N  N170  1  0.83423497  0.16024012  0.12461357  1
  N  N171  1  -0.00263628  -0.00198085  0.11567515  1
  N  N172  1  0.34694706  0.33769596  0.37087865  1
  N  N173  1  0.66203871  0.34593645  0.62262280  1
  N  N174  1  0.83607086  0.51611251  0.38410466  1
  N  N175  1  0.15669211  0.15501069  0.63559160  1
  N  N176  1  0.50797041  0.84530517  0.37103869  1
  O  O177  1  0.15726582  0.49407299  0.86684067  1
  O  O178  1  0.33586936  0.01293957  0.12289198  1
  O  O179  1  0.81851531  0.82520508  0.12511269  1
  O  O180  1  0.68671587  -0.01825320  0.12876730  1
  O  O181  1  0.84820832  0.85487717  0.63731723  1
  O  O182  1  -0.01120457  0.68873793  0.37987137  1
  O  O183  1  0.34403699  0.33531090  0.11783020  1
  O  O184  1  0.00007163  -0.02514608  0.86975856  1
  O  O185  1  0.32570844  0.00229705  0.62404656  1
  O  O186  1  0.34105022  0.35477497  0.87319583  1
  O  O187  1  0.34146282  0.69324286  0.37777138  1
  O  O188  1  0.33123327  0.69302082  0.12220191  1
  O  O189  1  0.48730292  0.51729963  0.87431783  1
  O  O190  1  0.51590891  0.85965629  0.87886349  1
  O  O191  1  0.00805647  0.34644198  0.13929256  1
  O  O192  1  0.52200836  0.84140615  0.12496471  1
  O  O193  1  0.85449954  0.84161887  0.38683281  1
  O  O194  1  0.66782406  -0.00771442  0.87170365  1
  O  O195  1  0.66314213  0.66169698  0.37076607  1
  O  O196  1  0.16105608  0.18604520  0.88490788  1
  O  O197  1  0.83985728  0.15120742  0.37435545  1
  O  O198  1  0.34396274  0.67451996  0.62669549  1
  O  O199  1  0.49950029  0.15664024  0.87605253  1
  O  O200  1  0.64673590  0.34804625  0.11610547  1
  O  O201  1  0.49974950  0.14551570  0.61827258  1
  O  O202  1  0.15962272  0.48061229  0.14096273  1
  O  O203  1  0.16135624  0.82492967  0.11749971  1
  O  O204  1  -0.02201092  0.64136329  0.86379389  1
  O  O205  1  0.32413983  0.65456543  0.88175228  1
  O  O206  1  0.64037985  0.35191271  0.86884183  1
  O  O207  1  0.69571325  -0.00156419  0.37840343  1
  O  O208  1  0.33631447  0.36021818  0.61745742  1
  O  O209  1  0.00521354  -0.00669639  0.38229931  1
  O  O210  1  0.67596067  0.66872954  0.85908708  1
  O  O211  1  0.66228030  0.65617231  0.12453882  1
  O  O212  1  0.84370966  0.49259051  0.88009794  1
  O  O213  1  0.01510625  -0.00043448  0.64046503  1
  O  O214  1  0.32343869  0.01002232  0.37510170  1
  O  O215  1  0.00970085  0.34944361  0.87039418  1
