# generated using pymatgen
data_Sr24Ta24N11O13
_symmetry_space_group_name_H-M   'P 1'
_cell_length_a   16.67940247
_cell_length_b   16.96555174
_cell_length_c   15.67034706
_cell_angle_alpha   89.64612866
_cell_angle_beta   89.96784340
_cell_angle_gamma   89.75643798
_symmetry_Int_Tables_number   1
_chemical_formula_structural   Sr24Ta24N11O13
_chemical_formula_sum   'Sr72 Ta72 N33 O39'
_cell_volume   4434.19534692
_cell_formula_units_Z   3
loop_
 _symmetry_equiv_pos_site_id
 _symmetry_equiv_pos_as_xyz
  1  'x, y, z'
loop_
 _atom_site_type_symbol
 _atom_site_label
 _atom_site_symmetry_multiplicity
 _atom_site_fract_x
 _atom_site_fract_y
 _atom_site_fract_z
 _atom_site_occupancy
  Sr  Sr0  1  -0.01880964  0.15637913  0.17054919  1
  Sr  Sr1  1  0.00759685  0.16640241  0.61502444  1
  Sr  Sr2  1  0.00580485  0.48507290  0.13920402  1
  Sr  Sr3  1  -0.00119210  0.50015599  0.58923903  1
  Sr  Sr4  1  -0.01557620  0.82281870  0.10951663  1
  Sr  Sr5  1  0.00607734  0.80790790  0.67043750  1
  Sr  Sr6  1  0.34370340  0.17124678  0.12096206  1
  Sr  Sr7  1  0.34008552  0.12400199  0.66083295  1
  Sr  Sr8  1  0.32836209  0.48225814  0.10784473  1
  Sr  Sr9  1  0.32916686  0.49010278  0.64068032  1
  Sr  Sr10  1  0.32796076  0.80082287  0.12210259  1
  Sr  Sr11  1  0.32147065  0.82418822  0.59642166  1
  Sr  Sr12  1  0.68447044  0.15794374  0.07289781  1
  Sr  Sr13  1  0.66847823  0.15946706  0.62092715  1
  Sr  Sr14  1  0.66585889  0.50551641  0.11961596  1
  Sr  Sr15  1  0.68341000  0.48640686  0.65532917  1
  Sr  Sr16  1  0.65499515  0.84974154  0.17356862  1
  Sr  Sr17  1  0.67938861  0.82591978  0.61414637  1
  Sr  Sr18  1  0.16956409  0.04188332  0.14214827  1
  Sr  Sr19  1  0.16007680  0.00161728  0.61992759  1
  Sr  Sr20  1  0.17527993  0.34840026  0.09199543  1
  Sr  Sr21  1  0.16890165  0.36199711  0.61246371  1
  Sr  Sr22  1  0.14602216  0.68133740  0.13529910  1
  Sr  Sr23  1  0.18144242  0.67711917  0.65680672  1
  Sr  Sr24  1  0.49732218  0.01907803  0.11057587  1
  Sr  Sr25  1  0.51314400  0.00323202  0.66162042  1
  Sr  Sr26  1  0.49268625  0.34114898  0.16130429  1
  Sr  Sr27  1  0.50649308  0.34782945  0.60266566  1
  Sr  Sr28  1  0.50702296  0.67634494  0.13765501  1
  Sr  Sr29  1  0.49600337  0.70722209  0.58109427  1
  Sr  Sr30  1  0.83817881  -0.01476437  0.13512595  1
  Sr  Sr31  1  0.82862907  0.01352644  0.57993439  1
  Sr  Sr32  1  0.83305362  0.34199459  0.11269543  1
  Sr  Sr33  1  0.83871170  0.32112248  0.66654768  1
  Sr  Sr34  1  0.82500045  0.66964439  0.09274012  1
  Sr  Sr35  1  0.82631540  0.66885657  0.63614479  1
  Sr  Sr36  1  0.00894051  0.15363048  0.38725568  1
  Sr  Sr37  1  0.00368894  0.17091953  0.83234730  1
  Sr  Sr38  1  0.00360011  0.49879276  0.37147620  1
  Sr  Sr39  1  0.00929783  0.45682851  0.91752144  1
  Sr  Sr40  1  -0.00069040  0.81703293  0.34620587  1
  Sr  Sr41  1  -0.00629036  0.84006014  0.88831472  1
  Sr  Sr42  1  0.34572786  0.15486675  0.33748426  1
  Sr  Sr43  1  0.32781170  0.15572115  0.89051561  1
  Sr  Sr44  1  0.33673535  0.46283842  0.40995255  1
  Sr  Sr45  1  0.32220286  0.49648731  0.85772442  1
  Sr  Sr46  1  0.32345899  0.81298662  0.38516325  1
  Sr  Sr47  1  0.33420784  0.81069183  0.90272095  1
  Sr  Sr48  1  0.65964493  0.16754571  0.40949367  1
  Sr  Sr49  1  0.67342624  0.15464257  0.87375595  1
  Sr  Sr50  1  0.65943396  0.48217440  0.35440903  1
  Sr  Sr51  1  0.66944686  0.51377706  0.88066149  1
  Sr  Sr52  1  0.67174384  0.82058351  0.39060981  1
  Sr  Sr53  1  0.65235119  0.83934687  0.83612459  1
  Sr  Sr54  1  0.17512477  0.01086730  0.39133801  1
  Sr  Sr55  1  0.15840159  0.02699470  0.84609240  1
  Sr  Sr56  1  0.16175035  0.34518326  0.40888137  1
  Sr  Sr57  1  0.18463486  0.34737266  0.88158338  1
  Sr  Sr58  1  0.15796903  0.67567332  0.34933296  1
  Sr  Sr59  1  0.15425264  0.69469638  0.87657575  1
  Sr  Sr60  1  0.49765570  0.01866738  0.34278114  1
  Sr  Sr61  1  0.50137449  0.01194919  0.87892464  1
  Sr  Sr62  1  0.49973444  0.32322888  0.37984996  1
  Sr  Sr63  1  0.49193705  0.37061795  0.82899065  1
  Sr  Sr64  1  0.50803708  0.68536974  0.36265652  1
  Sr  Sr65  1  0.49087215  0.66301561  0.92045270  1
  Sr  Sr66  1  0.83933384  -0.00226856  0.36439490  1
  Sr  Sr67  1  0.83946635  0.00015966  0.91137287  1
  Sr  Sr68  1  0.85132000  0.34420850  0.32582386  1
  Sr  Sr69  1  0.81910097  0.32501475  0.88280481  1
  Sr  Sr70  1  0.83544343  0.65223692  0.41810177  1
  Sr  Sr71  1  0.81493064  0.68385330  0.85894482  1
  Ta  Ta72  1  0.13284737  0.17230341  -0.00680614  1
  Ta  Ta73  1  0.21141180  0.17208447  0.50498594  1
  Ta  Ta74  1  0.16464727  0.53831217  0.00017873  1
  Ta  Ta75  1  0.17223926  0.54933434  0.50669394  1
  Ta  Ta76  1  0.16562865  0.89001411  -0.00005392  1
  Ta  Ta77  1  0.13065301  0.82513785  0.50740207  1
  Ta  Ta78  1  0.50571820  0.21939736  -0.00593081  1
  Ta  Ta79  1  0.47205903  0.14392308  0.50123069  1
  Ta  Ta80  1  0.49294880  0.47422643  -0.00523682  1
  Ta  Ta81  1  0.50600361  0.53038132  0.50779464  1
  Ta  Ta82  1  0.52665977  0.84314142  0.00795693  1
  Ta  Ta83  1  0.49838075  0.88922157  0.48983932  1
  Ta  Ta84  1  0.87953244  0.16484780  -0.00529180  1
  Ta  Ta85  1  0.83497447  0.20958644  0.49914759  1
  Ta  Ta86  1  0.84930830  0.51332878  0.00142319  1
  Ta  Ta87  1  0.82168098  0.46362119  0.49523450  1
  Ta  Ta88  1  0.78176776  0.83402537  0.00473336  1
  Ta  Ta89  1  0.87840699  0.83079368  0.50664493  1
  Ta  Ta90  1  0.17206573  0.21179462  0.25028225  1
  Ta  Ta91  1  0.18120396  0.21116535  0.74425568  1
  Ta  Ta92  1  0.18802382  0.48746395  0.25042369  1
  Ta  Ta93  1  0.12134134  0.50825251  0.75621571  1
  Ta  Ta94  1  0.16878806  0.86563632  0.24727567  1
  Ta  Ta95  1  0.19234922  0.85572352  0.75619559  1
  Ta  Ta96  1  0.55923055  0.17503722  0.23379859  1
  Ta  Ta97  1  0.50656863  0.19602410  0.74967446  1
  Ta  Ta98  1  0.46799797  0.51487126  0.25400826  1
  Ta  Ta99  1  0.49985466  0.55342871  0.74832615  1
  Ta  Ta100  1  0.46978902  0.85862623  0.25226886  1
  Ta  Ta101  1  0.47290092  0.82035268  0.74978636  1
  Ta  Ta102  1  0.78252253  0.16717182  0.24779983  1
  Ta  Ta103  1  0.83208762  0.13058777  0.74675410  1
  Ta  Ta104  1  0.83281848  0.53674403  0.24926709  1
  Ta  Ta105  1  0.88740923  0.49535189  0.75664903  1
  Ta  Ta106  1  0.82904522  0.78839372  0.25218321  1
  Ta  Ta107  1  0.83389012  0.87863021  0.74565550  1
  Ta  Ta108  1  0.02599107  -0.02553303  0.25403788  1
  Ta  Ta109  1  -0.03929754  -0.00403006  0.74731188  1
  Ta  Ta110  1  0.04548969  0.32377951  0.25074212  1
  Ta  Ta111  1  0.01741887  0.35363522  0.74268641  1
  Ta  Ta112  1  -0.04376665  0.65546099  0.24771833  1
  Ta  Ta113  1  -0.00612076  0.62082958  0.76048662  1
  Ta  Ta114  1  0.32363317  -0.03807134  0.24951505  1
  Ta  Ta115  1  0.33328032  -0.05199071  0.75425337  1
  Ta  Ta116  1  0.30472540  0.33617202  0.25326458  1
  Ta  Ta117  1  0.33306895  0.29865106  0.73284767  1
  Ta  Ta118  1  0.33215620  0.61606788  0.25457643  1
  Ta  Ta119  1  0.37705093  0.67548917  0.74609844  1
  Ta  Ta120  1  0.66827335  0.04077443  0.24010938  1
  Ta  Ta121  1  0.71006762  0.00115110  0.75217387  1
  Ta  Ta122  1  0.67371572  0.29658423  0.23984936  1
  Ta  Ta123  1  0.65046623  0.30687405  0.75354147  1
  Ta  Ta124  1  0.70181417  0.66254319  0.25724345  1
  Ta  Ta125  1  0.61082624  0.67140826  0.75135323  1
  Ta  Ta126  1  0.01845953  0.03256004  -0.00564187  1
  Ta  Ta127  1  0.00205463  -0.05076779  0.50015232  1
  Ta  Ta128  1  0.00085030  0.28107209  0.00762695  1
  Ta  Ta129  1  -0.03887035  0.32879252  0.49503063  1
  Ta  Ta130  1  -0.00736234  0.63329018  -0.00237595  1
  Ta  Ta131  1  0.01901035  0.68385424  0.49979423  1
  Ta  Ta132  1  0.31271194  -0.02117158  0.00642755  1
  Ta  Ta133  1  0.35942120  0.01085580  0.49387892  1
  Ta  Ta134  1  0.37333932  0.33208796  -0.00242598  1
  Ta  Ta135  1  0.33811098  0.27595733  0.50747166  1
  Ta  Ta136  1  0.30896755  0.63677643  -0.00047724  1
  Ta  Ta137  1  0.32432920  0.63649958  0.50403788  1
  Ta  Ta138  1  0.66430297  -0.04012986  -0.00093348  1
  Ta  Ta139  1  0.63454513  -0.00666942  0.49617133  1
  Ta  Ta140  1  0.62065693  0.34190971  -0.00775902  1
  Ta  Ta141  1  0.71311819  0.33586300  0.49820727  1
  Ta  Ta142  1  0.65927683  0.71856916  0.00061057  1
  Ta  Ta143  1  0.65541117  0.62245911  0.50316641  1
  N  N144  1  0.51674613  0.17823814  0.11266408  1
  N  N145  1  0.16741409  0.18526301  0.87054164  1
  N  N146  1  0.66182385  0.34545665  0.87058463  1
  N  N147  1  0.82009242  0.82591714  0.13018295  1
  N  N148  1  0.64530316  0.68428052  0.87220761  1
  N  N149  1  0.00455291  0.32053639  0.12714503  1
  N  N150  1  0.00453071  0.32980899  0.37500129  1
  N  N151  1  0.33731496  0.31417014  0.37343569  1
  N  N152  1  0.67015115  0.00505956  0.11914215  1
  N  N153  1  0.33977572  0.66682569  0.62614103  1
  N  N154  1  0.00272109  -0.00950705  0.37633748  1
  N  N155  1  -0.00085264  0.00775755  0.87225836  1
  N  N156  1  0.00023815  0.33534578  0.62219045  1
  N  N157  1  0.16211241  0.83444119  0.62906342  1
  N  N158  1  0.83831525  0.83162728  0.62545162  1
  N  N159  1  0.66997606  0.65263747  0.37999531  1
  N  N160  1  0.33041047  -0.00521567  0.37243803  1
  N  N161  1  0.16165594  0.50386885  0.87502500  1
  N  N162  1  0.16579558  0.50489107  0.13120804  1
  N  N163  1  0.16128392  0.51639536  0.62535942  1
  N  N164  1  0.49598994  0.51478811  0.87728002  1
  N  N165  1  0.49757617  0.83728523  0.12885935  1
  N  N166  1  0.33950119  0.32812348  0.11890416  1
  N  N167  1  0.15556078  0.85289667  0.88264512  1
  N  N168  1  0.83626753  0.16867969  0.61957608  1
  N  N169  1  0.83206432  0.49391190  0.37478209  1
  N  N170  1  0.83055532  0.49897204  0.12207476  1
  N  N171  1  0.84154054  0.16293036  0.87504898  1
  N  N172  1  -0.00279814  0.66299897  0.37901109  1
  N  N173  1  0.34478617  0.33805519  0.61346401  1
  N  N174  1  0.49868049  0.83824161  0.37859464  1
  N  N175  1  -0.00876598  0.66049474  0.11778869  1
  N  N176  1  0.67051509  -0.00204695  0.87068479  1
  O  O177  1  0.66246509  0.67550501  0.12541517  1
  O  O178  1  0.81604261  0.16839151  0.37321913  1
  O  O179  1  0.00472903  0.31828481  0.87173601  1
  O  O180  1  0.84315773  0.48472899  0.63463648  1
  O  O181  1  0.32298139  0.01546722  0.12786143  1
  O  O182  1  0.66381665  -0.00434079  0.62255813  1
  O  O183  1  0.49334356  0.51861925  0.37843566  1
  O  O184  1  -0.00150662  -0.00588635  0.62311317  1
  O  O185  1  0.16686784  0.84033054  0.37565162  1
  O  O186  1  0.83622179  0.81938073  0.38212843  1
  O  O187  1  0.49625597  0.50071457  0.62937817  1
  O  O188  1  0.66870482  0.32912833  0.11207997  1
  O  O189  1  0.01240470  0.01039008  0.13109508  1
  O  O190  1  0.50866096  0.16886547  0.37529135  1
  O  O191  1  0.48723221  0.49869571  0.12870699  1
  O  O192  1  0.16368950  0.50409148  0.38440043  1
  O  O193  1  0.17379127  0.19056180  0.11890131  1
  O  O194  1  0.84570074  0.48036485  0.87273370  1
  O  O195  1  0.18418196  0.15171728  0.63181149  1
  O  O196  1  0.48640777  0.85006511  0.62083677  1
  O  O197  1  0.49807828  0.16896377  0.87147175  1
  O  O198  1  0.16240474  0.83991491  0.12246951  1
  O  O199  1  0.68782099  0.32342254  0.37268480  1
  O  O200  1  0.65430986  0.01106578  0.37259172  1
  O  O201  1  0.49119976  0.83064626  0.87603054  1
  O  O202  1  0.32252942  0.64256463  0.12635095  1
  O  O203  1  0.33291879  0.65644234  0.87347305  1
  O  O204  1  0.34199813  0.32827381  0.86287773  1
  O  O205  1  0.33980834  -0.02351078  0.62725628  1
  O  O206  1  0.66354649  0.66858859  0.62388839  1
  O  O207  1  -0.00925451  0.67993841  0.87167701  1
  O  O208  1  -0.01020859  0.65639882  0.63093322  1
  O  O209  1  0.34150329  -0.03199376  0.88503663  1
  O  O210  1  0.33268909  0.64889327  0.37314231  1
  O  O211  1  0.82318554  0.83721161  0.87005079  1
  O  O212  1  0.18771067  0.18134650  0.38025362  1
  O  O213  1  0.68353205  0.33070899  0.62888507  1
  O  O214  1  0.83188979  0.16407142  0.12580809  1
  O  O215  1  0.50729500  0.16859663  0.62181876  1
