# generated using pymatgen
data_Sr24Ta24N11O13
_symmetry_space_group_name_H-M   'P 1'
_cell_length_a   16.75556450
_cell_length_b   16.76907751
_cell_length_c   15.71273735
_cell_angle_alpha   89.89621013
_cell_angle_beta   89.89741332
_cell_angle_gamma   89.93756628
_symmetry_Int_Tables_number   1
_chemical_formula_structural   Sr24Ta24N11O13
_chemical_formula_sum   'Sr72 Ta72 N33 O39'
_cell_volume   4414.87510461
_cell_formula_units_Z   3
loop_
 _symmetry_equiv_pos_site_id
 _symmetry_equiv_pos_as_xyz
  1  'x, y, z'
loop_
 _atom_site_type_symbol
 _atom_site_label
 _atom_site_symmetry_multiplicity
 _atom_site_fract_x
 _atom_site_fract_y
 _atom_site_fract_z
 _atom_site_occupancy
  Sr  Sr0  1  -0.00416294  0.16633758  0.13245206  1
  Sr  Sr1  1  0.01506390  0.20013741  0.57971560  1
  Sr  Sr2  1  0.01217606  0.51215881  0.10726641  1
  Sr  Sr3  1  -0.02199113  0.50302420  0.67461273  1
  Sr  Sr4  1  0.03234236  0.83941231  0.14033801  1
  Sr  Sr5  1  -0.00569522  0.83424748  0.60955562  1
  Sr  Sr6  1  0.34948730  0.17817901  0.11676916  1
  Sr  Sr7  1  0.32657293  0.17383797  0.64047701  1
  Sr  Sr8  1  0.33411890  0.51406336  0.16413484  1
  Sr  Sr9  1  0.34089192  0.50166261  0.61153175  1
  Sr  Sr10  1  0.34329961  0.81430251  0.08454290  1
  Sr  Sr11  1  0.33505103  0.83636558  0.62914396  1
  Sr  Sr12  1  0.68979465  0.15732995  0.09425521  1
  Sr  Sr13  1  0.67010826  0.16884812  0.63450095  1
  Sr  Sr14  1  0.66408084  0.49657442  0.13381449  1
  Sr  Sr15  1  0.67117359  0.51552875  0.57042320  1
  Sr  Sr16  1  0.67886635  0.84690783  0.14170151  1
  Sr  Sr17  1  0.66906557  0.82850140  0.66110617  1
  Sr  Sr18  1  0.16778068  0.01509138  0.17303421  1
  Sr  Sr19  1  0.16349384  -0.02506912  0.62017125  1
  Sr  Sr20  1  0.15488749  0.32169183  0.08387834  1
  Sr  Sr21  1  0.17066112  0.33573076  0.61513398  1
  Sr  Sr22  1  0.16858633  0.66634100  0.12155709  1
  Sr  Sr23  1  0.13504633  0.64568858  0.64586963  1
  Sr  Sr24  1  0.49126687  0.00191580  0.13539485  1
  Sr  Sr25  1  0.49555888  0.01425998  0.58500952  1
  Sr  Sr26  1  0.51167071  0.33573237  0.11686681  1
  Sr  Sr27  1  0.49023240  0.32156077  0.67137230  1
  Sr  Sr28  1  0.49026964  0.67079349  0.09776504  1
  Sr  Sr29  1  0.48489998  0.67745598  0.63998607  1
  Sr  Sr30  1  0.83939505  0.00578675  0.10313858  1
  Sr  Sr31  1  0.81803553  -0.01268347  0.65853513  1
  Sr  Sr32  1  0.84268246  0.32789858  0.16600522  1
  Sr  Sr33  1  0.81742130  0.32753106  0.60867469  1
  Sr  Sr34  1  0.80360801  0.65290418  0.12448132  1
  Sr  Sr35  1  0.82794299  0.66060761  0.61500438  1
  Sr  Sr36  1  0.00136182  0.16993379  0.36390286  1
  Sr  Sr37  1  0.01043361  0.17142871  0.90887281  1
  Sr  Sr38  1  0.00937411  0.51256405  0.34158569  1
  Sr  Sr39  1  0.00643431  0.50830946  0.88500645  1
  Sr  Sr40  1  0.00601894  0.81899071  0.38607902  1
  Sr  Sr41  1  0.00504612  0.86065730  0.86949293  1
  Sr  Sr42  1  0.34268396  0.15962187  0.34833509  1
  Sr  Sr43  1  0.33588279  0.18079266  0.87924142  1
  Sr  Sr44  1  0.32366913  0.50204429  0.38205764  1
  Sr  Sr45  1  0.37684383  0.50788934  0.82562520  1
  Sr  Sr46  1  0.35206826  0.83018260  0.41893135  1
  Sr  Sr47  1  0.33661744  0.82393705  0.87079818  1
  Sr  Sr48  1  0.66999131  0.15314231  0.42142590  1
  Sr  Sr49  1  0.68532815  0.17606172  0.85196103  1
  Sr  Sr50  1  0.67841467  0.47598883  0.36012229  1
  Sr  Sr51  1  0.65821062  0.51088763  0.92265403  1
  Sr  Sr52  1  0.66541380  0.84740234  0.34275416  1
  Sr  Sr53  1  0.67822602  0.83865705  0.85982104  1
  Sr  Sr54  1  0.15051651  -0.02023380  0.38136625  1
  Sr  Sr55  1  0.18009109  -0.00265876  0.83103754  1
  Sr  Sr56  1  0.17403845  0.32770748  0.41099405  1
  Sr  Sr57  1  0.16107244  0.32473670  0.88295619  1
  Sr  Sr58  1  0.16065688  0.65047382  0.33816860  1
  Sr  Sr59  1  0.15057419  0.67103155  0.90007578  1
  Sr  Sr60  1  0.50218173  0.00198524  0.37018267  1
  Sr  Sr61  1  0.46881959  0.00214826  0.91291358  1
  Sr  Sr62  1  0.48108841  0.33853560  0.32891719  1
  Sr  Sr63  1  0.51128818  0.32955108  0.88482089  1
  Sr  Sr64  1  0.48074472  0.65029474  0.42198371  1
  Sr  Sr65  1  0.49652871  0.68178793  0.86474580  1
  Sr  Sr66  1  0.82513361  -0.01411885  0.37622234  1
  Sr  Sr67  1  0.84097696  0.01377800  0.88260409  1
  Sr  Sr68  1  0.83620459  0.31652202  0.38915708  1
  Sr  Sr69  1  0.83625379  0.33991441  0.82917852  1
  Sr  Sr70  1  0.81240887  0.66474329  0.37649853  1
  Sr  Sr71  1  0.82548139  0.63759165  0.88666011  1
  Ta  Ta72  1  0.17769261  0.12589853  0.00199947  1
  Ta  Ta73  1  0.18713622  0.13939066  0.48963221  1
  Ta  Ta74  1  0.20969572  0.49674241  0.00054539  1
  Ta  Ta75  1  0.14307312  0.51496855  0.49600579  1
  Ta  Ta76  1  0.17005780  0.87547277  0.00353192  1
  Ta  Ta77  1  0.16863224  0.78484135  0.50130384  1
  Ta  Ta78  1  0.53285895  0.15800108  -0.00482795  1
  Ta  Ta79  1  0.48744641  0.20328882  0.50396856  1
  Ta  Ta80  1  0.46693305  0.50030323  0.00465608  1
  Ta  Ta81  1  0.49801315  0.44579695  0.50145687  1
  Ta  Ta82  1  0.53759738  0.84359740  -0.00543411  1
  Ta  Ta83  1  0.54088204  0.83504306  0.50840072  1
  Ta  Ta84  1  0.84253695  0.21739090  -0.01150047  1
  Ta  Ta85  1  0.84921310  0.12943689  0.51401637  1
  Ta  Ta86  1  0.83429224  0.44856748  0.00131929  1
  Ta  Ta87  1  0.87322132  0.49989510  0.49733362  1
  Ta  Ta88  1  0.83465749  0.81747915  -0.00127383  1
  Ta  Ta89  1  0.80039189  0.83279579  0.50654655  1
  Ta  Ta90  1  0.16926131  0.20727041  0.24637077  1
  Ta  Ta91  1  0.13960724  0.17529170  0.74965105  1
  Ta  Ta92  1  0.16692091  0.45123776  0.24417486  1
  Ta  Ta93  1  0.19022717  0.48872365  0.75577177  1
  Ta  Ta94  1  0.21887953  0.82698318  0.24981404  1
  Ta  Ta95  1  0.16262200  0.80293046  0.74704193  1
  Ta  Ta96  1  0.54758594  0.16829805  0.24441440  1
  Ta  Ta97  1  0.49841048  0.13114744  0.75329550  1
  Ta  Ta98  1  0.50375672  0.53673261  0.25336182  1
  Ta  Ta99  1  0.56448246  0.50400131  0.74373332  1
  Ta  Ta100  1  0.47808804  0.81719154  0.25121057  1
  Ta  Ta101  1  0.49774668  0.87979302  0.74995883  1
  Ta  Ta102  1  0.80979285  0.14941513  0.26279418  1
  Ta  Ta103  1  0.88677731  0.16884663  0.74086137  1
  Ta  Ta104  1  0.85229107  0.50750477  0.24369158  1
  Ta  Ta105  1  0.76806533  0.50384739  0.74475482  1
  Ta  Ta106  1  0.86191597  0.83008767  0.24801584  1
  Ta  Ta107  1  0.85186874  0.79942499  0.75293907  1
  Ta  Ta108  1  -0.02620762  -0.00808923  0.25187457  1
  Ta  Ta109  1  0.00550175  0.04819659  0.75037708  1
  Ta  Ta110  1  0.03391724  0.34099732  0.25190854  1
  Ta  Ta111  1  0.01248563  0.30335951  0.74859914  1
  Ta  Ta112  1  -0.03744762  0.67744650  0.23527157  1
  Ta  Ta113  1  -0.01652400  0.69411109  0.76053896  1
  Ta  Ta114  1  0.33722288  -0.05344153  0.25086308  1
  Ta  Ta115  1  0.36762901  0.00346922  0.74441207  1
  Ta  Ta116  1  0.28833391  0.33358543  0.24421144  1
  Ta  Ta117  1  0.30618475  0.34801932  0.74987759  1
  Ta  Ta118  1  0.35307875  0.69405535  0.26276865  1
  Ta  Ta119  1  0.29123068  0.66572866  0.74462074  1
  Ta  Ta120  1  0.67194685  0.03964335  0.25651884  1
  Ta  Ta121  1  0.61720955  0.00473474  0.74970012  1
  Ta  Ta122  1  0.67238333  0.28258632  0.25508944  1
  Ta  Ta123  1  0.66310162  0.37245639  0.74625869  1
  Ta  Ta124  1  0.61521353  0.66948496  0.24901297  1
  Ta  Ta125  1  0.66703000  0.63968811  0.75464980  1
  Ta  Ta126  1  0.04913709  0.00103476  -0.00123360  1
  Ta  Ta127  1  -0.01791371  0.01589395  0.50927774  1
  Ta  Ta128  1  -0.03969902  0.34033130  -0.00172942  1
  Ta  Ta129  1  0.00086361  0.39660936  0.50201246  1
  Ta  Ta130  1  -0.03072650  0.70253140  0.00581068  1
  Ta  Ta131  1  0.00015438  0.63577231  0.50478178  1
  Ta  Ta132  1  0.28755728  -0.00228515  0.00342537  1
  Ta  Ta133  1  0.31712687  0.02109137  0.49976296  1
  Ta  Ta134  1  0.33868341  0.38648955  -0.00058888  1
  Ta  Ta135  1  0.36848152  0.32863488  0.50216419  1
  Ta  Ta136  1  0.33030944  0.61897035  -0.01336317  1
  Ta  Ta137  1  0.28107483  0.66417423  0.50817724  1
  Ta  Ta138  1  0.64740131  -0.00867146  -0.00550647  1
  Ta  Ta139  1  0.67390848  -0.03474223  0.50812779  1
  Ta  Ta140  1  0.70139187  0.32795846  -0.00521809  1
  Ta  Ta141  1  0.61809935  0.32800642  0.50412981  1
  Ta  Ta142  1  0.66216738  0.70657453  0.00066906  1
  Ta  Ta143  1  0.65915073  0.71346512  0.49936717  1
  N  N144  1  0.84561381  0.17878252  0.86991593  1
  N  N145  1  0.82858125  0.82472127  0.62864277  1
  N  N146  1  0.16933993  0.16353741  0.86884393  1
  N  N147  1  0.16983545  0.49341932  0.11873326  1
  N  N148  1  0.01557813  0.01535487  0.87585660  1
  N  N149  1  0.16799369  0.16881385  0.11988690  1
  N  N150  1  0.16538774  0.49296573  0.37623420  1
  N  N151  1  0.32977166  0.33521317  0.62723013  1
  N  N152  1  0.82769040  0.17084518  0.63400244  1
  N  N153  1  0.51067906  0.17309484  0.12133526  1
  N  N154  1  0.18572867  0.83619946  0.12720958  1
  N  N155  1  0.33184106  0.66105107  0.62102834  1
  N  N156  1  0.32757186  0.66171739  0.87025432  1
  N  N157  1  0.49575061  0.17194969  0.62333382  1
  N  N158  1  0.16904512  0.16216712  0.36870968  1
  N  N159  1  0.32807115  0.66772739  0.37997753  1
  N  N160  1  0.65895165  -0.00142252  0.63017969  1
  N  N161  1  0.65936395  0.33145410  0.62039791  1
  N  N162  1  0.49959862  0.83881231  0.62467948  1
  N  N163  1  0.50070629  0.17265471  0.87215976  1
  N  N164  1  0.50035742  0.84067228  0.87720234  1
  N  N165  1  -0.01500500  0.66039627  0.62448853  1
  N  N166  1  0.83087080  0.15461139  0.38548820  1
  N  N167  1  0.49520854  0.50817883  0.12964597  1
  N  N168  1  0.01196054  0.67027777  0.12295197  1
  N  N169  1  0.66256456  0.66751735  0.87826508  1
  N  N170  1  -0.00501411  0.66754568  0.88801746  1
  N  N171  1  0.64962732  0.67649929  0.12856757  1
  N  N172  1  0.66425732  0.00244330  0.37553518  1
  N  N173  1  0.83333287  0.48883126  0.12489219  1
  N  N174  1  0.33224748  0.00239003  0.62258575  1
  N  N175  1  0.15545273  0.81868616  0.62195439  1
  N  N176  1  0.67239430  0.33751958  0.87462742  1
  O  O177  1  0.49746608  0.18211568  0.36321066  1
  O  O178  1  0.66802570  0.31163769  0.38066784  1
  O  O179  1  0.33866334  -0.02067934  0.37428641  1
  O  O180  1  0.15850299  0.48644363  0.87671739  1
  O  O181  1  0.68262865  0.31042206  0.13158524  1
  O  O182  1  0.67276254  -0.00136637  0.87221008  1
  O  O183  1  0.83979363  0.16604953  0.11391930  1
  O  O184  1  0.17112527  0.81965789  0.37192182  1
  O  O185  1  0.83619405  0.84358378  0.12524564  1
  O  O186  1  0.80893176  0.48822484  0.86958909  1
  O  O187  1  0.33488323  0.66290159  0.11520625  1
  O  O188  1  0.00953565  0.35140724  0.62752987  1
  O  O189  1  -0.01009310  0.66502058  0.36607215  1
  O  O190  1  0.33034960  0.33320673  0.37627666  1
  O  O191  1  0.16630335  0.17634999  0.61224742  1
  O  O192  1  -0.01457479  0.00217387  0.37768495  1
  O  O193  1  0.50159719  0.83317251  0.37670306  1
  O  O194  1  0.16754023  0.83561639  0.87805034  1
  O  O195  1  0.66419638  0.67688489  0.62159154  1
  O  O196  1  0.33409714  -0.02891407  0.12313167  1
  O  O197  1  0.52158405  0.49297509  0.61973311  1
  O  O198  1  0.81937048  0.50317108  0.62300782  1
  O  O199  1  -0.00048564  -0.00141274  0.12691169  1
  O  O200  1  0.83884751  0.82430735  0.37529469  1
  O  O201  1  0.65342566  0.69485767  0.36957195  1
  O  O202  1  0.00118984  0.33485092  0.12838914  1
  O  O203  1  0.32919731  0.34013645  0.12126317  1
  O  O204  1  0.66522375  0.00180448  0.12251788  1
  O  O205  1  0.33463577  0.34335709  0.87709854  1
  O  O206  1  0.83344662  0.50597508  0.37623423  1
  O  O207  1  0.51594081  0.50213376  0.88027584  1
  O  O208  1  0.00345100  0.34345693  0.87011072  1
  O  O209  1  0.49601454  0.83222553  0.12411868  1
  O  O210  1  0.17383652  0.49131774  0.62850016  1
  O  O211  1  0.49796315  0.48993365  0.37578087  1
  O  O212  1  0.00468703  -0.00524789  0.63016372  1
  O  O213  1  0.01777872  0.35045308  0.38140422  1
  O  O214  1  0.32490683  -0.00130282  0.87537914  1
  O  O215  1  0.83384971  0.84002233  0.87603769  1
