# generated using pymatgen
data_Sr24Ta24N11O13
_symmetry_space_group_name_H-M   'P 1'
_cell_length_a   16.95530546
_cell_length_b   16.68792980
_cell_length_c   15.67877782
_cell_angle_alpha   90.34385087
_cell_angle_beta   89.64873815
_cell_angle_gamma   89.94246543
_symmetry_Int_Tables_number   1
_chemical_formula_structural   Sr24Ta24N11O13
_chemical_formula_sum   'Sr72 Ta72 N33 O39'
_cell_volume   4436.12801928
_cell_formula_units_Z   3
loop_
 _symmetry_equiv_pos_site_id
 _symmetry_equiv_pos_as_xyz
  1  'x, y, z'
loop_
 _atom_site_type_symbol
 _atom_site_label
 _atom_site_symmetry_multiplicity
 _atom_site_fract_x
 _atom_site_fract_y
 _atom_site_fract_z
 _atom_site_occupancy
  Sr  Sr0  1  0.03565290  0.17028366  0.10744060  1
  Sr  Sr1  1  0.01455971  0.17705162  0.66349018  1
  Sr  Sr2  1  0.02159978  0.49489227  0.13019417  1
  Sr  Sr3  1  -0.00384899  0.49460492  0.58809734  1
  Sr  Sr4  1  0.00992314  0.83429207  0.14597056  1
  Sr  Sr5  1  0.00572296  0.83964346  0.61496916  1
  Sr  Sr6  1  0.34802141  0.18531303  0.15809144  1
  Sr  Sr7  1  0.34071470  0.15635693  0.60537947  1
  Sr  Sr8  1  0.34801399  0.49264834  0.07291285  1
  Sr  Sr9  1  0.32428388  0.50172571  0.63661179  1
  Sr  Sr10  1  0.33736352  0.83956692  0.11267649  1
  Sr  Sr11  1  0.34705697  0.83416733  0.65717875  1
  Sr  Sr12  1  0.68017895  0.16107048  0.11939696  1
  Sr  Sr13  1  0.70598559  0.16870715  0.60233349  1
  Sr  Sr14  1  0.66764725  0.51252930  0.14831042  1
  Sr  Sr15  1  0.67718298  0.49175408  0.64097416  1
  Sr  Sr16  1  0.70033330  0.83806357  0.08954904  1
  Sr  Sr17  1  0.66319985  0.83839297  0.63007409  1
  Sr  Sr18  1  0.16978801  -0.00964491  0.07732454  1
  Sr  Sr19  1  0.14805524  0.01114549  0.62599681  1
  Sr  Sr20  1  0.17339735  0.32893281  0.12159674  1
  Sr  Sr21  1  0.14867032  0.32954130  0.65558095  1
  Sr  Sr22  1  0.16629509  0.68994159  0.17586047  1
  Sr  Sr23  1  0.16823970  0.65645790  0.61405394  1
  Sr  Sr24  1  0.47527323  0.00109282  0.14490248  1
  Sr  Sr25  1  0.48858837  -0.00251522  0.63776439  1
  Sr  Sr26  1  0.49105466  0.33087209  0.10444975  1
  Sr  Sr27  1  0.46774607  0.33826604  0.63714449  1
  Sr  Sr28  1  0.49087856  0.66534219  0.13462157  1
  Sr  Sr29  1  0.50003330  0.66028140  0.59115872  1
  Sr  Sr30  1  0.83663019  -0.00468854  0.14380951  1
  Sr  Sr31  1  0.81571034  -0.01547267  0.58346439  1
  Sr  Sr32  1  0.79738834  0.32838126  0.14663497  1
  Sr  Sr33  1  0.83350352  0.34283738  0.61732866  1
  Sr  Sr34  1  0.82451379  0.65693090  0.10051582  1
  Sr  Sr35  1  0.81110230  0.67784149  0.67260610  1
  Sr  Sr36  1  0.02708112  0.17271379  0.35504039  1
  Sr  Sr37  1  0.01439850  0.17244209  0.87271117  1
  Sr  Sr38  1  0.01465155  0.49331881  0.37254949  1
  Sr  Sr39  1  -0.00402633  0.50348342  0.91872036  1
  Sr  Sr40  1  0.00270959  0.84042670  0.38109501  1
  Sr  Sr41  1  0.01129196  0.82112622  0.84224582  1
  Sr  Sr42  1  0.33162114  0.16102493  0.38266716  1
  Sr  Sr43  1  0.37676769  0.16146265  0.83342393  1
  Sr  Sr44  1  0.34629105  0.51153749  0.42506068  1
  Sr  Sr45  1  0.31209038  0.50130845  0.86292681  1
  Sr  Sr46  1  0.34840874  0.81349201  0.32817130  1
  Sr  Sr47  1  0.33521672  0.84279940  0.88840536  1
  Sr  Sr48  1  0.69859251  0.15946920  0.36920891  1
  Sr  Sr49  1  0.67722264  0.17244900  0.90104048  1
  Sr  Sr50  1  0.66537000  0.49812246  0.36277340  1
  Sr  Sr51  1  0.68779216  0.49879249  0.84882864  1
  Sr  Sr52  1  0.67368513  0.83724567  0.40196375  1
  Sr  Sr53  1  0.67975344  0.83096209  0.86731628  1
  Sr  Sr54  1  0.16912021  0.01147129  0.41654903  1
  Sr  Sr55  1  0.14556370  0.00206188  0.87384333  1
  Sr  Sr56  1  0.16368688  0.32165907  0.33872409  1
  Sr  Sr57  1  0.14251629  0.34027948  0.89581820  1
  Sr  Sr58  1  0.15260417  0.65601675  0.39186681  1
  Sr  Sr59  1  0.17043826  0.67467720  0.82677198  1
  Sr  Sr60  1  0.48065902  0.00484132  0.36585919  1
  Sr  Sr61  1  0.49307375  -0.01518471  0.84434182  1
  Sr  Sr62  1  0.46706010  0.32608286  0.38779818  1
  Sr  Sr63  1  0.49454088  0.33763957  0.87187235  1
  Sr  Sr64  1  0.50644823  0.66045523  0.37037085  1
  Sr  Sr65  1  0.46496411  0.66502505  0.91912337  1
  Sr  Sr66  1  0.83000422  -0.01514212  0.36765800  1
  Sr  Sr67  1  0.79906856  -0.00288037  0.91460440  1
  Sr  Sr68  1  0.81408040  0.34256022  0.39370823  1
  Sr  Sr69  1  0.81614806  0.31753099  0.84325661  1
  Sr  Sr70  1  0.81182494  0.65588485  0.35306764  1
  Sr  Sr71  1  0.83437685  0.66904072  0.88395404  1
  Ta  Ta72  1  0.22233526  0.16850639  -0.01286150  1
  Ta  Ta73  1  0.16037713  0.19601612  0.50536338  1
  Ta  Ta74  1  0.16405693  0.56998075  0.00307363  1
  Ta  Ta75  1  0.16821422  0.45540012  0.50163352  1
  Ta  Ta76  1  0.15996342  0.78900685  -0.00564050  1
  Ta  Ta77  1  0.21135525  0.83133595  0.49678370  1
  Ta  Ta78  1  0.49321509  0.14629895  -0.00758531  1
  Ta  Ta79  1  0.53346563  0.16762289  0.50704694  1
  Ta  Ta80  1  0.54084099  0.50124918  -0.00507412  1
  Ta  Ta81  1  0.53174448  0.48446892  0.51032486  1
  Ta  Ta82  1  0.52117745  0.84251279  0.00324432  1
  Ta  Ta83  1  0.47928934  0.84016867  0.49708810  1
  Ta  Ta84  1  0.86442356  0.16897468  0.00112875  1
  Ta  Ta85  1  0.88582257  0.16982167  0.50430411  1
  Ta  Ta86  1  0.81901865  0.46398079  -0.00308024  1
  Ta  Ta87  1  0.82365730  0.54150613  0.50938264  1
  Ta  Ta88  1  0.88439213  0.83805667  -0.00401647  1
  Ta  Ta89  1  0.83557218  0.78949818  0.50308119  1
  Ta  Ta90  1  0.18045890  0.11872062  0.24156447  1
  Ta  Ta91  1  0.20192345  0.16677270  0.75932878  1
  Ta  Ta92  1  0.20321574  0.50275252  0.25597550  1
  Ta  Ta93  1  0.12242484  0.49851221  0.74797100  1
  Ta  Ta94  1  0.17179505  0.89360443  0.25209145  1
  Ta  Ta95  1  0.18637300  0.85469441  0.75033379  1
  Ta  Ta96  1  0.53210964  0.17405805  0.25177396  1
  Ta  Ta97  1  0.55473320  0.16701783  0.74497098  1
  Ta  Ta98  1  0.47826727  0.48518353  0.24401300  1
  Ta  Ta99  1  0.49874705  0.53419804  0.75526229  1
  Ta  Ta100  1  0.55135948  0.83666756  0.24523781  1
  Ta  Ta101  1  0.50434196  0.78285460  0.75503941  1
  Ta  Ta102  1  0.87369961  0.17888281  0.25152546  1
  Ta  Ta103  1  0.83215072  0.11798614  0.74982744  1
  Ta  Ta104  1  0.85967890  0.49553215  0.25087280  1
  Ta  Ta105  1  0.87419980  0.50058917  0.75316008  1
  Ta  Ta106  1  0.82856909  0.80819497  0.24811656  1
  Ta  Ta107  1  0.83750275  0.87367639  0.75036093  1
  Ta  Ta108  1  0.03697486  0.00671271  0.24960052  1
  Ta  Ta109  1  -0.04926410  0.00023416  0.74582296  1
  Ta  Ta110  1  -0.03433422  0.33421268  0.24754123  1
  Ta  Ta111  1  -0.01089713  0.37443987  0.75631888  1
  Ta  Ta112  1  -0.03331322  0.65706355  0.24834310  1
  Ta  Ta113  1  -0.00664852  0.62294466  0.75227188  1
  Ta  Ta114  1  0.29745838  0.00061502  0.24722872  1
  Ta  Ta115  1  0.29937660  0.00192246  0.74831242  1
  Ta  Ta116  1  0.33440929  0.39766773  0.25057463  1
  Ta  Ta117  1  0.30126409  0.31712858  0.75337395  1
  Ta  Ta118  1  0.33812147  0.60206407  0.25028268  1
  Ta  Ta119  1  0.36458239  0.66875523  0.75001283  1
  Ta  Ta120  1  0.64774448  -0.01656631  0.25147438  1
  Ta  Ta121  1  0.68081547  0.02102889  0.74762381  1
  Ta  Ta122  1  0.62215153  0.32463167  0.24961216  1
  Ta  Ta123  1  0.64329633  0.31077104  0.74167662  1
  Ta  Ta124  1  0.66288575  0.70845319  0.23820756  1
  Ta  Ta125  1  0.61703561  0.66398100  0.76388595  1
  Ta  Ta126  1  -0.02205439  -0.00377503  -0.00373304  1
  Ta  Ta127  1  -0.01259558  0.04223805  0.50552636  1
  Ta  Ta128  1  -0.05752376  0.32404773  -0.00304604  1
  Ta  Ta129  1  0.01280295  0.31127323  0.50580876  1
  Ta  Ta130  1  0.02576247  0.68679280  -0.00440161  1
  Ta  Ta131  1  -0.04836281  0.66766555  0.50502737  1
  Ta  Ta132  1  0.34813851  0.03948503  -0.01117700  1
  Ta  Ta133  1  0.33722598  -0.04795403  0.50315836  1
  Ta  Ta134  1  0.33001993  0.29465978  -0.01149811  1
  Ta  Ta135  1  0.28461436  0.33376520  0.50475865  1
  Ta  Ta136  1  0.28614323  0.67254219  -0.00235405  1
  Ta  Ta137  1  0.33432642  0.70853994  0.50121284  1
  Ta  Ta138  1  0.61138016  -0.00496708  -0.00486072  1
  Ta  Ta139  1  0.62812270  0.00929084  0.50025344  1
  Ta  Ta140  1  0.66359570  0.36285331  -0.00509652  1
  Ta  Ta141  1  0.62891311  0.33156851  0.50922242  1
  Ta  Ta142  1  0.64166082  0.65523598  -0.01016985  1
  Ta  Ta143  1  0.68388307  0.65366819  0.50543125  1
  N  N144  1  -0.00568169  0.33540331  0.62548483  1
  N  N145  1  0.83602865  0.82644597  0.37642905  1
  N  N146  1  0.16908456  0.83229405  0.87198357  1
  N  N147  1  0.50296720  0.49924034  0.12105843  1
  N  N148  1  -0.00762968  0.00398403  0.62364458  1
  N  N149  1  0.16113939  0.16444339  0.88122515  1
  N  N150  1  0.65936792  -0.00187149  0.62224049  1
  N  N151  1  0.15587227  0.49560510  0.62796275  1
  N  N152  1  0.67922300  0.66971955  0.86816783  1
  N  N153  1  0.64752258  0.33592234  0.12849244  1
  N  N154  1  0.68092026  0.33294009  0.61926936  1
  N  N155  1  0.33432712  0.67105156  0.61826105  1
  N  N156  1  0.84057371  0.83688427  0.87540347  1
  N  N157  1  -0.01459823  0.33318028  0.87781742  1
  N  N158  1  0.32063932  0.66890948  0.86732454  1
  N  N159  1  0.52327216  0.16425619  0.87304866  1
  N  N160  1  0.31571558  0.33269120  0.63220654  1
  N  N161  1  0.18864148  0.15829608  0.12119998  1
  N  N162  1  0.66521814  0.67617668  0.11664179  1
  N  N163  1  0.66156171  0.33371185  0.87041821  1
  N  N164  1  0.65070298  -0.00104108  0.87629270  1
  N  N165  1  0.17017977  0.49606961  0.37884479  1
  N  N166  1  0.50143963  0.50451147  0.63257768  1
  N  N167  1  0.85139369  0.83146186  0.12087637  1
  N  N168  1  0.83617463  0.49640281  0.88108097  1
  N  N169  1  0.17132451  0.16537121  0.62770946  1
  N  N170  1  0.33058128  -0.00378477  0.61927761  1
  N  N171  1  0.83244646  0.50693413  0.62673122  1
  N  N172  1  0.00150079  0.66354783  0.87313801  1
  N  N173  1  0.33939947  -0.00009083  0.87297733  1
  N  N174  1  0.17796535  0.16242933  0.37711967  1
  N  N175  1  0.83103373  0.83233826  0.62638069  1
  N  N176  1  0.66470036  -0.00149638  0.37342625  1
  O  O177  1  0.65900688  0.65912041  0.63187217  1
  O  O178  1  0.86409970  0.15508531  0.13044649  1
  O  O179  1  -0.02511732  0.65981482  0.37454688  1
  O  O180  1  0.50323228  0.82596821  0.87934327  1
  O  O181  1  -0.00753066  0.33371524  0.37202289  1
  O  O182  1  0.34459954  0.65594173  0.37186291  1
  O  O183  1  0.86119870  0.17968825  0.37676311  1
  O  O184  1  -0.01061286  0.00722747  0.87254016  1
  O  O185  1  0.33784914  0.34876055  0.87584078  1
  O  O186  1  0.65172742  0.00543342  0.11660741  1
  O  O187  1  0.32431885  0.00027543  0.38265070  1
  O  O188  1  -0.02286308  0.66650099  0.62854313  1
  O  O189  1  0.48179333  0.49806983  0.88497203  1
  O  O190  1  0.33130840  0.64345999  0.12917655  1
  O  O191  1  0.01749003  0.01254906  0.37629881  1
  O  O192  1  0.50280506  0.83388856  0.37128377  1
  O  O193  1  0.32548387  -0.00380253  0.11119642  1
  O  O194  1  0.16694160  0.53594716  0.12817457  1
  O  O195  1  0.49899155  0.82332106  0.62290122  1
  O  O196  1  0.50675288  0.49976360  0.38492993  1
  O  O197  1  0.83552883  0.49133093  0.12808752  1
  O  O198  1  0.51237771  0.16075561  0.12790463  1
  O  O199  1  0.85631720  0.16862266  0.63290026  1
  O  O200  1  -0.00871033  0.66382959  0.12621750  1
  O  O201  1  0.49831682  0.83866355  0.13099787  1
  O  O202  1  0.49746452  0.15993097  0.63018881  1
  O  O203  1  0.15549036  0.52116659  0.88234090  1
  O  O204  1  0.18494459  0.82970301  0.62072374  1
  O  O205  1  0.32246852  0.35684997  0.37413875  1
  O  O206  1  0.84065420  0.49899290  0.37975159  1
  O  O207  1  0.18842209  0.84715221  0.37093829  1
  O  O208  1  0.83946073  0.15542515  0.87616682  1
  O  O209  1  0.52269809  0.16943510  0.38291603  1
  O  O210  1  0.65925863  0.33915746  0.37563864  1
  O  O211  1  -0.01909114  0.33798325  0.12137298  1
  O  O212  1  0.66309981  0.66614556  0.37691871  1
  O  O213  1  0.16607987  0.84101994  0.13020889  1
  O  O214  1  0.00740910  0.00297756  0.12098783  1
  O  O215  1  0.32958616  0.34009416  0.11526221  1
