# generated using pymatgen
data_Sr24Ta24N11O13
_symmetry_space_group_name_H-M   'P 1'
_cell_length_a   16.79051178
_cell_length_b   16.71206085
_cell_length_c   15.70815581
_cell_angle_alpha   89.98960678
_cell_angle_beta   90.00854271
_cell_angle_gamma   89.40938441
_symmetry_Int_Tables_number   1
_chemical_formula_structural   Sr24Ta24N11O13
_chemical_formula_sum   'Sr72 Ta72 N33 O39'
_cell_volume   4407.53790529
_cell_formula_units_Z   3
loop_
 _symmetry_equiv_pos_site_id
 _symmetry_equiv_pos_as_xyz
  1  'x, y, z'
loop_
 _atom_site_type_symbol
 _atom_site_label
 _atom_site_symmetry_multiplicity
 _atom_site_fract_x
 _atom_site_fract_y
 _atom_site_fract_z
 _atom_site_occupancy
  Sr  Sr0  1  0.00529719  0.15629633  0.11049739  1
  Sr  Sr1  1  0.00611534  0.18250914  0.67372902  1
  Sr  Sr2  1  -0.00247633  0.50339679  0.12496950  1
  Sr  Sr3  1  0.01543327  0.49096933  0.57894856  1
  Sr  Sr4  1  0.02526749  0.82916781  0.15635486  1
  Sr  Sr5  1  -0.00888543  0.84173774  0.61583436  1
  Sr  Sr6  1  0.35211620  0.15297547  0.16077478  1
  Sr  Sr7  1  0.33600240  0.17274425  0.60375974  1
  Sr  Sr8  1  0.34872546  0.49451030  0.10687912  1
  Sr  Sr9  1  0.33708329  0.49239287  0.66605225  1
  Sr  Sr10  1  0.32793322  0.83866583  0.09375840  1
  Sr  Sr11  1  0.36920159  0.83591581  0.62456277  1
  Sr  Sr12  1  0.67042370  0.15888944  0.09717623  1
  Sr  Sr13  1  0.67360939  0.15621319  0.60168036  1
  Sr  Sr14  1  0.68706818  0.45877513  0.15645649  1
  Sr  Sr15  1  0.65670300  0.49581195  0.62771742  1
  Sr  Sr16  1  0.66940288  0.83329294  0.12023078  1
  Sr  Sr17  1  0.65785108  0.83931060  0.66815823  1
  Sr  Sr18  1  0.16274415  -0.00321166  0.11767915  1
  Sr  Sr19  1  0.12921402  0.00788136  0.65814453  1
  Sr  Sr20  1  0.15912882  0.35213862  0.06916337  1
  Sr  Sr21  1  0.16747209  0.32729233  0.62346922  1
  Sr  Sr22  1  0.15575995  0.66025520  0.16777088  1
  Sr  Sr23  1  0.15827582  0.68016042  0.60896197  1
  Sr  Sr24  1  0.49802334  -0.00025805  0.16320710  1
  Sr  Sr25  1  0.49614031  0.02194102  0.60980411  1
  Sr  Sr26  1  0.51192399  0.31553858  0.10255019  1
  Sr  Sr27  1  0.49071719  0.35848003  0.65635327  1
  Sr  Sr28  1  0.50186194  0.69236665  0.13467372  1
  Sr  Sr29  1  0.50754637  0.64140264  0.60087941  1
  Sr  Sr30  1  0.81815886  0.00394783  0.10846200  1
  Sr  Sr31  1  0.82711065  0.00285249  0.59832330  1
  Sr  Sr32  1  0.85361467  0.33737992  0.16806007  1
  Sr  Sr33  1  0.81633334  0.34310330  0.61153330  1
  Sr  Sr34  1  0.83640332  0.67309229  0.10391001  1
  Sr  Sr35  1  0.82039113  0.69161071  0.66550284  1
  Sr  Sr36  1  -0.00395299  0.16818299  0.33344869  1
  Sr  Sr37  1  0.01176064  0.16312479  0.88625624  1
  Sr  Sr38  1  0.00683090  0.49528522  0.37194486  1
  Sr  Sr39  1  -0.00348001  0.50801829  0.90939013  1
  Sr  Sr40  1  0.00841293  0.83693851  0.38585122  1
  Sr  Sr41  1  0.01889818  0.82171226  0.83068656  1
  Sr  Sr42  1  0.32632074  0.17137819  0.37788150  1
  Sr  Sr43  1  0.37343286  0.15001249  0.84152828  1
  Sr  Sr44  1  0.33748985  0.50838495  0.32186652  1
  Sr  Sr45  1  0.33611484  0.49071581  0.88637863  1
  Sr  Sr46  1  0.34069849  0.80785549  0.42203721  1
  Sr  Sr47  1  0.33658269  0.83670937  0.88171182  1
  Sr  Sr48  1  0.68215215  0.15459976  0.40600822  1
  Sr  Sr49  1  0.66612064  0.16483210  0.89445728  1
  Sr  Sr50  1  0.66196204  0.49601942  0.38698770  1
  Sr  Sr51  1  0.68116684  0.48127651  0.84528444  1
  Sr  Sr52  1  0.65291372  0.82970182  0.32973979  1
  Sr  Sr53  1  0.67307469  0.82641398  0.89364365  1
  Sr  Sr54  1  0.14207154  0.01212064  0.34236807  1
  Sr  Sr55  1  0.15557657  -0.00599873  0.88503932  1
  Sr  Sr56  1  0.17114170  0.32445028  0.40871497  1
  Sr  Sr57  1  0.15361242  0.33119178  0.87039007  1
  Sr  Sr58  1  0.15102719  0.66767297  0.38627031  1
  Sr  Sr59  1  0.17166533  0.67401779  0.83206938  1
  Sr  Sr60  1  0.49224067  0.00149873  0.38762411  1
  Sr  Sr61  1  0.50082532  -0.02450887  0.82524812  1
  Sr  Sr62  1  0.46902379  0.34125753  0.31218737  1
  Sr  Sr63  1  0.50714684  0.34442389  0.88045258  1
  Sr  Sr64  1  0.50645605  0.66287032  0.37756924  1
  Sr  Sr65  1  0.47061468  0.67792011  0.94494228  1
  Sr  Sr66  1  0.82940094  -0.00145524  0.38985053  1
  Sr  Sr67  1  0.81820200  0.01829968  0.91114287  1
  Sr  Sr68  1  0.82815557  0.34794669  0.38504535  1
  Sr  Sr69  1  0.83374718  0.33230205  0.83840592  1
  Sr  Sr70  1  0.81542535  0.69051247  0.35960084  1
  Sr  Sr71  1  0.83954489  0.66208949  0.88294628  1
  Ta  Ta72  1  0.22575329  0.15936066  -0.01324244  1
  Ta  Ta73  1  0.14096638  0.14754515  0.50902054  1
  Ta  Ta74  1  0.16484085  0.55333751  -0.00155500  1
  Ta  Ta75  1  0.21569232  0.49806774  0.49285524  1
  Ta  Ta76  1  0.15206110  0.80347968  0.00429671  1
  Ta  Ta77  1  0.17260709  0.87313051  0.50459137  1
  Ta  Ta78  1  0.48728486  0.13138306  0.00353651  1
  Ta  Ta79  1  0.49745407  0.22926950  0.49032839  1
  Ta  Ta80  1  0.54824680  0.50299882  0.01302323  1
  Ta  Ta81  1  0.47218270  0.46740812  0.47060083  1
  Ta  Ta82  1  0.49987935  0.87379604  0.00582983  1
  Ta  Ta83  1  0.54405051  0.82456010  0.50064645  1
  Ta  Ta84  1  0.83921004  0.21383054  0.00555527  1
  Ta  Ta85  1  0.87974238  0.17441106  0.50091902  1
  Ta  Ta86  1  0.81880062  0.47522538  0.00075021  1
  Ta  Ta87  1  0.82543939  0.55200745  0.50798367  1
  Ta  Ta88  1  0.88522421  0.83515920  -0.00623556  1
  Ta  Ta89  1  0.79120277  0.82337820  0.50305024  1
  Ta  Ta90  1  0.17007919  0.20373730  0.23431489  1
  Ta  Ta91  1  0.20207426  0.16535277  0.75870431  1
  Ta  Ta92  1  0.16528621  0.46298807  0.24909716  1
  Ta  Ta93  1  0.13689753  0.49693607  0.74565784  1
  Ta  Ta94  1  0.21069057  0.83423839  0.25999156  1
  Ta  Ta95  1  0.20430816  0.84833029  0.73137306  1
  Ta  Ta96  1  0.54399610  0.16593866  0.25356275  1
  Ta  Ta97  1  0.53701222  0.17812802  0.74157300  1
  Ta  Ta98  1  0.52542176  0.52444391  0.22711389  1
  Ta  Ta99  1  0.50710635  0.56850238  0.79467311  1
  Ta  Ta100  1  0.45565965  0.83623406  0.25837408  1
  Ta  Ta101  1  0.50436341  0.76652318  0.77094304  1
  Ta  Ta102  1  0.81025091  0.15149356  0.24548873  1
  Ta  Ta103  1  0.81547472  0.14734320  0.75113387  1
  Ta  Ta104  1  0.83572178  0.53493304  0.24858154  1
  Ta  Ta105  1  0.87050076  0.50661836  0.74858010  1
  Ta  Ta106  1  0.84971512  0.85198065  0.24604608  1
  Ta  Ta107  1  0.83242840  0.88160733  0.76088334  1
  Ta  Ta108  1  -0.04223076  -0.00674280  0.23966603  1
  Ta  Ta109  1  -0.05191735  0.00466340  0.75786037  1
  Ta  Ta110  1  0.05451129  0.33224413  0.23731483  1
  Ta  Ta111  1  0.00171252  0.38135144  0.74959183  1
  Ta  Ta112  1  -0.03053886  0.66412652  0.25925293  1
  Ta  Ta113  1  -0.00072500  0.62234994  0.73996434  1
  Ta  Ta114  1  0.32388298  -0.04125534  0.25972253  1
  Ta  Ta115  1  0.30508274  -0.00386680  0.74479095  1
  Ta  Ta116  1  0.27398647  0.33178769  0.23392606  1
  Ta  Ta117  1  0.31721628  0.30932389  0.76020435  1
  Ta  Ta118  1  0.33539917  0.69869559  0.24575652  1
  Ta  Ta119  1  0.35895127  0.67240478  0.75882520  1
  Ta  Ta120  1  0.67514405  0.02587158  0.25496011  1
  Ta  Ta121  1  0.69038317  0.01753511  0.75534025  1
  Ta  Ta122  1  0.66807467  0.28455093  0.25017833  1
  Ta  Ta123  1  0.66069039  0.29316720  0.74470515  1
  Ta  Ta124  1  0.66846302  0.63628125  0.23421013  1
  Ta  Ta125  1  0.64180016  0.66571124  0.76936793  1
  Ta  Ta126  1  -0.00640399  -0.04221792  -0.00505130  1
  Ta  Ta127  1  0.00451548  0.04456016  0.50663128  1
  Ta  Ta128  1  -0.03746503  0.33348659  -0.00351742  1
  Ta  Ta129  1  0.00054793  0.28413747  0.49906196  1
  Ta  Ta130  1  0.02675329  0.68973761  -0.00959422  1
  Ta  Ta131  1  -0.04692352  0.66997574  0.50641312  1
  Ta  Ta132  1  0.36215874  0.01876668  -0.00062732  1
  Ta  Ta133  1  0.27800777  0.00160358  0.49969234  1
  Ta  Ta134  1  0.33636411  0.28104656  -0.01000192  1
  Ta  Ta135  1  0.35393969  0.36436580  0.49245275  1
  Ta  Ta136  1  0.28193684  0.66504805  0.00473521  1
  Ta  Ta137  1  0.33916571  0.60684283  0.49856770  1
  Ta  Ta138  1  0.61494188  -0.00412509  -0.00367673  1
  Ta  Ta139  1  0.66074530  -0.04979865  0.49684814  1
  Ta  Ta140  1  0.69941635  0.33969839  -0.00235571  1
  Ta  Ta141  1  0.61890445  0.33402391  0.49597236  1
  Ta  Ta142  1  0.66681775  0.61517618  0.01502394  1
  Ta  Ta143  1  0.68048030  0.69548284  0.50460512  1
  N  N144  1  -0.00498063  0.00294162  0.87366297  1
  N  N145  1  0.32564936  0.66881096  0.87821776  1
  N  N146  1  0.14576152  0.83759459  0.62726259  1
  N  N147  1  -0.00353440  0.67495658  0.62875389  1
  N  N148  1  0.50167392  0.46393971  0.12443604  1
  N  N149  1  0.83847215  0.50056243  0.87000217  1
  N  N150  1  -0.01861317  0.01663029  0.62575689  1
  N  N151  1  -0.00848075  0.67311313  0.38158107  1
  N  N152  1  -0.00606601  -0.00282694  0.12186899  1
  N  N153  1  0.65616117  0.33205665  0.61821044  1
  N  N154  1  0.49455633  0.49292786  0.34377893  1
  N  N155  1  0.17278876  0.49231398  0.37554787  1
  N  N156  1  0.32900484  0.66890138  0.12638184  1
  N  N157  1  0.49339930  0.50402744  0.90069929  1
  N  N158  1  0.00902838  0.33749307  0.11892778  1
  N  N159  1  0.67314882  0.31102935  0.12854240  1
  N  N160  1  0.49907294  0.82688562  0.38346561  1
  N  N161  1  0.66299975  -0.01007178  0.37243494  1
  N  N162  1  -0.00399434  0.34224034  0.86805665  1
  N  N163  1  0.50880394  0.15702015  0.13291591  1
  N  N164  1  0.84047714  0.50405952  0.12751404  1
  N  N165  1  0.16829738  0.83520158  0.37935356  1
  N  N166  1  0.67272209  0.32433979  0.87219130  1
  N  N167  1  0.35091837  0.33251116  0.87570259  1
  N  N168  1  0.83612391  0.17226017  0.12515367  1
  N  N169  1  0.17304629  0.82569015  0.12532213  1
  N  N170  1  0.16534108  0.15685891  0.88127020  1
  N  N171  1  0.49382438  0.84532426  0.13355818  1
  N  N172  1  0.65530495  -0.00169698  0.87232681  1
  N  N173  1  0.16387179  0.16491455  0.63084483  1
  N  N174  1  0.50079180  0.82362622  0.88316759  1
  N  N175  1  0.67496551  0.67894605  0.11793055  1
  N  N176  1  0.00770570  0.66700977  0.86912714  1
  O  O177  1  0.35233956  0.64071880  0.62203487  1
  O  O178  1  0.31516951  0.32822100  0.10987952  1
  O  O179  1  0.66347598  0.67886120  0.63273801  1
  O  O180  1  0.51706102  0.49638264  0.70025775  1
  O  O181  1  0.51780600  0.16037990  0.86886397  1
  O  O182  1  0.29909904  0.01432455  0.37167962  1
  O  O183  1  0.80955956  0.53182575  0.63270232  1
  O  O184  1  0.65607008  -0.00220247  0.12430151  1
  O  O185  1  0.51509031  0.79692905  0.62850664  1
  O  O186  1  0.84166226  0.16348011  0.37759654  1
  O  O187  1  0.00671850  0.33225697  0.61978062  1
  O  O188  1  -0.01139473  0.01602674  0.36575167  1
  O  O189  1  0.31205059  0.01067516  0.61706284  1
  O  O190  1  0.85994081  0.81988367  0.86603291  1
  O  O191  1  0.33971310  -0.00158730  0.13430099  1
  O  O192  1  0.33493018  0.33811472  0.63262165  1
  O  O193  1  0.02064037  0.31612945  0.37500251  1
  O  O194  1  0.67375226  0.32972669  0.37937712  1
  O  O195  1  0.15960190  0.50851941  0.11977739  1
  O  O196  1  -0.00064429  0.67299488  0.13326816  1
  O  O197  1  0.66789925  -0.00741035  0.62116504  1
  O  O198  1  0.15355910  0.51369822  0.87159323  1
  O  O199  1  0.48094044  0.19027262  0.36879515  1
  O  O200  1  0.66559901  0.67408663  0.37280587  1
  O  O201  1  0.82507744  0.17128340  0.87690510  1
  O  O202  1  0.85830765  0.83256306  0.11705205  1
  O  O203  1  0.82261222  0.52792194  0.38488204  1
  O  O204  1  0.83261053  0.16287601  0.62290433  1
  O  O205  1  0.33938241  -0.00185740  0.86783308  1
  O  O206  1  0.18457142  0.15695053  0.11564185  1
  O  O207  1  0.32101314  0.33185921  0.36617327  1
  O  O208  1  0.16730704  0.16898706  0.36113958  1
  O  O209  1  0.68121778  0.65817603  0.89515253  1
  O  O210  1  0.17387587  0.82948681  0.85766873  1
  O  O211  1  0.51134066  0.18015226  0.61335216  1
  O  O212  1  0.34276038  0.65447663  0.37758381  1
  O  O213  1  0.82035049  0.84183901  0.36953676  1
  O  O214  1  0.16770811  0.49102513  0.62059861  1
  O  O215  1  0.81149859  0.84535013  0.63389049  1
