# generated using pymatgen
data_Sr24Ta24N11O13
_symmetry_space_group_name_H-M   'P 1'
_cell_length_a   16.86743448
_cell_length_b   16.68898049
_cell_length_c   15.74206575
_cell_angle_alpha   89.76378195
_cell_angle_beta   90.26926012
_cell_angle_gamma   89.80106798
_symmetry_Int_Tables_number   1
_chemical_formula_structural   Sr24Ta24N11O13
_chemical_formula_sum   'Sr72 Ta72 N33 O39'
_cell_volume   4431.28239083
_cell_formula_units_Z   3
loop_
 _symmetry_equiv_pos_site_id
 _symmetry_equiv_pos_as_xyz
  1  'x, y, z'
loop_
 _atom_site_type_symbol
 _atom_site_label
 _atom_site_symmetry_multiplicity
 _atom_site_fract_x
 _atom_site_fract_y
 _atom_site_fract_z
 _atom_site_occupancy
  Sr  Sr0  1  0.00892897  0.16996557  0.14484697  1
  Sr  Sr1  1  0.01132560  0.15983880  0.65605459  1
  Sr  Sr2  1  0.00197159  0.49219614  0.09005540  1
  Sr  Sr3  1  0.00131237  0.50411712  0.63530156  1
  Sr  Sr4  1  0.01434859  0.83298670  0.12974367  1
  Sr  Sr5  1  0.01334692  0.83937845  0.59704497  1
  Sr  Sr6  1  0.35175594  0.16309434  0.12518107  1
  Sr  Sr7  1  0.32806533  0.18312041  0.57749724  1
  Sr  Sr8  1  0.34589023  0.51074911  0.11346762  1
  Sr  Sr9  1  0.34389907  0.48455822  0.67137470  1
  Sr  Sr10  1  0.35404851  0.83821142  0.16042809  1
  Sr  Sr11  1  0.34349353  0.81733629  0.61344462  1
  Sr  Sr12  1  0.69473004  0.16410850  0.10159876  1
  Sr  Sr13  1  0.66923649  0.16894855  0.63498892  1
  Sr  Sr14  1  0.68405425  0.49086873  0.14011831  1
  Sr  Sr15  1  0.66423465  0.50546620  0.60235529  1
  Sr  Sr16  1  0.66384078  0.83727800  0.12111465  1
  Sr  Sr17  1  0.70158210  0.83280525  0.63449793  1
  Sr  Sr18  1  0.14916548  0.00867991  0.10628972  1
  Sr  Sr19  1  0.15312977  -0.00925078  0.65808199  1
  Sr  Sr20  1  0.14823010  0.33119903  0.14134060  1
  Sr  Sr21  1  0.15788457  0.33160822  0.62161533  1
  Sr  Sr22  1  0.18728665  0.66758326  0.13895143  1
  Sr  Sr23  1  0.15413531  0.67258424  0.58110376  1
  Sr  Sr24  1  0.49181295  -0.00119982  0.14617145  1
  Sr  Sr25  1  0.46291170  0.00581799  0.61098338  1
  Sr  Sr26  1  0.47564878  0.33657199  0.13188161  1
  Sr  Sr27  1  0.49360428  0.33220844  0.64441419  1
  Sr  Sr28  1  0.51818805  0.66130769  0.08327650  1
  Sr  Sr29  1  0.49154583  0.66019711  0.62755934  1
  Sr  Sr30  1  0.81230643  -0.01641496  0.08181003  1
  Sr  Sr31  1  0.82603390  0.01579845  0.63414929  1
  Sr  Sr32  1  0.83523043  0.32905307  0.13432433  1
  Sr  Sr33  1  0.80933532  0.34831123  0.57941268  1
  Sr  Sr34  1  0.82993802  0.67278780  0.15540480  1
  Sr  Sr35  1  0.83479884  0.65624967  0.65062254  1
  Sr  Sr36  1  0.00496841  0.17542367  0.34717195  1
  Sr  Sr37  1  0.01074261  0.16437943  0.85457598  1
  Sr  Sr38  1  0.01766755  0.48638619  0.42141666  1
  Sr  Sr39  1  -0.00160579  0.50182128  0.86900847  1
  Sr  Sr40  1  0.00490882  0.82088011  0.36222076  1
  Sr  Sr41  1  0.02304782  0.84051822  0.90552590  1
  Sr  Sr42  1  0.35478745  0.16547375  0.37034776  1
  Sr  Sr43  1  0.33134998  0.15625998  0.92059532  1
  Sr  Sr44  1  0.33071447  0.49798599  0.33278222  1
  Sr  Sr45  1  0.34195814  0.51447093  0.88588378  1
  Sr  Sr46  1  0.35373355  0.82251061  0.38964185  1
  Sr  Sr47  1  0.33890546  0.85207505  0.83053512  1
  Sr  Sr48  1  0.69664974  0.16094584  0.40022501  1
  Sr  Sr49  1  0.65963783  0.16739318  0.85575170  1
  Sr  Sr50  1  0.67227628  0.49584168  0.37458225  1
  Sr  Sr51  1  0.67908860  0.50576839  0.88216889  1
  Sr  Sr52  1  0.67931659  0.83758276  0.36347671  1
  Sr  Sr53  1  0.68192535  0.83557365  0.88216434  1
  Sr  Sr54  1  0.12705258  0.00289483  0.34868397  1
  Sr  Sr55  1  0.15961626  0.00665432  0.88064930  1
  Sr  Sr56  1  0.15856176  0.32289357  0.39076375  1
  Sr  Sr57  1  0.14500453  0.34567056  0.83936468  1
  Sr  Sr58  1  0.17373058  0.67425435  0.36658333  1
  Sr  Sr59  1  0.15241978  0.66121244  0.92331066  1
  Sr  Sr60  1  0.49190752  -0.00438799  0.36294039  1
  Sr  Sr61  1  0.47945561  0.00567773  0.86490259  1
  Sr  Sr62  1  0.47848541  0.33905314  0.35328529  1
  Sr  Sr63  1  0.47741043  0.33183194  0.87176023  1
  Sr  Sr64  1  0.51444210  0.65892971  0.41873018  1
  Sr  Sr65  1  0.48733299  0.66873699  0.86841051  1
  Sr  Sr66  1  0.82451837  -0.01501623  0.41973655  1
  Sr  Sr67  1  0.81206939  0.01440538  0.86245706  1
  Sr  Sr68  1  0.82799915  0.33212563  0.36631167  1
  Sr  Sr69  1  0.82200953  0.34920749  0.91651039  1
  Sr  Sr70  1  0.82795392  0.66989450  0.34724620  1
  Sr  Sr71  1  0.83973304  0.65789391  0.84465118  1
  Ta  Ta72  1  0.15402247  0.20016199  -0.00374191  1
  Ta  Ta73  1  0.14564571  0.13972582  0.50367464  1
  Ta  Ta74  1  0.17590045  0.46704044  -0.00520904  1
  Ta  Ta75  1  0.21061501  0.49635350  0.50473914  1
  Ta  Ta76  1  0.21614572  0.83747093  0.00437218  1
  Ta  Ta77  1  0.17987867  0.86497855  0.49743334  1
  Ta  Ta78  1  0.52318263  0.16496990  -0.00308131  1
  Ta  Ta79  1  0.52423662  0.17452069  0.49454770  1
  Ta  Ta80  1  0.52818698  0.47949853  -0.00019946  1
  Ta  Ta81  1  0.47492871  0.48108285  0.50045184  1
  Ta  Ta82  1  0.48300113  0.84811328  -0.00135746  1
  Ta  Ta83  1  0.54274381  0.84538189  0.50071742  1
  Ta  Ta84  1  0.86976727  0.16879621  -0.00317736  1
  Ta  Ta85  1  0.87502915  0.16917483  0.50358825  1
  Ta  Ta86  1  0.83513716  0.54006127  -0.00103604  1
  Ta  Ta87  1  0.83838988  0.53559358  0.49717402  1
  Ta  Ta88  1  0.84398382  0.79316452  0.00069402  1
  Ta  Ta89  1  0.84294606  0.79361819  0.49417257  1
  Ta  Ta90  1  0.19488756  0.16494398  0.24340357  1
  Ta  Ta91  1  0.20217123  0.16884561  0.75014909  1
  Ta  Ta92  1  0.13932652  0.49275781  0.25101052  1
  Ta  Ta93  1  0.16935466  0.55519302  0.75456104  1
  Ta  Ta94  1  0.19145679  0.85443214  0.24173639  1
  Ta  Ta95  1  0.16464483  0.78384828  0.75173394  1
  Ta  Ta96  1  0.55353988  0.16846005  0.25309267  1
  Ta  Ta97  1  0.45371425  0.16461716  0.75002974  1
  Ta  Ta98  1  0.51091854  0.53322593  0.25049769  1
  Ta  Ta99  1  0.53552478  0.50246554  0.75310404  1
  Ta  Ta100  1  0.51453683  0.78739059  0.25738439  1
  Ta  Ta101  1  0.53094807  0.83500285  0.74469819  1
  Ta  Ta102  1  0.83053653  0.11588160  0.24860027  1
  Ta  Ta103  1  0.83247467  0.22798304  0.74924315  1
  Ta  Ta104  1  0.87834984  0.49674583  0.25990926  1
  Ta  Ta105  1  0.82498272  0.46372750  0.74573768  1
  Ta  Ta106  1  0.83322801  0.87358123  0.25084073  1
  Ta  Ta107  1  0.87733080  0.83446411  0.74960662  1
  Ta  Ta108  1  -0.05147328  -0.00435449  0.24302809  1
  Ta  Ta109  1  -0.02022594  -0.03235580  0.75513934  1
  Ta  Ta110  1  -0.00163185  0.37175818  0.25354198  1
  Ta  Ta111  1  -0.04650103  0.33727397  0.75102781  1
  Ta  Ta112  1  0.00653260  0.61417347  0.25867659  1
  Ta  Ta113  1  0.02362774  0.68967266  0.74554311  1
  Ta  Ta114  1  0.29536991  0.00377959  0.24389390  1
  Ta  Ta115  1  0.32245070  0.05726602  0.74725753  1
  Ta  Ta116  1  0.29905441  0.32069358  0.24798556  1
  Ta  Ta117  1  0.32317579  0.28004270  0.75205054  1
  Ta  Ta118  1  0.38875986  0.66842285  0.24705588  1
  Ta  Ta119  1  0.29144679  0.67094974  0.75195148  1
  Ta  Ta120  1  0.68854637  0.01548636  0.25538416  1
  Ta  Ta121  1  0.62818076  -0.01797537  0.74420867  1
  Ta  Ta122  1  0.65044167  0.30617614  0.25144887  1
  Ta  Ta123  1  0.68272955  0.34929728  0.74403926  1
  Ta  Ta124  1  0.63393102  0.66700379  0.25476081  1
  Ta  Ta125  1  0.64807964  0.66707047  0.74541227  1
  Ta  Ta126  1  -0.02221291  0.03068712  -0.00149210  1
  Ta  Ta127  1  0.00303521  0.02949810  0.50657470  1
  Ta  Ta128  1  0.00431487  0.31038860  -0.00177801  1
  Ta  Ta129  1  -0.01247097  0.29563000  0.50217977  1
  Ta  Ta130  1  -0.03768706  0.66951940  0.00667123  1
  Ta  Ta131  1  -0.03438990  0.66576292  0.49691406  1
  Ta  Ta132  1  0.33532529  -0.03929573  0.00618474  1
  Ta  Ta133  1  0.27913480  0.00196447  0.49571739  1
  Ta  Ta134  1  0.28719132  0.33857131  0.00190686  1
  Ta  Ta135  1  0.32982744  0.37568234  0.49588261  1
  Ta  Ta136  1  0.34039314  0.72009680  0.00322064  1
  Ta  Ta137  1  0.33292871  0.60998445  0.49980014  1
  Ta  Ta138  1  0.62243083  0.00529888  -0.00817208  1
  Ta  Ta139  1  0.63398957  -0.00506055  0.50256943  1
  Ta  Ta140  1  0.63256226  0.33001577  -0.00267159  1
  Ta  Ta141  1  0.62009078  0.32531973  0.49893680  1
  Ta  Ta142  1  0.70810601  0.66771302  0.00074604  1
  Ta  Ta143  1  0.70053784  0.68015814  0.49874632  1
  N  N144  1  0.84027862  0.49205848  0.37931163  1
  N  N145  1  0.16708953  0.51020103  0.87406749  1
  N  N146  1  -0.00212434  0.32890826  0.38335706  1
  N  N147  1  0.33248029  0.00619201  0.12047450  1
  N  N148  1  0.83458970  0.50008073  0.62669073  1
  N  N149  1  0.50894469  0.50131256  0.12320893  1
  N  N150  1  0.49198442  0.16949009  0.87705506  1
  N  N151  1  0.66745906  0.00280163  0.37817259  1
  N  N152  1  0.65628135  0.33294651  0.62219854  1
  N  N153  1  0.32209859  0.33820285  0.12330446  1
  N  N154  1  0.32323180  0.33879668  0.37531063  1
  N  N155  1  0.16568034  0.16817815  0.87679356  1
  N  N156  1  0.50030830  0.49892377  0.37494962  1
  N  N157  1  0.49978200  0.49804876  0.62969361  1
  N  N158  1  0.51427668  0.82464996  0.38013316  1
  N  N159  1  -0.01670030  -0.00472878  0.12201610  1
  N  N160  1  0.50019281  0.50621719  0.87536544  1
  N  N161  1  -0.00485279  -0.00016039  0.87559112  1
  N  N162  1  0.66517893  0.66862961  0.62559810  1
  N  N163  1  0.35522358  0.67927131  0.12475460  1
  N  N164  1  0.17153867  0.16542897  0.12264999  1
  N  N165  1  0.17068208  0.83037540  0.12326890  1
  N  N166  1  0.16481220  0.16633454  0.62231727  1
  N  N167  1  0.64981334  -0.00044840  0.86948373  1
  N  N168  1  0.66897390  0.66374624  0.37554075  1
  N  N169  1  0.51045660  0.15907253  0.37250270  1
  N  N170  1  0.00174970  0.67042819  0.62488776  1
  N  N171  1  -0.01298850  0.33781384  0.87577360  1
  N  N172  1  0.84210555  0.83333811  0.37054320  1
  N  N173  1  -0.00585141  0.00059904  0.62755796  1
  N  N174  1  -0.00790445  0.33578462  0.13188586  1
  N  N175  1  0.83650761  0.50318900  0.87897147  1
  N  N176  1  0.00737585  0.65851620  0.37348578  1
  O  O177  1  0.00111864  0.33304905  0.62734103  1
  O  O178  1  0.18723152  0.50889821  0.63474585  1
  O  O179  1  0.32177757  0.31356825  0.87826742  1
  O  O180  1  -0.00509096  0.67365326  0.88245615  1
  O  O181  1  0.85216684  0.15160294  0.37531125  1
  O  O182  1  0.50743216  0.82155135  0.62292324  1
  O  O183  1  0.30828901  0.02163839  0.62029542  1
  O  O184  1  0.15884997  0.16182370  0.37228244  1
  O  O185  1  0.32412608  0.32868611  0.62795327  1
  O  O186  1  0.34749214  0.65136800  0.37820569  1
  O  O187  1  0.84317636  0.50059425  0.12356222  1
  O  O188  1  0.50079037  0.83707730  0.87304550  1
  O  O189  1  -0.02028056  0.00035088  0.38168552  1
  O  O190  1  0.84659330  0.16379007  0.12683252  1
  O  O191  1  0.65181633  0.32289653  0.12784198  1
  O  O192  1  0.83025315  0.82747127  0.12563508  1
  O  O193  1  0.65392051  0.33009231  0.87403112  1
  O  O194  1  0.17236299  0.49342709  0.37370374  1
  O  O195  1  0.84268936  0.18434907  0.87229659  1
  O  O196  1  0.68472499  0.67151211  0.87606335  1
  O  O197  1  0.66114827  0.32866399  0.37882559  1
  O  O198  1  0.31810230  0.65814749  0.61822199  1
  O  O199  1  0.30424561  0.00800253  0.37576078  1
  O  O200  1  0.32595574  0.68012960  0.87946814  1
  O  O201  1  0.85507984  0.81571818  0.87743018  1
  O  O202  1  0.17685337  0.82207193  0.87441960  1
  O  O203  1  0.15420158  0.49538489  0.12075036  1
  O  O204  1  0.32689268  0.00534333  0.87888760  1
  O  O205  1  0.66155100  -0.00073166  0.11535460  1
  O  O206  1  0.51397619  0.15959079  0.13217173  1
  O  O207  1  0.17295544  0.83197810  0.62204108  1
  O  O208  1  0.48826475  0.16770173  0.62432989  1
  O  O209  1  0.17522097  0.84706770  0.37308217  1
  O  O210  1  0.67078935  0.01046034  0.62807787  1
  O  O211  1  0.50752780  0.83392292  0.12499315  1
  O  O212  1  0.67822929  0.67197959  0.12556680  1
  O  O213  1  -0.01575822  0.65663611  0.13280640  1
  O  O214  1  0.84432940  0.17849954  0.62895015  1
  O  O215  1  0.85802374  0.82690149  0.62314247  1
