# generated using pymatgen
data_Sr24Ta24N11O13
_symmetry_space_group_name_H-M   'P 1'
_cell_length_a   16.66981957
_cell_length_b   16.95549723
_cell_length_c   15.68214500
_cell_angle_alpha   90.18294590
_cell_angle_beta   90.09800015
_cell_angle_gamma   90.43522191
_symmetry_Int_Tables_number   1
_chemical_formula_structural   Sr24Ta24N11O13
_chemical_formula_sum   'Sr72 Ta72 N33 O39'
_cell_volume   4432.32397933
_cell_formula_units_Z   3
loop_
 _symmetry_equiv_pos_site_id
 _symmetry_equiv_pos_as_xyz
  1  'x, y, z'
loop_
 _atom_site_type_symbol
 _atom_site_label
 _atom_site_symmetry_multiplicity
 _atom_site_fract_x
 _atom_site_fract_y
 _atom_site_fract_z
 _atom_site_occupancy
  Sr  Sr0  1  -0.00331156  0.19377335  0.09916356  1
  Sr  Sr1  1  -0.00668502  0.18093900  0.61215359  1
  Sr  Sr2  1  -0.00963515  0.51255150  0.16282172  1
  Sr  Sr3  1  0.00296199  0.50616679  0.61934620  1
  Sr  Sr4  1  -0.00578442  0.83720877  0.11618972  1
  Sr  Sr5  1  0.00214525  0.86424539  0.64311491  1
  Sr  Sr6  1  0.32249566  0.16624265  0.16221801  1
  Sr  Sr7  1  0.33795060  0.17466058  0.61668492  1
  Sr  Sr8  1  0.32493581  0.50082325  0.10929141  1
  Sr  Sr9  1  0.34595325  0.52125188  0.66408111  1
  Sr  Sr10  1  0.32985387  0.85376818  0.10428693  1
  Sr  Sr11  1  0.32563954  0.84087175  0.60523803  1
  Sr  Sr12  1  0.65984055  0.16210113  0.10776447  1
  Sr  Sr13  1  0.66802643  0.20092054  0.65754664  1
  Sr  Sr14  1  0.64862010  0.53837788  0.11123708  1
  Sr  Sr15  1  0.65691464  0.51072249  0.59588256  1
  Sr  Sr16  1  0.65816162  0.83620219  0.16814412  1
  Sr  Sr17  1  0.66613489  0.84717145  0.62212146  1
  Sr  Sr18  1  0.16373262  -0.00519438  0.11562421  1
  Sr  Sr19  1  0.17372191  0.00457391  0.67054209  1
  Sr  Sr20  1  0.17417673  0.32505104  0.10843765  1
  Sr  Sr21  1  0.15860883  0.32026905  0.58691998  1
  Sr  Sr22  1  0.16557141  0.63357302  0.17220292  1
  Sr  Sr23  1  0.16647765  0.66777771  0.61236274  1
  Sr  Sr24  1  0.50902987  -0.01357258  0.10427788  1
  Sr  Sr25  1  0.49931307  -0.02210473  0.60323981  1
  Sr  Sr26  1  0.49900284  0.29336566  0.14960978  1
  Sr  Sr27  1  0.49312319  0.33129325  0.62115398  1
  Sr  Sr28  1  0.47869259  0.65644056  0.11526062  1
  Sr  Sr29  1  0.51484282  0.65795657  0.64948968  1
  Sr  Sr30  1  0.82976428  -0.04249994  0.15910450  1
  Sr  Sr31  1  0.83217395  -0.01579673  0.60901844  1
  Sr  Sr32  1  0.82654897  0.31232782  0.11717973  1
  Sr  Sr33  1  0.84387809  0.32426111  0.66636066  1
  Sr  Sr34  1  0.85322187  0.66055736  0.10909324  1
  Sr  Sr35  1  0.84223860  0.63325287  0.60556131  1
  Sr  Sr36  1  -0.01241011  0.17962976  0.39304904  1
  Sr  Sr37  1  0.00264517  0.19047917  0.88792194  1
  Sr  Sr38  1  0.02459373  0.50553618  0.38778704  1
  Sr  Sr39  1  -0.01436169  0.51299389  0.84560036  1
  Sr  Sr40  1  -0.00041731  0.87536845  0.35477786  1
  Sr  Sr41  1  -0.00296121  0.83934935  0.88444885  1
  Sr  Sr42  1  0.34487136  0.17214497  0.38428166  1
  Sr  Sr43  1  0.32953390  0.16392320  0.83675651  1
  Sr  Sr44  1  0.33754351  0.53418507  0.33489526  1
  Sr  Sr45  1  0.33466834  0.49359397  0.88376326  1
  Sr  Sr46  1  0.32703527  0.84390820  0.39787800  1
  Sr  Sr47  1  0.33343594  0.85044119  0.89850727  1
  Sr  Sr48  1  0.66954734  0.19585422  0.33758951  1
  Sr  Sr49  1  0.66029338  0.16870418  0.89017956  1
  Sr  Sr50  1  0.64742695  0.50267040  0.39006259  1
  Sr  Sr51  1  0.66477132  0.52632415  0.90328118  1
  Sr  Sr52  1  0.66764523  0.86024752  0.38408459  1
  Sr  Sr53  1  0.65906640  0.83758296  0.83369479  1
  Sr  Sr54  1  0.17805660  -0.00104298  0.33291976  1
  Sr  Sr55  1  0.16223374  -0.00066215  0.88148645  1
  Sr  Sr56  1  0.17508611  0.30733598  0.38892982  1
  Sr  Sr57  1  0.16963919  0.33439963  0.90315132  1
  Sr  Sr58  1  0.17511782  0.67372060  0.39469379  1
  Sr  Sr59  1  0.16179901  0.63642817  0.84114864  1
  Sr  Sr60  1  0.50256923  -0.01875457  0.39739642  1
  Sr  Sr61  1  0.51140980  -0.01398569  0.89066461  1
  Sr  Sr62  1  0.50241253  0.32904963  0.38660921  1
  Sr  Sr63  1  0.49624467  0.30569085  0.84916932  1
  Sr  Sr64  1  0.51194314  0.65740517  0.34364908  1
  Sr  Sr65  1  0.48990982  0.65921876  0.88056928  1
  Sr  Sr66  1  0.83459530  -0.00007005  0.38961828  1
  Sr  Sr67  1  0.82797779  -0.03604848  0.84679127  1
  Sr  Sr68  1  0.84128733  0.32495787  0.33336271  1
  Sr  Sr69  1  0.82459353  0.31829508  0.88154511  1
  Sr  Sr70  1  0.85299197  0.61987416  0.39361201  1
  Sr  Sr71  1  0.84762672  0.65363871  0.89445626  1
  Ta  Ta72  1  0.20333594  0.16140947  -0.00451977  1
  Ta  Ta73  1  0.16738407  0.12797949  0.50314157  1
  Ta  Ta74  1  0.13610396  0.51127160  0.00720427  1
  Ta  Ta75  1  0.21404085  0.49913796  0.50020173  1
  Ta  Ta76  1  0.16110753  0.77952675  0.00588953  1
  Ta  Ta77  1  0.14689653  0.86912833  0.50059243  1
  Ta  Ta78  1  0.46223849  0.16241596  -0.00185060  1
  Ta  Ta79  1  0.53477543  0.16165770  0.50005697  1
  Ta  Ta80  1  0.49629656  0.44194468  0.01086375  1
  Ta  Ta81  1  0.46455930  0.51012904  0.49601250  1
  Ta  Ta82  1  0.54104801  0.81819277  -0.00292334  1
  Ta  Ta83  1  0.50487063  0.78744505  0.50002618  1
  Ta  Ta84  1  0.83059797  0.10153581  0.00765398  1
  Ta  Ta85  1  0.80707870  0.19330292  0.49856063  1
  Ta  Ta86  1  0.84642360  0.47614127  -0.00233321  1
  Ta  Ta87  1  0.82740472  0.44394553  0.50321529  1
  Ta  Ta88  1  0.79829790  0.82683250  -0.00459032  1
  Ta  Ta89  1  0.83837120  0.79866961  0.48984575  1
  Ta  Ta90  1  0.13039553  0.17223563  0.24127137  1
  Ta  Ta91  1  0.15093429  0.19605607  0.74863187  1
  Ta  Ta92  1  0.17471575  0.45022873  0.25221212  1
  Ta  Ta93  1  0.16981475  0.45503096  0.74487908  1
  Ta  Ta94  1  0.17364474  0.81381123  0.25234286  1
  Ta  Ta95  1  0.17927817  0.81544814  0.74941954  1
  Ta  Ta96  1  0.50260359  0.11688868  0.24736094  1
  Ta  Ta97  1  0.50607151  0.11966114  0.75000052  1
  Ta  Ta98  1  0.50038076  0.46738401  0.24104729  1
  Ta  Ta99  1  0.52959099  0.48355142  0.75161382  1
  Ta  Ta100  1  0.46963037  0.83719422  0.25433333  1
  Ta  Ta101  1  0.46851020  0.83049223  0.74874561  1
  Ta  Ta102  1  0.84346665  0.13596305  0.23609320  1
  Ta  Ta103  1  0.83614102  0.13412512  0.75249594  1
  Ta  Ta104  1  0.79211872  0.49891049  0.24499646  1
  Ta  Ta105  1  0.79365886  0.49770493  0.74912383  1
  Ta  Ta106  1  0.83803792  0.78324834  0.27510809  1
  Ta  Ta107  1  0.83896707  0.78308082  0.74440908  1
  Ta  Ta108  1  -0.00533392  0.04850755  0.24547357  1
  Ta  Ta109  1  -0.01531943  0.04496917  0.74998017  1
  Ta  Ta110  1  0.03168815  0.33269320  0.25532968  1
  Ta  Ta111  1  0.03852572  0.34192007  0.74526686  1
  Ta  Ta112  1  -0.00071182  0.69964722  0.26517640  1
  Ta  Ta113  1  -0.00855218  0.69354616  0.74274468  1
  Ta  Ta114  1  0.36453196  -0.00908586  0.24760606  1
  Ta  Ta115  1  0.36207603  -0.01133841  0.75116201  1
  Ta  Ta116  1  0.32949279  0.35367451  0.25218661  1
  Ta  Ta117  1  0.29121841  0.33853517  0.74059365  1
  Ta  Ta118  1  0.33015715  0.71914160  0.25256162  1
  Ta  Ta119  1  0.32720883  0.70856739  0.75157961  1
  Ta  Ta120  1  0.65820826  0.02369591  0.25442432  1
  Ta  Ta121  1  0.66084382  0.02607818  0.73715334  1
  Ta  Ta122  1  0.66106113  0.37729778  0.23325630  1
  Ta  Ta123  1  0.66404000  0.38120929  0.75593067  1
  Ta  Ta124  1  0.70978304  0.66401841  0.25753071  1
  Ta  Ta125  1  0.69893568  0.65704803  0.74628643  1
  Ta  Ta126  1  -0.02935758  0.01702441  0.00118980  1
  Ta  Ta127  1  0.05077561  0.01115515  0.50090977  1
  Ta  Ta128  1  -0.00490134  0.38326749  0.00170092  1
  Ta  Ta129  1  -0.03723830  0.34447477  0.49979207  1
  Ta  Ta130  1  0.03873386  0.65716484  0.01192028  1
  Ta  Ta131  1  -0.00271251  0.72500026  0.48592553  1
  Ta  Ta132  1  0.33465592  0.03936159  -0.00082690  1
  Ta  Ta133  1  0.29002638  0.00928735  0.50570340  1
  Ta  Ta134  1  0.35174506  0.30478810  -0.00308019  1
  Ta  Ta135  1  0.33406440  0.38679725  0.50389027  1
  Ta  Ta136  1  0.28591820  0.67435675  0.00341112  1
  Ta  Ta137  1  0.36099711  0.65707908  0.49680164  1
  Ta  Ta138  1  0.69011162  -0.03067275  0.00550806  1
  Ta  Ta139  1  0.66971277  0.06002994  0.50089638  1
  Ta  Ta140  1  0.64994327  0.35775856  0.01418787  1
  Ta  Ta141  1  0.69246240  0.32591519  0.49758256  1
  Ta  Ta142  1  0.67265766  0.71329297  0.00053642  1
  Ta  Ta143  1  0.67068866  0.69513466  0.50011564  1
  N  N144  1  0.33322836  0.00275219  0.87274248  1
  N  N145  1  0.82912654  0.81317358  0.87272163  1
  N  N146  1  0.49933616  0.82125216  0.62385915  1
  N  N147  1  0.16210115  0.48636182  0.12637923  1
  N  N148  1  0.50419458  0.82321308  0.87662251  1
  N  N149  1  0.48430274  0.50061424  0.11644583  1
  N  N150  1  0.82935835  0.49128406  0.87685293  1
  N  N151  1  0.50189599  0.49736949  0.63088704  1
  N  N152  1  0.33281289  0.34090028  0.62359959  1
  N  N153  1  0.16760565  0.84197273  0.37170030  1
  N  N154  1  0.01158989  0.66890923  0.13557985  1
  N  N155  1  0.66745586  0.31399801  0.12995080  1
  N  N156  1  0.01649116  0.66110796  0.38608933  1
  N  N157  1  0.49787488  0.82585044  0.37450280  1
  N  N158  1  0.67243214  -0.01329406  0.12688394  1
  N  N159  1  0.67480064  0.66737656  0.62259827  1
  N  N160  1  0.33485071  0.00395415  0.12738813  1
  N  N161  1  0.49917907  0.15075682  0.87079389  1
  N  N162  1  0.16443873  0.83673433  0.62890311  1
  N  N163  1  0.67334200  0.00219772  0.61646126  1
  N  N164  1  0.00474347  0.33531272  0.37550602  1
  N  N165  1  0.16684458  0.16360960  0.62463554  1
  N  N166  1  0.16146718  0.16549390  0.12145187  1
  N  N167  1  0.67471306  0.01469052  0.38285781  1
  N  N168  1  0.49199208  0.49623470  0.37136889  1
  N  N169  1  0.82185601  0.16084447  0.11716404  1
  N  N170  1  0.82776817  0.84976518  0.37737102  1
  N  N171  1  0.82791963  0.48091811  0.62464019  1
  N  N172  1  0.33736560  0.68218743  0.37661971  1
  N  N173  1  0.32824532  0.00352728  0.62229280  1
  N  N174  1  0.49465986  0.14491349  0.12509490  1
  N  N175  1  -0.00107527  0.33890162  0.62581154  1
  N  N176  1  0.16659275  0.16911157  0.87542642  1
  O  O177  1  0.67182329  0.34717132  0.62238390  1
  O  O178  1  0.31696858  0.67296989  0.12831871  1
  O  O179  1  0.16781093  0.15721100  0.36538970  1
  O  O180  1  0.50965561  0.16419149  0.37449526  1
  O  O181  1  0.33706584  0.32479037  0.12885566  1
  O  O182  1  0.80805937  0.47731848  0.37060932  1
  O  O183  1  0.81977449  0.13570721  0.87888727  1
  O  O184  1  0.00976476  0.02799906  0.37433131  1
  O  O185  1  0.67069666  0.34420580  0.36881194  1
  O  O186  1  0.00506741  0.36028942  0.87538991  1
  O  O187  1  0.33014043  0.68032488  0.62708894  1
  O  O188  1  0.00059036  0.35642181  0.12611245  1
  O  O189  1  0.51271788  0.16829861  0.62563521  1
  O  O190  1  0.31392191  0.68291648  0.87902149  1
  O  O191  1  0.67242607  -0.00923934  0.86546200  1
  O  O192  1  0.67059026  0.68131697  0.87050516  1
  O  O193  1  0.82568044  0.17567689  0.36996227  1
  O  O194  1  0.68191339  0.65203343  0.38106513  1
  O  O195  1  0.33772428  0.34255216  0.37872387  1
  O  O196  1  0.32841607  0.00318094  0.37505436  1
  O  O197  1  0.00433415  0.02407279  0.62352322  1
  O  O198  1  0.15490870  0.83771144  0.11986392  1
  O  O199  1  0.18588006  0.49555571  0.37396579  1
  O  O200  1  0.49085799  0.47750420  0.88216358  1
  O  O201  1  0.69051880  0.68506397  0.13303974  1
  O  O202  1  0.83907576  0.81166097  0.12447124  1
  O  O203  1  0.00880062  0.66943454  0.86898814  1
  O  O204  1  0.15711123  0.81201183  0.88316005  1
  O  O205  1  -0.00356121  0.01434094  0.12186149  1
  O  O206  1  0.18912690  0.50615329  0.62555664  1
  O  O207  1  0.82509434  0.17079373  0.62515931  1
  O  O208  1  0.82808918  0.82909068  0.62484899  1
  O  O209  1  -0.00668939  0.02472213  0.87347534  1
  O  O210  1  0.50512757  0.82881581  0.12264887  1
  O  O211  1  0.81839513  0.50838506  0.12220828  1
  O  O212  1  0.66735784  0.35794837  0.88524066  1
  O  O213  1  0.33307115  0.32284002  0.87041529  1
  O  O214  1  0.00914919  0.69285612  0.61605042  1
  O  O215  1  0.17134573  0.48876561  0.87345452  1
