# generated using pymatgen
data_Sr24Ta24N11O13
_symmetry_space_group_name_H-M   'P 1'
_cell_length_a   16.77199852
_cell_length_b   16.76712517
_cell_length_c   15.73290285
_cell_angle_alpha   90.06390461
_cell_angle_beta   89.94868849
_cell_angle_gamma   90.00936854
_symmetry_Int_Tables_number   1
_chemical_formula_structural   Sr24Ta24N11O13
_chemical_formula_sum   'Sr72 Ta72 N33 O39'
_cell_volume   4424.37401409
_cell_formula_units_Z   3
loop_
 _symmetry_equiv_pos_site_id
 _symmetry_equiv_pos_as_xyz
  1  'x, y, z'
loop_
 _atom_site_type_symbol
 _atom_site_label
 _atom_site_symmetry_multiplicity
 _atom_site_fract_x
 _atom_site_fract_y
 _atom_site_fract_z
 _atom_site_occupancy
  Sr  Sr0  1  0.00293089  0.17062998  0.08519910  1
  Sr  Sr1  1  0.00578920  0.15511623  0.63148623  1
  Sr  Sr2  1  0.00522473  0.49810959  0.14000560  1
  Sr  Sr3  1  -0.00847867  0.51228071  0.66023441  1
  Sr  Sr4  1  -0.00528056  0.83135262  0.12989393  1
  Sr  Sr5  1  0.01670251  0.82348974  0.58709208  1
  Sr  Sr6  1  0.32461148  0.18442754  0.16274805  1
  Sr  Sr7  1  0.34365811  0.17226372  0.61661996  1
  Sr  Sr8  1  0.32980362  0.49778620  0.08718174  1
  Sr  Sr9  1  0.34214867  0.51747897  0.64466644  1
  Sr  Sr10  1  0.34325347  0.82476377  0.12262287  1
  Sr  Sr11  1  0.33176001  0.84527842  0.61477286  1
  Sr  Sr12  1  0.66341044  0.16350127  0.11779724  1
  Sr  Sr13  1  0.66998124  0.18470892  0.66470750  1
  Sr  Sr14  1  0.64986779  0.51179214  0.12586284  1
  Sr  Sr15  1  0.67924834  0.49102159  0.58113093  1
  Sr  Sr16  1  0.67234321  0.83520899  0.14877577  1
  Sr  Sr17  1  0.66880468  0.83730110  0.62074511  1
  Sr  Sr18  1  0.15213198  -0.01169514  0.10949550  1
  Sr  Sr19  1  0.17918535  0.01528007  0.67449816  1
  Sr  Sr20  1  0.16927318  0.33649231  0.12944184  1
  Sr  Sr21  1  0.17049007  0.31549418  0.57827288  1
  Sr  Sr22  1  0.14344154  0.66027768  0.16079873  1
  Sr  Sr23  1  0.18351587  0.67756262  0.60336857  1
  Sr  Sr24  1  0.50456467  0.00311630  0.09578556  1
  Sr  Sr25  1  0.49297966  -0.00617064  0.59922057  1
  Sr  Sr26  1  0.50012949  0.31668900  0.16594050  1
  Sr  Sr27  1  0.50463244  0.34010820  0.62049717  1
  Sr  Sr28  1  0.48870973  0.65900092  0.11400806  1
  Sr  Sr29  1  0.49985678  0.67531460  0.67110395  1
  Sr  Sr30  1  0.81564603  -0.01198499  0.17157296  1
  Sr  Sr31  1  0.82930192  -0.00189312  0.61702967  1
  Sr  Sr32  1  0.82206582  0.30991606  0.10684475  1
  Sr  Sr33  1  0.84556625  0.33276823  0.63059574  1
  Sr  Sr34  1  0.83489847  0.67004029  0.07926329  1
  Sr  Sr35  1  0.82280407  0.66229605  0.63054143  1
  Sr  Sr36  1  -0.01030712  0.17920325  0.42039485  1
  Sr  Sr37  1  0.01221459  0.15067338  0.87148242  1
  Sr  Sr38  1  0.00627660  0.49157519  0.33928760  1
  Sr  Sr39  1  -0.00567822  0.50665805  0.85863853  1
  Sr  Sr40  1  0.00444028  0.83958525  0.36271372  1
  Sr  Sr41  1  -0.00002493  0.82985224  0.90733363  1
  Sr  Sr42  1  0.33558087  0.18146429  0.38050695  1
  Sr  Sr43  1  0.33541351  0.17288646  0.84904584  1
  Sr  Sr44  1  0.31816675  0.51545386  0.41367068  1
  Sr  Sr45  1  0.34030133  0.49998824  0.86680896  1
  Sr  Sr46  1  0.33843764  0.82515525  0.37265260  1
  Sr  Sr47  1  0.33536115  0.85097873  0.90035841  1
  Sr  Sr48  1  0.68108277  0.17576439  0.33054737  1
  Sr  Sr49  1  0.66161099  0.16281068  0.88458712  1
  Sr  Sr50  1  0.64707959  0.50573171  0.36970613  1
  Sr  Sr51  1  0.67605175  0.50681076  0.91633610  1
  Sr  Sr52  1  0.67053556  0.84475726  0.38601370  1
  Sr  Sr53  1  0.68198781  0.82356312  0.83764550  1
  Sr  Sr54  1  0.18715321  0.00682556  0.32986711  1
  Sr  Sr55  1  0.16784412  -0.01142851  0.88519417  1
  Sr  Sr56  1  0.16851990  0.32540685  0.36915775  1
  Sr  Sr57  1  0.17571201  0.33468852  0.91738480  1
  Sr  Sr58  1  0.16379756  0.67427996  0.38214746  1
  Sr  Sr59  1  0.16439304  0.63027964  0.83014024  1
  Sr  Sr60  1  0.48984185  -0.00841608  0.40743664  1
  Sr  Sr61  1  0.50383196  0.00326443  0.89838655  1
  Sr  Sr62  1  0.50544646  0.34288458  0.38110162  1
  Sr  Sr63  1  0.48899635  0.32101132  0.83665736  1
  Sr  Sr64  1  0.51056801  0.67920054  0.33164140  1
  Sr  Sr65  1  0.48299009  0.65274511  0.88856531  1
  Sr  Sr66  1  0.84420622  0.00140977  0.38809932  1
  Sr  Sr67  1  0.81467887  -0.00667653  0.83282641  1
  Sr  Sr68  1  0.83769054  0.33745287  0.37326638  1
  Sr  Sr69  1  0.82826494  0.32333104  0.87765716  1
  Sr  Sr70  1  0.80958054  0.65676382  0.41428332  1
  Sr  Sr71  1  0.84013811  0.66381562  0.86841305  1
  Ta  Ta72  1  0.19867729  0.16111887  0.00316958  1
  Ta  Ta73  1  0.17046844  0.12473723  0.49916102  1
  Ta  Ta74  1  0.14937268  0.52048249  0.00393982  1
  Ta  Ta75  1  0.12561967  0.49877433  0.50131949  1
  Ta  Ta76  1  0.16428823  0.77815162  -0.00561617  1
  Ta  Ta77  1  0.17580020  0.88846145  0.50064315  1
  Ta  Ta78  1  0.47911674  0.18871436  0.00706231  1
  Ta  Ta79  1  0.54268720  0.17335300  0.50038506  1
  Ta  Ta80  1  0.49849794  0.45037454  -0.00405515  1
  Ta  Ta81  1  0.49500198  0.53689483  0.50656097  1
  Ta  Ta82  1  0.54221662  0.82601637  -0.00204440  1
  Ta  Ta83  1  0.50265831  0.79639970  0.50187499  1
  Ta  Ta84  1  0.82739893  0.11015841  0.00643961  1
  Ta  Ta85  1  0.79335206  0.17241973  0.49539748  1
  Ta  Ta86  1  0.86235375  0.48450884  -0.00249230  1
  Ta  Ta87  1  0.87572694  0.49571906  0.50407712  1
  Ta  Ta88  1  0.81906259  0.86878730  -0.00155499  1
  Ta  Ta89  1  0.84689822  0.82482831  0.50951112  1
  Ta  Ta90  1  0.11848535  0.16731025  0.25532180  1
  Ta  Ta91  1  0.16714867  0.21649497  0.74563399  1
  Ta  Ta92  1  0.20453136  0.49941681  0.24932434  1
  Ta  Ta93  1  0.16123620  0.43549654  0.74525915  1
  Ta  Ta94  1  0.18002563  0.83087463  0.24507873  1
  Ta  Ta95  1  0.15028664  0.82377437  0.74636729  1
  Ta  Ta96  1  0.49908325  0.12404827  0.25296121  1
  Ta  Ta97  1  0.50103126  0.12975103  0.74290302  1
  Ta  Ta98  1  0.45720186  0.50196519  0.25560635  1
  Ta  Ta99  1  0.54517930  0.49736035  0.75040287  1
  Ta  Ta100  1  0.50182455  0.87223748  0.25380543  1
  Ta  Ta101  1  0.49043927  0.86062954  0.74774354  1
  Ta  Ta102  1  0.87317786  0.16653314  0.24956820  1
  Ta  Ta103  1  0.84587348  0.16557081  0.75188534  1
  Ta  Ta104  1  0.82057082  0.52173835  0.24690131  1
  Ta  Ta105  1  0.79652714  0.49358341  0.75063859  1
  Ta  Ta106  1  0.83208180  0.78740891  0.25259842  1
  Ta  Ta107  1  0.88144568  0.82968124  0.74070772  1
  Ta  Ta108  1  0.00089234  0.03857796  0.25100488  1
  Ta  Ta109  1  -0.00317226  -0.03868151  0.74787955  1
  Ta  Ta110  1  -0.00204297  0.29580527  0.25234045  1
  Ta  Ta111  1  0.03170456  0.32600752  0.74731341  1
  Ta  Ta112  1  -0.05344606  0.66454123  0.24450526  1
  Ta  Ta113  1  0.00456053  0.70635352  0.74937331  1
  Ta  Ta114  1  0.36907700  -0.00334460  0.24702124  1
  Ta  Ta115  1  0.36671306  -0.00222953  0.75279111  1
  Ta  Ta116  1  0.33052256  0.38038506  0.25121707  1
  Ta  Ta117  1  0.29924415  0.33810793  0.75093260  1
  Ta  Ta118  1  0.32447567  0.63769181  0.24419613  1
  Ta  Ta119  1  0.32466387  0.71064829  0.75621876  1
  Ta  Ta120  1  0.62531822  0.00234293  0.25628150  1
  Ta  Ta121  1  0.62893575  0.00290084  0.74443713  1
  Ta  Ta122  1  0.68463243  0.35796622  0.24586428  1
  Ta  Ta123  1  0.67252262  0.37212511  0.75171344  1
  Ta  Ta124  1  0.70866174  0.66621730  0.24441686  1
  Ta  Ta125  1  0.66728618  0.62037953  0.74764805  1
  Ta  Ta126  1  -0.05778329  -0.00674831  0.00278316  1
  Ta  Ta127  1  0.05373119  0.00132358  0.49793795  1
  Ta  Ta128  1  -0.00555140  0.36117815  0.00046997  1
  Ta  Ta129  1  0.00063937  0.37400390  0.49686313  1
  Ta  Ta130  1  0.02780788  0.65260217  -0.00222636  1
  Ta  Ta131  1  -0.00457403  0.63271771  0.49670380  1
  Ta  Ta132  1  0.32773407  0.05018301  -0.00078325  1
  Ta  Ta133  1  0.29686059  0.00768201  0.50487682  1
  Ta  Ta134  1  0.36005992  0.31514811  0.00350464  1
  Ta  Ta135  1  0.34413121  0.35294435  0.49873621  1
  Ta  Ta136  1  0.28281471  0.66485440  -0.00314946  1
  Ta  Ta137  1  0.38305593  0.67601330  0.50736684  1
  Ta  Ta138  1  0.68859070  -0.02386410  -0.00739805  1
  Ta  Ta139  1  0.66709588  0.05131905  0.50579978  1
  Ta  Ta140  1  0.62219656  0.33139971  0.00289235  1
  Ta  Ta141  1  0.67295954  0.29843830  0.49303366  1
  Ta  Ta142  1  0.65611005  0.69970897  -0.00068445  1
  Ta  Ta143  1  0.62054895  0.67015216  0.50794364  1
  N  N144  1  0.83439261  0.16436673  0.37651081  1
  N  N145  1  0.66775458  0.33403874  0.37122806  1
  N  N146  1  0.50567751  0.16773618  0.62135614  1
  N  N147  1  0.16873787  0.84565208  0.62671684  1
  N  N148  1  0.32178559  0.66020665  0.12291829  1
  N  N149  1  0.33137882  0.33383478  0.87593009  1
  N  N150  1  0.83507149  0.49699261  0.87829726  1
  N  N151  1  0.48692193  0.51140890  0.37354230  1
  N  N152  1  0.33274712  0.33855662  0.12892031  1
  N  N153  1  0.66253674  0.66016011  0.62615737  1
  N  N154  1  0.33500860  0.01109929  0.88028535  1
  N  N155  1  0.00154017  0.33505866  0.37387875  1
  N  N156  1  0.83373416  0.14762910  0.12721045  1
  N  N157  1  0.66997445  0.67213343  0.12315693  1
  N  N158  1  0.82352331  0.83550994  0.63054152  1
  N  N159  1  0.66917403  0.00977938  0.62365478  1
  N  N160  1  0.66453404  -0.00658332  0.87178466  1
  N  N161  1  0.50161447  0.83800240  0.62778482  1
  N  N162  1  0.33079675  0.34000291  0.37890525  1
  N  N163  1  0.16049514  0.16401218  0.37279949  1
  N  N164  1  0.83798064  0.49774264  0.62309677  1
  N  N165  1  0.50283396  0.48886788  0.87849505  1
  N  N166  1  0.16652140  0.49979835  0.12608795  1
  N  N167  1  0.16871581  0.16821268  0.63112425  1
  N  N168  1  0.00214587  0.66964320  0.86962930  1
  N  N169  1  0.49459007  0.16307697  0.12886330  1
  N  N170  1  0.65726201  0.33066166  0.12538465  1
  N  N171  1  0.32541273  0.66549915  0.87196377  1
  N  N172  1  0.33098357  0.00868209  0.62779430  1
  N  N173  1  0.50588853  0.50290298  0.62950480  1
  N  N174  1  -0.01366188  0.66375346  0.12396664  1
  N  N175  1  0.50515713  0.83546215  0.37152520  1
  N  N176  1  0.34091821  0.67826782  0.63254237  1
  O  O177  1  0.83204189  0.14780768  0.87510624  1
  O  O178  1  0.51855250  0.83776587  0.12442336  1
  O  O179  1  0.34160148  0.66736300  0.38238307  1
  O  O180  1  0.00623279  0.01259207  0.37766823  1
  O  O181  1  0.35029223  0.00756785  0.12223797  1
  O  O182  1  0.66187927  0.66404228  0.36863056  1
  O  O183  1  0.34357323  0.33744561  0.62927997  1
  O  O184  1  0.49765543  0.16467677  0.86948447  1
  O  O185  1  0.82907917  0.82643986  0.12093636  1
  O  O186  1  0.17570508  0.85043864  0.36885491  1
  O  O187  1  0.16007754  0.83279083  0.88311074  1
  O  O188  1  0.67176788  0.34095415  0.62499685  1
  O  O189  1  0.65779828  -0.00514440  0.13089819  1
  O  O190  1  0.15821969  0.50543159  0.37651335  1
  O  O191  1  0.50001909  0.16308127  0.37673516  1
  O  O192  1  -0.00057965  0.33727611  0.12633392  1
  O  O193  1  -0.01954901  -0.01646435  0.87349955  1
  O  O194  1  0.83557821  0.81007515  0.38410235  1
  O  O195  1  -0.01098624  0.01216047  0.12637216  1
  O  O196  1  0.83266905  0.17041901  0.62682834  1
  O  O197  1  0.01736875  -0.01387922  0.62627791  1
  O  O198  1  0.83940103  0.50600663  0.37204717  1
  O  O199  1  0.00983626  0.32740311  0.62018326  1
  O  O200  1  0.48956783  0.50049991  0.11710013  1
  O  O201  1  0.14483510  0.48342497  0.62448714  1
  O  O202  1  -0.01185515  0.64805252  0.37076156  1
  O  O203  1  0.15945663  0.82036242  0.12152615  1
  O  O204  1  0.83834725  0.83735584  0.86952748  1
  O  O205  1  0.33919363  0.00017286  0.37236242  1
  O  O206  1  0.00353176  0.66369731  0.62028628  1
  O  O207  1  0.67013698  0.66261507  0.87652851  1
  O  O208  1  0.15664178  0.48072786  0.86823355  1
  O  O209  1  0.82921546  0.51087634  0.12110034  1
  O  O210  1  0.52171757  0.83761516  0.87609574  1
  O  O211  1  0.16656845  0.16435805  0.12822760  1
  O  O212  1  0.66716856  0.34892689  0.88113128  1
  O  O213  1  0.64777499  0.00430605  0.38345391  1
  O  O214  1  0.00955236  0.34181197  0.87794211  1
  O  O215  1  0.17828299  0.17927671  0.87668444  1
