# generated using pymatgen
data_Sr24Ta24N11O13
_symmetry_space_group_name_H-M   'P 1'
_cell_length_a   16.62480512
_cell_length_b   16.86844187
_cell_length_c   15.62932236
_cell_angle_alpha   90.28765054
_cell_angle_beta   90.29997465
_cell_angle_gamma   90.69357932
_symmetry_Int_Tables_number   1
_chemical_formula_structural   Sr24Ta24N11O13
_chemical_formula_sum   'Sr72 Ta72 N33 O39'
_cell_volume   4382.56427913
_cell_formula_units_Z   3
loop_
 _symmetry_equiv_pos_site_id
 _symmetry_equiv_pos_as_xyz
  1  'x, y, z'
loop_
 _atom_site_type_symbol
 _atom_site_label
 _atom_site_symmetry_multiplicity
 _atom_site_fract_x
 _atom_site_fract_y
 _atom_site_fract_z
 _atom_site_occupancy
  Sr  Sr0  1  0.00761509  0.16378215  0.09665304  1
  Sr  Sr1  1  -0.00503789  0.14757160  0.61242575  1
  Sr  Sr2  1  0.00607005  0.46641485  0.13829582  1
  Sr  Sr3  1  0.00479900  0.49126880  0.61748971  1
  Sr  Sr4  1  -0.01610278  0.84099234  0.11672192  1
  Sr  Sr5  1  0.01768656  0.82742822  0.67804263  1
  Sr  Sr6  1  0.31702677  0.15107365  0.16704833  1
  Sr  Sr7  1  0.33738334  0.15977904  0.61320979  1
  Sr  Sr8  1  0.32896574  0.48362263  0.12065980  1
  Sr  Sr9  1  0.34518755  0.50022062  0.65369320  1
  Sr  Sr10  1  0.34843203  0.82277668  0.11552544  1
  Sr  Sr11  1  0.31840605  0.82362382  0.57735977  1
  Sr  Sr12  1  0.65367099  0.15992497  0.11194125  1
  Sr  Sr13  1  0.66480697  0.16155318  0.66400515  1
  Sr  Sr14  1  0.67293265  0.49132846  0.10529770  1
  Sr  Sr15  1  0.67498538  0.46854989  0.60336445  1
  Sr  Sr16  1  0.66186486  0.79168426  0.16930514  1
  Sr  Sr17  1  0.67505056  0.83892042  0.61177267  1
  Sr  Sr18  1  0.16989594  0.00648088  0.16767978  1
  Sr  Sr19  1  0.17546475  0.00947559  0.61182035  1
  Sr  Sr20  1  0.17027064  0.32087725  0.11887120  1
  Sr  Sr21  1  0.17613523  0.36464627  0.67550295  1
  Sr  Sr22  1  0.15195919  0.69741234  0.10400636  1
  Sr  Sr23  1  0.15933765  0.67056137  0.61219447  1
  Sr  Sr24  1  0.49362056  0.00845943  0.11225597  1
  Sr  Sr25  1  0.51265561  0.01741470  0.65888344  1
  Sr  Sr26  1  0.50488439  0.34754755  0.08830677  1
  Sr  Sr27  1  0.48897063  0.34484030  0.60680060  1
  Sr  Sr28  1  0.48699552  0.67060341  0.15079905  1
  Sr  Sr29  1  0.50239751  0.68529853  0.62201228  1
  Sr  Sr30  1  0.83417640  0.01572405  0.11881875  1
  Sr  Sr31  1  0.82985442  0.00280497  0.59223250  1
  Sr  Sr32  1  0.81833770  0.34146576  0.17321595  1
  Sr  Sr33  1  0.84083281  0.33705063  0.61485020  1
  Sr  Sr34  1  0.83450338  0.67266265  0.11286046  1
  Sr  Sr35  1  0.83529674  0.70183653  0.65428800  1
  Sr  Sr36  1  -0.00440667  0.15046167  0.41645424  1
  Sr  Sr37  1  0.00272133  0.15703753  0.88907897  1
  Sr  Sr38  1  0.00626105  0.49679151  0.38835452  1
  Sr  Sr39  1  -0.00279577  0.45956688  0.84975882  1
  Sr  Sr40  1  0.00628488  0.83351399  0.33024096  1
  Sr  Sr41  1  -0.02321993  0.82523669  0.89509202  1
  Sr  Sr42  1  0.32754637  0.17404779  0.38205699  1
  Sr  Sr43  1  0.32010588  0.13504962  0.83374805  1
  Sr  Sr44  1  0.34046986  0.49333086  0.35217398  1
  Sr  Sr45  1  0.33536925  0.48727999  0.87081123  1
  Sr  Sr46  1  0.34284513  0.80726998  0.38249022  1
  Sr  Sr47  1  0.34971127  0.83255406  0.91214055  1
  Sr  Sr48  1  0.67976731  0.15802987  0.33209133  1
  Sr  Sr49  1  0.65570713  0.15909800  0.88542558  1
  Sr  Sr50  1  0.67849579  0.47143637  0.38807912  1
  Sr  Sr51  1  0.67879419  0.49525090  0.89110539  1
  Sr  Sr52  1  0.67583553  0.82592398  0.39452085  1
  Sr  Sr53  1  0.65036526  0.81071736  0.82872357  1
  Sr  Sr54  1  0.17667132  0.00769136  0.38980129  1
  Sr  Sr55  1  0.15602022  0.00234724  0.82991989  1
  Sr  Sr56  1  0.18084466  0.35104432  0.33545207  1
  Sr  Sr57  1  0.15831678  0.32771417  0.89549460  1
  Sr  Sr58  1  0.15908996  0.67079818  0.39683331  1
  Sr  Sr59  1  0.15934556  0.70758078  0.88903386  1
  Sr  Sr60  1  0.50797298  0.04122496  0.34077337  1
  Sr  Sr61  1  0.49736160  -0.00508798  0.87762276  1
  Sr  Sr62  1  0.48696196  0.34211747  0.40564632  1
  Sr  Sr63  1  0.50515601  0.35529555  0.89362026  1
  Sr  Sr64  1  0.50559024  0.67863615  0.36775737  1
  Sr  Sr65  1  0.49014266  0.67468330  0.85498214  1
  Sr  Sr66  1  0.83016932  0.00601579  0.38314866  1
  Sr  Sr67  1  0.84345608  0.00889182  0.91521030  1
  Sr  Sr68  1  0.85419692  0.34264908  0.39503319  1
  Sr  Sr69  1  0.82051141  0.33000878  0.82499250  1
  Sr  Sr70  1  0.83266077  0.69533660  0.35818500  1
  Sr  Sr71  1  0.82371410  0.66898746  0.88553271  1
  Ta  Ta72  1  0.19039500  0.13621278  -0.00669624  1
  Ta  Ta73  1  0.16889196  0.21434582  0.50854564  1
  Ta  Ta74  1  0.15984009  0.52808791  -0.01207168  1
  Ta  Ta75  1  0.18986354  0.48497372  0.50922565  1
  Ta  Ta76  1  0.17516362  0.89054993  0.00284412  1
  Ta  Ta77  1  0.11485434  0.83343329  0.49931815  1
  Ta  Ta78  1  0.44720765  0.16759598  -0.00598109  1
  Ta  Ta79  1  0.52699277  0.15926435  0.50635037  1
  Ta  Ta80  1  0.49648734  0.54326005  0.00206436  1
  Ta  Ta81  1  0.49843783  0.53103523  0.50093724  1
  Ta  Ta82  1  0.54718079  0.82742220  0.00685093  1
  Ta  Ta83  1  0.50400981  0.89067087  0.49280481  1
  Ta  Ta84  1  0.82696977  0.20129623  0.00019750  1
  Ta  Ta85  1  0.78346276  0.17243677  0.50111203  1
  Ta  Ta86  1  0.85222732  0.47558570  -0.00855035  1
  Ta  Ta87  1  0.83672631  0.55734986  0.51337408  1
  Ta  Ta88  1  0.76777895  0.83469323  0.00157503  1
  Ta  Ta89  1  0.89006903  0.83205804  0.50644000  1
  Ta  Ta90  1  0.11918700  0.17270892  0.26627129  1
  Ta  Ta91  1  0.14569270  0.18783298  0.74178341  1
  Ta  Ta92  1  0.16041800  0.54217366  0.24683337  1
  Ta  Ta93  1  0.16196302  0.54733345  0.76080871  1
  Ta  Ta94  1  0.19583394  0.82980514  0.25939413  1
  Ta  Ta95  1  0.22204425  0.83232636  0.74591730  1
  Ta  Ta96  1  0.49924564  0.21492614  0.24374675  1
  Ta  Ta97  1  0.49089074  0.20716206  0.75373222  1
  Ta  Ta98  1  0.52047862  0.47893435  0.24412679  1
  Ta  Ta99  1  0.53416900  0.49822403  0.74602001  1
  Ta  Ta100  1  0.50182057  0.86576095  0.25249928  1
  Ta  Ta101  1  0.44687289  0.83673350  0.73921640  1
  Ta  Ta102  1  0.88104724  0.16726561  0.25529776  1
  Ta  Ta103  1  0.84517309  0.13831134  0.75529545  1
  Ta  Ta104  1  0.83722968  0.52735371  0.25496250  1
  Ta  Ta105  1  0.82970243  0.52443822  0.74059329  1
  Ta  Ta106  1  0.82181903  0.86797392  0.24202821  1
  Ta  Ta107  1  0.83236908  0.88111827  0.75288082  1
  Ta  Ta108  1  -0.00968499  0.02541579  0.25437975  1
  Ta  Ta109  1  -0.03533531  0.00440437  0.74810417  1
  Ta  Ta110  1  -0.00122214  0.28933709  0.25696429  1
  Ta  Ta111  1  0.00148009  0.28973016  0.74444790  1
  Ta  Ta112  1  0.00517266  0.63953232  0.24431970  1
  Ta  Ta113  1  0.00418917  0.63461807  0.76474129  1
  Ta  Ta114  1  0.34409182  -0.03831084  0.26162002  1
  Ta  Ta115  1  0.33658420  -0.04287209  0.73540637  1
  Ta  Ta116  1  0.37590614  0.32790329  0.23945192  1
  Ta  Ta117  1  0.35412376  0.31227779  0.75484639  1
  Ta  Ta118  1  0.29396918  0.66378486  0.24594946  1
  Ta  Ta119  1  0.31514414  0.69326482  0.75130499  1
  Ta  Ta120  1  0.67068628  -0.03086783  0.24868893  1
  Ta  Ta121  1  0.70734348  -0.00557369  0.75202787  1
  Ta  Ta122  1  0.62390572  0.33218830  0.24697486  1
  Ta  Ta123  1  0.63373327  0.33779692  0.75179967  1
  Ta  Ta124  1  0.67293232  0.61603961  0.25211372  1
  Ta  Ta125  1  0.66683772  0.62322902  0.74293877  1
  Ta  Ta126  1  0.04945063  -0.00537452  0.00538336  1
  Ta  Ta127  1  0.00532534  -0.04271601  0.50220662  1
  Ta  Ta128  1  -0.06666180  0.32959205  -0.00013515  1
  Ta  Ta129  1  0.06257799  0.33417447  0.50300004  1
  Ta  Ta130  1  0.00067566  0.60712602  -0.01688444  1
  Ta  Ta131  1  -0.01752975  0.69308232  0.50441242  1
  Ta  Ta132  1  0.31073816  0.01658675  0.00937691  1
  Ta  Ta133  1  0.37840844  -0.00225781  0.48957723  1
  Ta  Ta134  1  0.33023267  0.27726745  -0.00289728  1
  Ta  Ta135  1  0.29205315  0.34844582  0.51016311  1
  Ta  Ta136  1  0.33212050  0.63882198  -0.00184664  1
  Ta  Ta137  1  0.33972923  0.62391065  0.49469046  1
  Ta  Ta138  1  0.66003137  -0.04392297  0.00139587  1
  Ta  Ta139  1  0.64534742  0.02299153  0.49908066  1
  Ta  Ta140  1  0.71804198  0.32869683  -0.00512559  1
  Ta  Ta141  1  0.66432533  0.28368199  0.50437257  1
  Ta  Ta142  1  0.64195818  0.67424360  0.00122305  1
  Ta  Ta143  1  0.67463937  0.64096525  0.49985564  1
  N  N144  1  0.00290238  -0.00549175  0.63144326  1
  N  N145  1  0.00627062  0.00105983  0.12181992  1
  N  N146  1  0.66404568  0.31836264  0.62782119  1
  N  N147  1  0.66922627  -0.00043185  0.36997491  1
  N  N148  1  0.66743443  0.65788684  0.37780578  1
  N  N149  1  0.32310563  0.66620659  0.12194492  1
  N  N150  1  0.32793859  0.67856900  0.87538224  1
  N  N151  1  0.16577179  0.17254611  0.38131309  1
  N  N152  1  0.33736838  0.02164925  0.36673969  1
  N  N153  1  0.84427135  0.49346597  0.61395732  1
  N  N154  1  0.34035813  -0.00337788  0.61395053  1
  N  N155  1  0.16551041  0.82957371  0.37899281  1
  N  N156  1  0.50493521  0.50225574  0.62348950  1
  N  N157  1  0.83769021  0.49118606  0.86464168  1
  N  N158  1  0.33100172  0.31646327  0.12213895  1
  N  N159  1  0.33152547  0.65301632  0.37322021  1
  N  N160  1  0.32995284  0.33930338  0.63281773  1
  N  N161  1  0.17217496  0.51613799  0.63237698  1
  N  N162  1  0.00345042  -0.00509106  0.37516887  1
  N  N163  1  0.84894515  0.84806255  0.62694295  1
  N  N164  1  0.82247527  0.83911931  0.11772487  1
  N  N165  1  0.82948772  0.16173723  0.87600246  1
  N  N166  1  0.33370961  -0.00289702  0.13119536  1
  N  N167  1  0.67065897  0.33004040  0.87999321  1
  N  N168  1  0.49959921  0.50421037  0.12192762  1
  N  N169  1  0.66567567  0.64569936  0.12410135  1
  N  N170  1  0.16639974  0.15616247  0.87159593  1
  N  N171  1  0.50055027  0.17430415  0.62920214  1
  N  N172  1  -0.01396193  0.67307897  0.88219230  1
  N  N173  1  0.66210931  0.65617732  0.86278602  1
  N  N174  1  0.50882351  0.83703183  0.13130683  1
  N  N175  1  0.67334781  -0.00020006  0.62793765  1
  N  N176  1  0.17427330  0.16051369  0.62408320  1
  O  O177  1  -0.00464104  0.66753308  0.36878458  1
  O  O178  1  0.51753720  0.83341192  0.38347208  1
  O  O179  1  0.19675983  0.85529672  0.87892349  1
  O  O180  1  0.50455836  0.18855164  0.37544725  1
  O  O181  1  0.66553460  0.33062940  0.12267340  1
  O  O182  1  0.00370349  0.00251719  0.87998235  1
  O  O183  1  0.17882872  0.84900215  0.12498091  1
  O  O184  1  0.31624445  0.33098578  0.87925692  1
  O  O185  1  -0.00203863  0.63111514  0.11676882  1
  O  O186  1  0.16201806  0.16494750  0.13868145  1
  O  O187  1  0.83109449  0.16790676  0.37701783  1
  O  O188  1  0.84293593  0.16904459  0.13138994  1
  O  O189  1  0.01812116  0.33828755  0.38021264  1
  O  O190  1  0.49314960  0.17961812  0.11360783  1
  O  O191  1  0.32656785  0.66108953  0.61634406  1
  O  O192  1  -0.02691309  0.31958760  0.12497140  1
  O  O193  1  0.81638668  0.83615068  0.87996122  1
  O  O194  1  0.84868465  0.52238557  0.38512229  1
  O  O195  1  0.64175038  0.32268172  0.37542626  1
  O  O196  1  0.17605206  0.48130057  0.86664196  1
  O  O197  1  -0.00303942  0.67377351  0.63830638  1
  O  O198  1  0.50501096  0.49526203  0.37775741  1
  O  O199  1  0.82166098  0.16185063  0.62336961  1
  O  O200  1  0.49650147  0.83312771  0.86307532  1
  O  O201  1  0.16441371  0.51191002  0.37274364  1
  O  O202  1  0.84182857  0.49909930  0.13233682  1
  O  O203  1  0.48794520  0.14795470  0.87201496  1
  O  O204  1  -0.02263050  0.30940520  0.87126989  1
  O  O205  1  0.49267333  0.84768610  0.61967904  1
  O  O206  1  0.00721566  0.32551017  0.62244051  1
  O  O207  1  0.65825717  0.00705491  0.11924245  1
  O  O208  1  0.16636065  0.82793193  0.62023160  1
  O  O209  1  0.33312955  0.33860121  0.36725322  1
  O  O210  1  0.15996287  0.53233307  0.11305469  1
  O  O211  1  0.66166992  0.68470067  0.62880664  1
  O  O212  1  0.65793632  -0.00561571  0.87326885  1
  O  O213  1  0.49645925  0.51103772  0.87441341  1
  O  O214  1  0.84991334  0.84754778  0.36907655  1
  O  O215  1  0.34015881  -0.00962281  0.86672714  1
