# generated using pymatgen
data_Sr24Ta24N11O13
_symmetry_space_group_name_H-M   'P 1'
_cell_length_a   17.23632740
_cell_length_b   16.57440111
_cell_length_c   15.51802300
_cell_angle_alpha   89.95302228
_cell_angle_beta   89.24353992
_cell_angle_gamma   89.56306848
_symmetry_Int_Tables_number   1
_chemical_formula_structural   Sr24Ta24N11O13
_chemical_formula_sum   'Sr72 Ta72 N33 O39'
_cell_volume   4432.70038790
_cell_formula_units_Z   3
loop_
 _symmetry_equiv_pos_site_id
 _symmetry_equiv_pos_as_xyz
  1  'x, y, z'
loop_
 _atom_site_type_symbol
 _atom_site_label
 _atom_site_symmetry_multiplicity
 _atom_site_fract_x
 _atom_site_fract_y
 _atom_site_fract_z
 _atom_site_occupancy
  Sr  Sr0  1  -0.03199973  0.16297280  0.14899794  1
  Sr  Sr1  1  -0.00935830  0.16206282  0.58866096  1
  Sr  Sr2  1  -0.00219347  0.48843232  0.09514408  1
  Sr  Sr3  1  -0.02404326  0.49371983  0.63629136  1
  Sr  Sr4  1  -0.01372718  0.83111510  0.12391047  1
  Sr  Sr5  1  -0.01001626  0.82776033  0.64943158  1
  Sr  Sr6  1  0.34385681  0.18617680  0.11334758  1
  Sr  Sr7  1  0.29058605  0.16459228  0.67279095  1
  Sr  Sr8  1  0.29251984  0.50651833  0.17934429  1
  Sr  Sr9  1  0.34486159  0.49237291  0.61486754  1
  Sr  Sr10  1  0.33234252  0.81259266  0.10281863  1
  Sr  Sr11  1  0.32271105  0.85775641  0.61149688  1
  Sr  Sr12  1  0.65590661  0.15847145  0.10168509  1
  Sr  Sr13  1  0.65542566  0.16590262  0.64183488  1
  Sr  Sr14  1  0.64994260  0.49911503  0.13560227  1
  Sr  Sr15  1  0.64953711  0.49435517  0.61312561  1
  Sr  Sr16  1  0.62942520  0.83917274  0.15655266  1
  Sr  Sr17  1  0.66195959  0.82869938  0.62302971  1
  Sr  Sr18  1  0.21027871  0.01041443  0.09095805  1
  Sr  Sr19  1  0.15813161  -0.00488803  0.62826936  1
  Sr  Sr20  1  0.17386457  0.33193453  0.11679422  1
  Sr  Sr21  1  0.18360873  0.34759089  0.64100222  1
  Sr  Sr22  1  0.17485928  0.67729747  0.14238092  1
  Sr  Sr23  1  0.21161346  0.66474599  0.58357942  1
  Sr  Sr24  1  0.50093493  0.00384770  0.16826787  1
  Sr  Sr25  1  0.52631505  -0.01063032  0.60348548  1
  Sr  Sr26  1  0.52062251  0.33214841  0.10326150  1
  Sr  Sr27  1  0.51385141  0.32739929  0.60850041  1
  Sr  Sr28  1  0.50071337  0.67677429  0.10739070  1
  Sr  Sr29  1  0.51013390  0.66381218  0.66403398  1
  Sr  Sr30  1  0.83589022  0.00366827  0.12626300  1
  Sr  Sr31  1  0.85645170  0.01275357  0.60413639  1
  Sr  Sr32  1  0.84393834  0.34816809  0.15790309  1
  Sr  Sr33  1  0.85449216  0.32868772  0.62196834  1
  Sr  Sr34  1  0.87111873  0.66473482  0.08936981  1
  Sr  Sr35  1  0.84042203  0.67012965  0.62935825  1
  Sr  Sr36  1  -0.00587082  0.15887662  0.37658673  1
  Sr  Sr37  1  -0.03100435  0.15569500  0.88817313  1
  Sr  Sr38  1  -0.03451254  0.49601292  0.40450895  1
  Sr  Sr39  1  -0.00365473  0.49007103  0.86810679  1
  Sr  Sr40  1  -0.00659162  0.81521762  0.34041458  1
  Sr  Sr41  1  -0.01320979  0.83761335  0.87420271  1
  Sr  Sr42  1  0.32626667  0.15655241  0.32966732  1
  Sr  Sr43  1  0.30751165  0.17175603  0.89329627  1
  Sr  Sr44  1  0.32327671  0.49658602  0.39859760  1
  Sr  Sr45  1  0.32896681  0.50674132  0.83153153  1
  Sr  Sr46  1  0.31015307  0.83431358  0.40740230  1
  Sr  Sr47  1  0.31924599  0.83702285  0.88968880  1
  Sr  Sr48  1  0.62123421  0.16247613  0.41378999  1
  Sr  Sr49  1  0.66949392  0.16706354  0.87320350  1
  Sr  Sr50  1  0.66512605  0.49127002  0.35436325  1
  Sr  Sr51  1  0.63394926  0.50726760  0.91010284  1
  Sr  Sr52  1  0.66215385  0.83950126  0.37993079  1
  Sr  Sr53  1  0.64952749  0.82203127  0.85521354  1
  Sr  Sr54  1  0.17126944  0.00565849  0.39906455  1
  Sr  Sr55  1  0.17345203  -0.00747796  0.85343122  1
  Sr  Sr56  1  0.20214346  0.33345762  0.35273761  1
  Sr  Sr57  1  0.16763339  0.34312351  0.87565774  1
  Sr  Sr58  1  0.17671859  0.66918980  0.36051894  1
  Sr  Sr59  1  0.18955044  0.67247535  0.88836948  1
  Sr  Sr60  1  0.49309882  -0.00934171  0.38571902  1
  Sr  Sr61  1  0.54016646  0.00236875  0.82880515  1
  Sr  Sr62  1  0.51061189  0.34214695  0.39760764  1
  Sr  Sr63  1  0.50970815  0.31745811  0.89489591  1
  Sr  Sr64  1  0.54800565  0.66689079  0.32295236  1
  Sr  Sr65  1  0.49362674  0.67872764  0.88491381  1
  Sr  Sr66  1  0.86431802  -0.00101272  0.34274807  1
  Sr  Sr67  1  0.83722307  0.00495185  0.91292524  1
  Sr  Sr68  1  0.84751968  0.33646099  0.37218352  1
  Sr  Sr69  1  0.84765346  0.33461676  0.84851251  1
  Sr  Sr70  1  0.84023143  0.67346482  0.40424050  1
  Sr  Sr71  1  0.85816890  0.66625378  0.86359514  1
  Ta  Ta72  1  0.11931322  0.16437951  -0.00601390  1
  Ta  Ta73  1  0.18449143  0.18641172  0.50333491  1
  Ta  Ta74  1  0.18550692  0.51066623  0.00095394  1
  Ta  Ta75  1  0.13366065  0.49889141  0.48374794  1
  Ta  Ta76  1  0.13801678  0.83784551  -0.00745935  1
  Ta  Ta77  1  0.12170246  0.82483126  0.50081264  1
  Ta  Ta78  1  0.49775855  0.11333382  -0.00062424  1
  Ta  Ta79  1  0.44444893  0.16093006  0.49944875  1
  Ta  Ta80  1  0.45629116  0.50423327  0.00103600  1
  Ta  Ta81  1  0.50846374  0.54849561  0.49684653  1
  Ta  Ta82  1  0.49980069  0.88035220  -0.00901384  1
  Ta  Ta83  1  0.50016678  0.78779827  0.49445328  1
  Ta  Ta84  1  0.82320148  0.20862248  0.01232800  1
  Ta  Ta85  1  0.79611777  0.17276237  0.49128550  1
  Ta  Ta86  1  0.81209523  0.48684305  -0.01059313  1
  Ta  Ta87  1  0.79515008  0.49480111  0.50483927  1
  Ta  Ta88  1  0.77911541  0.82960420  0.01261691  1
  Ta  Ta89  1  0.84364292  0.85723366  0.49304736  1
  Ta  Ta90  1  0.14350666  0.15380786  0.24484916  1
  Ta  Ta91  1  0.10868707  0.16565900  0.74747554  1
  Ta  Ta92  1  0.11152081  0.49529658  0.26492774  1
  Ta  Ta93  1  0.15874382  0.53308697  0.73789565  1
  Ta  Ta94  1  0.17976831  0.86541386  0.24430480  1
  Ta  Ta95  1  0.16897186  0.79862350  0.74045873  1
  Ta  Ta96  1  0.50781792  0.19301957  0.24964862  1
  Ta  Ta97  1  0.46704264  0.17043327  0.74874999  1
  Ta  Ta98  1  0.47120022  0.49223727  0.25210765  1
  Ta  Ta99  1  0.50994273  0.47111256  0.74513956  1
  Ta  Ta100  1  0.44950939  0.82484540  0.26602335  1
  Ta  Ta101  1  0.46116233  0.84106865  0.74510455  1
  Ta  Ta102  1  0.78044526  0.16898392  0.26119074  1
  Ta  Ta103  1  0.83616042  0.14627935  0.74277828  1
  Ta  Ta104  1  0.83985409  0.53617155  0.24971865  1
  Ta  Ta105  1  0.78546388  0.50228737  0.75592208  1
  Ta  Ta106  1  0.81080473  0.80913301  0.23332032  1
  Ta  Ta107  1  0.82246674  0.86797056  0.75419532  1
  Ta  Ta108  1  0.05205094  -0.00472394  0.23383123  1
  Ta  Ta109  1  -0.01578191  0.01447666  0.75593820  1
  Ta  Ta110  1  0.02762714  0.34204146  0.26472713  1
  Ta  Ta111  1  0.01617385  0.30147467  0.74395718  1
  Ta  Ta112  1  -0.00461694  0.62898848  0.24888927  1
  Ta  Ta113  1  0.05254205  0.65862227  0.73785877  1
  Ta  Ta114  1  0.32327974  -0.03407436  0.25773364  1
  Ta  Ta115  1  0.36674532  0.00256832  0.76140113  1
  Ta  Ta116  1  0.38166278  0.34392989  0.25005994  1
  Ta  Ta117  1  0.37379209  0.32705096  0.75348328  1
  Ta  Ta118  1  0.36457171  0.67216035  0.27127691  1
  Ta  Ta119  1  0.33090757  0.69207448  0.75145866  1
  Ta  Ta120  1  0.67818452  0.02853398  0.26973398  1
  Ta  Ta121  1  0.71833609  -0.00274537  0.74555273  1
  Ta  Ta122  1  0.66176632  0.29495111  0.25080363  1
  Ta  Ta123  1  0.66599697  0.36233328  0.75902519  1
  Ta  Ta124  1  0.72416608  0.67034999  0.23028300  1
  Ta  Ta125  1  0.68123317  0.63617145  0.76092752  1
  Ta  Ta126  1  0.03204790  0.00065551  0.00865599  1
  Ta  Ta127  1  0.00214044  -0.04462425  0.48556382  1
  Ta  Ta128  1  -0.00704415  0.30728814  -0.00181929  1
  Ta  Ta129  1  0.05079844  0.33666978  0.49331120  1
  Ta  Ta130  1  0.04198161  0.66988513  -0.00237249  1
  Ta  Ta131  1  0.02858299  0.66935843  0.51011909  1
  Ta  Ta132  1  0.38283225  0.00016391  -0.01112794  1
  Ta  Ta133  1  0.32901165  0.04834998  0.50550570  1
  Ta  Ta134  1  0.33616591  0.39917079  0.00367082  1
  Ta  Ta135  1  0.33265000  0.28072865  0.50351496  1
  Ta  Ta136  1  0.33112110  0.61462638  0.00376208  1
  Ta  Ta137  1  0.38885657  0.66694701  0.49054228  1
  Ta  Ta138  1  0.65041894  -0.02018173  -0.00100396  1
  Ta  Ta139  1  0.71059722  0.00345570  0.49387920  1
  Ta  Ta140  1  0.71188320  0.33955608  0.00876060  1
  Ta  Ta141  1  0.69717152  0.32998513  0.50199588  1
  Ta  Ta142  1  0.69390915  0.67777602  0.02365554  1
  Ta  Ta143  1  0.65357062  0.65500975  0.49897958  1
  N  N144  1  0.01883379  0.65936541  0.12287433  1
  N  N145  1  0.82004029  0.50817649  0.37042383  1
  N  N146  1  0.51158416  0.83064342  0.36868185  1
  N  N147  1  0.01234153  0.32833030  0.61395715  1
  N  N148  1  0.17932537  0.50641354  0.36560096  1
  N  N149  1  -0.01090677  -0.00489158  0.13059509  1
  N  N150  1  0.83888527  0.84530468  0.11586012  1
  N  N151  1  0.49648173  0.83910233  0.87221804  1
  N  N152  1  0.32659445  0.00250716  0.38121269  1
  N  N153  1  0.82194124  0.50221173  0.62817725  1
  N  N154  1  0.32476134  0.01009595  0.87661087  1
  N  N155  1  0.81676692  0.17757646  0.13603081  1
  N  N156  1  0.64453785  0.00024899  0.38621534  1
  N  N157  1  0.82505151  0.17057846  0.62032973  1
  N  N158  1  0.16862388  0.83427034  0.61423054  1
  N  N159  1  0.14806543  0.16395658  0.62179333  1
  N  N160  1  0.49511859  0.82778301  0.61946138  1
  N  N161  1  0.64366700  0.66566164  0.13829119  1
  N  N162  1  0.47795529  0.16469427  0.36838489  1
  N  N163  1  -0.00620209  0.31950547  0.38243221  1
  N  N164  1  -0.00813096  0.66131352  0.62863620  1
  N  N165  1  -0.00014900  0.32934443  0.87574117  1
  N  N166  1  0.84439490  0.50356451  0.87055740  1
  N  N167  1  0.49778680  0.15854511  0.11683900  1
  N  N168  1  0.33903666  0.66174644  0.87464244  1
  N  N169  1  -0.00102679  -0.00364584  0.87846795  1
  N  N170  1  0.68117585  -0.00235021  0.87928117  1
  N  N171  1  0.15722371  0.83459906  0.86722805  1
  N  N172  1  0.68107873  -0.00002721  0.61766673  1
  N  N173  1  0.32196984  0.65944208  0.38798511  1
  N  N174  1  0.67270230  0.33864781  0.13360111  1
  N  N175  1  0.01322771  -0.01770240  0.36273950  1
  N  N176  1  0.49858246  0.50154512  0.62210403  1
  O  O177  1  0.67931105  0.65647849  0.88758073  1
  O  O178  1  0.68556647  0.66353057  0.37150142  1
  O  O179  1  0.49431078  0.16744184  0.62499296  1
  O  O180  1  0.35062910  -0.00626727  0.13080308  1
  O  O181  1  0.16275555  0.83934754  0.37087088  1
  O  O182  1  0.66089592  0.34740418  0.88587821  1
  O  O183  1  0.17420311  0.51257487  0.86971715  1
  O  O184  1  0.68006744  0.33263910  0.63603423  1
  O  O185  1  0.35527178  0.65598664  0.62614298  1
  O  O186  1  0.00255952  -0.01494934  0.62418323  1
  O  O187  1  0.35185338  0.35036053  0.12452589  1
  O  O188  1  0.15369549  0.49800243  0.12850416  1
  O  O189  1  0.48562987  0.50749253  0.12905594  1
  O  O190  1  0.48342245  0.50218677  0.86858796  1
  O  O191  1  0.16317657  0.16319548  0.36946754  1
  O  O192  1  0.49033041  0.16418955  0.87478626  1
  O  O193  1  0.49840348  0.49842707  0.37955102  1
  O  O194  1  0.33178757  0.65266991  0.13291364  1
  O  O195  1  0.13616976  0.17472282  0.11740586  1
  O  O196  1  0.48083966  0.83655434  0.13283864  1
  O  O197  1  0.81536369  0.84572206  0.88191893  1
  O  O198  1  0.35474086  0.32434102  0.37755741  1
  O  O199  1  0.18377714  0.84453923  0.11701852  1
  O  O200  1  0.83420900  0.83484297  0.36643297  1
  O  O201  1  0.83769612  0.84847280  0.62182127  1
  O  O202  1  0.35021763  0.32622882  0.62589117  1
  O  O203  1  -0.00424014  0.66201262  0.37777320  1
  O  O204  1  0.00191667  0.32804134  0.13470630  1
  O  O205  1  0.65487391  -0.00206880  0.14365300  1
  O  O206  1  0.35456061  0.35081885  0.87868279  1
  O  O207  1  0.31784104  0.01486886  0.63786602  1
  O  O208  1  0.66892598  0.33586691  0.37796064  1
  O  O209  1  0.17013787  0.51102456  0.61179581  1
  O  O210  1  0.01736223  0.66226625  0.86916345  1
  O  O211  1  0.66444071  0.65640746  0.63007146  1
  O  O212  1  0.82279563  0.17669263  0.87405810  1
  O  O213  1  0.15565859  0.15640320  0.86838532  1
  O  O214  1  0.84795169  0.17403005  0.37366632  1
  O  O215  1  0.84406825  0.50261453  0.11645738  1
