# generated using pymatgen
data_Sr24Ta24N11O13
_symmetry_space_group_name_H-M   'P 1'
_cell_length_a   16.73035151
_cell_length_b   16.87310975
_cell_length_c   15.75396781
_cell_angle_alpha   90.07923703
_cell_angle_beta   89.91009700
_cell_angle_gamma   90.14248168
_symmetry_Int_Tables_number   1
_chemical_formula_structural   Sr24Ta24N11O13
_chemical_formula_sum   'Sr72 Ta72 N33 O39'
_cell_volume   4447.21227981
_cell_formula_units_Z   3
loop_
 _symmetry_equiv_pos_site_id
 _symmetry_equiv_pos_as_xyz
  1  'x, y, z'
loop_
 _atom_site_type_symbol
 _atom_site_label
 _atom_site_symmetry_multiplicity
 _atom_site_fract_x
 _atom_site_fract_y
 _atom_site_fract_z
 _atom_site_occupancy
  Sr  Sr0  1  -0.00595323  0.17807800  0.11810343  1
  Sr  Sr1  1  0.00477734  0.13600151  0.64383321  1
  Sr  Sr2  1  0.00787430  0.49630472  0.16725172  1
  Sr  Sr3  1  -0.00646804  0.48507803  0.61338097  1
  Sr  Sr4  1  0.00658754  0.79898051  0.10304682  1
  Sr  Sr5  1  -0.00244755  0.81967487  0.61199145  1
  Sr  Sr6  1  0.34634779  0.16505906  0.17305425  1
  Sr  Sr7  1  0.33128978  0.14599206  0.61965224  1
  Sr  Sr8  1  0.33558764  0.48258097  0.11120872  1
  Sr  Sr9  1  0.33760596  0.49292173  0.59281160  1
  Sr  Sr10  1  0.32539904  0.82617216  0.11033253  1
  Sr  Sr11  1  0.32357818  0.80912122  0.66512003  1
  Sr  Sr12  1  0.63335878  0.16125233  0.08285514  1
  Sr  Sr13  1  0.66638719  0.16690940  0.63077957  1
  Sr  Sr14  1  0.66951546  0.48626712  0.11328222  1
  Sr  Sr15  1  0.64167442  0.49250204  0.66977898  1
  Sr  Sr16  1  0.67246395  0.84579017  0.13740662  1
  Sr  Sr17  1  0.65681606  0.82657480  0.60884458  1
  Sr  Sr18  1  0.16327389  0.03849176  0.14261944  1
  Sr  Sr19  1  0.17045883  0.00743662  0.61596028  1
  Sr  Sr20  1  0.16917640  0.34284747  0.10116108  1
  Sr  Sr21  1  0.16355113  0.36180000  0.61865869  1
  Sr  Sr22  1  0.17762135  0.67474296  0.11845765  1
  Sr  Sr23  1  0.14185049  0.67732069  0.66829275  1
  Sr  Sr24  1  0.49806271  0.00146901  0.12579036  1
  Sr  Sr25  1  0.51185687  0.00231854  0.57467540  1
  Sr  Sr26  1  0.50323214  0.34158294  0.12291063  1
  Sr  Sr27  1  0.50289631  0.32447964  0.65700315  1
  Sr  Sr28  1  0.50510236  0.68395394  0.16223811  1
  Sr  Sr29  1  0.49687162  0.66579978  0.61544686  1
  Sr  Sr30  1  0.84561648  0.01411902  0.13279433  1
  Sr  Sr31  1  0.82508189  0.00011701  0.65968773  1
  Sr  Sr32  1  0.84599054  0.34411617  0.14266293  1
  Sr  Sr33  1  0.84002520  0.33784167  0.59694328  1
  Sr  Sr34  1  0.81728645  0.68408958  0.11002286  1
  Sr  Sr35  1  0.83016176  0.68112575  0.58506445  1
  Sr  Sr36  1  -0.00619266  0.14597038  0.34511201  1
  Sr  Sr37  1  0.01254289  0.17240767  0.89604793  1
  Sr  Sr38  1  -0.00952194  0.49018829  0.38567956  1
  Sr  Sr39  1  0.01641477  0.49753598  0.82511107  1
  Sr  Sr40  1  0.00809617  0.82243923  0.39659424  1
  Sr  Sr41  1  -0.00216610  0.79981782  0.88252304  1
  Sr  Sr42  1  0.33725401  0.14570884  0.38125019  1
  Sr  Sr43  1  0.34280745  0.18007599  0.82895646  1
  Sr  Sr44  1  0.34032251  0.49282882  0.39450677  1
  Sr  Sr45  1  0.32612362  0.49189472  0.91084627  1
  Sr  Sr46  1  0.31680593  0.80316138  0.34267627  1
  Sr  Sr47  1  0.33545238  0.83513902  0.88164801  1
  Sr  Sr48  1  0.67045638  0.17680093  0.41821660  1
  Sr  Sr49  1  0.64735128  0.16221590  0.86433454  1
  Sr  Sr50  1  0.65713069  0.46983201  0.33492037  1
  Sr  Sr51  1  0.66884862  0.50234637  0.88409351  1
  Sr  Sr52  1  0.66408096  0.84436141  0.36693357  1
  Sr  Sr53  1  0.66946997  0.83224887  0.86922526  1
  Sr  Sr54  1  0.15685036  0.00931317  0.39034577  1
  Sr  Sr55  1  0.17853741  0.03355472  0.85090578  1
  Sr  Sr56  1  0.16877771  0.36794832  0.41146433  1
  Sr  Sr57  1  0.16511430  0.34569038  0.88293404  1
  Sr  Sr58  1  0.15409557  0.67414982  0.34222125  1
  Sr  Sr59  1  0.18554034  0.67814051  0.89012035  1
  Sr  Sr60  1  0.50789337  0.00929703  0.37381608  1
  Sr  Sr61  1  0.50759476  -0.01470854  0.91533589  1
  Sr  Sr62  1  0.48821523  0.33855245  0.35644430  1
  Sr  Sr63  1  0.51144102  0.34746978  0.88597364  1
  Sr  Sr64  1  0.49514283  0.66616304  0.38727618  1
  Sr  Sr65  1  0.51412675  0.68141665  0.82476493  1
  Sr  Sr66  1  0.83400369  0.00052055  0.34092206  1
  Sr  Sr67  1  0.84669791  0.02027823  0.86386588  1
  Sr  Sr68  1  0.84267585  0.33767221  0.36929398  1
  Sr  Sr69  1  0.85107760  0.35056259  0.87969800  1
  Sr  Sr70  1  0.82273648  0.68619749  0.38893321  1
  Sr  Sr71  1  0.82101755  0.67492044  0.90960651  1
  Ta  Ta72  1  0.22846334  0.17217831  0.00112333  1
  Ta  Ta73  1  0.16340015  0.19413573  0.50452507  1
  Ta  Ta74  1  0.12883833  0.51178863  -0.00405346  1
  Ta  Ta75  1  0.16413603  0.55403035  0.50543154  1
  Ta  Ta76  1  0.16060341  0.89026855  0.00235256  1
  Ta  Ta77  1  0.18982047  0.81433544  0.50670852  1
  Ta  Ta78  1  0.44221731  0.15894304  -0.00209031  1
  Ta  Ta79  1  0.49414642  0.19734721  0.50567546  1
  Ta  Ta80  1  0.50421099  0.54828595  -0.00614925  1
  Ta  Ta81  1  0.52749959  0.48686539  0.50406101  1
  Ta  Ta82  1  0.50593077  0.79401697  -0.00263832  1
  Ta  Ta83  1  0.44702551  0.83026961  0.50253516  1
  Ta  Ta84  1  0.81111817  0.17838999  -0.00185209  1
  Ta  Ta85  1  0.85274900  0.13981759  0.49924905  1
  Ta  Ta86  1  0.87322431  0.50028987  0.00347841  1
  Ta  Ta87  1  0.78252401  0.50165679  0.49456683  1
  Ta  Ta88  1  0.83530603  0.87181416  0.00203264  1
  Ta  Ta89  1  0.83201794  0.87438333  0.49560813  1
  Ta  Ta90  1  0.17083195  0.21625446  0.26089475  1
  Ta  Ta91  1  0.16386345  0.21136319  0.73866609  1
  Ta  Ta92  1  0.18858308  0.49392237  0.25738118  1
  Ta  Ta93  1  0.20647295  0.50771586  0.74947116  1
  Ta  Ta94  1  0.15253385  0.86364300  0.24144524  1
  Ta  Ta95  1  0.14629450  0.86169941  0.75200483  1
  Ta  Ta96  1  0.53929404  0.16851171  0.25845034  1
  Ta  Ta97  1  0.50050373  0.10252898  0.74172947  1
  Ta  Ta98  1  0.48137010  0.51534740  0.25083074  1
  Ta  Ta99  1  0.45536179  0.50044112  0.75375830  1
  Ta  Ta100  1  0.47715437  0.85516510  0.25004051  1
  Ta  Ta101  1  0.49937942  0.88236932  0.73933448  1
  Ta  Ta102  1  0.78469735  0.17293368  0.24824270  1
  Ta  Ta103  1  0.83808012  0.20653585  0.74862880  1
  Ta  Ta104  1  0.82726025  0.54152065  0.25579265  1
  Ta  Ta105  1  0.82661322  0.51972446  0.74528191  1
  Ta  Ta106  1  0.86685243  0.82762945  0.24871754  1
  Ta  Ta107  1  0.83753256  0.81308142  0.74300566  1
  Ta  Ta108  1  0.00871346  -0.04648564  0.24774530  1
  Ta  Ta109  1  0.00939836  -0.04050188  0.75047201  1
  Ta  Ta110  1  0.04377211  0.32510007  0.26228793  1
  Ta  Ta111  1  0.00016434  0.30685798  0.74438144  1
  Ta  Ta112  1  -0.03393121  0.66825889  0.25626497  1
  Ta  Ta113  1  -0.06395287  0.65968406  0.74206419  1
  Ta  Ta114  1  0.33076196  -0.02864415  0.25307371  1
  Ta  Ta115  1  0.36886753  -0.01026050  0.74225873  1
  Ta  Ta116  1  0.30188573  0.34180463  0.25727213  1
  Ta  Ta117  1  0.32138153  0.36123972  0.74836242  1
  Ta  Ta118  1  0.33523199  0.62579091  0.25072664  1
  Ta  Ta119  1  0.33464075  0.62413370  0.75417979  1
  Ta  Ta120  1  0.66543334  0.04701101  0.25301276  1
  Ta  Ta121  1  0.63393500  -0.00808976  0.74122674  1
  Ta  Ta122  1  0.66695701  0.28436419  0.24475758  1
  Ta  Ta123  1  0.70916785  0.32541911  0.74935412  1
  Ta  Ta124  1  0.67639358  0.64464049  0.25007644  1
  Ta  Ta125  1  0.71537240  0.66339760  0.74992081  1
  Ta  Ta126  1  0.00617402  -0.02607175  0.00355655  1
  Ta  Ta127  1  -0.03583944  -0.00095114  0.49375209  1
  Ta  Ta128  1  -0.00037406  0.38210894  -0.00492960  1
  Ta  Ta129  1  0.00849786  0.27870581  0.50087918  1
  Ta  Ta130  1  -0.00510597  0.61293660  -0.00089329  1
  Ta  Ta131  1  0.02220451  0.65246067  0.50244931  1
  Ta  Ta132  1  0.32145880  0.03117171  -0.00080298  1
  Ta  Ta133  1  0.32802106  -0.05716834  0.50514067  1
  Ta  Ta134  1  0.34135036  0.29400444  0.00602073  1
  Ta  Ta135  1  0.34069310  0.30304715  0.50387768  1
  Ta  Ta136  1  0.38571146  0.66765247  -0.00573372  1
  Ta  Ta137  1  0.30584419  0.67897889  0.49900130  1
  Ta  Ta138  1  0.70154896  -0.00181738  -0.00429166  1
  Ta  Ta139  1  0.70805801  0.00288076  0.49747458  1
  Ta  Ta140  1  0.69740574  0.31775235  0.00073789  1
  Ta  Ta141  1  0.65196091  0.36077590  0.50718034  1
  Ta  Ta142  1  0.62440325  0.67257610  -0.00600932  1
  Ta  Ta143  1  0.66115508  0.60895810  0.50117306  1
  N  N144  1  0.17367478  0.16347808  0.62864591  1
  N  N145  1  0.16949778  0.84448467  0.11882469  1
  N  N146  1  0.33678321  0.32631950  0.13118385  1
  N  N147  1  0.50868914  0.17013940  0.38063221  1
  N  N148  1  -0.01142455  0.66192242  0.37775301  1
  N  N149  1  -0.00293532  0.32577878  0.61707761  1
  N  N150  1  0.48971262  0.83647402  0.62135663  1
  N  N151  1  0.82958590  0.83680718  0.62352688  1
  N  N152  1  0.49718580  0.49929220  0.37143152  1
  N  N153  1  0.16579849  0.51603779  0.62733834  1
  N  N154  1  0.34372150  0.66520711  0.87677639  1
  N  N155  1  0.16749321  0.51656262  0.37587745  1
  N  N156  1  0.16801843  0.51122576  0.87648052  1
  N  N157  1  -0.00397195  -0.01207436  0.37289837  1
  N  N158  1  0.67299109  0.33546391  0.62876827  1
  N  N159  1  0.00573564  0.34370632  0.87576008  1
  N  N160  1  0.82370830  0.50226957  0.37495493  1
  N  N161  1  0.32956925  -0.01359436  0.62235045  1
  N  N162  1  0.00191942  0.32604887  0.37961068  1
  N  N163  1  0.83709684  0.84009256  0.12222322  1
  N  N164  1  0.32840218  0.65560925  0.37632441  1
  N  N165  1  0.50391041  0.15456289  0.62717204  1
  N  N166  1  0.16127138  0.83557167  0.62734666  1
  N  N167  1  0.33295378  0.33091771  0.37946484  1
  N  N168  1  0.66932591  0.66655730  0.86654562  1
  N  N169  1  0.50037026  0.50715863  0.87046265  1
  N  N170  1  0.66957421  0.00008641  0.62082774  1
  N  N171  1  0.83390661  0.84037516  0.37184084  1
  N  N172  1  0.67083008  0.01272770  0.37273788  1
  N  N173  1  -0.01600573  0.65759899  0.62771965  1
  N  N174  1  0.66992949  0.32608256  0.12045012  1
  N  N175  1  0.33369078  0.33862639  0.62835041  1
  N  N176  1  0.49114122  0.49727262  0.62359121  1
  O  O177  1  0.84345639  0.15762744  0.62768349  1
  O  O178  1  0.48839305  0.15720518  0.12236630  1
  O  O179  1  0.83782377  0.83445361  0.87946279  1
  O  O180  1  0.68338873  0.01122975  0.12097147  1
  O  O181  1  0.32762493  0.00396552  0.13137244  1
  O  O182  1  0.17816230  0.16292720  0.37542818  1
  O  O183  1  0.16529657  0.83512058  0.37801474  1
  O  O184  1  0.33581201  0.33267864  0.88109226  1
  O  O185  1  0.01414988  0.34547634  0.13279661  1
  O  O186  1  0.67301952  -0.00363379  0.87189381  1
  O  O187  1  0.33921842  0.65989620  0.62617872  1
  O  O188  1  0.50087489  0.50777362  0.11704762  1
  O  O189  1  0.19246013  0.18630518  0.13195622  1
  O  O190  1  0.50101978  0.83716524  0.87496295  1
  O  O191  1  0.83222768  0.15960058  0.37476493  1
  O  O192  1  -0.02682769  0.64779537  0.86701782  1
  O  O193  1  0.49326685  0.83949524  0.12258354  1
  O  O194  1  0.67154601  0.33404909  0.87128238  1
  O  O195  1  0.17707567  0.85917555  0.87957683  1
  O  O196  1  0.66556054  0.32575121  0.38095295  1
  O  O197  1  0.16181411  0.50175227  0.12478779  1
  O  O198  1  0.31902448  -0.02060107  0.37723960  1
  O  O199  1  0.67088584  0.64223985  0.62964927  1
  O  O200  1  0.82449372  0.17233765  0.12301091  1
  O  O201  1  0.84899939  0.50334640  0.13346433  1
  O  O202  1  -0.00686529  0.64820274  0.12884503  1
  O  O203  1  0.82399723  0.49748379  0.62102118  1
  O  O204  1  0.66099474  0.66164895  0.12516204  1
  O  O205  1  0.19178562  0.18538074  0.86607868  1
  O  O206  1  0.33365918  0.00978781  0.87257241  1
  O  O207  1  -0.00582250  -0.01978502  0.62531815  1
  O  O208  1  0.83077402  0.17316093  0.87374590  1
  O  O209  1  0.48006129  0.83401575  0.37270484  1
  O  O210  1  -0.00218036  -0.02302100  0.87913716  1
  O  O211  1  0.48616884  0.13495051  0.87875017  1
  O  O212  1  0.00162360  0.00687085  0.12669885  1
  O  O213  1  0.84301336  0.50657905  0.87133079  1
  O  O214  1  0.34325507  0.66659578  0.12895416  1
  O  O215  1  0.65601975  0.63425509  0.37183430  1
