# generated using pymatgen
data_Sr24Ta24N11O13
_symmetry_space_group_name_H-M   'P 1'
_cell_length_a   16.78186254
_cell_length_b   16.87113831
_cell_length_c   15.76454656
_cell_angle_alpha   90.08174974
_cell_angle_beta   89.94877950
_cell_angle_gamma   89.82874144
_symmetry_Int_Tables_number   1
_chemical_formula_structural   Sr24Ta24N11O13
_chemical_formula_sum   'Sr72 Ta72 N33 O39'
_cell_volume   4463.37597420
_cell_formula_units_Z   3
loop_
 _symmetry_equiv_pos_site_id
 _symmetry_equiv_pos_as_xyz
  1  'x, y, z'
loop_
 _atom_site_type_symbol
 _atom_site_label
 _atom_site_symmetry_multiplicity
 _atom_site_fract_x
 _atom_site_fract_y
 _atom_site_fract_z
 _atom_site_occupancy
  Sr  Sr0  1  0.03094667  0.17857260  0.14948750  1
  Sr  Sr1  1  -0.00745261  0.17326878  0.62477729  1
  Sr  Sr2  1  0.00956853  0.50614106  0.11326239  1
  Sr  Sr3  1  -0.00887683  0.51885458  0.67054697  1
  Sr  Sr4  1  0.00922496  0.84698895  0.11436078  1
  Sr  Sr5  1  0.01000061  0.83614629  0.59611090  1
  Sr  Sr6  1  0.34013867  0.18198734  0.08766651  1
  Sr  Sr7  1  0.34513607  0.17392217  0.62263171  1
  Sr  Sr8  1  0.34293778  0.48623664  0.17326627  1
  Sr  Sr9  1  0.32678360  0.50415391  0.61587855  1
  Sr  Sr10  1  0.34406569  0.81355363  0.11208892  1
  Sr  Sr11  1  0.33292725  0.84632626  0.66064524  1
  Sr  Sr12  1  0.65577761  0.16997370  0.11844834  1
  Sr  Sr13  1  0.66657793  0.20102463  0.65944533  1
  Sr  Sr14  1  0.66766442  0.52791503  0.11400772  1
  Sr  Sr15  1  0.67288241  0.51235537  0.59938653  1
  Sr  Sr16  1  0.69654058  0.85411571  0.14412052  1
  Sr  Sr17  1  0.67044072  0.84624261  0.62983945  1
  Sr  Sr18  1  0.15822141  -0.00360156  0.15414321  1
  Sr  Sr19  1  0.15759615  -0.00685472  0.64279074  1
  Sr  Sr20  1  0.16294787  0.34851493  0.13820206  1
  Sr  Sr21  1  0.17773887  0.32250512  0.57988961  1
  Sr  Sr22  1  0.16188860  0.68254594  0.07996871  1
  Sr  Sr23  1  0.17039566  0.65523479  0.63237322  1
  Sr  Sr24  1  0.46841404  -0.02303532  0.12284929  1
  Sr  Sr25  1  0.49847910  -0.01126589  0.61624912  1
  Sr  Sr26  1  0.50308912  0.31912587  0.11541924  1
  Sr  Sr27  1  0.48773953  0.32549576  0.66693270  1
  Sr  Sr28  1  0.48692173  0.65737912  0.13368910  1
  Sr  Sr29  1  0.50159502  0.63817367  0.58336758  1
  Sr  Sr30  1  0.82454583  0.00443111  0.12189028  1
  Sr  Sr31  1  0.83552213  -0.02442638  0.59293748  1
  Sr  Sr32  1  0.81266238  0.30482724  0.11949745  1
  Sr  Sr33  1  0.84015326  0.32456577  0.62618082  1
  Sr  Sr34  1  0.84066855  0.65079187  0.13601738  1
  Sr  Sr35  1  0.82464037  0.65812769  0.64775819  1
  Sr  Sr36  1  0.00447358  0.19427551  0.39362126  1
  Sr  Sr37  1  0.01011207  0.16791973  0.84739141  1
  Sr  Sr38  1  -0.00374758  0.51271481  0.34043560  1
  Sr  Sr39  1  0.01002100  0.49991547  0.88415836  1
  Sr  Sr40  1  0.01423527  0.83379684  0.38630170  1
  Sr  Sr41  1  0.00361427  0.85357390  0.90009251  1
  Sr  Sr42  1  0.34229575  0.16940597  0.41244224  1
  Sr  Sr43  1  0.33624463  0.18301639  0.88070690  1
  Sr  Sr44  1  0.31706268  0.50004951  0.38825139  1
  Sr  Sr45  1  0.34254183  0.49380042  0.83958286  1
  Sr  Sr46  1  0.34379093  0.85202148  0.33610792  1
  Sr  Sr47  1  0.33219955  0.80689693  0.88762904  1
  Sr  Sr48  1  0.66738864  0.18431800  0.34456415  1
  Sr  Sr49  1  0.67263906  0.17834224  0.88837103  1
  Sr  Sr50  1  0.67824645  0.51559586  0.38888989  1
  Sr  Sr51  1  0.65995156  0.53209999  0.89754369  1
  Sr  Sr52  1  0.67077561  0.86318392  0.39202526  1
  Sr  Sr53  1  0.68566711  0.83958313  0.84669274  1
  Sr  Sr54  1  0.15989238  -0.01264285  0.35529630  1
  Sr  Sr55  1  0.15754777  0.00604124  0.84580782  1
  Sr  Sr56  1  0.16730415  0.35003210  0.36302240  1
  Sr  Sr57  1  0.15841769  0.31931002  0.91955688  1
  Sr  Sr58  1  0.15782337  0.67259168  0.40920655  1
  Sr  Sr59  1  0.17598711  0.64945987  0.85986233  1
  Sr  Sr60  1  0.48591785  0.00155677  0.39939343  1
  Sr  Sr61  1  0.48584696  -0.04680247  0.85598686  1
  Sr  Sr62  1  0.50083911  0.31694552  0.34443782  1
  Sr  Sr63  1  0.49594703  0.32377296  0.87964660  1
  Sr  Sr64  1  0.48175655  0.64901395  0.36470010  1
  Sr  Sr65  1  0.50063104  0.65878423  0.91300900  1
  Sr  Sr66  1  0.81627043  0.00151972  0.37061221  1
  Sr  Sr67  1  0.82567311  -0.01647151  0.90246163  1
  Sr  Sr68  1  0.81449802  0.32727201  0.40195891  1
  Sr  Sr69  1  0.83599412  0.30594643  0.84775235  1
  Sr  Sr70  1  0.83749757  0.65313323  0.35292374  1
  Sr  Sr71  1  0.83072999  0.65431189  0.86077659  1
  Ta  Ta72  1  0.16073081  0.12844831  -0.00374564  1
  Ta  Ta73  1  0.16697995  0.12686717  0.50202520  1
  Ta  Ta74  1  0.20601838  0.50123358  0.00726340  1
  Ta  Ta75  1  0.11884175  0.50039885  0.50180757  1
  Ta  Ta76  1  0.17910362  0.87832905  0.00429080  1
  Ta  Ta77  1  0.20602553  0.84670960  0.49498351  1
  Ta  Ta78  1  0.50432249  0.11500763  -0.01924435  1
  Ta  Ta79  1  0.52559335  0.18507431  0.50613762  1
  Ta  Ta80  1  0.47118527  0.48624363  0.00656275  1
  Ta  Ta81  1  0.50146991  0.45040255  0.50137467  1
  Ta  Ta82  1  0.55161297  0.82796388  0.00804027  1
  Ta  Ta83  1  0.48195593  0.81387542  0.49815567  1
  Ta  Ta84  1  0.88420088  0.16009245  -0.00202648  1
  Ta  Ta85  1  0.80356367  0.15329842  0.50695367  1
  Ta  Ta86  1  0.83496381  0.46238318  -0.00441684  1
  Ta  Ta87  1  0.86742825  0.50369274  0.50183862  1
  Ta  Ta88  1  0.83331091  0.80026244  -0.00161099  1
  Ta  Ta89  1  0.83384366  0.78932846  0.50239160  1
  Ta  Ta90  1  0.21030994  0.16840241  0.25216375  1
  Ta  Ta91  1  0.17982059  0.19484322  0.75101245  1
  Ta  Ta92  1  0.16627286  0.54963769  0.24856623  1
  Ta  Ta93  1  0.16711282  0.45318843  0.74543287  1
  Ta  Ta94  1  0.16716785  0.80022342  0.24685410  1
  Ta  Ta95  1  0.14217215  0.82506319  0.75253347  1
  Ta  Ta96  1  0.47748867  0.14347556  0.25365951  1
  Ta  Ta97  1  0.50041226  0.12892452  0.75569263  1
  Ta  Ta98  1  0.53314245  0.48547813  0.24955139  1
  Ta  Ta99  1  0.52084497  0.51816529  0.74572179  1
  Ta  Ta100  1  0.53370425  0.82631169  0.24671807  1
  Ta  Ta101  1  0.50561463  0.77725367  0.74947655  1
  Ta  Ta102  1  0.86109267  0.16592870  0.26043130  1
  Ta  Ta103  1  0.82935100  0.11142469  0.74404166  1
  Ta  Ta104  1  0.82370012  0.46160795  0.25178646  1
  Ta  Ta105  1  0.80230801  0.48132371  0.74866138  1
  Ta  Ta106  1  0.86887679  0.83463212  0.24727745  1
  Ta  Ta107  1  0.87070967  0.83844598  0.74898605  1
  Ta  Ta108  1  -0.02563957  0.00413351  0.25565407  1
  Ta  Ta109  1  -0.02864088  -0.01373771  0.74384781  1
  Ta  Ta110  1  -0.04313902  0.33864260  0.25092303  1
  Ta  Ta111  1  0.04578189  0.33615950  0.74902626  1
  Ta  Ta112  1  0.02689285  0.68620280  0.23947543  1
  Ta  Ta113  1  0.00533816  0.70969905  0.75614017  1
  Ta  Ta114  1  0.33238141  0.05481991  0.25072274  1
  Ta  Ta115  1  0.33651376  0.03001252  0.75159224  1
  Ta  Ta116  1  0.33136039  0.29205316  0.24984875  1
  Ta  Ta117  1  0.28814343  0.32955710  0.75560309  1
  Ta  Ta118  1  0.29148312  0.66866860  0.24501038  1
  Ta  Ta119  1  0.37848836  0.66448049  0.75067933  1
  Ta  Ta120  1  0.62099089  0.00809930  0.25596742  1
  Ta  Ta121  1  0.67068577  0.02423320  0.74841433  1
  Ta  Ta122  1  0.66824393  0.36874963  0.23996165  1
  Ta  Ta123  1  0.66231539  0.38531380  0.76169749  1
  Ta  Ta124  1  0.65132154  0.69194580  0.25417988  1
  Ta  Ta125  1  0.63006079  0.66422087  0.74347367  1
  Ta  Ta126  1  0.01511710  0.03155281  0.00089299  1
  Ta  Ta127  1  0.01924864  0.02115397  0.50029515  1
  Ta  Ta128  1  -0.02973393  0.32217201  -0.00693832  1
  Ta  Ta129  1  -0.00549102  0.38623145  0.50406156  1
  Ta  Ta130  1  -0.01909924  0.67994604  -0.00958101  1
  Ta  Ta131  1  -0.01949243  0.64752784  0.50938544  1
  Ta  Ta132  1  0.29902407  0.00460539  -0.00031689  1
  Ta  Ta133  1  0.30308061  -0.01121231  0.50018719  1
  Ta  Ta134  1  0.33249540  0.37440921  0.00429900  1
  Ta  Ta135  1  0.37319638  0.33920012  0.49540498  1
  Ta  Ta136  1  0.33162157  0.61138194  0.00359528  1
  Ta  Ta137  1  0.33416768  0.71685987  0.49916037  1
  Ta  Ta138  1  0.63117682  -0.00818473  -0.00262282  1
  Ta  Ta139  1  0.66130573  0.05728253  0.50058210  1
  Ta  Ta140  1  0.67663180  0.36567403  -0.01039331  1
  Ta  Ta141  1  0.62965936  0.33246447  0.50377806  1
  Ta  Ta142  1  0.67981692  0.70944399  0.00229505  1
  Ta  Ta143  1  0.67980943  0.69658311  0.50028574  1
  N  N144  1  0.84880947  0.83123557  0.12697910  1
  N  N145  1  0.32113210  0.33824157  0.87684085  1
  N  N146  1  0.65576467  0.32897130  0.86838975  1
  N  N147  1  0.83606434  0.16167068  0.63371023  1
  N  N148  1  0.17574456  0.84355247  0.12237593  1
  N  N149  1  0.00044935  -0.00152921  0.62185745  1
  N  N150  1  0.00191984  0.32909825  0.87203190  1
  N  N151  1  0.66165922  0.67127708  0.62140542  1
  N  N152  1  0.17758478  0.83365504  0.37345185  1
  N  N153  1  0.33831277  0.33069407  0.37514186  1
  N  N154  1  0.83980084  0.82940642  0.87356766  1
  N  N155  1  0.16986908  0.50663703  0.12752101  1
  N  N156  1  0.15519029  0.51248771  0.37496145  1
  N  N157  1  0.82840064  0.49408008  0.62757503  1
  N  N158  1  0.64762452  0.02036538  0.37585954  1
  N  N159  1  0.66153335  0.34489040  0.11674588  1
  N  N160  1  0.50996679  0.17162035  0.87482648  1
  N  N161  1  0.16826747  0.16495369  0.87497119  1
  N  N162  1  0.00417488  0.67105494  0.11710436  1
  N  N163  1  0.16182700  0.49192653  0.62199193  1
  N  N164  1  0.83789708  0.16891407  0.38098398  1
  N  N165  1  0.83910868  0.82085725  0.62271134  1
  N  N166  1  0.50331673  0.16243540  0.62936920  1
  N  N167  1  -0.00145956  0.66910122  0.62875073  1
  N  N168  1  0.32894063  0.65644790  0.12700907  1
  N  N169  1  0.50136090  0.48951747  0.62731792  1
  N  N170  1  0.50545467  0.82487044  0.12325817  1
  N  N171  1  0.49567770  0.16231171  0.37490523  1
  N  N172  1  0.83287742  0.49237202  0.37366390  1
  N  N173  1  0.00545072  0.65572318  0.86541818  1
  N  N174  1  0.34632082  0.64906913  0.87015957  1
  N  N175  1  0.50355294  0.49684846  0.12970542  1
  N  N176  1  0.32961634  0.33218713  0.12632394  1
  O  O177  1  0.00317367  0.00745588  0.87347789  1
  O  O178  1  0.85066100  0.81473570  0.37641494  1
  O  O179  1  0.32577216  0.00479841  0.62507178  1
  O  O180  1  0.85389785  0.14700549  0.87257566  1
  O  O181  1  0.65721361  0.01560064  0.62337413  1
  O  O182  1  0.87164640  0.15952496  0.12275465  1
  O  O183  1  -0.01882039  0.35114014  0.37627073  1
  O  O184  1  0.64461512  0.34872644  0.63195295  1
  O  O185  1  0.31968908  0.00428854  0.37224595  1
  O  O186  1  0.00113613  0.34856658  0.62883903  1
  O  O187  1  0.16046715  0.84541623  0.87557058  1
  O  O188  1  0.67167279  0.68366629  0.87387446  1
  O  O189  1  0.18162359  0.14967154  0.38054973  1
  O  O190  1  0.18248169  0.16326060  0.11956359  1
  O  O191  1  0.16981813  0.49413270  0.86892061  1
  O  O192  1  0.33353572  0.33002208  0.62088688  1
  O  O193  1  0.49525961  0.15015280  0.10373701  1
  O  O194  1  0.67863833  0.68841378  0.13196910  1
  O  O195  1  0.51173909  0.80738451  0.88293260  1
  O  O196  1  -0.00050574  0.66829509  0.37025750  1
  O  O197  1  0.33811336  0.69116260  0.62472191  1
  O  O198  1  0.63543503  0.00382323  0.12273831  1
  O  O199  1  0.64912431  0.67415714  0.37720337  1
  O  O200  1  0.83336403  0.48261795  0.11887152  1
  O  O201  1  -0.02294064  0.32987810  0.12839470  1
  O  O202  1  0.16794761  0.83450967  0.62774897  1
  O  O203  1  0.65677863  0.33941518  0.37790746  1
  O  O204  1  0.16828623  0.15225457  0.62822774  1
  O  O205  1  0.31862194  0.01391184  0.87094592  1
  O  O206  1  0.49660469  0.80880866  0.62205880  1
  O  O207  1  0.50183412  0.50428978  0.88158073  1
  O  O208  1  0.84459016  0.48256259  0.87210241  1
  O  O209  1  0.51273851  0.49303342  0.37757214  1
  O  O210  1  0.66544477  -0.00477454  0.87040864  1
  O  O211  1  0.31679750  0.01757414  0.12470253  1
  O  O212  1  -0.00292689  0.01609149  0.13304079  1
  O  O213  1  0.50049306  0.82629080  0.37538505  1
  O  O214  1  0.32745840  0.69335315  0.37442580  1
  O  O215  1  -0.01465100  -0.00504995  0.38055494  1
