# generated using pymatgen
data_Sr24Ta24N11O13
_symmetry_space_group_name_H-M   'P 1'
_cell_length_a   16.77944890
_cell_length_b   16.76005072
_cell_length_c   15.73316237
_cell_angle_alpha   89.63253834
_cell_angle_beta   90.06030128
_cell_angle_gamma   89.96869720
_symmetry_Int_Tables_number   1
_chemical_formula_structural   Sr24Ta24N11O13
_chemical_formula_sum   'Sr72 Ta72 N33 O39'
_cell_volume   4424.45525804
_cell_formula_units_Z   3
loop_
 _symmetry_equiv_pos_site_id
 _symmetry_equiv_pos_as_xyz
  1  'x, y, z'
loop_
 _atom_site_type_symbol
 _atom_site_label
 _atom_site_symmetry_multiplicity
 _atom_site_fract_x
 _atom_site_fract_y
 _atom_site_fract_z
 _atom_site_occupancy
  Sr  Sr0  1  0.00513215  0.15216383  0.13857500  1
  Sr  Sr1  1  -0.00274456  0.15757793  0.62087419  1
  Sr  Sr2  1  -0.02325704  0.49476976  0.11543329  1
  Sr  Sr3  1  0.03109562  0.50906249  0.67902402  1
  Sr  Sr4  1  0.01014785  0.83030653  0.08960676  1
  Sr  Sr5  1  -0.01685864  0.81913469  0.61237273  1
  Sr  Sr6  1  0.33963205  0.16278358  0.12447922  1
  Sr  Sr7  1  0.34371520  0.16791602  0.59405534  1
  Sr  Sr8  1  0.34670891  0.49687550  0.10832634  1
  Sr  Sr9  1  0.32772413  0.49143874  0.58904055  1
  Sr  Sr10  1  0.31983969  0.82331092  0.17126948  1
  Sr  Sr11  1  0.33573777  0.83358871  0.62125843  1
  Sr  Sr12  1  0.67393801  0.17578611  0.12159289  1
  Sr  Sr13  1  0.65428790  0.15176919  0.66726963  1
  Sr  Sr14  1  0.64840072  0.49117092  0.15192252  1
  Sr  Sr15  1  0.67376013  0.49585040  0.61066078  1
  Sr  Sr16  1  0.68353002  0.82402044  0.13824731  1
  Sr  Sr17  1  0.66349038  0.84130864  0.58637865  1
  Sr  Sr18  1  0.16551783  0.00815342  0.11635887  1
  Sr  Sr19  1  0.16898776  0.00266220  0.66182170  1
  Sr  Sr20  1  0.13620219  0.34539160  0.15436527  1
  Sr  Sr21  1  0.15558032  0.31852381  0.61823559  1
  Sr  Sr22  1  0.17379353  0.66474053  0.13250424  1
  Sr  Sr23  1  0.18105170  0.67592209  0.61139349  1
  Sr  Sr24  1  0.51527201  -0.00742875  0.08733698  1
  Sr  Sr25  1  0.49762258  0.00077059  0.63156178  1
  Sr  Sr26  1  0.49213267  0.32640217  0.13361951  1
  Sr  Sr27  1  0.50852965  0.34132630  0.62877825  1
  Sr  Sr28  1  0.50283651  0.68146992  0.11698982  1
  Sr  Sr29  1  0.50663552  0.65924935  0.66191461  1
  Sr  Sr30  1  0.82584313  0.01482796  0.16787336  1
  Sr  Sr31  1  0.84358143  0.01001470  0.62294065  1
  Sr  Sr32  1  0.83100995  0.33761997  0.10463448  1
  Sr  Sr33  1  0.83598581  0.33674703  0.59311827  1
  Sr  Sr34  1  0.84655616  0.66891675  0.10714591  1
  Sr  Sr35  1  0.82465584  0.66749679  0.62415432  1
  Sr  Sr36  1  0.00438165  0.15303075  0.37683072  1
  Sr  Sr37  1  0.00865651  0.15696498  0.85506042  1
  Sr  Sr38  1  0.00468405  0.50936612  0.32203798  1
  Sr  Sr39  1  -0.02335059  0.49565986  0.88652458  1
  Sr  Sr40  1  0.00155652  0.81080058  0.41143292  1
  Sr  Sr41  1  -0.02298922  0.82264410  0.88913659  1
  Sr  Sr42  1  0.34627711  0.16287483  0.37397710  1
  Sr  Sr43  1  0.33527051  0.16782061  0.91418021  1
  Sr  Sr44  1  0.34179252  0.48656642  0.38502864  1
  Sr  Sr45  1  0.34015442  0.50349538  0.91318011  1
  Sr  Sr46  1  0.33053655  0.83025318  0.38109707  1
  Sr  Sr47  1  0.33094299  0.83700283  0.82749461  1
  Sr  Sr48  1  0.66492529  0.16291462  0.34592677  1
  Sr  Sr49  1  0.67138968  0.17383479  0.87851617  1
  Sr  Sr50  1  0.66664157  0.48720661  0.39046852  1
  Sr  Sr51  1  0.64868820  0.51908489  0.82111824  1
  Sr  Sr52  1  0.67359908  0.83388575  0.36627202  1
  Sr  Sr53  1  0.65276973  0.82623230  0.92253243  1
  Sr  Sr54  1  0.17722767  0.00507817  0.33350554  1
  Sr  Sr55  1  0.15686086  0.00652227  0.88915292  1
  Sr  Sr56  1  0.14878327  0.32316942  0.38905709  1
  Sr  Sr57  1  0.14439979  0.33725004  0.84103465  1
  Sr  Sr58  1  0.17658088  0.67167484  0.38058743  1
  Sr  Sr59  1  0.17731202  0.65814291  0.87172874  1
  Sr  Sr60  1  0.49204574  -0.01426117  0.42362557  1
  Sr  Sr61  1  0.50497195  0.00108956  0.87135616  1
  Sr  Sr62  1  0.50733070  0.33251206  0.36387021  1
  Sr  Sr63  1  0.48474781  0.33755389  0.88124859  1
  Sr  Sr64  1  0.51375740  0.68527511  0.33297035  1
  Sr  Sr65  1  0.49663264  0.67135126  0.87931827  1
  Sr  Sr66  1  0.84198007  0.01111702  0.37630152  1
  Sr  Sr67  1  0.83090207  0.02252583  0.83191085  1
  Sr  Sr68  1  0.83461422  0.34786980  0.39234986  1
  Sr  Sr69  1  0.83078967  0.32725533  0.90651639  1
  Sr  Sr70  1  0.83780170  0.67241671  0.38384447  1
  Sr  Sr71  1  0.83617292  0.65765333  0.86630648  1
  Ta  Ta72  1  0.15603948  0.20046003  0.00218520  1
  Ta  Ta73  1  0.17340926  0.12654984  0.49661225  1
  Ta  Ta74  1  0.15521190  0.48287773  -0.00165493  1
  Ta  Ta75  1  0.13964247  0.49913874  0.49818477  1
  Ta  Ta76  1  0.20588100  0.82835167  -0.00137100  1
  Ta  Ta77  1  0.16750856  0.88020970  0.50217388  1
  Ta  Ta78  1  0.51742943  0.17000219  -0.00013745  1
  Ta  Ta79  1  0.53260025  0.17058966  0.50131098  1
  Ta  Ta80  1  0.53807990  0.50286420  -0.00972475  1
  Ta  Ta81  1  0.50239295  0.54411046  0.49506164  1
  Ta  Ta82  1  0.43780096  0.83554964  0.00088142  1
  Ta  Ta83  1  0.49874363  0.78934225  0.49699996  1
  Ta  Ta84  1  0.84209086  0.13450117  -0.00400595  1
  Ta  Ta85  1  0.78949024  0.16659818  0.50702929  1
  Ta  Ta86  1  0.77768942  0.50316326  -0.00425140  1
  Ta  Ta87  1  0.87211172  0.51308700  0.49669775  1
  Ta  Ta88  1  0.82842440  0.89939766  0.00147491  1
  Ta  Ta89  1  0.82562746  0.85943149  0.49668631  1
  Ta  Ta90  1  0.18532115  0.18717659  0.24796842  1
  Ta  Ta91  1  0.21729120  0.16849175  0.75740522  1
  Ta  Ta92  1  0.20258160  0.50105003  0.24963778  1
  Ta  Ta93  1  0.22823316  0.49766791  0.75067060  1
  Ta  Ta94  1  0.12512289  0.83082174  0.25278365  1
  Ta  Ta95  1  0.13149896  0.82682241  0.75184065  1
  Ta  Ta96  1  0.50117291  0.11257578  0.25680067  1
  Ta  Ta97  1  0.45681101  0.17106367  0.74874289  1
  Ta  Ta98  1  0.48391134  0.51481330  0.25211159  1
  Ta  Ta99  1  0.44007813  0.49614894  0.75186283  1
  Ta  Ta100  1  0.50010577  0.87776846  0.25389042  1
  Ta  Ta101  1  0.53278092  0.83659336  0.74941820  1
  Ta  Ta102  1  0.83828786  0.20209980  0.25457641  1
  Ta  Ta103  1  0.83647346  0.20911011  0.74671870  1
  Ta  Ta104  1  0.81200522  0.50054946  0.24602713  1
  Ta  Ta105  1  0.83115830  0.46407294  0.74949960  1
  Ta  Ta106  1  0.87349069  0.82895901  0.25149382  1
  Ta  Ta107  1  0.81071645  0.83862278  0.74691732  1
  Ta  Ta108  1  0.00446759  -0.04928188  0.25712932  1
  Ta  Ta109  1  0.00326944  -0.04138778  0.74857427  1
  Ta  Ta110  1  -0.03580286  0.31977186  0.25033352  1
  Ta  Ta111  1  -0.04635125  0.33710107  0.74688827  1
  Ta  Ta112  1  0.00392817  0.69762508  0.24773300  1
  Ta  Ta113  1  0.02009013  0.69104656  0.75350758  1
  Ta  Ta114  1  0.37086180  0.00030779  0.25428616  1
  Ta  Ta115  1  0.33682437  0.03953011  0.75385593  1
  Ta  Ta116  1  0.30616938  0.33939032  0.23733261  1
  Ta  Ta117  1  0.32670551  0.33425386  0.75996336  1
  Ta  Ta118  1  0.33903670  0.62982135  0.24732490  1
  Ta  Ta119  1  0.33319829  0.63024815  0.74816508  1
  Ta  Ta120  1  0.62886750  -0.00487333  0.25797639  1
  Ta  Ta121  1  0.66541464  -0.05147315  0.74744885  1
  Ta  Ta122  1  0.69836407  0.33367248  0.25154267  1
  Ta  Ta123  1  0.70115922  0.33471891  0.74504995  1
  Ta  Ta124  1  0.68923549  0.64644650  0.24939848  1
  Ta  Ta125  1  0.67005644  0.72169366  0.75150755  1
  Ta  Ta126  1  -0.03928580  0.00616358  -0.00440206  1
  Ta  Ta127  1  0.03834766  -0.01012092  0.50028922  1
  Ta  Ta128  1  0.02251496  0.32043237  0.00311361  1
  Ta  Ta129  1  0.00320582  0.40792702  0.50137605  1
  Ta  Ta130  1  0.03017036  0.64712786  -0.00029799  1
  Ta  Ta131  1  0.01045917  0.61169926  0.49489690  1
  Ta  Ta132  1  0.33001300  -0.03992005  0.00253824  1
  Ta  Ta133  1  0.29449589  -0.00320023  0.49786448  1
  Ta  Ta134  1  0.27441238  0.33504993  0.00657386  1
  Ta  Ta135  1  0.33370124  0.32317377  0.49467401  1
  Ta  Ta136  1  0.32984102  0.70526394  0.00298214  1
  Ta  Ta137  1  0.38309646  0.66450761  0.49459684  1
  Ta  Ta138  1  0.70015300  0.01012174  -0.00071630  1
  Ta  Ta139  1  0.67592204  0.02717590  0.50258061  1
  Ta  Ta140  1  0.65060045  0.36010663  0.00057720  1
  Ta  Ta141  1  0.66281041  0.29289742  0.50126547  1
  Ta  Ta142  1  0.66613888  0.63063518  -0.00733028  1
  Ta  Ta143  1  0.63517968  0.66592207  0.50604514  1
  N  N144  1  0.66439940  0.33532165  0.12243500  1
  N  N145  1  0.16663996  0.16266860  0.12629104  1
  N  N146  1  0.49971776  0.83437492  0.37802239  1
  N  N147  1  0.84006055  0.83443307  0.37151249  1
  N  N148  1  0.66418552  0.67220274  0.86798428  1
  N  N149  1  0.33862160  0.66749626  0.12576178  1
  N  N150  1  0.00608589  0.66371323  0.12414440  1
  N  N151  1  0.81671061  0.49598316  0.86895984  1
  N  N152  1  0.33413767  0.33490432  0.11519229  1
  N  N153  1  0.49693182  0.16630606  0.63301557  1
  N  N154  1  0.82129442  0.50064481  0.11436728  1
  N  N155  1  -0.01376882  0.32885095  0.12288418  1
  N  N156  1  0.49186789  0.50370753  0.87048112  1
  N  N157  1  0.66120067  -0.00317245  0.37968756  1
  N  N158  1  0.50474285  0.15100383  0.37888704  1
  N  N159  1  -0.00944312  -0.00576741  0.87455321  1
  N  N160  1  0.82896282  0.16836674  0.62720384  1
  N  N161  1  0.00396116  -0.00630132  0.37315417  1
  N  N162  1  0.16881662  0.15940672  0.37498096  1
  N  N163  1  0.66494466  -0.00552531  0.63298089  1
  N  N164  1  0.84181284  0.50723626  0.37427899  1
  N  N165  1  0.66875293  0.32891361  0.37361753  1
  N  N166  1  0.66268460  0.67213273  0.62842329  1
  N  N167  1  0.00277636  -0.00587587  0.62835719  1
  N  N168  1  0.83577506  0.17096288  0.87833116  1
  N  N169  1  0.67083921  0.33394281  0.62424025  1
  N  N170  1  0.50637106  0.50561299  0.37230929  1
  N  N171  1  0.00405018  0.65736976  0.87271289  1
  N  N172  1  0.01005731  0.65632199  0.37562336  1
  N  N173  1  0.17738105  0.17067926  0.87370050  1
  N  N174  1  0.33393412  -0.00678213  0.37645829  1
  N  N175  1  0.31980470  0.33509753  0.88447758  1
  N  N176  1  0.82881243  0.83414872  0.62280449  1
  O  O177  1  0.67487413  0.66382288  0.12396101  1
  O  O178  1  0.67029693  0.65723470  0.37364588  1
  O  O179  1  0.33311263  0.66289204  0.87920788  1
  O  O180  1  0.32874313  -0.01781779  0.12874972  1
  O  O181  1  0.82515077  0.85742314  0.88299983  1
  O  O182  1  0.67123714  0.33067265  0.87364273  1
  O  O183  1  0.17292799  0.83926321  0.62843673  1
  O  O184  1  0.17248081  0.50156542  0.12814454  1
  O  O185  1  -0.00792803  0.36082546  0.36837626  1
  O  O186  1  0.32780804  0.32961495  0.61803917  1
  O  O187  1  0.48018677  0.50413414  0.62927498  1
  O  O188  1  0.67532664  -0.00347260  0.87238219  1
  O  O189  1  0.18259842  0.83076350  0.87260019  1
  O  O190  1  0.83189026  0.17952401  0.38259010  1
  O  O191  1  0.02282735  0.65439359  0.62929380  1
  O  O192  1  0.32586591  0.32974979  0.37030782  1
  O  O193  1  0.32809526  0.00047677  0.63027096  1
  O  O194  1  0.67325033  0.00704647  0.12569386  1
  O  O195  1  0.18488605  0.16220215  0.62426162  1
  O  O196  1  0.33823722  0.65354447  0.61580269  1
  O  O197  1  -0.00998420  0.33401625  0.87873818  1
  O  O198  1  0.49982808  0.50982348  0.11492955  1
  O  O199  1  0.33341100  -0.01032600  0.87421421  1
  O  O200  1  0.48395051  0.83855691  0.87007562  1
  O  O201  1  0.16196357  0.83343837  0.38152473  1
  O  O202  1  0.82941746  0.50509692  0.62412520  1
  O  O203  1  0.83499872  0.17129544  0.12784970  1
  O  O204  1  0.49413807  0.82770671  0.62564920  1
  O  O205  1  -0.01079151  -0.00521876  0.13326669  1
  O  O206  1  0.51202905  0.14824407  0.12359152  1
  O  O207  1  0.18177001  0.49834186  0.63060740  1
  O  O208  1  0.83442524  0.85975768  0.12716871  1
  O  O209  1  0.34095254  0.66834013  0.37081045  1
  O  O210  1  0.17740298  0.49275000  0.87350004  1
  O  O211  1  0.18344533  0.50447398  0.37668200  1
  O  O212  1  0.50620112  0.16495717  0.87312260  1
  O  O213  1  0.47450622  0.84289564  0.13180880  1
  O  O214  1  -0.00386212  0.36528441  0.62553652  1
  O  O215  1  0.17180958  0.82864465  0.12348437  1
