# generated using pymatgen
data_Sr24Ta24N11O13
_symmetry_space_group_name_H-M   'P 1'
_cell_length_a   16.81625063
_cell_length_b   16.81414227
_cell_length_c   15.74863995
_cell_angle_alpha   90.10881253
_cell_angle_beta   90.07481053
_cell_angle_gamma   90.04610281
_symmetry_Int_Tables_number   1
_chemical_formula_structural   Sr24Ta24N11O13
_chemical_formula_sum   'Sr72 Ta72 N33 O39'
_cell_volume   4452.92775035
_cell_formula_units_Z   3
loop_
 _symmetry_equiv_pos_site_id
 _symmetry_equiv_pos_as_xyz
  1  'x, y, z'
loop_
 _atom_site_type_symbol
 _atom_site_label
 _atom_site_symmetry_multiplicity
 _atom_site_fract_x
 _atom_site_fract_y
 _atom_site_fract_z
 _atom_site_occupancy
  Sr  Sr0  1  0.00280322  0.14407956  0.11339346  1
  Sr  Sr1  1  -0.00523459  0.17684528  0.67388240  1
  Sr  Sr2  1  -0.00433447  0.50372766  0.13384867  1
  Sr  Sr3  1  0.00367256  0.48353030  0.57538592  1
  Sr  Sr4  1  -0.00524132  0.83125932  0.16054813  1
  Sr  Sr5  1  0.01143648  0.83533883  0.60804909  1
  Sr  Sr6  1  0.33284479  0.17312338  0.09028652  1
  Sr  Sr7  1  0.34314277  0.14899054  0.62473050  1
  Sr  Sr8  1  0.34765751  0.48243960  0.16908365  1
  Sr  Sr9  1  0.34116836  0.51439991  0.61818292  1
  Sr  Sr10  1  0.32532083  0.82500388  0.11237588  1
  Sr  Sr11  1  0.33447128  0.83483806  0.66233661  1
  Sr  Sr12  1  0.65622610  0.17454882  0.13612111  1
  Sr  Sr13  1  0.67471341  0.16463076  0.58626434  1
  Sr  Sr14  1  0.65151341  0.50449432  0.08175710  1
  Sr  Sr15  1  0.67755513  0.49311214  0.63673289  1
  Sr  Sr16  1  0.66737791  0.83158489  0.12524664  1
  Sr  Sr17  1  0.65922187  0.84143441  0.62683134  1
  Sr  Sr18  1  0.16769772  -0.01331207  0.13637584  1
  Sr  Sr19  1  0.16274057  0.00796717  0.60089430  1
  Sr  Sr20  1  0.16856367  0.35613019  0.13580537  1
  Sr  Sr21  1  0.17400403  0.33056559  0.62107252  1
  Sr  Sr22  1  0.16501279  0.66464005  0.08777779  1
  Sr  Sr23  1  0.16386260  0.68502150  0.63901850  1
  Sr  Sr24  1  0.51684427  -0.00147545  0.17247466  1
  Sr  Sr25  1  0.49897127  -0.00261196  0.62118043  1
  Sr  Sr26  1  0.50891503  0.32716690  0.11468707  1
  Sr  Sr27  1  0.50337085  0.36176278  0.67073917  1
  Sr  Sr28  1  0.49499572  0.66660801  0.12963370  1
  Sr  Sr29  1  0.52038182  0.65896889  0.57754545  1
  Sr  Sr30  1  0.81701710  0.00971475  0.07555426  1
  Sr  Sr31  1  0.83758521  0.00247956  0.63001396  1
  Sr  Sr32  1  0.84157283  0.32034463  0.16844466  1
  Sr  Sr33  1  0.82214239  0.34190786  0.61265256  1
  Sr  Sr34  1  0.83953960  0.66113788  0.12283823  1
  Sr  Sr35  1  0.82324411  0.66697152  0.66325890  1
  Sr  Sr36  1  0.00786172  0.15621190  0.33470318  1
  Sr  Sr37  1  0.00042847  0.15722493  0.88102595  1
  Sr  Sr38  1  -0.01394259  0.49812306  0.36134078  1
  Sr  Sr39  1  0.01946442  0.50934481  0.92122880  1
  Sr  Sr40  1  0.00669034  0.84254741  0.38463164  1
  Sr  Sr41  1  0.00211572  0.80212165  0.83458456  1
  Sr  Sr42  1  0.31546234  0.15925724  0.42027874  1
  Sr  Sr43  1  0.34475006  0.15991742  0.87835181  1
  Sr  Sr44  1  0.34273853  0.50026196  0.37704668  1
  Sr  Sr45  1  0.32757553  0.48870463  0.83008793  1
  Sr  Sr46  1  0.33109268  0.85203838  0.33347694  1
  Sr  Sr47  1  0.32541050  0.82699206  0.88753621  1
  Sr  Sr48  1  0.66328077  0.17834193  0.36386757  1
  Sr  Sr49  1  0.66676507  0.16460487  0.91114954  1
  Sr  Sr50  1  0.66477433  0.50360849  0.40759025  1
  Sr  Sr51  1  0.66471184  0.48412720  0.86279548  1
  Sr  Sr52  1  0.65683454  0.82492215  0.37167857  1
  Sr  Sr53  1  0.67586829  0.84641754  0.86785663  1
  Sr  Sr54  1  0.15831458  -0.00727514  0.36507179  1
  Sr  Sr55  1  0.17122356  0.01790330  0.91482535  1
  Sr  Sr56  1  0.17925747  0.34636840  0.38748479  1
  Sr  Sr57  1  0.16114628  0.33872100  0.86431701  1
  Sr  Sr58  1  0.14368363  0.67670837  0.41913192  1
  Sr  Sr59  1  0.18080019  0.67043623  0.86274580  1
  Sr  Sr60  1  0.49633033  0.01481619  0.38735460  1
  Sr  Sr61  1  0.48965921  -0.01635440  0.83071532  1
  Sr  Sr62  1  0.50076530  0.33400464  0.33848243  1
  Sr  Sr63  1  0.51100633  0.31816707  0.89413598  1
  Sr  Sr64  1  0.49717595  0.65817175  0.36992888  1
  Sr  Sr65  1  0.50537016  0.68501535  0.92117420  1
  Sr  Sr66  1  0.83023407  -0.01116286  0.41562845  1
  Sr  Sr67  1  0.83289143  0.00273660  0.87012046  1
  Sr  Sr68  1  0.82144113  0.33552560  0.38685481  1
  Sr  Sr69  1  0.83795519  0.33330901  0.83944651  1
  Sr  Sr70  1  0.84423905  0.67786576  0.32825846  1
  Sr  Sr71  1  0.83710061  0.65334823  0.87775469  1
  Ta  Ta72  1  0.16273721  0.20510106  -0.00332172  1
  Ta  Ta73  1  0.12222588  0.17022017  0.50625589  1
  Ta  Ta74  1  0.22307223  0.49387565  -0.00109007  1
  Ta  Ta75  1  0.18353392  0.51400882  0.50440554  1
  Ta  Ta76  1  0.12467031  0.83520465  0.00178929  1
  Ta  Ta77  1  0.21004539  0.83998912  0.49981242  1
  Ta  Ta78  1  0.49990123  0.10976781  -0.00128177  1
  Ta  Ta79  1  0.49799067  0.20923199  0.49978376  1
  Ta  Ta80  1  0.45377744  0.49533486  -0.00039937  1
  Ta  Ta81  1  0.49894283  0.46400212  0.49447826  1
  Ta  Ta82  1  0.50073203  0.87937002  0.00262278  1
  Ta  Ta83  1  0.45616448  0.83354188  0.50205710  1
  Ta  Ta84  1  0.83944840  0.21666420  0.00184892  1
  Ta  Ta85  1  0.87235551  0.16890551  0.49588472  1
  Ta  Ta86  1  0.84029335  0.45503450  0.00311539  1
  Ta  Ta87  1  0.83266115  0.54561713  0.49282918  1
  Ta  Ta88  1  0.85935706  0.82282473  -0.00107139  1
  Ta  Ta89  1  0.82723258  0.79715280  0.49681968  1
  Ta  Ta90  1  0.19492213  0.17960012  0.25159376  1
  Ta  Ta91  1  0.18454052  0.15249285  0.75041891  1
  Ta  Ta92  1  0.17244961  0.54796791  0.25159781  1
  Ta  Ta93  1  0.12419773  0.50186292  0.74818087  1
  Ta  Ta94  1  0.16684353  0.79183725  0.25113900  1
  Ta  Ta95  1  0.16417231  0.87899919  0.75092971  1
  Ta  Ta96  1  0.45220229  0.16744694  0.25671508  1
  Ta  Ta97  1  0.52673583  0.16831356  0.75266466  1
  Ta  Ta98  1  0.53795747  0.50154601  0.24613083  1
  Ta  Ta99  1  0.50440365  0.55702230  0.75564639  1
  Ta  Ta100  1  0.49904789  0.82302725  0.24676582  1
  Ta  Ta101  1  0.50489655  0.78510071  0.74610652  1
  Ta  Ta102  1  0.83091634  0.12823281  0.25315938  1
  Ta  Ta103  1  0.79890886  0.16596202  0.74943790  1
  Ta  Ta104  1  0.78891211  0.49913930  0.25088019  1
  Ta  Ta105  1  0.88609664  0.49713695  0.74686599  1
  Ta  Ta106  1  0.82473090  0.87009466  0.24327030  1
  Ta  Ta107  1  0.84316154  0.84569845  0.74955793  1
  Ta  Ta108  1  -0.06496884  -0.00383966  0.24633280  1
  Ta  Ta109  1  0.02038836  -0.01294889  0.74890657  1
  Ta  Ta110  1  0.02007020  0.32582533  0.25222329  1
  Ta  Ta111  1  0.00569779  0.37810710  0.75031820  1
  Ta  Ta112  1  0.03723820  0.66386990  0.25205474  1
  Ta  Ta113  1  0.00106305  0.61671352  0.73936738  1
  Ta  Ta114  1  0.32865472  0.04582517  0.25401717  1
  Ta  Ta115  1  0.29485933  0.00206610  0.75983606  1
  Ta  Ta116  1  0.32895639  0.28857476  0.25921064  1
  Ta  Ta117  1  0.33141400  0.30262365  0.74756194  1
  Ta  Ta118  1  0.29477157  0.66618725  0.25064547  1
  Ta  Ta119  1  0.37956694  0.66634520  0.75510712  1
  Ta  Ta120  1  0.71224140  0.00164393  0.24433984  1
  Ta  Ta121  1  0.66854042  0.04155244  0.75232378  1
  Ta  Ta122  1  0.66782197  0.37436938  0.24872433  1
  Ta  Ta123  1  0.66654875  0.28830077  0.75081035  1
  Ta  Ta124  1  0.66345154  0.63413525  0.24867109  1
  Ta  Ta125  1  0.63049767  0.66992378  0.75020626  1
  Ta  Ta126  1  -0.00499390  -0.05600877  -0.00464128  1
  Ta  Ta127  1  -0.00273458  0.05012119  0.50487058  1
  Ta  Ta128  1  -0.02093369  0.32382101  -0.00487552  1
  Ta  Ta129  1  -0.00242542  0.28349091  0.50206886  1
  Ta  Ta130  1  -0.00327489  0.70472169  0.00570171  1
  Ta  Ta131  1  -0.04449115  0.66663827  0.49943383  1
  Ta  Ta132  1  0.37259594  -0.00547809  0.00468284  1
  Ta  Ta133  1  0.33146866  -0.03659217  0.49823099  1
  Ta  Ta134  1  0.32458223  0.35919610  0.00006881  1
  Ta  Ta135  1  0.37710192  0.33452212  0.49915449  1
  Ta  Ta136  1  0.33510040  0.61941692  -0.00350034  1
  Ta  Ta137  1  0.32775884  0.69936940  0.50131307  1
  Ta  Ta138  1  0.62476277  -0.00501641  -0.00151319  1
  Ta  Ta139  1  0.66083219  -0.00813294  0.50095204  1
  Ta  Ta140  1  0.71086115  0.33304379  0.00321613  1
  Ta  Ta141  1  0.62577014  0.33552750  0.50083599  1
  Ta  Ta142  1  0.68599354  0.68142430  0.00146150  1
  Ta  Ta143  1  0.71390498  0.67138986  0.49159581  1
  N  N144  1  0.66730485  0.66842308  0.12022587  1
  N  N145  1  0.66910763  0.00400411  0.12746321  1
  N  N146  1  0.33527715  0.32882550  0.38008059  1
  N  N147  1  0.15787340  0.17245742  0.62814184  1
  N  N148  1  0.66368360  0.00358056  0.62261439  1
  N  N149  1  0.17055780  0.83232563  0.37514852  1
  N  N150  1  0.48951313  0.17101753  0.37801585  1
  N  N151  1  0.34021200  0.65920801  0.87569388  1
  N  N152  1  0.33043642  -0.00347816  0.87884638  1
  N  N153  1  0.16015860  0.82786094  0.12424651  1
  N  N154  1  0.16102842  0.17807996  0.87878759  1
  N  N155  1  0.66109877  0.00318417  0.86993509  1
  N  N156  1  -0.00393642  0.65787890  0.61828990  1
  N  N157  1  0.67100087  0.32623238  0.87279077  1
  N  N158  1  0.00159149  0.34006286  0.87328069  1
  N  N159  1  0.83516314  0.16378904  0.37444517  1
  N  N160  1  0.66236815  0.33213877  0.62661309  1
  N  N161  1  0.67225005  0.66921802  0.37240545  1
  N  N162  1  -0.00443189  0.66952455  0.36956646  1
  N  N163  1  0.66248930  0.33856016  0.37529143  1
  N  N164  1  0.82964733  0.50702468  0.36691545  1
  N  N165  1  0.50278334  0.15077875  0.87244866  1
  N  N166  1  0.82861982  0.83667474  0.12225390  1
  N  N167  1  0.50151273  0.49827048  0.37474609  1
  N  N168  1  -0.00037225  0.01224431  0.63119284  1
  N  N169  1  0.83350129  0.83072491  0.86865180  1
  N  N170  1  0.49585626  0.49478553  0.11677154  1
  N  N171  1  0.17240058  0.84412173  0.62751944  1
  N  N172  1  0.67005761  0.33590364  0.12222479  1
  N  N173  1  -0.00051575  0.66512845  0.12195423  1
  N  N174  1  0.49317821  0.82260530  0.62319672  1
  N  N175  1  0.32698960  0.00592417  0.37519858  1
  N  N176  1  0.49580451  0.83769183  0.12698812  1
  O  O177  1  0.32653598  0.33261360  0.12965773  1
  O  O178  1  0.67735002  -0.00040648  0.37412295  1
  O  O179  1  0.48812183  0.15152041  0.12362702  1
  O  O180  1  0.17542384  0.52171654  0.38056315  1
  O  O181  1  -0.00432890  0.65701442  0.88156860  1
  O  O182  1  0.83259366  0.82078451  0.62035938  1
  O  O183  1  0.17711960  0.18840093  0.12770386  1
  O  O184  1  0.50019329  0.16385690  0.61998413  1
  O  O185  1  0.33821608  0.67560294  0.62669172  1
  O  O186  1  0.18737022  0.51116078  0.12410708  1
  O  O187  1  0.16434743  0.83261442  0.87335829  1
  O  O188  1  0.16465357  0.17177658  0.37669803  1
  O  O189  1  0.33066951  0.01111315  0.12739741  1
  O  O190  1  0.83880801  0.47611775  0.12804590  1
  O  O191  1  0.49032357  0.82249991  0.38041462  1
  O  O192  1  0.82614785  0.82875920  0.37281929  1
  O  O193  1  0.82490845  0.17436253  0.87734138  1
  O  O194  1  0.49855098  0.51016131  0.62075656  1
  O  O195  1  0.83831073  0.17170246  0.12177574  1
  O  O196  1  0.31875178  0.67717281  0.37940791  1
  O  O197  1  0.00832858  0.31533910  0.37488235  1
  O  O198  1  -0.00432382  -0.00514484  0.88081328  1
  O  O199  1  0.85131231  0.50390785  0.61605890  1
  O  O200  1  0.67012748  0.66771931  0.62484624  1
  O  O201  1  0.33067076  -0.00464756  0.62741092  1
  O  O202  1  -0.02577458  -0.01325214  0.12006336  1
  O  O203  1  0.33449407  0.30970952  0.62283979  1
  O  O204  1  0.00213584  0.33040589  0.62447198  1
  O  O205  1  0.82708976  0.16670186  0.62422800  1
  O  O206  1  0.86125649  0.48376667  0.88193670  1
  O  O207  1  0.32100256  0.65841385  0.12614508  1
  O  O208  1  0.17121837  0.50589889  0.62790297  1
  O  O209  1  0.66842797  0.67367119  0.87143094  1
  O  O210  1  0.49925692  0.83140140  0.86874728  1
  O  O211  1  0.33285718  0.33061691  0.86930314  1
  O  O212  1  0.49807409  0.51563995  0.87686741  1
  O  O213  1  0.17202590  0.50009504  0.87034508  1
  O  O214  1  -0.01994544  0.00824409  0.38103910  1
  O  O215  1  0.00530440  0.32969627  0.12932175  1
