# generated using pymatgen
data_Sr24Ta24N11O13
_symmetry_space_group_name_H-M   'P 1'
_cell_length_a   16.90313084
_cell_length_b   16.75561672
_cell_length_c   15.71307845
_cell_angle_alpha   90.16346890
_cell_angle_beta   89.74020699
_cell_angle_gamma   89.97298735
_symmetry_Int_Tables_number   1
_chemical_formula_structural   Sr24Ta24N11O13
_chemical_formula_sum   'Sr72 Ta72 N33 O39'
_cell_volume   4450.23112096
_cell_formula_units_Z   3
loop_
 _symmetry_equiv_pos_site_id
 _symmetry_equiv_pos_as_xyz
  1  'x, y, z'
loop_
 _atom_site_type_symbol
 _atom_site_label
 _atom_site_symmetry_multiplicity
 _atom_site_fract_x
 _atom_site_fract_y
 _atom_site_fract_z
 _atom_site_occupancy
  Sr  Sr0  1  0.00315473  0.15738512  0.13236850  1
  Sr  Sr1  1  0.01675046  0.16110344  0.58081854  1
  Sr  Sr2  1  0.02291169  0.50127453  0.14258641  1
  Sr  Sr3  1  0.00348930  0.49494672  0.62538859  1
  Sr  Sr4  1  0.03095646  0.82273128  0.09985993  1
  Sr  Sr5  1  -0.00102293  0.83844789  0.63421857  1
  Sr  Sr6  1  0.34187514  0.14944831  0.10679408  1
  Sr  Sr7  1  0.32216944  0.17626171  0.67639223  1
  Sr  Sr8  1  0.34697996  0.49416582  0.11778986  1
  Sr  Sr9  1  0.34635649  0.48912504  0.58621926  1
  Sr  Sr10  1  0.34057166  0.82352267  0.16588727  1
  Sr  Sr11  1  0.35132514  0.83425589  0.60591487  1
  Sr  Sr12  1  0.68661493  0.18957817  0.12029456  1
  Sr  Sr13  1  0.65708642  0.17604670  0.62175704  1
  Sr  Sr14  1  0.69300030  0.49702048  0.12279203  1
  Sr  Sr15  1  0.67449916  0.51810587  0.63706826  1
  Sr  Sr16  1  0.66216124  0.85169858  0.10791423  1
  Sr  Sr17  1  0.68185046  0.84593430  0.66112854  1
  Sr  Sr18  1  0.15247682  0.01178783  0.09579743  1
  Sr  Sr19  1  0.16561143  0.00436690  0.61915725  1
  Sr  Sr20  1  0.13932197  0.32497722  0.16420114  1
  Sr  Sr21  1  0.16038585  0.33929454  0.61556177  1
  Sr  Sr22  1  0.16451326  0.65467900  0.11616867  1
  Sr  Sr23  1  0.15719291  0.67683801  0.67032622  1
  Sr  Sr24  1  0.49263055  -0.00665495  0.13226719  1
  Sr  Sr25  1  0.49553589  0.00260639  0.59638257  1
  Sr  Sr26  1  0.47327138  0.32440309  0.11668001  1
  Sr  Sr27  1  0.48739595  0.31768833  0.62660280  1
  Sr  Sr28  1  0.47987053  0.65126674  0.12006778  1
  Sr  Sr29  1  0.49667993  0.67303961  0.62561667  1
  Sr  Sr30  1  0.82697658  -0.00564416  0.14940020  1
  Sr  Sr31  1  0.81569431  0.01898281  0.62587853  1
  Sr  Sr32  1  0.82950837  0.33697227  0.09960795  1
  Sr  Sr33  1  0.80964707  0.34775853  0.67181920  1
  Sr  Sr34  1  0.81124534  0.67103346  0.13452333  1
  Sr  Sr35  1  0.85032968  0.65810852  0.58196767  1
  Sr  Sr36  1  0.00720853  0.15680981  0.36308945  1
  Sr  Sr37  1  0.00272821  0.16369474  0.91324473  1
  Sr  Sr38  1  0.01210361  0.50390957  0.37804741  1
  Sr  Sr39  1  0.01749809  0.48626879  0.84824405  1
  Sr  Sr40  1  0.00558301  0.82690362  0.39946154  1
  Sr  Sr41  1  0.02059004  0.83703796  0.86623219  1
  Sr  Sr42  1  0.35603421  0.16474184  0.33454654  1
  Sr  Sr43  1  0.33055955  0.15581149  0.88498243  1
  Sr  Sr44  1  0.34848976  0.49029769  0.38412564  1
  Sr  Sr45  1  0.34512271  0.50789801  0.91233544  1
  Sr  Sr46  1  0.33957926  0.83429658  0.38360573  1
  Sr  Sr47  1  0.34375121  0.79810170  0.83025505  1
  Sr  Sr48  1  0.65856691  0.17254306  0.40393857  1
  Sr  Sr49  1  0.69820972  0.17816500  0.84409450  1
  Sr  Sr50  1  0.68353395  0.52336025  0.37614586  1
  Sr  Sr51  1  0.68738988  0.50382031  0.87151928  1
  Sr  Sr52  1  0.69680842  0.84757229  0.32464953  1
  Sr  Sr53  1  0.65700056  0.83659457  0.88479567  1
  Sr  Sr54  1  0.15052763  -0.00116466  0.40378218  1
  Sr  Sr55  1  0.16256609  0.01098757  0.88189840  1
  Sr  Sr56  1  0.14501893  0.33850308  0.39044374  1
  Sr  Sr57  1  0.16020667  0.32974802  0.83834452  1
  Sr  Sr58  1  0.15844674  0.67479894  0.33462942  1
  Sr  Sr59  1  0.16474710  0.65493271  0.88731585  1
  Sr  Sr60  1  0.48864989  -0.00753363  0.36564233  1
  Sr  Sr61  1  0.49316534  -0.00326198  0.90915224  1
  Sr  Sr62  1  0.48837618  0.32723537  0.38046144  1
  Sr  Sr63  1  0.46369308  0.32202818  0.88637429  1
  Sr  Sr64  1  0.48025545  0.66001714  0.40134662  1
  Sr  Sr65  1  0.50470117  0.66552978  0.84525744  1
  Sr  Sr66  1  0.82864705  0.01387815  0.36734759  1
  Sr  Sr67  1  0.82443720  -0.01900316  0.84234180  1
  Sr  Sr68  1  0.79651758  0.34478913  0.35303133  1
  Sr  Sr69  1  0.83848766  0.33516904  0.88350601  1
  Sr  Sr70  1  0.83186271  0.66949392  0.37619929  1
  Sr  Sr71  1  0.81071988  0.66951252  0.91822571  1
  Ta  Ta72  1  0.16753699  0.21168131  0.00303666  1
  Ta  Ta73  1  0.21049291  0.16872264  0.50091358  1
  Ta  Ta74  1  0.16595828  0.45330810  0.00153208  1
  Ta  Ta75  1  0.17212656  0.54485947  0.49858029  1
  Ta  Ta76  1  0.21465865  0.83219637  -0.00107132  1
  Ta  Ta77  1  0.17125977  0.79253754  0.50396476  1
  Ta  Ta78  1  0.54776917  0.16863121  -0.01619247  1
  Ta  Ta79  1  0.45649808  0.16582317  0.50916044  1
  Ta  Ta80  1  0.53569531  0.49453420  -0.00797071  1
  Ta  Ta81  1  0.53346362  0.48092520  0.50512539  1
  Ta  Ta82  1  0.47116166  0.81343872  -0.00701796  1
  Ta  Ta83  1  0.54731999  0.83461548  0.50171089  1
  Ta  Ta84  1  0.83119889  0.12546671  -0.00651352  1
  Ta  Ta85  1  0.83501198  0.20732913  0.50559557  1
  Ta  Ta86  1  0.88280835  0.50667937  -0.00373780  1
  Ta  Ta87  1  0.83297462  0.46394154  0.50938689  1
  Ta  Ta88  1  0.85596625  0.84381350  0.00070235  1
  Ta  Ta89  1  0.81700658  0.84821878  0.49572821  1
  Ta  Ta90  1  0.18559322  0.15037234  0.24842822  1
  Ta  Ta91  1  0.12448255  0.16338252  0.74472471  1
  Ta  Ta92  1  0.20409621  0.49289571  0.25710069  1
  Ta  Ta93  1  0.20468665  0.50034426  0.74730238  1
  Ta  Ta94  1  0.16398280  0.86519692  0.25274715  1
  Ta  Ta95  1  0.19113887  0.86106670  0.74625766  1
  Ta  Ta96  1  0.53535165  0.17106505  0.24492302  1
  Ta  Ta97  1  0.50907756  0.13570432  0.75840309  1
  Ta  Ta98  1  0.52504411  0.49476420  0.24880554  1
  Ta  Ta99  1  0.48231238  0.48241248  0.75255707  1
  Ta  Ta100  1  0.51582195  0.80238673  0.25206904  1
  Ta  Ta101  1  0.50328280  0.87364041  0.74752145  1
  Ta  Ta102  1  0.83357793  0.18460324  0.24990607  1
  Ta  Ta103  1  0.88461437  0.16561477  0.75114765  1
  Ta  Ta104  1  0.86127877  0.50193933  0.24524851  1
  Ta  Ta105  1  0.84341339  0.54781326  0.75537594  1
  Ta  Ta106  1  0.88529414  0.82897753  0.25149597  1
  Ta  Ta107  1  0.84222725  0.77576101  0.75155899  1
  Ta  Ta108  1  0.01072091  -0.03264229  0.24815499  1
  Ta  Ta109  1  0.00275679  0.02919990  0.74939626  1
  Ta  Ta110  1  -0.04199453  0.33099513  0.24625881  1
  Ta  Ta111  1  -0.00660630  0.29072651  0.75023843  1
  Ta  Ta112  1  -0.02087891  0.67580047  0.25094117  1
  Ta  Ta113  1  -0.03160100  0.66468379  0.75256856  1
  Ta  Ta114  1  0.28709211  -0.00181083  0.24754169  1
  Ta  Ta115  1  0.34586586  -0.01500006  0.74784304  1
  Ta  Ta116  1  0.30782248  0.33826057  0.25196689  1
  Ta  Ta117  1  0.32883755  0.37933831  0.74966684  1
  Ta  Ta118  1  0.33127822  0.64063617  0.25530821  1
  Ta  Ta119  1  0.33056907  0.61180470  0.74084138  1
  Ta  Ta120  1  0.65470871  0.04131021  0.24568714  1
  Ta  Ta121  1  0.62204433  0.01045070  0.75291341  1
  Ta  Ta122  1  0.63038538  0.33444632  0.24561971  1
  Ta  Ta123  1  0.62163735  0.34844313  0.76372274  1
  Ta  Ta124  1  0.62640020  0.67315846  0.25023065  1
  Ta  Ta125  1  0.70704628  0.67459497  0.75044442  1
  Ta  Ta126  1  -0.03949692  -0.01137734  -0.00185372  1
  Ta  Ta127  1  -0.03421398  -0.01132100  0.50002155  1
  Ta  Ta128  1  0.02163193  0.34706443  -0.00081804  1
  Ta  Ta129  1  -0.05179924  0.33259355  0.50200101  1
  Ta  Ta130  1  -0.01867272  0.65171036  0.00204787  1
  Ta  Ta131  1  0.04131768  0.66570569  0.50295400  1
  Ta  Ta132  1  0.33010490  -0.05427322  0.00307722  1
  Ta  Ta133  1  0.32986175  0.04862531  0.50295878  1
  Ta  Ta134  1  0.28271627  0.33123003  -0.00449189  1
  Ta  Ta135  1  0.32735901  0.29011393  0.50683167  1
  Ta  Ta136  1  0.32936657  0.70197511  0.00348702  1
  Ta  Ta137  1  0.28653343  0.66806497  0.50247297  1
  Ta  Ta138  1  0.67925063  0.03412335  -0.00114737  1
  Ta  Ta139  1  0.66781431  -0.04494875  0.49407056  1
  Ta  Ta140  1  0.63583896  0.33699678  -0.01833449  1
  Ta  Ta141  1  0.66390055  0.35804781  0.51399892  1
  Ta  Ta142  1  0.62894506  0.65976216  -0.00609212  1
  Ta  Ta143  1  0.67034759  0.72776394  0.49783940  1
  N  N144  1  0.33318574  0.00801757  0.62787462  1
  N  N145  1  -0.01392799  0.32921748  0.12548758  1
  N  N146  1  0.00615519  0.66437750  0.12198031  1
  N  N147  1  -0.00611032  -0.00131201  0.62144852  1
  N  N148  1  0.32373558  -0.01130125  0.12507272  1
  N  N149  1  0.51109520  0.83442639  0.62775822  1
  N  N150  1  0.65665175  0.34174730  0.63755433  1
  N  N151  1  0.49831303  0.50332499  0.87559429  1
  N  N152  1  0.17569388  0.50253518  0.37684598  1
  N  N153  1  0.16678380  0.16991474  0.62814589  1
  N  N154  1  0.49605150  0.83168702  0.87331746  1
  N  N155  1  -0.00406968  -0.00099514  0.37531010  1
  N  N156  1  0.31508664  0.33762901  0.86721715  1
  N  N157  1  0.00281392  0.66576686  0.37893061  1
  N  N158  1  0.48758528  0.16156219  0.63080064  1
  N  N159  1  0.84626613  0.50186602  0.87132766  1
  N  N160  1  0.32506609  0.66612666  0.12307071  1
  N  N161  1  -0.00339022  -0.00631874  0.12314166  1
  N  N162  1  0.65941491  0.67275244  0.87343443  1
  N  N163  1  0.32899789  0.65879879  0.62774006  1
  N  N164  1  0.83521510  0.50232470  0.62730230  1
  N  N165  1  0.17257729  0.17038323  0.12754908  1
  N  N166  1  0.00331811  0.66453113  0.63088140  1
  N  N167  1  0.84315757  0.83494492  0.37421942  1
  N  N168  1  0.84723884  0.15492220  0.87283610  1
  N  N169  1  0.48273979  0.16217549  0.88362732  1
  N  N170  1  0.32628431  0.67191485  0.37530415  1
  N  N171  1  0.66452354  0.01142762  0.12523688  1
  N  N172  1  0.32296681  0.33237404  0.62428045  1
  N  N173  1  0.68395779  0.33624563  0.86599993  1
  N  N174  1  0.84791113  0.50173530  0.12344875  1
  N  N175  1  -0.00105513  0.32617704  0.87283659  1
  N  N176  1  -0.00459549  -0.00498493  0.87330847  1
  O  O177  1  0.52259759  0.17151534  0.11516785  1
  O  O178  1  0.16446004  0.16073623  0.38092618  1
  O  O179  1  0.49991738  0.81779690  0.12718975  1
  O  O180  1  -0.02066591  0.33454804  0.62684974  1
  O  O181  1  0.64653435  0.33449841  0.37400010  1
  O  O182  1  0.15764960  0.17268082  0.87627965  1
  O  O183  1  0.18161247  0.49333484  0.12207145  1
  O  O184  1  0.32932571  0.32766384  0.37636321  1
  O  O185  1  0.84753900  0.83289257  0.12572601  1
  O  O186  1  0.65886273  0.68185143  0.37634355  1
  O  O187  1  0.18207467  0.84053123  0.12957740  1
  O  O188  1  0.31857477  0.33151418  0.12695556  1
  O  O189  1  0.66528463  -0.00234840  0.87434631  1
  O  O190  1  0.16670761  0.83858599  0.37890987  1
  O  O191  1  0.66047654  -0.00272420  0.61682986  1
  O  O192  1  0.67862040  0.69131397  0.62221964  1
  O  O193  1  0.66214042  -0.00042528  0.37170631  1
  O  O194  1  0.18027688  0.84310054  0.62142345  1
  O  O195  1  0.64200029  0.66624031  0.12567450  1
  O  O196  1  0.83899331  0.81537513  0.62807537  1
  O  O197  1  -0.02510732  0.33237247  0.37892018  1
  O  O198  1  0.83795507  0.15827618  0.12643608  1
  O  O199  1  0.51429871  0.50436750  0.62470595  1
  O  O200  1  0.17799855  0.49629548  0.87837030  1
  O  O201  1  0.83529794  0.49695928  0.38098844  1
  O  O202  1  0.33801485  -0.00251852  0.88721180  1
  O  O203  1  0.63818504  0.33805942  0.11908496  1
  O  O204  1  0.50426122  0.17135764  0.37371917  1
  O  O205  1  0.83425270  0.18100932  0.62762632  1
  O  O206  1  0.52489110  0.49185726  0.37519994  1
  O  O207  1  0.19069170  0.84468110  0.86933468  1
  O  O208  1  0.32278270  0.65479465  0.87595654  1
  O  O209  1  0.32936902  0.01100294  0.37005465  1
  O  O210  1  0.17872469  0.50013750  0.62028278  1
  O  O211  1  0.01679837  0.67607911  0.87895760  1
  O  O212  1  0.84661574  0.82390350  0.87580025  1
  O  O213  1  0.50888163  0.48968871  0.12413372  1
  O  O214  1  0.50160466  0.82359699  0.37673739  1
  O  O215  1  0.81998666  0.18844283  0.37825254  1
