# generated using pymatgen
data_Sr24Ta24N11O13
_symmetry_space_group_name_H-M   'P 1'
_cell_length_a   16.74732767
_cell_length_b   16.85803306
_cell_length_c   15.56347279
_cell_angle_alpha   90.39304198
_cell_angle_beta   89.60094278
_cell_angle_gamma   89.66278931
_symmetry_Int_Tables_number   1
_chemical_formula_structural   Sr24Ta24N11O13
_chemical_formula_sum   'Sr72 Ta72 N33 O39'
_cell_volume   4393.70133636
_cell_formula_units_Z   3
loop_
 _symmetry_equiv_pos_site_id
 _symmetry_equiv_pos_as_xyz
  1  'x, y, z'
loop_
 _atom_site_type_symbol
 _atom_site_label
 _atom_site_symmetry_multiplicity
 _atom_site_fract_x
 _atom_site_fract_y
 _atom_site_fract_z
 _atom_site_occupancy
  Sr  Sr0  1  0.03018284  0.17785104  0.12884693  1
  Sr  Sr1  1  -0.00684095  0.16885288  0.62819078  1
  Sr  Sr2  1  0.02448469  0.48725444  0.12674730  1
  Sr  Sr3  1  -0.00955597  0.52327071  0.67788562  1
  Sr  Sr4  1  0.00097976  0.84792277  0.13874374  1
  Sr  Sr5  1  0.00730358  0.82622317  0.57671463  1
  Sr  Sr6  1  0.33582941  0.17888418  0.12627973  1
  Sr  Sr7  1  0.37159524  0.12209014  0.56015843  1
  Sr  Sr8  1  0.32238911  0.45625706  0.08995360  1
  Sr  Sr9  1  0.32768868  0.50809562  0.63066617  1
  Sr  Sr10  1  0.33877286  0.80895479  0.10452363  1
  Sr  Sr11  1  0.31997056  0.82569619  0.65969078  1
  Sr  Sr12  1  0.69642241  0.15963667  0.10458110  1
  Sr  Sr13  1  0.67303670  0.17033388  0.65353547  1
  Sr  Sr14  1  0.65047635  0.49831817  0.13123572  1
  Sr  Sr15  1  0.68411924  0.48595695  0.58192032  1
  Sr  Sr16  1  0.65635163  0.83093342  0.16505023  1
  Sr  Sr17  1  0.66488747  0.83410324  0.61311510  1
  Sr  Sr18  1  0.16888544  0.03738864  0.18025030  1
  Sr  Sr19  1  0.16480135  -0.00537830  0.60968640  1
  Sr  Sr20  1  0.17157674  0.32762505  0.08241997  1
  Sr  Sr21  1  0.15434943  0.36751152  0.67056902  1
  Sr  Sr22  1  0.15783278  0.67023308  0.13975761  1
  Sr  Sr23  1  0.16716158  0.67962800  0.61409421  1
  Sr  Sr24  1  0.47559154  0.01490505  0.11667153  1
  Sr  Sr25  1  0.51071040  -0.01992329  0.57769306  1
  Sr  Sr26  1  0.47548411  0.32963659  0.15397899  1
  Sr  Sr27  1  0.50310405  0.36053301  0.60250269  1
  Sr  Sr28  1  0.49470131  0.64925876  0.11349021  1
  Sr  Sr29  1  0.48651020  0.67948823  0.66753700  1
  Sr  Sr30  1  0.84149533  -0.00307809  0.11391146  1
  Sr  Sr31  1  0.81496116  0.01754572  0.66805182  1
  Sr  Sr32  1  0.84529287  0.33948082  0.14854156  1
  Sr  Sr33  1  0.83201380  0.32634066  0.59700440  1
  Sr  Sr34  1  0.83219091  0.66846780  0.08817096  1
  Sr  Sr35  1  0.83238664  0.67382566  0.63543524  1
  Sr  Sr36  1  0.01373536  0.19184729  0.40750665  1
  Sr  Sr37  1  0.03402078  0.15975921  0.84571383  1
  Sr  Sr38  1  0.01061313  0.50280161  0.34129175  1
  Sr  Sr39  1  0.00999950  0.48429634  0.87253000  1
  Sr  Sr40  1  0.00544361  0.83019208  0.36760407  1
  Sr  Sr41  1  -0.01795504  0.83636800  0.92535515  1
  Sr  Sr42  1  0.34349001  0.17399781  0.35786169  1
  Sr  Sr43  1  0.33820515  0.15263687  0.89007995  1
  Sr  Sr44  1  0.31575943  0.49428478  0.42308502  1
  Sr  Sr45  1  0.34897392  0.45846060  0.83143050  1
  Sr  Sr46  1  0.33617469  0.77492978  0.33605996  1
  Sr  Sr47  1  0.33526834  0.84389098  0.87992006  1
  Sr  Sr48  1  0.70497887  0.16108802  0.34327241  1
  Sr  Sr49  1  0.67208974  0.15868605  0.87613439  1
  Sr  Sr50  1  0.64826711  0.49390922  0.36418651  1
  Sr  Sr51  1  0.67339117  0.50452537  0.91445093  1
  Sr  Sr52  1  0.65248808  0.83816397  0.38617858  1
  Sr  Sr53  1  0.68061830  0.81689372  0.82748946  1
  Sr  Sr54  1  0.16280304  0.03748988  0.39729841  1
  Sr  Sr55  1  0.18091290  0.00336442  0.82908091  1
  Sr  Sr56  1  0.16224005  0.35121950  0.42116684  1
  Sr  Sr57  1  0.18661375  0.31425388  0.87351321  1
  Sr  Sr58  1  0.15730480  0.65621202  0.36969926  1
  Sr  Sr59  1  0.16131966  0.72455039  0.91110583  1
  Sr  Sr60  1  0.49167257  0.01283562  0.38140827  1
  Sr  Sr61  1  0.48035524  -0.00138286  0.90528885  1
  Sr  Sr62  1  0.48395396  0.34386668  0.38714607  1
  Sr  Sr63  1  0.51661227  0.30988439  0.80338031  1
  Sr  Sr64  1  0.50943777  0.67103632  0.33187463  1
  Sr  Sr65  1  0.49231605  0.66026220  0.88225121  1
  Sr  Sr66  1  0.81067408  -0.01503683  0.32881833  1
  Sr  Sr67  1  0.83706074  0.00393451  0.88417407  1
  Sr  Sr68  1  0.84282771  0.33764901  0.37066309  1
  Sr  Sr69  1  0.79577398  0.33482171  0.92519097  1
  Sr  Sr70  1  0.81622321  0.68446218  0.42150340  1
  Sr  Sr71  1  0.84003859  0.65968230  0.86617404  1
  Ta  Ta72  1  0.17121109  0.11534704  -0.00332158  1
  Ta  Ta73  1  0.19369710  0.19655511  0.53357659  1
  Ta  Ta74  1  0.17229312  0.52605435  -0.03229918  1
  Ta  Ta75  1  0.11811232  0.51265345  0.52447298  1
  Ta  Ta76  1  0.16053646  0.91379225  0.01135010  1
  Ta  Ta77  1  0.20349025  0.83289946  0.48763552  1
  Ta  Ta78  1  0.51032694  0.18894004  -0.00316507  1
  Ta  Ta79  1  0.55541800  0.17174856  0.48606293  1
  Ta  Ta80  1  0.48903338  0.47082737  -0.01011266  1
  Ta  Ta81  1  0.49336362  0.55029344  0.50235114  1
  Ta  Ta82  1  0.54427734  0.83110180  -0.00280601  1
  Ta  Ta83  1  0.47161573  0.80019815  0.49798589  1
  Ta  Ta84  1  0.88736883  0.17331080  0.00200561  1
  Ta  Ta85  1  0.82845642  0.13908987  0.49473924  1
  Ta  Ta86  1  0.86847260  0.49681716  0.00244635  1
  Ta  Ta87  1  0.88287804  0.50772785  0.50308801  1
  Ta  Ta88  1  0.78181981  0.83547190  0.00473076  1
  Ta  Ta89  1  0.83083926  0.88861114  0.49985866  1
  Ta  Ta90  1  0.17668681  0.23160581  0.26339217  1
  Ta  Ta91  1  0.22436688  0.16333170  0.71655251  1
  Ta  Ta92  1  0.19035234  0.46710451  0.24787035  1
  Ta  Ta93  1  0.17193767  0.55631426  0.77745974  1
  Ta  Ta94  1  0.18446136  0.86602511  0.26821267  1
  Ta  Ta95  1  0.12111709  0.83798084  0.74171631  1
  Ta  Ta96  1  0.53949254  0.16775819  0.24453110  1
  Ta  Ta97  1  0.48887931  0.12263739  0.73748457  1
  Ta  Ta98  1  0.45244776  0.49469081  0.25188890  1
  Ta  Ta99  1  0.55022238  0.50302734  0.74549074  1
  Ta  Ta100  1  0.48421191  0.86717407  0.25367934  1
  Ta  Ta101  1  0.49663837  0.87315709  0.74373748  1
  Ta  Ta102  1  0.88196263  0.16065771  0.25197035  1
  Ta  Ta103  1  0.84009678  0.21193935  0.76666744  1
  Ta  Ta104  1  0.83014997  0.54321744  0.25518764  1
  Ta  Ta105  1  0.80914336  0.47637658  0.75899137  1
  Ta  Ta106  1  0.83097425  0.79505885  0.24660925  1
  Ta  Ta107  1  0.88181039  0.84090617  0.74830050  1
  Ta  Ta108  1  -0.01026666  0.02366014  0.26055516  1
  Ta  Ta109  1  -0.00387837  -0.03978800  0.74660941  1
  Ta  Ta110  1  0.03817390  0.32732352  0.25350955  1
  Ta  Ta111  1  -0.04783911  0.33123330  0.77087736  1
  Ta  Ta112  1  -0.04870945  0.66879861  0.25259741  1
  Ta  Ta113  1  0.01112833  0.71180039  0.75790362  1
  Ta  Ta114  1  0.33038536  -0.03848711  0.27138478  1
  Ta  Ta115  1  0.35950336  0.01046089  0.72578423  1
  Ta  Ta116  1  0.30440112  0.35804569  0.27969392  1
  Ta  Ta117  1  0.34426145  0.26784378  0.71917784  1
  Ta  Ta118  1  0.31865083  0.59599151  0.24179992  1
  Ta  Ta119  1  0.30466202  0.65300490  0.77423814  1
  Ta  Ta120  1  0.62795853  0.00670086  0.24939495  1
  Ta  Ta121  1  0.62041021  -0.00441442  0.74519548  1
  Ta  Ta122  1  0.64854719  0.31583332  0.24225253  1
  Ta  Ta123  1  0.69257349  0.35600501  0.74815553  1
  Ta  Ta124  1  0.70362806  0.66242082  0.25082835  1
  Ta  Ta125  1  0.66983605  0.62251302  0.74652193  1
  Ta  Ta126  1  0.02926242  0.02358549  0.00667150  1
  Ta  Ta127  1  -0.05483154  0.00841256  0.49712841  1
  Ta  Ta128  1  -0.01729431  0.32484969  -0.00705451  1
  Ta  Ta129  1  -0.00288510  0.38229396  0.50994924  1
  Ta  Ta130  1  0.00696999  0.63514334  -0.00273559  1
  Ta  Ta131  1  -0.00532667  0.63392750  0.49876597  1
  Ta  Ta132  1  0.29477548  0.00117379  0.01265852  1
  Ta  Ta133  1  0.33073706  -0.06720725  0.47842347  1
  Ta  Ta134  1  0.40696656  0.31960010  -0.03832895  1
  Ta  Ta135  1  0.31871049  0.31023348  0.53354967  1
  Ta  Ta136  1  0.31430613  0.61550288  -0.02290847  1
  Ta  Ta137  1  0.34670914  0.67748908  0.51415901  1
  Ta  Ta138  1  0.66047616  -0.04316701  -0.00447247  1
  Ta  Ta139  1  0.69130770  0.02205751  0.49771415  1
  Ta  Ta140  1  0.60052887  0.32725821  -0.01180805  1
  Ta  Ta141  1  0.66418956  0.29237822  0.49614677  1
  Ta  Ta142  1  0.66166783  0.70174222  0.00364479  1
  Ta  Ta143  1  0.62327884  0.66414674  0.49956571  1
  N  N144  1  0.50003345  0.51214791  0.62352435  1
  N  N145  1  0.66103742  0.66670257  0.38087120  1
  N  N146  1  0.32714749  0.33895544  0.40657192  1
  N  N147  1  0.33291731  0.69667517  0.89039942  1
  N  N148  1  -0.01163493  0.67019540  0.37700986  1
  N  N149  1  -0.00148360  0.68079851  0.88371436  1
  N  N150  1  0.15925231  0.83722991  0.61917784  1
  N  N151  1  0.49600767  0.82977640  0.37060550  1
  N  N152  1  0.15165032  0.52070960  0.64583211  1
  N  N153  1  0.50218032  0.16662489  0.12526864  1
  N  N154  1  0.65720629  -0.00005495  0.37068197  1
  N  N155  1  0.85332174  0.17901524  0.37980109  1
  N  N156  1  0.49423601  0.83234547  0.62511853  1
  N  N157  1  0.67225678  0.32869128  0.61750080  1
  N  N158  1  0.17659949  0.46440187  0.85572516  1
  N  N159  1  0.01286878  0.33485565  0.12224259  1
  N  N160  1  0.35837627  0.30413991  0.84156769  1
  N  N161  1  0.33421433  0.36413476  0.64907576  1
  N  N162  1  0.32826285  0.67078142  0.63807368  1
  N  N163  1  0.85487547  0.17120811  0.12093783  1
  N  N164  1  0.83329794  0.49884016  0.88302962  1
  N  N165  1  0.00572620  0.00896298  0.13718158  1
  N  N166  1  0.33909961  -0.02071394  0.60507434  1
  N  N167  1  0.02423306  0.32345908  0.86854835  1
  N  N168  1  0.50835146  0.50201446  0.86418097  1
  N  N169  1  0.82223663  0.83554692  0.12738981  1
  N  N170  1  0.66282184  0.00094466  0.62540518  1
  N  N171  1  0.16065133  0.80776458  0.37346125  1
  N  N172  1  0.00609295  0.34932404  0.38217017  1
  N  N173  1  0.48643122  0.49134085  0.12246083  1
  N  N174  1  0.65293458  0.33230395  0.87314818  1
  N  N175  1  0.48662199  0.50650904  0.37623404  1
  N  N176  1  0.66376086  0.66679857  0.12505999  1
  O  O177  1  0.18686170  0.15082821  0.86580967  1
  O  O178  1  0.66529691  -0.02005150  0.86781097  1
  O  O179  1  0.00206637  0.00240472  0.86827815  1
  O  O180  1  0.32082186  -0.00308903  0.14617389  1
  O  O181  1  0.00089446  0.65596081  0.13039073  1
  O  O182  1  0.67401978  0.32712808  0.36604391  1
  O  O183  1  0.50007072  0.84215865  0.87557279  1
  O  O184  1  0.31524033  0.30782058  0.03709681  1
  O  O185  1  0.83543760  0.17430088  0.63818110  1
  O  O186  1  0.68328411  0.64095244  0.61797678  1
  O  O187  1  0.13480696  0.14285591  0.63126399  1
  O  O188  1  0.83711367  0.52211581  0.38112797  1
  O  O189  1  0.01073976  0.00605068  0.39241046  1
  O  O190  1  0.49802305  0.17278912  0.37342059  1
  O  O191  1  0.31487854  0.63381665  0.36929815  1
  O  O192  1  0.84079369  0.50246746  0.62738550  1
  O  O193  1  0.49810799  0.84149014  0.11933672  1
  O  O194  1  0.18330161  0.18126157  0.13263328  1
  O  O195  1  0.82727656  0.16090833  0.88427178  1
  O  O196  1  0.32884543  -0.00035819  0.87435951  1
  O  O197  1  0.83257913  0.84233926  0.87105271  1
  O  O198  1  0.64065278  0.33362190  0.11841474  1
  O  O199  1  0.51753288  0.14408863  0.61296208  1
  O  O200  1  0.31736330  0.61699975  0.11442948  1
  O  O201  1  0.83825698  0.84997008  0.62497818  1
  O  O202  1  0.18204507  0.19401260  0.39901364  1
  O  O203  1  -0.01723711  0.34886950  0.63791679  1
  O  O204  1  0.65015011  -0.01241207  0.11796040  1
  O  O205  1  0.82798035  0.83986461  0.37821797  1
  O  O206  1  0.15954354  0.50006988  0.39440790  1
  O  O207  1  0.17389599  0.47990447  0.11158523  1
  O  O208  1  0.49744841  0.14392355  0.86591279  1
  O  O209  1  0.15074696  0.86844075  0.88436223  1
  O  O210  1  -0.01793012  0.00773370  0.62732810  1
  O  O211  1  0.15705961  0.87795136  0.14008034  1
  O  O212  1  0.32234892  0.02327398  0.39109196  1
  O  O213  1  0.83593637  0.51251969  0.13023192  1
  O  O214  1  -0.00905614  0.67701625  0.62947556  1
  O  O215  1  0.66923371  0.65883988  0.87130521  1
