# generated using pymatgen
data_Sr24Ta24N11O13
_symmetry_space_group_name_H-M   'P 1'
_cell_length_a   16.82232739
_cell_length_b   16.80343258
_cell_length_c   15.77178564
_cell_angle_alpha   89.80783137
_cell_angle_beta   90.12448027
_cell_angle_gamma   89.96183964
_symmetry_Int_Tables_number   1
_chemical_formula_structural   Sr24Ta24N11O13
_chemical_formula_sum   'Sr72 Ta72 N33 O39'
_cell_volume   4458.21889786
_cell_formula_units_Z   3
loop_
 _symmetry_equiv_pos_site_id
 _symmetry_equiv_pos_as_xyz
  1  'x, y, z'
loop_
 _atom_site_type_symbol
 _atom_site_label
 _atom_site_symmetry_multiplicity
 _atom_site_fract_x
 _atom_site_fract_y
 _atom_site_fract_z
 _atom_site_occupancy
  Sr  Sr0  1  -0.00362031  0.16459317  0.12791606  1
  Sr  Sr1  1  -0.00584581  0.18164037  0.63731616  1
  Sr  Sr2  1  -0.00363608  0.50679478  0.09556247  1
  Sr  Sr3  1  -0.02399880  0.50267222  0.60013023  1
  Sr  Sr4  1  -0.00798984  0.80834810  0.16465466  1
  Sr  Sr5  1  0.00669395  0.82782714  0.61554414  1
  Sr  Sr6  1  0.34131535  0.13981163  0.14078460  1
  Sr  Sr7  1  0.33602128  0.14702188  0.62573604  1
  Sr  Sr8  1  0.32854150  0.47585121  0.14105063  1
  Sr  Sr9  1  0.33930699  0.48726529  0.59255536  1
  Sr  Sr10  1  0.31810153  0.82422858  0.10998100  1
  Sr  Sr11  1  0.34088329  0.81395886  0.66730339  1
  Sr  Sr12  1  0.65691498  0.15306155  0.11983927  1
  Sr  Sr13  1  0.65654431  0.16675944  0.60019926  1
  Sr  Sr14  1  0.67094671  0.48860236  0.12518510  1
  Sr  Sr15  1  0.66688990  0.50834554  0.67157083  1
  Sr  Sr16  1  0.67800075  0.82528600  0.11625844  1
  Sr  Sr17  1  0.65914097  0.82539079  0.59044897  1
  Sr  Sr18  1  0.15175055  0.01846721  0.12187332  1
  Sr  Sr19  1  0.15979687  0.00671622  0.57985505  1
  Sr  Sr20  1  0.15572099  0.34314508  0.11363181  1
  Sr  Sr21  1  0.19409188  0.33352759  0.65944945  1
  Sr  Sr22  1  0.17019593  0.68007986  0.13632365  1
  Sr  Sr23  1  0.17320553  0.68159437  0.64602311  1
  Sr  Sr24  1  0.49309067  0.00824479  0.17068119  1
  Sr  Sr25  1  0.49800955  0.00849888  0.61572157  1
  Sr  Sr26  1  0.50673446  0.34081901  0.11837481  1
  Sr  Sr27  1  0.50916132  0.34847086  0.60416944  1
  Sr  Sr28  1  0.48734872  0.70002503  0.09410759  1
  Sr  Sr29  1  0.49928321  0.66353983  0.63136267  1
  Sr  Sr30  1  0.82131674  0.01241966  0.10807868  1
  Sr  Sr31  1  0.85287418  0.00060000  0.66533336  1
  Sr  Sr32  1  0.84149466  0.33600953  0.16193313  1
  Sr  Sr33  1  0.83660968  0.32849210  0.61452260  1
  Sr  Sr34  1  0.82772550  0.66384248  0.12206206  1
  Sr  Sr35  1  0.84299717  0.67826796  0.61229799  1
  Sr  Sr36  1  0.00177096  0.18249594  0.36673659  1
  Sr  Sr37  1  -0.00141285  0.16655741  0.87397500  1
  Sr  Sr38  1  -0.02803770  0.50119365  0.40576828  1
  Sr  Sr39  1  -0.00117230  0.51173422  0.89921994  1
  Sr  Sr40  1  0.00121706  0.82357687  0.38287749  1
  Sr  Sr41  1  -0.01904522  0.81990422  0.82828603  1
  Sr  Sr42  1  0.33296544  0.12578613  0.38874703  1
  Sr  Sr43  1  0.34107566  0.15516164  0.85018932  1
  Sr  Sr44  1  0.33191497  0.50008553  0.37810836  1
  Sr  Sr45  1  0.32208678  0.46165051  0.88798230  1
  Sr  Sr46  1  0.33758909  0.81713273  0.34348198  1
  Sr  Sr47  1  0.33523303  0.82802527  0.88178427  1
  Sr  Sr48  1  0.65897599  0.15621106  0.38589021  1
  Sr  Sr49  1  0.65642715  0.15701458  0.89310835  1
  Sr  Sr50  1  0.67954706  0.49544687  0.33131836  1
  Sr  Sr51  1  0.66524334  0.49179604  0.87422180  1
  Sr  Sr52  1  0.67220114  0.81925060  0.38562349  1
  Sr  Sr53  1  0.67674592  0.82810499  0.91494599  1
  Sr  Sr54  1  0.14970042  0.01849265  0.37678152  1
  Sr  Sr55  1  0.17989347  -0.00354875  0.91582061  1
  Sr  Sr56  1  0.18231170  0.35124019  0.35893655  1
  Sr  Sr57  1  0.15161336  0.32979708  0.88145000  1
  Sr  Sr58  1  0.18077538  0.67288702  0.35327797  1
  Sr  Sr59  1  0.16766220  0.68880992  0.86677045  1
  Sr  Sr60  1  0.50571206  -0.00381235  0.38721380  1
  Sr  Sr61  1  0.48831123  0.01428507  0.83352483  1
  Sr  Sr62  1  0.50441979  0.36572530  0.36577950  1
  Sr  Sr63  1  0.51642524  0.33459072  0.90399595  1
  Sr  Sr64  1  0.49911788  0.67318595  0.40695667  1
  Sr  Sr65  1  0.49343207  0.68408060  0.86422222  1
  Sr  Sr66  1  0.83365451  0.01461621  0.34529769  1
  Sr  Sr67  1  0.82616997  0.00565815  0.88566592  1
  Sr  Sr68  1  0.84282389  0.32686703  0.39022467  1
  Sr  Sr69  1  0.83759312  0.33313064  0.83545009  1
  Sr  Sr70  1  0.83517579  0.68067873  0.37460724  1
  Sr  Sr71  1  0.82934972  0.66396287  0.88484774  1
  Ta  Ta72  1  0.20257324  0.17834979  -0.00095896  1
  Ta  Ta73  1  0.17234317  0.20756528  0.50145595  1
  Ta  Ta74  1  0.17622302  0.53209458  0.00327024  1
  Ta  Ta75  1  0.15102937  0.50945504  0.50101074  1
  Ta  Ta76  1  0.10492294  0.83380438  -0.00017079  1
  Ta  Ta77  1  0.19326219  0.82140907  0.50297817  1
  Ta  Ta78  1  0.48311853  0.14494901  0.00407631  1
  Ta  Ta79  1  0.48252530  0.19760593  0.48417504  1
  Ta  Ta80  1  0.49621663  0.52932803  -0.00376626  1
  Ta  Ta81  1  0.55749192  0.50792094  0.50329047  1
  Ta  Ta82  1  0.49695831  0.88359476  -0.00407308  1
  Ta  Ta83  1  0.46150919  0.83356026  0.50924132  1
  Ta  Ta84  1  0.83191056  0.20527990  0.00342423  1
  Ta  Ta85  1  0.83643824  0.13166094  0.50160408  1
  Ta  Ta86  1  0.82502949  0.45925776  0.00106626  1
  Ta  Ta87  1  0.78038926  0.50279505  0.50446499  1
  Ta  Ta88  1  0.87436740  0.83413007  0.00116250  1
  Ta  Ta89  1  0.83842652  0.87909769  0.49664360  1
  Ta  Ta90  1  0.19203681  0.18599400  0.25686674  1
  Ta  Ta91  1  0.16831233  0.11698600  0.74779723  1
  Ta  Ta92  1  0.11722470  0.50703687  0.25260011  1
  Ta  Ta93  1  0.14427690  0.51108144  0.74932561  1
  Ta  Ta94  1  0.16131147  0.86586386  0.24934657  1
  Ta  Ta95  1  0.16270556  0.88049163  0.74539719  1
  Ta  Ta96  1  0.49961540  0.19622045  0.25714424  1
  Ta  Ta97  1  0.51318333  0.20174217  0.74987788  1
  Ta  Ta98  1  0.50088957  0.54537239  0.24767721  1
  Ta  Ta99  1  0.47305084  0.49019292  0.74606412  1
  Ta  Ta100  1  0.51789348  0.82197286  0.25260530  1
  Ta  Ta101  1  0.55054439  0.84301218  0.75686871  1
  Ta  Ta102  1  0.80845731  0.17487368  0.25205088  1
  Ta  Ta103  1  0.78985204  0.16768752  0.74635819  1
  Ta  Ta104  1  0.86834418  0.50502478  0.24588470  1
  Ta  Ta105  1  0.85786609  0.50938670  0.74721995  1
  Ta  Ta106  1  0.82600627  0.85735222  0.24812593  1
  Ta  Ta107  1  0.78622253  0.83284038  0.75496123  1
  Ta  Ta108  1  -0.00775287  -0.01884257  0.24074773  1
  Ta  Ta109  1  0.04594367  0.00327089  0.75228418  1
  Ta  Ta110  1  0.00916501  0.37499133  0.25723006  1
  Ta  Ta111  1  0.00808376  0.38541659  0.75151352  1
  Ta  Ta112  1  0.00007551  0.62904763  0.25272896  1
  Ta  Ta113  1  0.00003518  0.63107666  0.74650487  1
  Ta  Ta114  1  0.30267190  -0.02261847  0.25395358  1
  Ta  Ta115  1  0.28839257  -0.00919423  0.74104734  1
  Ta  Ta116  1  0.34328848  0.29368586  0.25707965  1
  Ta  Ta117  1  0.38119168  0.32928961  0.74421604  1
  Ta  Ta118  1  0.37005763  0.65177477  0.24984808  1
  Ta  Ta119  1  0.33309465  0.61286470  0.74696989  1
  Ta  Ta120  1  0.67030758  -0.02861658  0.25227532  1
  Ta  Ta121  1  0.66926467  -0.02357046  0.75099067  1
  Ta  Ta122  1  0.66589192  0.30096111  0.25522792  1
  Ta  Ta123  1  0.65869722  0.30465190  0.74832089  1
  Ta  Ta124  1  0.62665397  0.67309248  0.25053551  1
  Ta  Ta125  1  0.67032964  0.70207352  0.75320710  1
  Ta  Ta126  1  -0.00708727  -0.04070718  -0.00089254  1
  Ta  Ta127  1  -0.03282478  0.00526419  0.49842205  1
  Ta  Ta128  1  -0.04110121  0.33244391  -0.00553619  1
  Ta  Ta129  1  0.05175199  0.33993795  0.50279302  1
  Ta  Ta130  1  0.00709519  0.69475596  -0.00029517  1
  Ta  Ta131  1  0.04175268  0.66140483  0.49808019  1
  Ta  Ta132  1  0.37043368  0.00121938  -0.00041139  1
  Ta  Ta133  1  0.33239440  -0.05852443  0.50245431  1
  Ta  Ta134  1  0.33440543  0.28476247  0.00077459  1
  Ta  Ta135  1  0.33394524  0.29826697  0.49860437  1
  Ta  Ta136  1  0.32494055  0.62845293  0.00276364  1
  Ta  Ta137  1  0.32421666  0.68981377  0.50276649  1
  Ta  Ta138  1  0.61385029  -0.00285109  0.00517894  1
  Ta  Ta139  1  0.70909870  -0.00378916  0.49780449  1
  Ta  Ta140  1  0.71532921  0.32685610  0.00260052  1
  Ta  Ta141  1  0.67041546  0.37105243  0.49523406  1
  Ta  Ta142  1  0.64632797  0.64124365  -0.00402478  1
  Ta  Ta143  1  0.67212922  0.63063033  0.49663234  1
  N  N144  1  -0.00758989  0.00260888  0.12161167  1
  N  N145  1  0.01558063  0.34757583  0.37993181  1
  N  N146  1  0.64795434  -0.00526315  0.12632542  1
  N  N147  1  0.83806854  0.84004871  0.37913851  1
  N  N148  1  0.83789927  0.83319601  0.12115205  1
  N  N149  1  0.50280352  0.17293710  0.87042734  1
  N  N150  1  0.33419083  0.64983059  0.62768607  1
  N  N151  1  0.00015371  0.66733391  0.86607105  1
  N  N152  1  0.33876110  0.66034383  0.37779479  1
  N  N153  1  -0.00042277  0.66111188  0.12015015  1
  N  N154  1  0.34648072  0.32216318  0.62388854  1
  N  N155  1  0.81997076  0.50065227  0.63097649  1
  N  N156  1  0.32697873  -0.01269853  0.62208374  1
  N  N157  1  0.66690690  -0.00580019  0.38078269  1
  N  N158  1  0.83475949  0.17101935  0.12487307  1
  N  N159  1  0.83225700  0.16915559  0.37876340  1
  N  N160  1  0.16998754  0.17446103  0.37680728  1
  N  N161  1  0.00507890  0.66857953  0.61934500  1
  N  N162  1  0.82977678  0.83560458  0.87120019  1
  N  N163  1  0.67318597  0.33486563  0.37329182  1
  N  N164  1  0.83633716  0.49347936  0.12415210  1
  N  N165  1  0.49937473  0.16833069  0.12659582  1
  N  N166  1  -0.00600279  0.34491358  0.87177480  1
  N  N167  1  0.66279755  0.66183572  0.36980965  1
  N  N168  1  0.50509120  0.84632718  0.87140473  1
  N  N169  1  0.66320765  0.66082147  0.87524834  1
  N  N170  1  0.50028366  0.14860555  0.37525572  1
  N  N171  1  0.51085593  0.50492337  0.62727572  1
  N  N172  1  0.16768499  0.84010887  0.62357727  1
  N  N173  1  0.32517874  -0.02440475  0.37402186  1
  N  N174  1  0.82359981  0.16503213  0.62866590  1
  N  N175  1  0.33226979  0.65325594  0.12544589  1
  N  N176  1  0.00610929  0.66679123  0.37495927  1
  O  O177  1  0.65769426  -0.00064143  0.87647343  1
  O  O178  1  0.50527977  0.84333294  0.63118335  1
  O  O179  1  -0.00234322  0.34816086  0.11778114  1
  O  O180  1  0.67129072  0.32903262  0.12313969  1
  O  O181  1  0.33483430  -0.00456166  0.87500256  1
  O  O182  1  0.01808090  0.34717869  0.62787370  1
  O  O183  1  0.17213419  0.16194294  0.62245507  1
  O  O184  1  0.15041189  0.84779277  0.12229736  1
  O  O185  1  0.16528024  0.50175771  0.62672438  1
  O  O186  1  0.16136179  0.51502768  0.13002110  1
  O  O187  1  0.67143661  0.31880967  0.87707423  1
  O  O188  1  0.16069848  0.51954797  0.88087476  1
  O  O189  1  0.66772751  0.33153894  0.62482523  1
  O  O190  1  0.16534677  0.51060974  0.37520932  1
  O  O191  1  0.51840730  0.51926279  0.37473964  1
  O  O192  1  0.00719880  0.00069620  0.87468282  1
  O  O193  1  0.00091369  0.00444227  0.62263969  1
  O  O194  1  0.50259641  0.17281731  0.61276500  1
  O  O195  1  0.82477970  0.49259932  0.87284522  1
  O  O196  1  0.66676159  0.66913904  0.62904454  1
  O  O197  1  0.49835102  0.82905261  0.37837864  1
  O  O198  1  0.14912056  0.84480062  0.87898201  1
  O  O199  1  0.33935413  0.34145757  0.37236830  1
  O  O200  1  0.35288045  0.30989128  0.87502596  1
  O  O201  1  0.18075749  0.17663519  0.12305975  1
  O  O202  1  0.49482163  0.52192170  0.12006501  1
  O  O203  1  0.18374011  0.15340891  0.87603458  1
  O  O204  1  0.82542223  0.50226226  0.36870558  1
  O  O205  1  0.32558629  0.64629762  0.86834070  1
  O  O206  1  0.50404326  0.84619228  0.12904773  1
  O  O207  1  -0.00986463  0.00234620  0.37467312  1
  O  O208  1  0.82261507  0.16589526  0.87244906  1
  O  O209  1  0.33881245  -0.01308246  0.12331211  1
  O  O210  1  0.67474273  -0.01327678  0.62600552  1
  O  O211  1  0.82095165  0.84670762  0.62745922  1
  O  O212  1  0.65906607  0.66208066  0.12381606  1
  O  O213  1  0.16454464  0.83942207  0.37231082  1
  O  O214  1  0.50390217  0.50454818  0.87198770  1
  O  O215  1  0.34361162  0.30063346  0.12621468  1
