# generated using pymatgen
data_Sr24Ta24N11O13
_symmetry_space_group_name_H-M   'P 1'
_cell_length_a   17.09780033
_cell_length_b   16.69260343
_cell_length_c   15.49837268
_cell_angle_alpha   90.31526839
_cell_angle_beta   91.24508711
_cell_angle_gamma   89.82823048
_symmetry_Int_Tables_number   1
_chemical_formula_structural   Sr24Ta24N11O13
_chemical_formula_sum   'Sr72 Ta72 N33 O39'
_cell_volume   4422.21130749
_cell_formula_units_Z   3
loop_
 _symmetry_equiv_pos_site_id
 _symmetry_equiv_pos_as_xyz
  1  'x, y, z'
loop_
 _atom_site_type_symbol
 _atom_site_label
 _atom_site_symmetry_multiplicity
 _atom_site_fract_x
 _atom_site_fract_y
 _atom_site_fract_z
 _atom_site_occupancy
  Sr  Sr0  1  -0.00332154  0.17896140  0.13371576  1
  Sr  Sr1  1  0.01458311  0.14972784  0.64280897  1
  Sr  Sr2  1  -0.00363474  0.48678176  0.11165320  1
  Sr  Sr3  1  -0.00435871  0.52217852  0.67081809  1
  Sr  Sr4  1  0.01570726  0.83802528  0.13708051  1
  Sr  Sr5  1  -0.00586921  0.82943091  0.58112118  1
  Sr  Sr6  1  0.32362545  0.14345165  0.03885893  1
  Sr  Sr7  1  0.33714033  0.18625084  0.62552208  1
  Sr  Sr8  1  0.28621106  0.48042941  0.14582968  1
  Sr  Sr9  1  0.43598050  0.50154661  0.76706328  1
  Sr  Sr10  1  0.33592976  0.87624580  0.17885077  1
  Sr  Sr11  1  0.33121045  0.80382762  0.61968545  1
  Sr  Sr12  1  0.67599661  0.18057667  0.19016957  1
  Sr  Sr13  1  0.66011573  0.14447804  0.61251721  1
  Sr  Sr14  1  0.72540884  0.50595323  0.16875262  1
  Sr  Sr15  1  0.65623341  0.52457364  0.56529647  1
  Sr  Sr16  1  0.66009190  0.84679489  0.11817643  1
  Sr  Sr17  1  0.68894232  0.82330933  0.67897305  1
  Sr  Sr18  1  0.15793859  0.00051513  0.10903902  1
  Sr  Sr19  1  0.17797677  0.00215114  0.67401951  1
  Sr  Sr20  1  0.13346007  0.33619119  0.14035733  1
  Sr  Sr21  1  0.14618060  0.31559862  0.57009651  1
  Sr  Sr22  1  0.16484829  0.63660926  0.10509659  1
  Sr  Sr23  1  0.14154536  0.66855601  0.60625886  1
  Sr  Sr24  1  0.51006246  -0.00115260  0.13589231  1
  Sr  Sr25  1  0.45162444  -0.01181672  0.54966551  1
  Sr  Sr26  1  0.40163907  0.34185835  0.04905908  1
  Sr  Sr27  1  0.51894840  0.29595401  0.64993090  1
  Sr  Sr28  1  0.51546636  0.66364525  0.06774383  1
  Sr  Sr29  1  0.51214966  0.68419154  0.63380159  1
  Sr  Sr30  1  0.83570342  -0.02506084  0.07760308  1
  Sr  Sr31  1  0.83397808  0.00539000  0.63780948  1
  Sr  Sr32  1  0.86263251  0.32055621  0.15406746  1
  Sr  Sr33  1  0.75775443  0.34582619  0.57393726  1
  Sr  Sr34  1  0.85137818  0.70818578  0.21431814  1
  Sr  Sr35  1  0.82709920  0.65773285  0.62187263  1
  Sr  Sr36  1  0.01441413  0.17971770  0.37476800  1
  Sr  Sr37  1  -0.02951804  0.16818682  0.84752531  1
  Sr  Sr38  1  0.05672216  0.49994590  0.48292557  1
  Sr  Sr39  1  -0.01563475  0.51068414  0.88298612  1
  Sr  Sr40  1  0.01403031  0.83092783  0.36888441  1
  Sr  Sr41  1  0.01289088  0.84617678  0.91752826  1
  Sr  Sr42  1  0.32724706  0.17294792  0.40195841  1
  Sr  Sr43  1  0.37295715  0.17093563  0.84615947  1
  Sr  Sr44  1  0.32842773  0.51347449  0.35768558  1
  Sr  Sr45  1  0.35200237  0.54937189  0.95888157  1
  Sr  Sr46  1  0.34884006  0.83491073  0.38819678  1
  Sr  Sr47  1  0.31893047  0.82831102  0.83415388  1
  Sr  Sr48  1  0.69988111  0.13994821  0.40570227  1
  Sr  Sr49  1  0.65095948  0.18492683  0.85591969  1
  Sr  Sr50  1  0.60384161  0.49183013  0.36229475  1
  Sr  Sr51  1  0.72171820  0.49845773  0.93042678  1
  Sr  Sr52  1  0.68007283  0.82583563  0.33314383  1
  Sr  Sr53  1  0.66366818  0.85572457  0.89883202  1
  Sr  Sr54  1  0.16308353  -0.02434980  0.32191405  1
  Sr  Sr55  1  0.16915333  -0.00913016  0.88164385  1
  Sr  Sr56  1  0.18946766  0.33828488  0.36662859  1
  Sr  Sr57  1  0.09301277  0.35917636  0.75392659  1
  Sr  Sr58  1  0.20918216  0.66964244  0.40857644  1
  Sr  Sr59  1  0.14792305  0.65633116  0.88431196  1
  Sr  Sr60  1  0.52924959  -0.00723432  0.34649982  1
  Sr  Sr61  1  0.50194148  0.03066314  0.92016299  1
  Sr  Sr62  1  0.43235404  0.35226162  0.33684322  1
  Sr  Sr63  1  0.49588508  0.32956409  0.85944629  1
  Sr  Sr64  1  0.47357559  0.65150561  0.40489942  1
  Sr  Sr65  1  0.50988262  0.69634616  0.85334944  1
  Sr  Sr66  1  0.86978602  0.00341596  0.43341830  1
  Sr  Sr67  1  0.82167981  0.00592225  0.85787576  1
  Sr  Sr68  1  0.76981286  0.34646602  0.34216699  1
  Sr  Sr69  1  0.85852258  0.34979155  0.94412451  1
  Sr  Sr70  1  0.77468716  0.62832828  0.38081109  1
  Sr  Sr71  1  0.83853694  0.65775825  0.84835369  1
  Ta  Ta72  1  0.12671202  0.16838297  -0.02327527  1
  Ta  Ta73  1  0.16867932  0.12966595  0.50928553  1
  Ta  Ta74  1  0.17989352  0.45566889  -0.08918105  1
  Ta  Ta75  1  0.22841441  0.49001035  0.52860724  1
  Ta  Ta76  1  0.19831659  0.82536167  0.00953586  1
  Ta  Ta77  1  0.17528115  0.86382190  0.50228913  1
  Ta  Ta78  1  0.54549983  0.20843205  0.04246859  1
  Ta  Ta79  1  0.50725256  0.16756805  0.46159146  1
  Ta  Ta80  1  0.55611674  0.45739582  0.01318359  1
  Ta  Ta81  1  0.46503811  0.46541050  0.54876605  1
  Ta  Ta82  1  0.46394394  0.84383319  0.00128628  1
  Ta  Ta83  1  0.54601215  0.83547354  0.49519911  1
  Ta  Ta84  1  0.81446042  0.15868745  0.00358553  1
  Ta  Ta85  1  0.86387954  0.19499987  0.51258614  1
  Ta  Ta86  1  0.85418990  0.59999688  0.04948433  1
  Ta  Ta87  1  0.86906698  0.48335084  0.47489459  1
  Ta  Ta88  1  0.84324198  0.77869425  0.01008271  1
  Ta  Ta89  1  0.80567149  0.82116154  0.50270593  1
  Ta  Ta90  1  0.17839111  0.16205075  0.24222840  1
  Ta  Ta91  1  0.18666656  0.19467808  0.76811798  1
  Ta  Ta92  1  0.11244104  0.51105847  0.29670588  1
  Ta  Ta93  1  0.21339417  0.49882504  0.71825726  1
  Ta  Ta94  1  0.18532236  0.78609485  0.24429642  1
  Ta  Ta95  1  0.13441902  0.82008238  0.75082788  1
  Ta  Ta96  1  0.46274693  0.18868535  0.21377449  1
  Ta  Ta97  1  0.50235481  0.08071994  0.71306958  1
  Ta  Ta98  1  0.50080397  0.50742827  0.18530113  1
  Ta  Ta99  1  0.61675261  0.46995944  0.76294700  1
  Ta  Ta100  1  0.49896128  0.79245689  0.23919522  1
  Ta  Ta101  1  0.50253680  0.89742354  0.74561689  1
  Ta  Ta102  1  0.84670594  0.10680808  0.25255606  1
  Ta  Ta103  1  0.81751564  0.20607541  0.73404748  1
  Ta  Ta104  1  0.92914240  0.53085959  0.30723714  1
  Ta  Ta105  1  0.79033915  0.48442022  0.72563428  1
  Ta  Ta106  1  0.84921281  0.90112269  0.25972999  1
  Ta  Ta107  1  0.87925478  0.82941090  0.75220517  1
  Ta  Ta108  1  -0.02346385  0.00767207  0.24316810  1
  Ta  Ta109  1  -0.00071729  -0.04662223  0.74642237  1
  Ta  Ta110  1  -0.01110784  0.37887067  0.34304665  1
  Ta  Ta111  1  -0.09663956  0.34496564  0.73701567  1
  Ta  Ta112  1  0.04338309  0.65497445  0.28125083  1
  Ta  Ta113  1  -0.00257275  0.71178286  0.74785184  1
  Ta  Ta114  1  0.32137384  0.06512500  0.23302039  1
  Ta  Ta115  1  0.36546732  -0.00219043  0.74908179  1
  Ta  Ta116  1  0.30552105  0.25346043  0.20764682  1
  Ta  Ta117  1  0.29590376  0.35108947  0.79031403  1
  Ta  Ta118  1  0.35890836  0.68584410  0.20550671  1
  Ta  Ta119  1  0.29959246  0.64312875  0.76346939  1
  Ta  Ta120  1  0.71811959  0.00000159  0.25418045  1
  Ta  Ta121  1  0.63539785  0.00348728  0.75740997  1
  Ta  Ta122  1  0.57475773  0.34861887  0.17953621  1
  Ta  Ta123  1  0.72991661  0.34835518  0.77836447  1
  Ta  Ta124  1  0.61033374  0.66063094  0.24779402  1
  Ta  Ta125  1  0.67364060  0.62723771  0.75374001  1
  Ta  Ta126  1  -0.00814357  0.03625701  -0.00945449  1
  Ta  Ta127  1  0.06175290  0.00138592  0.50528868  1
  Ta  Ta128  1  0.05224280  0.32228977  -0.05123292  1
  Ta  Ta129  1  -0.05129409  0.33627654  0.52154997  1
  Ta  Ta130  1  -0.01553759  0.67929417  0.00868244  1
  Ta  Ta131  1  -0.03755845  0.65469371  0.47535523  1
  Ta  Ta132  1  0.33455358  -0.04929794  -0.00455108  1
  Ta  Ta133  1  0.26830551  0.00284328  0.49522954  1
  Ta  Ta134  1  0.22655700  0.29691438  -0.05555580  1
  Ta  Ta135  1  0.34108997  0.39466907  0.61456093  1
  Ta  Ta136  1  0.33164460  0.73707966  0.02162086  1
  Ta  Ta137  1  0.34601541  0.57610430  0.59453148  1
  Ta  Ta138  1  0.67508603  0.05740987  0.01433437  1
  Ta  Ta139  1  0.67295399  -0.05329197  0.50292126  1
  Ta  Ta140  1  0.67592493  0.31902931  0.03366028  1
  Ta  Ta141  1  0.58160536  0.30879281  0.44486291  1
  Ta  Ta142  1  0.70659769  0.67687550  0.01775059  1
  Ta  Ta143  1  0.65607763  0.71652671  0.50066199  1
  N  N144  1  0.32349455  0.01341073  0.11845009  1
  N  N145  1  0.04585535  0.33498038  0.44462709  1
  N  N146  1  0.16678697  0.82902849  0.87981748  1
  N  N147  1  0.16891083  0.84708206  0.13871304  1
  N  N148  1  0.32739664  0.63577681  0.09644561  1
  N  N149  1  0.68456348  -0.01277144  0.38542227  1
  N  N150  1  0.17007964  0.82881459  0.62462829  1
  N  N151  1  0.50702645  0.83805807  0.12124599  1
  N  N152  1  0.05508105  0.67915938  0.41520288  1
  N  N153  1  0.01344526  -0.00614751  0.62039139  1
  N  N154  1  0.17704199  0.17173502  0.64451213  1
  N  N155  1  -0.00849500  0.00033364  0.86669000  1
  N  N156  1  0.56596317  0.46602932  0.88839301  1
  N  N157  1  -0.00233933  0.00439126  0.11618966  1
  N  N158  1  0.18371660  0.50160975  0.40055805  1
  N  N159  1  0.38241266  0.66223360  0.68774750  1
  N  N160  1  -0.00497822  0.67659384  0.87749438  1
  N  N161  1  0.67157722  0.67540154  0.14214687  1
  N  N162  1  0.67128344  0.00853410  0.12877712  1
  N  N163  1  -0.01530711  0.66714819  0.60282166  1
  N  N164  1  0.14185836  0.48550113  0.61640216  1
  N  N165  1  0.66862428  0.66992606  0.63303176  1
  N  N166  1  0.18802532  0.82572562  0.36473052  1
  N  N167  1  0.33883231  -0.00280290  0.87670909  1
  N  N168  1  0.38700189  0.33104536  0.71775673  1
  N  N169  1  0.80626603  0.16439931  0.61263496  1
  N  N170  1  -0.02875793  0.34192514  0.84301149  1
  N  N171  1  0.83497410  0.83015920  0.62412239  1
  N  N172  1  0.12651001  0.50427981  0.81163086  1
  N  N173  1  0.66013446  0.01791140  0.88473991  1
  N  N174  1  0.63216312  0.66545216  0.38424107  1
  N  N175  1  0.33966051  0.31217123  0.90168505  1
  N  N176  1  0.47056182  0.13990467  0.09858682  1
  O  O177  1  0.34181203  0.65605609  0.32714072  1
  O  O178  1  0.17001385  0.16545161  0.37386530  1
  O  O179  1  -0.01124371  0.34197504  0.05257423  1
  O  O180  1  0.68412274  -0.01174981  0.63261149  1
  O  O181  1  0.30114632  0.36572565  0.25671691  1
  O  O182  1  0.84551899  0.81236127  0.88434129  1
  O  O183  1  0.84723505  0.85840027  0.38221822  1
  O  O184  1  0.80430317  0.49776740  0.58127825  1
  O  O185  1  0.50576706  0.19359385  0.92341969  1
  O  O186  1  0.85042902  0.83659594  0.13175655  1
  O  O187  1  0.50783949  0.85016223  0.86835398  1
  O  O188  1  0.50476911  0.83603226  0.36810451  1
  O  O189  1  0.85093122  0.15012660  0.38910689  1
  O  O190  1  0.44522187  0.49364480  0.06690803  1
  O  O191  1  0.50299041  0.13605450  0.58747917  1
  O  O192  1  0.81825463  0.49123979  0.34688436  1
  O  O193  1  0.63523974  0.28234185  0.55220153  1
  O  O194  1  0.50583364  0.85292179  0.62081774  1
  O  O195  1  0.12002969  0.13288025  0.84320123  1
  O  O196  1  0.68596316  0.65618825  0.88381188  1
  O  O197  1  0.87005468  0.55829385  0.17390909  1
  O  O198  1  0.81707513  0.16888676  0.87511963  1
  O  O199  1  0.14421479  0.16268638  0.10852287  1
  O  O200  1  0.01840942  0.00130580  0.37898820  1
  O  O201  1  0.54526689  0.45819411  0.65707884  1
  O  O202  1  0.49771399  0.14773248  0.33671191  1
  O  O203  1  0.31858849  0.68239975  0.88810230  1
  O  O204  1  0.31780621  -0.00212982  0.61817265  1
  O  O205  1  0.27007485  0.29350697  0.08754101  1
  O  O206  1  0.83966728  0.16436151  0.13389525  1
  O  O207  1  -0.01054102  0.36254454  0.64138461  1
  O  O208  1  0.86500836  0.49541532  0.98967592  1
  O  O209  1  0.02155888  0.67669900  0.14093086  1
  O  O210  1  0.30420185  0.02360886  0.35980528  1
  O  O211  1  0.46338025  0.49991638  0.30172535  1
  O  O212  1  0.70786312  0.33275196  0.91256925  1
  O  O213  1  0.70997903  0.33420728  0.16033081  1
  O  O214  1  0.21103261  0.52335074  0.00966504  1
  O  O215  1  0.58921164  0.34060614  0.31925386  1
