# generated using pymatgen
data_Sr24Ta24N11O13
_symmetry_space_group_name_H-M   'P 1'
_cell_length_a   16.74529710
_cell_length_b   16.86111663
_cell_length_c   15.75730016
_cell_angle_alpha   90.04400445
_cell_angle_beta   90.23409193
_cell_angle_gamma   89.72970470
_symmetry_Int_Tables_number   1
_chemical_formula_structural   Sr24Ta24N11O13
_chemical_formula_sum   'Sr72 Ta72 N33 O39'
_cell_volume   4448.89768846
_cell_formula_units_Z   3
loop_
 _symmetry_equiv_pos_site_id
 _symmetry_equiv_pos_as_xyz
  1  'x, y, z'
loop_
 _atom_site_type_symbol
 _atom_site_label
 _atom_site_symmetry_multiplicity
 _atom_site_fract_x
 _atom_site_fract_y
 _atom_site_fract_z
 _atom_site_occupancy
  Sr  Sr0  1  0.01188561  0.15585283  0.16749847  1
  Sr  Sr1  1  -0.00483432  0.18352599  0.61264195  1
  Sr  Sr2  1  0.00340088  0.48644555  0.11805321  1
  Sr  Sr3  1  -0.01077531  0.51861703  0.67219819  1
  Sr  Sr4  1  -0.01099672  0.82780546  0.11626775  1
  Sr  Sr5  1  0.00701358  0.83039700  0.57983300  1
  Sr  Sr6  1  0.32056175  0.15562607  0.08425497  1
  Sr  Sr7  1  0.33303265  0.14879748  0.63536997  1
  Sr  Sr8  1  0.33276215  0.46588034  0.14284592  1
  Sr  Sr9  1  0.32814365  0.48783972  0.61113080  1
  Sr  Sr10  1  0.33726631  0.81772899  0.12546021  1
  Sr  Sr11  1  0.32426851  0.82207021  0.66195182  1
  Sr  Sr12  1  0.67926147  0.16050383  0.11361113  1
  Sr  Sr13  1  0.66047041  0.15849307  0.64616017  1
  Sr  Sr14  1  0.66084836  0.48713417  0.10640812  1
  Sr  Sr15  1  0.66268015  0.47435212  0.60266957  1
  Sr  Sr16  1  0.66405262  0.79489006  0.15305189  1
  Sr  Sr17  1  0.66777633  0.84501685  0.61931603  1
  Sr  Sr18  1  0.16712418  0.00465838  0.14882369  1
  Sr  Sr19  1  0.16282899  0.01446406  0.62371414  1
  Sr  Sr20  1  0.15828472  0.32935959  0.13350176  1
  Sr  Sr21  1  0.16537809  0.34306802  0.59480498  1
  Sr  Sr22  1  0.17420932  0.69289964  0.09557229  1
  Sr  Sr23  1  0.17440658  0.65953837  0.63407571  1
  Sr  Sr24  1  0.50676508  0.02822668  0.12156408  1
  Sr  Sr25  1  0.50927608  0.00468664  0.58905649  1
  Sr  Sr26  1  0.50819342  0.33877094  0.16628092  1
  Sr  Sr27  1  0.49536603  0.35258412  0.61952977  1
  Sr  Sr28  1  0.50556714  0.66300694  0.11023338  1
  Sr  Sr29  1  0.51463055  0.70049146  0.65122678  1
  Sr  Sr30  1  0.83671663  0.00966301  0.11037273  1
  Sr  Sr31  1  0.82225948  0.01699364  0.66640504  1
  Sr  Sr32  1  0.82031709  0.34900737  0.07911496  1
  Sr  Sr33  1  0.84384158  0.34174679  0.62314774  1
  Sr  Sr34  1  0.84710517  0.66883328  0.16183501  1
  Sr  Sr35  1  0.82468769  0.68626525  0.61308816  1
  Sr  Sr36  1  -0.00249789  0.18025926  0.38441086  1
  Sr  Sr37  1  -0.00031992  0.14819825  0.83465537  1
  Sr  Sr38  1  -0.00878004  0.50527903  0.33542697  1
  Sr  Sr39  1  0.01008454  0.48544863  0.88705386  1
  Sr  Sr40  1  -0.01111196  0.82100539  0.38127659  1
  Sr  Sr41  1  -0.00843934  0.83743051  0.91294731  1
  Sr  Sr42  1  0.33627020  0.13124230  0.41499279  1
  Sr  Sr43  1  0.32774848  0.15863924  0.87342781  1
  Sr  Sr44  1  0.32462404  0.48143735  0.38559754  1
  Sr  Sr45  1  0.33812927  0.47709785  0.85877999  1
  Sr  Sr46  1  0.32722490  0.82832768  0.34223750  1
  Sr  Sr47  1  0.34173002  0.81003636  0.88034460  1
  Sr  Sr48  1  0.64632672  0.16081780  0.33829007  1
  Sr  Sr49  1  0.67738137  0.15534660  0.89407673  1
  Sr  Sr50  1  0.66974652  0.47488816  0.39163602  1
  Sr  Sr51  1  0.65908914  0.48455934  0.89361710  1
  Sr  Sr52  1  0.66129473  0.82871899  0.39005792  1
  Sr  Sr53  1  0.67510738  0.81614535  0.84493905  1
  Sr  Sr54  1  0.14831106  0.00393682  0.38346354  1
  Sr  Sr55  1  0.17859941  0.01560216  0.84737384  1
  Sr  Sr56  1  0.14938913  0.34309049  0.36018281  1
  Sr  Sr57  1  0.17983864  0.33531637  0.91489759  1
  Sr  Sr58  1  0.18131109  0.67831401  0.40330944  1
  Sr  Sr59  1  0.17185994  0.66832078  0.86217735  1
  Sr  Sr60  1  0.51194201  0.01237406  0.38426095  1
  Sr  Sr61  1  0.49703032  0.01656799  0.91588210  1
  Sr  Sr62  1  0.49599889  0.34816624  0.37895188  1
  Sr  Sr63  1  0.49294588  0.32829042  0.82446991  1
  Sr  Sr64  1  0.50176535  0.69777130  0.34734234  1
  Sr  Sr65  1  0.51404017  0.66732488  0.89067519  1
  Sr  Sr66  1  0.82968797  0.04221558  0.33273880  1
  Sr  Sr67  1  0.82600091  -0.00019932  0.88226031  1
  Sr  Sr68  1  0.83037278  0.33510702  0.41083077  1
  Sr  Sr69  1  0.85276294  0.34851925  0.87285147  1
  Sr  Sr70  1  0.82462847  0.67178652  0.37691069  1
  Sr  Sr71  1  0.84121596  0.67505616  0.84836607  1
  Ta  Ta72  1  0.13154597  0.15700262  -0.00110514  1
  Ta  Ta73  1  0.17633572  0.18384538  0.50301667  1
  Ta  Ta74  1  0.18510436  0.51974078  -0.00384837  1
  Ta  Ta75  1  0.12243048  0.50873262  0.50463908  1
  Ta  Ta76  1  0.17021474  0.87597978  0.00328282  1
  Ta  Ta77  1  0.19946096  0.84353493  0.49977786  1
  Ta  Ta78  1  0.49848487  0.20451290  0.00131049  1
  Ta  Ta79  1  0.50854145  0.19235975  0.49908747  1
  Ta  Ta80  1  0.48317772  0.47339841  -0.00374144  1
  Ta  Ta81  1  0.49562768  0.55315735  0.50326045  1
  Ta  Ta82  1  0.51810336  0.84583092  0.00228598  1
  Ta  Ta83  1  0.46480684  0.82989622  0.50192893  1
  Ta  Ta84  1  0.88348898  0.17034389  -0.00043068  1
  Ta  Ta85  1  0.81091733  0.14990368  0.50631655  1
  Ta  Ta86  1  0.84093902  0.54506206  0.00420329  1
  Ta  Ta87  1  0.86537988  0.51458480  0.49576316  1
  Ta  Ta88  1  0.80520497  0.81315010  0.00529565  1
  Ta  Ta89  1  0.82738698  0.90112100  0.49492054  1
  Ta  Ta90  1  0.21533848  0.16608060  0.24972154  1
  Ta  Ta91  1  0.16777478  0.20902609  0.75126126  1
  Ta  Ta92  1  0.17204923  0.54653237  0.25081422  1
  Ta  Ta93  1  0.17112607  0.46675916  0.74954590  1
  Ta  Ta94  1  0.14008272  0.82646191  0.25134224  1
  Ta  Ta95  1  0.12435491  0.83967450  0.75081542  1
  Ta  Ta96  1  0.44390721  0.16691009  0.25579780  1
  Ta  Ta97  1  0.50038902  0.12421933  0.75264066  1
  Ta  Ta98  1  0.50355615  0.52336584  0.25076311  1
  Ta  Ta99  1  0.51017765  0.52542264  0.74724262  1
  Ta  Ta100  1  0.50619222  0.87636565  0.25288470  1
  Ta  Ta101  1  0.50303919  0.88233793  0.74976349  1
  Ta  Ta102  1  0.83089185  0.21956903  0.23877493  1
  Ta  Ta103  1  0.82065260  0.19855949  0.75581739  1
  Ta  Ta104  1  0.81327666  0.47602437  0.24774933  1
  Ta  Ta105  1  0.79773839  0.50346669  0.74961764  1
  Ta  Ta106  1  0.82825280  0.86397381  0.24789645  1
  Ta  Ta107  1  0.88097154  0.84052582  0.74334398  1
  Ta  Ta108  1  -0.00784673  -0.03207301  0.25231226  1
  Ta  Ta109  1  0.00090648  -0.04129813  0.74607190  1
  Ta  Ta110  1  -0.04869574  0.33580175  0.25054491  1
  Ta  Ta111  1  0.03584257  0.33324238  0.74989392  1
  Ta  Ta112  1  0.04429779  0.67149323  0.24955072  1
  Ta  Ta113  1  0.00273628  0.72233265  0.74482420  1
  Ta  Ta114  1  0.34691050  0.01345977  0.25041669  1
  Ta  Ta115  1  0.37538883  -0.00736147  0.75066859  1
  Ta  Ta116  1  0.32918405  0.29100038  0.25123526  1
  Ta  Ta117  1  0.29805585  0.32101476  0.74780803  1
  Ta  Ta118  1  0.32780701  0.63788255  0.24908539  1
  Ta  Ta119  1  0.35702929  0.63450742  0.75421175  1
  Ta  Ta120  1  0.66733689  -0.03134941  0.23502291  1
  Ta  Ta121  1  0.62846978  -0.00223524  0.76460168  1
  Ta  Ta122  1  0.70540291  0.33391038  0.24594834  1
  Ta  Ta123  1  0.68757910  0.33313774  0.74852352  1
  Ta  Ta124  1  0.66216682  0.61405748  0.24851093  1
  Ta  Ta125  1  0.67104525  0.61903894  0.74982632  1
  Ta  Ta126  1  0.01784372  0.02002452  0.00506988  1
  Ta  Ta127  1  -0.04539687  0.00984014  0.49554893  1
  Ta  Ta128  1  0.00372500  0.28803559  -0.00389218  1
  Ta  Ta129  1  0.00012991  0.38700704  0.50281637  1
  Ta  Ta130  1  -0.01223347  0.65280592  -0.00322910  1
  Ta  Ta131  1  0.00017062  0.62546419  0.50067539  1
  Ta  Ta132  1  0.31704420  -0.02834816  -0.00444094  1
  Ta  Ta133  1  0.32815430  -0.04631131  0.50784599  1
  Ta  Ta134  1  0.38095879  0.32681359  -0.00657374  1
  Ta  Ta135  1  0.33208502  0.29875338  0.50431341  1
  Ta  Ta136  1  0.33601266  0.61301659  -0.00387180  1
  Ta  Ta137  1  0.36317691  0.68109441  0.50261821  1
  Ta  Ta138  1  0.66564988  -0.05505265  0.00859070  1
  Ta  Ta139  1  0.69963010  0.01504183  0.49510294  1
  Ta  Ta140  1  0.60490589  0.32342469  -0.00352691  1
  Ta  Ta141  1  0.65766669  0.28416857  0.50273974  1
  Ta  Ta142  1  0.70571175  0.66508867  0.00521334  1
  Ta  Ta143  1  0.64289647  0.64861181  0.49777311  1
  N  N144  1  0.16547494  0.17070761  0.87960337  1
  N  N145  1  0.16664117  0.50020879  0.87564031  1
  N  N146  1  0.00063294  0.35076832  0.62319602  1
  N  N147  1  0.15684497  0.50458082  0.62742928  1
  N  N148  1  0.49809528  0.49791829  0.13135902  1
  N  N149  1  0.83397057  0.50466445  0.37603913  1
  N  N150  1  0.34009888  0.31833505  0.87506444  1
  N  N151  1  0.49855223  0.50700883  0.61682069  1
  N  N152  1  0.49643068  0.85243896  0.37277381  1
  N  N153  1  0.67537459  0.64485427  0.12610121  1
  N  N154  1  0.50409740  0.49374252  0.87261775  1
  N  N155  1  0.84186550  0.16775347  0.87450836  1
  N  N156  1  0.33544655  -0.01015845  0.62639388  1
  N  N157  1  0.33672109  -0.01119867  0.87698386  1
  N  N158  1  0.66376417  -0.01289595  0.88408292  1
  N  N159  1  0.48912271  0.17284054  0.37609644  1
  N  N160  1  0.49924188  0.84980740  0.62212282  1
  N  N161  1  -0.01289194  0.34720405  0.37183971  1
  N  N162  1  0.34382761  0.65146783  0.87425903  1
  N  N163  1  0.33716939  0.32459482  0.62486698  1
  N  N164  1  -0.00061483  -0.00043273  0.12537415  1
  N  N165  1  0.66679630  0.32071705  0.62621266  1
  N  N166  1  0.83075958  0.17073590  0.62767897  1
  N  N167  1  0.16471124  0.84465815  0.12432140  1
  N  N168  1  0.16174627  0.17107299  0.62384115  1
  N  N169  1  0.83912512  0.17836724  0.11946245  1
  N  N170  1  0.00800292  0.32547189  0.87659540  1
  N  N171  1  -0.01255159  0.00789806  0.37442702  1
  N  N172  1  0.16526084  0.83613120  0.37924379  1
  N  N173  1  0.66786112  0.00637117  0.11687978  1
  N  N174  1  0.83657460  0.50546849  0.12146653  1
  N  N175  1  0.17119681  0.16717861  0.13085079  1
  N  N176  1  0.83097881  0.83110070  0.12667510  1
  O  O177  1  0.33851157  0.63863619  0.12439021  1
  O  O178  1  0.67451680  0.31396076  0.37659511  1
  O  O179  1  0.49536286  0.84260336  0.12507547  1
  O  O180  1  0.66400552  0.65421781  0.37216683  1
  O  O181  1  0.16807275  0.52212182  0.37760725  1
  O  O182  1  0.33724447  -0.01354021  0.37405405  1
  O  O183  1  0.00005070  0.33042211  0.13096482  1
  O  O184  1  0.82098737  0.50458195  0.87719267  1
  O  O185  1  0.82614728  0.50650711  0.62607203  1
  O  O186  1  0.16733769  0.52235165  0.12914142  1
  O  O187  1  0.00275395  -0.01114228  0.87167032  1
  O  O188  1  0.64193175  0.32921519  0.87259229  1
  O  O189  1  0.82535433  0.85129920  0.38086300  1
  O  O190  1  0.34792135  0.67003644  0.62692075  1
  O  O191  1  0.84015913  0.82933236  0.87862209  1
  O  O192  1  0.84127536  0.85742384  0.62045147  1
  O  O193  1  0.48574423  0.18170825  0.13401310  1
  O  O194  1  0.02189441  0.66622676  0.37716617  1
  O  O195  1  0.48396894  0.50350667  0.38490749  1
  O  O196  1  0.66616143  0.64172889  0.61970051  1
  O  O197  1  0.49793592  0.16936460  0.87047056  1
  O  O198  1  0.33658428  0.31211949  0.11985863  1
  O  O199  1  0.34122322  0.66526292  0.37224852  1
  O  O200  1  0.33932138  -0.00090903  0.12551515  1
  O  O201  1  0.50639777  0.83792685  0.87708621  1
  O  O202  1  0.14551185  0.84627312  0.87772445  1
  O  O203  1  0.17333663  0.16332165  0.37117491  1
  O  O204  1  0.67125016  0.00341473  0.62484322  1
  O  O205  1  0.00393117  0.67502643  0.62104185  1
  O  O206  1  0.33166549  0.32042630  0.37443288  1
  O  O207  1  0.67688558  0.00941735  0.36779767  1
  O  O208  1  0.67465310  0.64520251  0.87641242  1
  O  O209  1  0.49983258  0.15765071  0.62975980  1
  O  O210  1  0.83708828  0.18398110  0.37982637  1
  O  O211  1  0.65675510  0.32964987  0.12475895  1
  O  O212  1  0.15582602  0.83766871  0.62157161  1
  O  O213  1  -0.00419747  0.67902178  0.87297315  1
  O  O214  1  0.01523864  0.66015834  0.11910770  1
  O  O215  1  -0.00272578  -0.01671020  0.61703010  1
