# generated using pymatgen
data_Sr24Ta24N11O13
_symmetry_space_group_name_H-M   'P 1'
_cell_length_a   16.81221193
_cell_length_b   16.87330710
_cell_length_c   15.71779847
_cell_angle_alpha   90.06445739
_cell_angle_beta   90.22776073
_cell_angle_gamma   90.13418762
_symmetry_Int_Tables_number   1
_chemical_formula_structural   Sr24Ta24N11O13
_chemical_formula_sum   'Sr72 Ta72 N33 O39'
_cell_volume   4458.73725841
_cell_formula_units_Z   3
loop_
 _symmetry_equiv_pos_site_id
 _symmetry_equiv_pos_as_xyz
  1  'x, y, z'
loop_
 _atom_site_type_symbol
 _atom_site_label
 _atom_site_symmetry_multiplicity
 _atom_site_fract_x
 _atom_site_fract_y
 _atom_site_fract_z
 _atom_site_occupancy
  Sr  Sr0  1  0.00350969  0.17200374  0.08527685  1
  Sr  Sr1  1  0.00262535  0.15636265  0.63906108  1
  Sr  Sr2  1  0.00633655  0.48343125  0.16142559  1
  Sr  Sr3  1  0.02141849  0.49288428  0.63690604  1
  Sr  Sr4  1  0.00881592  0.84220603  0.13566013  1
  Sr  Sr5  1  -0.00980876  0.81973210  0.57974775  1
  Sr  Sr6  1  0.32547665  0.14613410  0.12852890  1
  Sr  Sr7  1  0.34382974  0.15620239  0.64356135  1
  Sr  Sr8  1  0.33147660  0.50681975  0.12532377  1
  Sr  Sr9  1  0.34102197  0.46813340  0.60234360  1
  Sr  Sr10  1  0.34993185  0.81625032  0.14588673  1
  Sr  Sr11  1  0.32485401  0.83275862  0.62104730  1
  Sr  Sr12  1  0.67884406  0.15915580  0.13605092  1
  Sr  Sr13  1  0.66720530  0.13552016  0.60330193  1
  Sr  Sr14  1  0.68875624  0.49298304  0.10363257  1
  Sr  Sr15  1  0.66565475  0.50147534  0.61414681  1
  Sr  Sr16  1  0.66809319  0.82225134  0.11547012  1
  Sr  Sr17  1  0.68675678  0.82520167  0.66801446  1
  Sr  Sr18  1  0.16303806  0.00845358  0.11394959  1
  Sr  Sr19  1  0.18234942  0.01113734  0.67248204  1
  Sr  Sr20  1  0.17094081  0.35245149  0.15139367  1
  Sr  Sr21  1  0.14588373  0.33517788  0.60658202  1
  Sr  Sr22  1  0.15457650  0.67665853  0.10569595  1
  Sr  Sr23  1  0.16752890  0.67267625  0.63247206  1
  Sr  Sr24  1  0.50050628  0.02797992  0.12183548  1
  Sr  Sr25  1  0.49682681  0.01265526  0.58787218  1
  Sr  Sr26  1  0.47936932  0.37312825  0.10288786  1
  Sr  Sr27  1  0.50586828  0.34769623  0.63341755  1
  Sr  Sr28  1  0.49764784  0.67643793  0.14540149  1
  Sr  Sr29  1  0.49082224  0.70487753  0.62892850  1
  Sr  Sr30  1  0.83121871  -0.02280109  0.16974504  1
  Sr  Sr31  1  0.85096122  0.00086519  0.61572870  1
  Sr  Sr32  1  0.82996984  0.32988434  0.12384334  1
  Sr  Sr33  1  0.80367466  0.34686648  0.63150094  1
  Sr  Sr34  1  0.81964418  0.66906609  0.07941725  1
  Sr  Sr35  1  0.82604069  0.66199080  0.63102969  1
  Sr  Sr36  1  0.00714329  0.16867238  0.41605881  1
  Sr  Sr37  1  -0.00293907  0.15518633  0.86606502  1
  Sr  Sr38  1  0.01137634  0.47767391  0.36491318  1
  Sr  Sr39  1  0.01858648  0.50782128  0.84209220  1
  Sr  Sr40  1  -0.01070039  0.85406722  0.36421158  1
  Sr  Sr41  1  0.01131650  0.81706088  0.91706027  1
  Sr  Sr42  1  0.32755109  0.14884287  0.35043017  1
  Sr  Sr43  1  0.33594363  0.14238559  0.88116975  1
  Sr  Sr44  1  0.34145684  0.49208022  0.36064436  1
  Sr  Sr45  1  0.33103361  0.49417307  0.90880088  1
  Sr  Sr46  1  0.35429090  0.82679797  0.39939264  1
  Sr  Sr47  1  0.32142329  0.81862578  0.83157182  1
  Sr  Sr48  1  0.66514088  0.15162465  0.36364381  1
  Sr  Sr49  1  0.66610108  0.15041837  0.89935489  1
  Sr  Sr50  1  0.67878633  0.50561703  0.39611307  1
  Sr  Sr51  1  0.67522082  0.47412269  0.86774826  1
  Sr  Sr52  1  0.68081301  0.81825794  0.33749579  1
  Sr  Sr53  1  0.67318869  0.83110959  0.87930690  1
  Sr  Sr54  1  0.16961618  0.00577786  0.34015388  1
  Sr  Sr55  1  0.15425480  0.01109315  0.89146762  1
  Sr  Sr56  1  0.16013077  0.33174566  0.38186470  1
  Sr  Sr57  1  0.14182373  0.34622558  0.86721055  1
  Sr  Sr58  1  0.14993053  0.70193773  0.39902238  1
  Sr  Sr59  1  0.17191883  0.66097409  0.87206066  1
  Sr  Sr60  1  0.49251889  0.02654183  0.37881842  1
  Sr  Sr61  1  0.51245330  0.01293198  0.91612029  1
  Sr  Sr62  1  0.49684818  0.36955997  0.40143930  1
  Sr  Sr63  1  0.48402018  0.34786989  0.85224136  1
  Sr  Sr64  1  0.50456062  0.68600531  0.35393641  1
  Sr  Sr65  1  0.49017009  0.69575724  0.85779665  1
  Sr  Sr66  1  0.84449188  0.01297794  0.38924178  1
  Sr  Sr67  1  0.82470813  -0.00026712  0.83302258  1
  Sr  Sr68  1  0.81622428  0.35249968  0.34228051  1
  Sr  Sr69  1  0.81726772  0.31803433  0.90697063  1
  Sr  Sr70  1  0.82761585  0.66351344  0.40848922  1
  Sr  Sr71  1  0.82478387  0.66791899  0.86656391  1
  Ta  Ta72  1  0.17623482  0.20677450  0.00159783  1
  Ta  Ta73  1  0.18768823  0.14397404  0.49861851  1
  Ta  Ta74  1  0.13801338  0.49874126  0.00347391  1
  Ta  Ta75  1  0.17506100  0.52491745  0.49840691  1
  Ta  Ta76  1  0.21121543  0.83458051  -0.00458569  1
  Ta  Ta77  1  0.17066609  0.88741238  0.50468942  1
  Ta  Ta78  1  0.49112271  0.20830090  -0.00092631  1
  Ta  Ta79  1  0.48434952  0.20095309  0.49272939  1
  Ta  Ta80  1  0.51309795  0.53965320  -0.00213308  1
  Ta  Ta81  1  0.49435588  0.55419450  0.49449344  1
  Ta  Ta82  1  0.47730286  0.83225304  0.00025789  1
  Ta  Ta83  1  0.56324359  0.84347320  0.49712057  1
  Ta  Ta84  1  0.83484359  0.11914413  0.00333906  1
  Ta  Ta85  1  0.82295272  0.20539254  0.49414165  1
  Ta  Ta86  1  0.88548496  0.49653987  0.00411226  1
  Ta  Ta87  1  0.86640925  0.49201279  0.49544989  1
  Ta  Ta88  1  0.83850047  0.86383791  -0.00323799  1
  Ta  Ta89  1  0.79531128  0.83440258  0.50423830  1
  Ta  Ta90  1  0.13362376  0.17509985  0.24762585  1
  Ta  Ta91  1  0.17990972  0.19705994  0.76007931  1
  Ta  Ta92  1  0.17486031  0.54734121  0.25431440  1
  Ta  Ta93  1  0.20686843  0.49339886  0.74926308  1
  Ta  Ta94  1  0.19861320  0.82879006  0.25188596  1
  Ta  Ta95  1  0.11837751  0.83155295  0.74826682  1
  Ta  Ta96  1  0.49884304  0.22167035  0.24986309  1
  Ta  Ta97  1  0.51703764  0.14833019  0.75605726  1
  Ta  Ta98  1  0.53671426  0.50327664  0.24778144  1
  Ta  Ta99  1  0.49600723  0.53095460  0.74509710  1
  Ta  Ta100  1  0.50729862  0.87369599  0.25192169  1
  Ta  Ta101  1  0.50800875  0.87988126  0.74823642  1
  Ta  Ta102  1  0.87278239  0.16578986  0.24523251  1
  Ta  Ta103  1  0.81829700  0.18828682  0.75588550  1
  Ta  Ta104  1  0.83687573  0.54353049  0.24655573  1
  Ta  Ta105  1  0.84848529  0.48535142  0.75460187  1
  Ta  Ta106  1  0.84348989  0.77358500  0.24013457  1
  Ta  Ta107  1  0.87974516  0.82740969  0.75172680  1
  Ta  Ta108  1  0.00037469  0.04777222  0.25328751  1
  Ta  Ta109  1  0.00505119  -0.04477982  0.75123421  1
  Ta  Ta110  1  -0.00590413  0.28861573  0.25234819  1
  Ta  Ta111  1  -0.04268622  0.32938821  0.75472971  1
  Ta  Ta112  1  -0.02193177  0.66183169  0.25202322  1
  Ta  Ta113  1  -0.00109051  0.69573869  0.74561717  1
  Ta  Ta114  1  0.34345279  -0.03263825  0.24538921  1
  Ta  Ta115  1  0.38490062  -0.00730516  0.74949444  1
  Ta  Ta116  1  0.35565472  0.31959903  0.24719191  1
  Ta  Ta117  1  0.29929644  0.32898659  0.75207026  1
  Ta  Ta118  1  0.29482111  0.66821571  0.25320016  1
  Ta  Ta119  1  0.33886103  0.61769042  0.75005153  1
  Ta  Ta120  1  0.64529905  -0.01811195  0.24660086  1
  Ta  Ta121  1  0.63049382  0.00351937  0.75631025  1
  Ta  Ta122  1  0.62614781  0.34168490  0.24568278  1
  Ta  Ta123  1  0.66030651  0.27784783  0.75613403  1
  Ta  Ta124  1  0.68749420  0.64403060  0.24643574  1
  Ta  Ta125  1  0.64386835  0.64080979  0.74755166  1
  Ta  Ta126  1  -0.04412791  -0.00593138  -0.00368791  1
  Ta  Ta127  1  0.04995860  -0.00016045  0.50681322  1
  Ta  Ta128  1  0.00549261  0.35893333  0.00781138  1
  Ta  Ta129  1  -0.04810806  0.33600588  0.49685402  1
  Ta  Ta130  1  -0.00212637  0.62138497  0.00016393  1
  Ta  Ta131  1  0.00001385  0.62367571  0.50353219  1
  Ta  Ta132  1  0.33585362  -0.05239009  -0.00069404  1
  Ta  Ta133  1  0.30032225  0.00359324  0.50551257  1
  Ta  Ta134  1  0.31733005  0.30732246  0.00280425  1
  Ta  Ta135  1  0.32891855  0.28966716  0.49709462  1
  Ta  Ta136  1  0.34110612  0.69298095  -0.00650371  1
  Ta  Ta137  1  0.33201908  0.63979285  0.50068440  1
  Ta  Ta138  1  0.70838587  -0.01077502  0.00325396  1
  Ta  Ta139  1  0.67951943  -0.04208038  0.49788422  1
  Ta  Ta140  1  0.62783145  0.31296878  -0.00370047  1
  Ta  Ta141  1  0.66488063  0.30306559  0.49587463  1
  Ta  Ta142  1  0.63247547  0.65720987  -0.00276668  1
  Ta  Ta143  1  0.64980863  0.69371735  0.49862055  1
  N  N144  1  0.84651477  0.50201375  0.12489033  1
  N  N145  1  0.16840415  0.16420880  0.37842261  1
  N  N146  1  0.83589151  0.15915067  0.12518262  1
  N  N147  1  0.66978112  -0.00427734  0.12504126  1
  N  N148  1  0.16469502  0.17327781  0.12537878  1
  N  N149  1  0.33303773  0.66191188  0.87396614  1
  N  N150  1  0.32636598  0.33443848  0.12753429  1
  N  N151  1  0.01081156  -0.00292611  0.62557686  1
  N  N152  1  -0.00381251  -0.00833154  0.87895738  1
  N  N153  1  -0.00414520  0.33046660  0.12675190  1
  N  N154  1  0.49270480  0.16899313  0.87629885  1
  N  N155  1  0.83597190  0.83042993  0.62085784  1
  N  N156  1  0.50758152  0.52193588  0.12422680  1
  N  N157  1  0.66066851  0.66433751  0.62795885  1
  N  N158  1  0.50711107  0.52604154  0.37501957  1
  N  N159  1  0.17956401  0.50112825  0.61805800  1
  N  N160  1  0.84382607  0.50511023  0.37234773  1
  N  N161  1  0.66775877  0.66624894  0.37289209  1
  N  N162  1  0.84094556  0.82859377  0.87276285  1
  N  N163  1  0.49951815  0.18119783  0.36987506  1
  N  N164  1  -0.01462575  0.32592597  0.37718992  1
  N  N165  1  0.83999647  0.82066678  0.12733360  1
  N  N166  1  0.82944537  0.16043497  0.87589406  1
  N  N167  1  0.34052369  -0.00406521  0.62801482  1
  N  N168  1  0.66002624  0.66549203  0.11809170  1
  N  N169  1  0.00962915  0.01126531  0.37444185  1
  N  N170  1  0.65392205  0.32032771  0.87180798  1
  N  N171  1  0.15805527  0.16817014  0.87805638  1
  N  N172  1  0.00121092  0.66245185  0.62321225  1
  N  N173  1  0.16813169  0.51530968  0.13391612  1
  N  N174  1  0.17373045  0.50133960  0.88296949  1
  N  N175  1  0.66810551  -0.00772652  0.87561430  1
  N  N176  1  0.33611396  -0.01299295  0.12393452  1
  O  O177  1  0.50446321  0.50723609  0.61650661  1
  O  O178  1  0.66708946  0.67739873  0.86858750  1
  O  O179  1  0.49638497  0.84943033  0.87733765  1
  O  O180  1  0.51081383  0.85637300  0.37916579  1
  O  O181  1  -0.02832138  0.32700175  0.63011082  1
  O  O182  1  0.82489811  0.17665851  0.36961304  1
  O  O183  1  0.16436001  0.84155250  0.62752485  1
  O  O184  1  0.50220699  0.84292764  0.12365405  1
  O  O185  1  0.52399090  0.85866990  0.62208507  1
  O  O186  1  0.32458662  0.33705848  0.87485808  1
  O  O187  1  0.49885215  0.16622534  0.61925474  1
  O  O188  1  0.83074412  0.81235886  0.36812851  1
  O  O189  1  0.66966581  -0.01372810  0.63260924  1
  O  O190  1  0.65507250  0.29586131  0.62267940  1
  O  O191  1  0.48661866  0.17784834  0.12588221  1
  O  O192  1  0.31634949  0.66661414  0.12339659  1
  O  O193  1  0.18816120  0.83106910  0.12633876  1
  O  O194  1  0.84069657  0.49560677  0.87865764  1
  O  O195  1  0.64690348  0.33935562  0.12254983  1
  O  O196  1  -0.00194208  0.65201168  0.12898065  1
  O  O197  1  0.65246649  0.33033768  0.37410222  1
  O  O198  1  0.17807842  0.48910829  0.36725980  1
  O  O199  1  0.33178028  0.65607654  0.62942455  1
  O  O200  1  0.32205086  0.66698560  0.38002783  1
  O  O201  1  -0.00027268  -0.00088952  0.13225372  1
  O  O202  1  0.31482526  0.31273437  0.61987074  1
  O  O203  1  0.68519337  -0.01142905  0.36846994  1
  O  O204  1  0.35094057  -0.01391913  0.87561791  1
  O  O205  1  0.00016473  0.65702645  0.87505512  1
  O  O206  1  0.84158886  0.49922930  0.62951638  1
  O  O207  1  0.17268631  0.16658399  0.63478917  1
  O  O208  1  0.49642161  0.51075360  0.86905829  1
  O  O209  1  0.16755422  0.83146487  0.87024147  1
  O  O210  1  0.18566777  0.84839087  0.37702321  1
  O  O211  1  0.31821580  0.30913774  0.37122789  1
  O  O212  1  0.33797481  -0.01121590  0.38159960  1
  O  O213  1  -0.00408581  0.66271936  0.38110422  1
  O  O214  1  -0.02074478  0.32859033  0.87885231  1
  O  O215  1  0.82404766  0.18645253  0.61854513  1
