# generated using pymatgen
data_Sr24Ta24N11O13
_symmetry_space_group_name_H-M   'P 1'
_cell_length_a   16.45816024
_cell_length_b   17.40400550
_cell_length_c   15.43720023
_cell_angle_alpha   89.25151723
_cell_angle_beta   89.66915176
_cell_angle_gamma   90.95237956
_symmetry_Int_Tables_number   1
_chemical_formula_structural   Sr24Ta24N11O13
_chemical_formula_sum   'Sr72 Ta72 N33 O39'
_cell_volume   4420.73191259
_cell_formula_units_Z   3
loop_
 _symmetry_equiv_pos_site_id
 _symmetry_equiv_pos_as_xyz
  1  'x, y, z'
loop_
 _atom_site_type_symbol
 _atom_site_label
 _atom_site_symmetry_multiplicity
 _atom_site_fract_x
 _atom_site_fract_y
 _atom_site_fract_z
 _atom_site_occupancy
  Sr  Sr0  1  0.00627375  0.15640505  0.12827319  1
  Sr  Sr1  1  0.00616278  0.14406673  0.61862991  1
  Sr  Sr2  1  0.01092577  0.50025410  0.09627133  1
  Sr  Sr3  1  -0.00575059  0.47027950  0.64027250  1
  Sr  Sr4  1  -0.01152379  0.81804447  0.17115385  1
  Sr  Sr5  1  -0.00446860  0.81972016  0.62450150  1
  Sr  Sr6  1  0.33535979  0.15588956  0.09171173  1
  Sr  Sr7  1  0.32745928  0.14643555  0.63485600  1
  Sr  Sr8  1  0.34195931  0.44838222  0.15914941  1
  Sr  Sr9  1  0.33723847  0.49468357  0.63948570  1
  Sr  Sr10  1  0.33279670  0.84433543  0.13192442  1
  Sr  Sr11  1  0.33520104  0.79506400  0.58287395  1
  Sr  Sr12  1  0.66599127  0.12888601  0.14787049  1
  Sr  Sr13  1  0.66696835  0.16105240  0.63082911  1
  Sr  Sr14  1  0.67191189  0.49983444  0.14084850  1
  Sr  Sr15  1  0.67896825  0.47428862  0.61321322  1
  Sr  Sr16  1  0.68028459  0.82321397  0.07192957  1
  Sr  Sr17  1  0.65619118  0.81824991  0.64625815  1
  Sr  Sr18  1  0.18006338  0.02100885  0.07689673  1
  Sr  Sr19  1  0.16046889  0.01562185  0.64061890  1
  Sr  Sr20  1  0.14748846  0.33555636  0.14496679  1
  Sr  Sr21  1  0.16562967  0.35701863  0.62058891  1
  Sr  Sr22  1  0.16376326  0.69484232  0.13302496  1
  Sr  Sr23  1  0.15999691  0.69486047  0.61034764  1
  Sr  Sr24  1  0.49150849  -0.00062930  0.16414129  1
  Sr  Sr25  1  0.50150485  0.02243956  0.60994776  1
  Sr  Sr26  1  0.50830946  0.33515707  0.12571826  1
  Sr  Sr27  1  0.49137629  0.36766931  0.60730075  1
  Sr  Sr28  1  0.50013407  0.70508404  0.10164227  1
  Sr  Sr29  1  0.49905711  0.66782584  0.64053282  1
  Sr  Sr30  1  0.84174719  -0.00325793  0.13705219  1
  Sr  Sr31  1  0.83338236  0.03289855  0.58667045  1
  Sr  Sr32  1  0.83405412  0.38386307  0.07872534  1
  Sr  Sr33  1  0.82814775  0.34264771  0.63806969  1
  Sr  Sr34  1  0.82804321  0.67453033  0.14058607  1
  Sr  Sr35  1  0.82860255  0.68565633  0.62417372  1
  Sr  Sr36  1  -0.00055760  0.15853344  0.36041836  1
  Sr  Sr37  1  0.00018923  0.12932075  0.90174674  1
  Sr  Sr38  1  0.01115425  0.46711722  0.38866363  1
  Sr  Sr39  1  0.00130061  0.49150622  0.88147403  1
  Sr  Sr40  1  -0.00523745  0.81980676  0.38068219  1
  Sr  Sr41  1  0.01449820  0.82860654  0.83689301  1
  Sr  Sr42  1  0.33562343  0.13401521  0.40731387  1
  Sr  Sr43  1  0.33362037  0.14571235  0.86785569  1
  Sr  Sr44  1  0.33609812  0.47453690  0.38110568  1
  Sr  Sr45  1  0.35005344  0.49896263  0.85733695  1
  Sr  Sr46  1  0.34733023  0.83319487  0.34987030  1
  Sr  Sr47  1  0.32218583  0.80365207  0.92639270  1
  Sr  Sr48  1  0.66662881  0.15059729  0.37254406  1
  Sr  Sr49  1  0.67172506  0.16066614  0.86048950  1
  Sr  Sr50  1  0.67172735  0.48917467  0.36101698  1
  Sr  Sr51  1  0.66693623  0.45365037  0.91997456  1
  Sr  Sr52  1  0.66794179  0.79497667  0.41731132  1
  Sr  Sr53  1  0.65416313  0.83348713  0.86216370  1
  Sr  Sr54  1  0.16397608  0.02887810  0.40534142  1
  Sr  Sr55  1  0.16263856  -0.00146690  0.86124197  1
  Sr  Sr56  1  0.16341685  0.33766056  0.36274703  1
  Sr  Sr57  1  0.16172083  0.37344787  0.85099200  1
  Sr  Sr58  1  0.17452539  0.70044981  0.36846886  1
  Sr  Sr59  1  0.16472084  0.67329542  0.90647136  1
  Sr  Sr60  1  0.49830715  0.01039937  0.37681639  1
  Sr  Sr61  1  0.51441904  0.02085192  0.81917016  1
  Sr  Sr62  1  0.50589636  0.36031067  0.35475700  1
  Sr  Sr63  1  0.48759602  0.33685849  0.90693756  1
  Sr  Sr64  1  0.48745621  0.68727387  0.38073520  1
  Sr  Sr65  1  0.49183097  0.67093654  0.87398267  1
  Sr  Sr66  1  0.84318875  0.01581027  0.35527047  1
  Sr  Sr67  1  0.81878807  0.01308625  0.92729331  1
  Sr  Sr68  1  0.82551570  0.36043379  0.39258303  1
  Sr  Sr69  1  0.82517111  0.33536859  0.85809024  1
  Sr  Sr70  1  0.83450084  0.67371752  0.36904454  1
  Sr  Sr71  1  0.83095910  0.70812969  0.85094205  1
  Ta  Ta72  1  0.16361187  0.21189850  -0.01635227  1
  Ta  Ta73  1  0.16525269  0.20071141  0.50657931  1
  Ta  Ta74  1  0.21043288  0.49859635  0.00404215  1
  Ta  Ta75  1  0.16967338  0.53744869  0.50441071  1
  Ta  Ta76  1  0.12536529  0.84220061  0.00546396  1
  Ta  Ta77  1  0.16445867  0.86861502  0.50394216  1
  Ta  Ta78  1  0.51488904  0.14349259  -0.00800939  1
  Ta  Ta79  1  0.49763823  0.20858362  0.50807923  1
  Ta  Ta80  1  0.49234203  0.52511899  0.01995647  1
  Ta  Ta81  1  0.50634606  0.53263332  0.49341632  1
  Ta  Ta82  1  0.49865182  0.87835592  -0.00729357  1
  Ta  Ta83  1  0.50479482  0.86019515  0.50353218  1
  Ta  Ta84  1  0.83128958  0.20040576  0.01356608  1
  Ta  Ta85  1  0.83608081  0.20335183  0.49502591  1
  Ta  Ta86  1  0.83044109  0.55675148  -0.02361146  1
  Ta  Ta87  1  0.84368318  0.53099055  0.50537173  1
  Ta  Ta88  1  0.87282845  0.83308749  0.00234886  1
  Ta  Ta89  1  0.82850184  0.86576473  0.50100378  1
  Ta  Ta90  1  0.18761578  0.15165506  0.23963959  1
  Ta  Ta91  1  0.16103043  0.20032444  0.76190416  1
  Ta  Ta92  1  0.17070796  0.53079180  0.24780541  1
  Ta  Ta93  1  0.16378546  0.55449551  0.75600991  1
  Ta  Ta94  1  0.16782134  0.89088474  0.24524249  1
  Ta  Ta95  1  0.21619357  0.82851849  0.75684280  1
  Ta  Ta96  1  0.47619534  0.17833976  0.25423479  1
  Ta  Ta97  1  0.49272507  0.21712645  0.74333176  1
  Ta  Ta98  1  0.49629664  0.55030315  0.23727014  1
  Ta  Ta99  1  0.53882389  0.49595768  0.76694930  1
  Ta  Ta100  1  0.56296107  0.83076803  0.24867895  1
  Ta  Ta101  1  0.43507874  0.82947479  0.75110115  1
  Ta  Ta102  1  0.83256659  0.21930876  0.23088504  1
  Ta  Ta103  1  0.84972340  0.15198501  0.76121873  1
  Ta  Ta104  1  0.86553829  0.50405809  0.25055672  1
  Ta  Ta105  1  0.82519640  0.53019853  0.76453206  1
  Ta  Ta106  1  0.77746220  0.83299635  0.24792133  1
  Ta  Ta107  1  0.82955178  0.88301494  0.75898686  1
  Ta  Ta108  1  0.04446669  -0.00574216  0.24091264  1
  Ta  Ta109  1  -0.05293870  -0.00045623  0.75745800  1
  Ta  Ta110  1  -0.04297631  0.33407673  0.23543182  1
  Ta  Ta111  1  0.00138211  0.28102064  0.75885356  1
  Ta  Ta112  1  0.00727099  0.62227094  0.25785694  1
  Ta  Ta113  1  0.00788679  0.64192274  0.74963075  1
  Ta  Ta114  1  0.30177018  0.01319612  0.25131932  1
  Ta  Ta115  1  0.33553558  -0.04688654  0.73724380  1
  Ta  Ta116  1  0.33444105  0.26894475  0.25871401  1
  Ta  Ta117  1  0.33432176  0.30983544  0.74746055  1
  Ta  Ta118  1  0.33167971  0.62586436  0.23255850  1
  Ta  Ta119  1  0.31385265  0.67675832  0.75230773  1
  Ta  Ta120  1  0.66898720  -0.04711373  0.24542274  1
  Ta  Ta121  1  0.72240633  0.00120171  0.74894693  1
  Ta  Ta122  1  0.69270196  0.31086016  0.23447600  1
  Ta  Ta123  1  0.63412400  0.33021712  0.74896111  1
  Ta  Ta124  1  0.64938406  0.68199371  0.23983530  1
  Ta  Ta125  1  0.66964655  0.61204334  0.77138515  1
  Ta  Ta126  1  0.00127408  -0.04704049  0.00501124  1
  Ta  Ta127  1  -0.00104120  -0.02868411  0.49426799  1
  Ta  Ta128  1  0.00130726  0.30356964  -0.01159941  1
  Ta  Ta129  1  -0.00595760  0.29786354  0.50506347  1
  Ta  Ta130  1  -0.01566880  0.69229237  0.00790779  1
  Ta  Ta131  1  0.00502526  0.62701111  0.48924647  1
  Ta  Ta132  1  0.39360181  -0.00515809  -0.01182882  1
  Ta  Ta133  1  0.32959664  -0.04119728  0.50520579  1
  Ta  Ta134  1  0.29795777  0.33218211  -0.00086498  1
  Ta  Ta135  1  0.33366603  0.29764663  0.48918167  1
  Ta  Ta136  1  0.33666213  0.61503451  0.03215438  1
  Ta  Ta137  1  0.32803560  0.62723999  0.49948979  1
  Ta  Ta138  1  0.61597373  -0.00011301  -0.00128302  1
  Ta  Ta139  1  0.66950491  -0.03417446  0.49694348  1
  Ta  Ta140  1  0.67507433  0.27935559  0.02142892  1
  Ta  Ta141  1  0.65736654  0.30404952  0.49337977  1
  Ta  Ta142  1  0.67202317  0.63584040  -0.01199852  1
  Ta  Ta143  1  0.66248597  0.62624284  0.50427957  1
  N  N144  1  0.50558953  0.49711265  0.89050745  1
  N  N145  1  0.66435163  0.66716205  0.10960360  1
  N  N146  1  0.32878144  0.32839278  0.36416467  1
  N  N147  1  -0.00584701  -0.01486760  0.87282969  1
  N  N148  1  0.17711016  0.51935016  0.88051357  1
  N  N149  1  0.50048740  0.17010392  0.87008438  1
  N  N150  1  0.65980757  0.32654563  0.62597177  1
  N  N151  1  0.66738458  0.32559491  0.36047292  1
  N  N152  1  -0.00438687  0.31298985  0.63183329  1
  N  N153  1  0.33261949  0.65095527  0.62899397  1
  N  N154  1  0.33287682  -0.01089468  0.37143457  1
  N  N155  1  0.00208162  0.00551551  0.12157499  1
  N  N156  1  0.00955467  0.67350549  0.37115802  1
  N  N157  1  0.82854906  0.83390065  0.13266514  1
  N  N158  1  0.84127661  0.50788805  0.37340234  1
  N  N159  1  0.66287072  -0.01480491  0.11428228  1
  N  N160  1  0.17144770  0.84793069  0.12328573  1
  N  N161  1  -0.00620237  0.33743550  0.10917081  1
  N  N162  1  0.66833276  0.35462784  0.11008467  1
  N  N163  1  0.33710079  0.00339702  0.62111197  1
  N  N164  1  0.00047848  0.66707485  0.13002498  1
  N  N165  1  0.50881317  0.48070370  0.14096163  1
  N  N166  1  0.16803117  0.17343604  0.11641611  1
  N  N167  1  0.17245341  0.83269702  0.87407283  1
  N  N168  1  0.83836942  0.48076393  0.88842791  1
  N  N169  1  0.83726200  0.50854045  0.63832051  1
  N  N170  1  0.00128757  -0.00724733  0.37088101  1
  N  N171  1  0.17064076  0.14876051  0.88072492  1
  N  N172  1  0.16716539  0.17572664  0.62989469  1
  N  N173  1  0.49992812  0.51899922  0.36801423  1
  N  N174  1  0.49860942  0.16693666  0.63005835  1
  N  N175  1  0.82181747  0.85043379  0.88924124  1
  N  N176  1  0.83282862  0.16825472  0.88601903  1
  O  O177  1  0.83078638  0.17954652  0.62373919  1
  O  O178  1  0.15820896  0.17489122  0.37137308  1
  O  O179  1  0.66481124  0.65178510  0.37675257  1
  O  O180  1  0.84867097  0.52538389  0.10783063  1
  O  O181  1  0.51515064  0.84665155  0.12763081  1
  O  O182  1  0.84039548  0.14415167  0.13166240  1
  O  O183  1  0.31678070  0.30777603  0.12716315  1
  O  O184  1  0.66115601  0.30847934  0.88874186  1
  O  O185  1  0.66849302  0.00462893  0.87064393  1
  O  O186  1  0.66815370  0.63218519  0.63450411  1
  O  O187  1  0.49877997  0.51293232  0.63959816  1
  O  O188  1  0.32784478  0.32003845  0.62084367  1
  O  O189  1  0.32664499  0.34159276  0.87460895  1
  O  O190  1  0.00265287  0.66974623  0.87276854  1
  O  O191  1  0.15756338  0.84299279  0.63385363  1
  O  O192  1  0.83290615  0.84350313  0.62725934  1
  O  O193  1  0.82645798  0.84381705  0.37447446  1
  O  O194  1  0.49284448  0.16149011  0.12857793  1
  O  O195  1  0.35798942  -0.00081884  0.86235815  1
  O  O196  1  0.32767353  0.69835418  0.12345014  1
  O  O197  1  0.34513231  0.00138689  0.11405648  1
  O  O198  1  0.00015146  0.65751354  0.61999916  1
  O  O199  1  0.16310741  0.49014956  0.12712577  1
  O  O200  1  0.33656105  0.65424143  0.89830459  1
  O  O201  1  0.83511719  0.19165384  0.36623079  1
  O  O202  1  0.67939929  -0.01578864  0.62408416  1
  O  O203  1  0.51395419  0.84141333  0.37520188  1
  O  O204  1  0.17280130  0.51361760  0.63165231  1
  O  O205  1  -0.00138445  0.32141046  0.36149236  1
  O  O206  1  -0.01324874  -0.00534789  0.62762177  1
  O  O207  1  0.47739830  0.82569128  0.87315781  1
  O  O208  1  0.33001503  0.64209921  0.36303223  1
  O  O209  1  0.17405315  0.52178346  0.37348442  1
  O  O210  1  0.49670226  0.16516196  0.38247608  1
  O  O211  1  0.66422350  -0.00307154  0.37336390  1
  O  O212  1  0.49224324  0.83379083  0.62932617  1
  O  O213  1  -0.01367812  0.34994658  0.85895116  1
  O  O214  1  0.65197322  0.68915413  0.86533268  1
  O  O215  1  0.16842030  0.85393548  0.37652899  1
