# generated using pymatgen
data_Sr24Ta24N11O13
_symmetry_space_group_name_H-M   'P 1'
_cell_length_a   16.63447927
_cell_length_b   16.87992185
_cell_length_c   15.65150917
_cell_angle_alpha   90.31296359
_cell_angle_beta   90.39197112
_cell_angle_gamma   89.82115606
_symmetry_Int_Tables_number   1
_chemical_formula_structural   Sr24Ta24N11O13
_chemical_formula_sum   'Sr72 Ta72 N33 O39'
_cell_volume   4394.57776690
_cell_formula_units_Z   3
loop_
 _symmetry_equiv_pos_site_id
 _symmetry_equiv_pos_as_xyz
  1  'x, y, z'
loop_
 _atom_site_type_symbol
 _atom_site_label
 _atom_site_symmetry_multiplicity
 _atom_site_fract_x
 _atom_site_fract_y
 _atom_site_fract_z
 _atom_site_occupancy
  Sr  Sr0  1  0.01535152  0.18035392  0.16991503  1
  Sr  Sr1  1  -0.01804663  0.18472005  0.60902933  1
  Sr  Sr2  1  -0.00348257  0.50884090  0.10579953  1
  Sr  Sr3  1  0.00160602  0.52360628  0.64666456  1
  Sr  Sr4  1  0.00349988  0.85646709  0.12132760  1
  Sr  Sr5  1  0.00002234  0.83559311  0.59205990  1
  Sr  Sr6  1  0.32077000  0.16596401  0.08392913  1
  Sr  Sr7  1  0.33761165  0.17444176  0.62692438  1
  Sr  Sr8  1  0.33207686  0.49538131  0.12350255  1
  Sr  Sr9  1  0.33994375  0.49940174  0.66088975  1
  Sr  Sr10  1  0.33568273  0.84397105  0.12587040  1
  Sr  Sr11  1  0.32459517  0.82924978  0.61994650  1
  Sr  Sr12  1  0.67566532  0.15459255  0.11140321  1
  Sr  Sr13  1  0.65741593  0.21257437  0.67240291  1
  Sr  Sr14  1  0.67659717  0.53757784  0.11880961  1
  Sr  Sr15  1  0.66263729  0.50529647  0.59214929  1
  Sr  Sr16  1  0.66534468  0.84101506  0.16055475  1
  Sr  Sr17  1  0.66864195  0.84425324  0.62457176  1
  Sr  Sr18  1  0.17996571  -0.00538230  0.11297119  1
  Sr  Sr19  1  0.17021813  0.02049743  0.67539291  1
  Sr  Sr20  1  0.17000062  0.33048730  0.12316843  1
  Sr  Sr21  1  0.16505612  0.31586248  0.58312810  1
  Sr  Sr22  1  0.17349274  0.64842588  0.15923261  1
  Sr  Sr23  1  0.16652326  0.68372167  0.61164398  1
  Sr  Sr24  1  0.51760309  -0.01785523  0.16911323  1
  Sr  Sr25  1  0.49604776  -0.02568273  0.60694224  1
  Sr  Sr26  1  0.50973309  0.29631691  0.12951927  1
  Sr  Sr27  1  0.48709039  0.32817370  0.63577056  1
  Sr  Sr28  1  0.48193523  0.65775833  0.10672437  1
  Sr  Sr29  1  0.50329928  0.64565142  0.60591379  1
  Sr  Sr30  1  0.83446274  -0.00168234  0.08842634  1
  Sr  Sr31  1  0.83093995  -0.01331847  0.62453650  1
  Sr  Sr32  1  0.83598750  0.29664917  0.14205918  1
  Sr  Sr33  1  0.83843993  0.34026065  0.62465752  1
  Sr  Sr34  1  0.84113729  0.66832428  0.11492447  1
  Sr  Sr35  1  0.81905660  0.65882916  0.65524970  1
  Sr  Sr36  1  0.00003204  0.17881910  0.38380014  1
  Sr  Sr37  1  0.00202209  0.16013764  0.83058772  1
  Sr  Sr38  1  0.00128723  0.53380180  0.36064942  1
  Sr  Sr39  1  -0.00714978  0.50125655  0.87459227  1
  Sr  Sr40  1  0.00078051  0.84557956  0.38117371  1
  Sr  Sr41  1  -0.00765652  0.84557963  0.91510698  1
  Sr  Sr42  1  0.34495918  0.17977160  0.41736049  1
  Sr  Sr43  1  0.32666747  0.16695628  0.87402732  1
  Sr  Sr44  1  0.33306383  0.49291623  0.33262476  1
  Sr  Sr45  1  0.34186959  0.50082820  0.87684764  1
  Sr  Sr46  1  0.33084893  0.84304768  0.38417994  1
  Sr  Sr47  1  0.32751901  0.83557465  0.87062450  1
  Sr  Sr48  1  0.65141769  0.18554333  0.32215265  1
  Sr  Sr49  1  0.68035587  0.17684239  0.89976624  1
  Sr  Sr50  1  0.67497537  0.50796052  0.38111329  1
  Sr  Sr51  1  0.67040977  0.53252750  0.91233076  1
  Sr  Sr52  1  0.66844712  0.85407112  0.37883564  1
  Sr  Sr53  1  0.67629783  0.83746569  0.83505245  1
  Sr  Sr54  1  0.15188457  -0.00068286  0.32917932  1
  Sr  Sr55  1  0.18325273  -0.01053980  0.89146390  1
  Sr  Sr56  1  0.16925027  0.32174435  0.37123768  1
  Sr  Sr57  1  0.17223309  0.34530219  0.91874307  1
  Sr  Sr58  1  0.16291191  0.67181168  0.39065453  1
  Sr  Sr59  1  0.17173883  0.65044879  0.82470906  1
  Sr  Sr60  1  0.48924278  -0.00018116  0.38805486  1
  Sr  Sr61  1  0.51352428  -0.03496657  0.85032003  1
  Sr  Sr62  1  0.49816912  0.32654822  0.36854705  1
  Sr  Sr63  1  0.50482803  0.30222756  0.86275701  1
  Sr  Sr64  1  0.49515925  0.63391610  0.38337393  1
  Sr  Sr65  1  0.49108387  0.65369285  0.90046441  1
  Sr  Sr66  1  0.84535472  0.00127271  0.42160765  1
  Sr  Sr67  1  0.82719961  -0.00567095  0.87818621  1
  Sr  Sr68  1  0.83278562  0.32463091  0.37938106  1
  Sr  Sr69  1  0.84164828  0.31708323  0.85274810  1
  Sr  Sr70  1  0.82076685  0.65928778  0.33079767  1
  Sr  Sr71  1  0.83859837  0.66279118  0.88552640  1
  Ta  Ta72  1  0.12058815  0.16612494  0.00121681  1
  Ta  Ta73  1  0.16502829  0.12269100  0.49928237  1
  Ta  Ta74  1  0.16855291  0.53345511  -0.00613528  1
  Ta  Ta75  1  0.18852841  0.49454268  0.49982089  1
  Ta  Ta76  1  0.17090248  0.78695057  -0.00652535  1
  Ta  Ta77  1  0.16650409  0.89043486  0.50784902  1
  Ta  Ta78  1  0.50329888  0.11345547  0.00358708  1
  Ta  Ta79  1  0.55179689  0.16948512  0.49753698  1
  Ta  Ta80  1  0.51302288  0.45334774  0.01268419  1
  Ta  Ta81  1  0.46870142  0.48042729  0.49730522  1
  Ta  Ta82  1  0.51828314  0.84090065  0.00457820  1
  Ta  Ta83  1  0.51132858  0.80090778  0.48410196  1
  Ta  Ta84  1  0.88808860  0.16480206  -0.00527609  1
  Ta  Ta85  1  0.76061981  0.17560930  0.50171771  1
  Ta  Ta86  1  0.82748489  0.44882973  0.01447817  1
  Ta  Ta87  1  0.85101172  0.51352044  0.49181153  1
  Ta  Ta88  1  0.79002083  0.83117535  0.00015663  1
  Ta  Ta89  1  0.82533225  0.78909146  0.49905765  1
  Ta  Ta90  1  0.20982864  0.16589363  0.24630713  1
  Ta  Ta91  1  0.16685396  0.22220658  0.75260597  1
  Ta  Ta92  1  0.14674043  0.47955940  0.24247507  1
  Ta  Ta93  1  0.16605464  0.45112787  0.75145806  1
  Ta  Ta94  1  0.16413108  0.81475240  0.25029199  1
  Ta  Ta95  1  0.12470695  0.83864021  0.75352589  1
  Ta  Ta96  1  0.45608019  0.15594858  0.25435750  1
  Ta  Ta97  1  0.50241325  0.12620690  0.74764062  1
  Ta  Ta98  1  0.52616761  0.48247913  0.23386185  1
  Ta  Ta99  1  0.53329600  0.49999203  0.75808217  1
  Ta  Ta100  1  0.49166908  0.79275367  0.26391808  1
  Ta  Ta101  1  0.49507704  0.79022354  0.74511785  1
  Ta  Ta102  1  0.83386689  0.12711403  0.25609534  1
  Ta  Ta103  1  0.81975016  0.13970149  0.74822365  1
  Ta  Ta104  1  0.83509673  0.47076242  0.23901327  1
  Ta  Ta105  1  0.79500437  0.49372930  0.75792936  1
  Ta  Ta106  1  0.84290336  0.86554242  0.25356460  1
  Ta  Ta107  1  0.87657238  0.83475341  0.75109800  1
  Ta  Ta108  1  -0.04662446  0.00612239  0.25679811  1
  Ta  Ta109  1  -0.00931887  -0.03158719  0.75135764  1
  Ta  Ta110  1  0.00034459  0.36937986  0.24761010  1
  Ta  Ta111  1  0.03852837  0.33978345  0.74961270  1
  Ta  Ta112  1  0.00808168  0.70361933  0.24817109  1
  Ta  Ta113  1  -0.00548483  0.71321464  0.75431285  1
  Ta  Ta114  1  0.33509083  0.03786470  0.25096088  1
  Ta  Ta115  1  0.35877023  0.01001042  0.75344106  1
  Ta  Ta116  1  0.33517983  0.29690495  0.24713011  1
  Ta  Ta117  1  0.29832080  0.33014125  0.75072544  1
  Ta  Ta118  1  0.34073479  0.68907257  0.25929196  1
  Ta  Ta119  1  0.36151398  0.67767780  0.74678927  1
  Ta  Ta120  1  0.72186513  0.00601554  0.25011879  1
  Ta  Ta121  1  0.66689218  0.03461211  0.75159336  1
  Ta  Ta122  1  0.67104077  0.37280616  0.23002667  1
  Ta  Ta123  1  0.66413434  0.39054220  0.76175381  1
  Ta  Ta124  1  0.62727902  0.67416215  0.25012810  1
  Ta  Ta125  1  0.63992915  0.64973711  0.75581257  1
  Ta  Ta126  1  0.00833340  0.04447656  0.00287889  1
  Ta  Ta127  1  0.04125329  0.01075802  0.50188957  1
  Ta  Ta128  1  -0.01262879  0.31064747  -0.00275549  1
  Ta  Ta129  1  -0.00231444  0.38721387  0.49910853  1
  Ta  Ta130  1  0.04690417  0.67133720  -0.00678553  1
  Ta  Ta131  1  -0.05222551  0.66998965  0.49476057  1
  Ta  Ta132  1  0.38464499  -0.00642533  0.00402823  1
  Ta  Ta133  1  0.28913721  0.00662907  0.49704986  1
  Ta  Ta134  1  0.36400450  0.34368448  -0.00031532  1
  Ta  Ta135  1  0.33623717  0.37576315  0.49774266  1
  Ta  Ta136  1  0.29169900  0.66757567  -0.00685765  1
  Ta  Ta137  1  0.33143627  0.61800568  0.50093507  1
  Ta  Ta138  1  0.64794367  -0.02756248  0.00100367  1
  Ta  Ta139  1  0.66322825  0.04215085  0.50200721  1
  Ta  Ta140  1  0.67288810  0.35944838  0.01464183  1
  Ta  Ta141  1  0.66013154  0.31850677  0.49457484  1
  Ta  Ta142  1  0.66220322  0.72150509  0.00253956  1
  Ta  Ta143  1  0.68355477  0.68859609  0.49243969  1
  N  N144  1  0.67178127  0.30557104  0.12755975  1
  N  N145  1  0.67868632  -0.00261001  0.12771106  1
  N  N146  1  0.33116643  0.33479130  0.37455873  1
  N  N147  1  -0.00081553  0.01177036  0.37792238  1
  N  N148  1  0.16570023  0.49576769  0.12137206  1
  N  N149  1  0.34202750  -0.00071098  0.12280411  1
  N  N150  1  0.65822137  0.68625582  0.12407382  1
  N  N151  1  0.16259446  0.85179637  0.62852470  1
  N  N152  1  0.84340336  0.15661021  0.87176709  1
  N  N153  1  0.00058637  0.34978166  0.61464642  1
  N  N154  1  0.50517769  0.84959508  0.37310027  1
  N  N155  1  0.16849933  0.49673091  0.86896940  1
  N  N156  1  0.00185298  0.67442844  0.87519265  1
  N  N157  1  0.16414879  0.83208322  0.87574187  1
  N  N158  1  0.50117689  0.16576869  0.38166671  1
  N  N159  1  0.32595467  0.00417777  0.37560613  1
  N  N160  1  -0.01177791  0.68533118  0.37008529  1
  N  N161  1  0.32973704  0.66270862  0.87264307  1
  N  N162  1  0.34230955  -0.00494926  0.87584313  1
  N  N163  1  0.32514196  0.65777713  0.37587262  1
  N  N164  1  0.33714695  0.32749227  0.87638399  1
  N  N165  1  0.33082825  0.65650607  0.62319127  1
  N  N166  1  0.16641730  0.16300663  0.12672037  1
  N  N167  1  0.00329046  0.33628362  0.13003013  1
  N  N168  1  0.83443013  0.50240533  0.36855596  1
  N  N169  1  0.83816734  0.51195182  0.11642251  1
  N  N170  1  0.66892957  0.00229051  0.87332221  1
  N  N171  1  0.32948245  0.33516346  0.62142158  1
  N  N172  1  0.66807321  0.66358702  0.37157232  1
  N  N173  1  0.00233348  0.33498343  0.87287578  1
  N  N174  1  0.66066560  0.67960744  0.87375900  1
  N  N175  1  0.33578173  0.32865714  0.12378544  1
  N  N176  1  0.49177172  0.50899957  0.11844943  1
  O  O177  1  0.50615115  0.15981012  0.62451543  1
  O  O178  1  0.15860684  0.18487305  0.87800064  1
  O  O179  1  0.16821064  0.17056687  0.63223443  1
  O  O180  1  0.32568165  0.66963194  0.12657437  1
  O  O181  1  0.82245060  0.48853117  0.88592093  1
  O  O182  1  0.80850234  0.17921793  0.62546773  1
  O  O183  1  -0.00041476  -0.00126289  0.87517967  1
  O  O184  1  0.66879888  0.33794665  0.36538563  1
  O  O185  1  0.50272172  0.49062719  0.63175007  1
  O  O186  1  0.81711614  0.50260800  0.62987584  1
  O  O187  1  0.16607572  0.15758688  0.37081602  1
  O  O188  1  0.16387067  0.84515019  0.37515933  1
  O  O189  1  0.00277097  0.68241607  0.11828768  1
  O  O190  1  0.81000039  0.16204427  0.38341891  1
  O  O191  1  0.66889505  -0.00399435  0.62221355  1
  O  O192  1  0.51618996  0.49854415  0.88812169  1
  O  O193  1  0.84511132  0.14922714  0.11793048  1
  O  O194  1  0.83662205  0.84329020  0.38020642  1
  O  O195  1  0.50689943  0.13598077  0.87904010  1
  O  O196  1  -0.00540658  0.33299799  0.38199667  1
  O  O197  1  0.50451824  0.13698087  0.13156923  1
  O  O198  1  0.65999652  0.35303516  0.62126065  1
  O  O199  1  0.66520530  0.65997178  0.62339184  1
  O  O200  1  0.82964625  0.84519525  0.12699050  1
  O  O201  1  0.17609599  0.49247433  0.62505819  1
  O  O202  1  0.50369994  0.81471585  0.87761116  1
  O  O203  1  -0.01703035  0.67672452  0.62118848  1
  O  O204  1  0.66479035  0.33537015  0.87727253  1
  O  O205  1  0.83317281  0.83292869  0.87534638  1
  O  O206  1  0.83139098  0.82769838  0.62585330  1
  O  O207  1  -0.00625496  -0.00986357  0.62464676  1
  O  O208  1  0.17361246  0.49620384  0.37286413  1
  O  O209  1  -0.00293771  0.01186165  0.13392811  1
  O  O210  1  0.49223410  0.48214999  0.36256220  1
  O  O211  1  0.17265944  0.82690249  0.12463585  1
  O  O212  1  0.33214953  0.00595627  0.62578328  1
  O  O213  1  0.50556115  0.80496257  0.61672614  1
  O  O214  1  0.50028900  0.83149352  0.13236929  1
  O  O215  1  0.67873865  0.00858370  0.37565807  1
