# generated using pymatgen
data_Sr24Ta24N11O13
_symmetry_space_group_name_H-M   'P 1'
_cell_length_a   16.87127625
_cell_length_b   16.73232810
_cell_length_c   15.71272528
_cell_angle_alpha   89.48813075
_cell_angle_beta   90.29909505
_cell_angle_gamma   90.15278958
_symmetry_Int_Tables_number   1
_chemical_formula_structural   Sr24Ta24N11O13
_chemical_formula_sum   'Sr72 Ta72 N33 O39'
_cell_volume   4435.38257800
_cell_formula_units_Z   3
loop_
 _symmetry_equiv_pos_site_id
 _symmetry_equiv_pos_as_xyz
  1  'x, y, z'
loop_
 _atom_site_type_symbol
 _atom_site_label
 _atom_site_symmetry_multiplicity
 _atom_site_fract_x
 _atom_site_fract_y
 _atom_site_fract_z
 _atom_site_occupancy
  Sr  Sr0  1  -0.01144277  0.16879633  0.08615141  1
  Sr  Sr1  1  -0.00003473  0.16006040  0.63255071  1
  Sr  Sr2  1  0.03732503  0.49171477  0.10680289  1
  Sr  Sr3  1  0.00160756  0.50206147  0.62363050  1
  Sr  Sr4  1  0.01467671  0.83421966  0.13326480  1
  Sr  Sr5  1  0.02744696  0.83019710  0.66372771  1
  Sr  Sr6  1  0.34300222  0.17649837  0.10979539  1
  Sr  Sr7  1  0.33775938  0.15439142  0.66977416  1
  Sr  Sr8  1  0.34318291  0.50609985  0.15866561  1
  Sr  Sr9  1  0.34302669  0.48372309  0.61481484  1
  Sr  Sr10  1  0.35565604  0.83125647  0.12515764  1
  Sr  Sr11  1  0.32749975  0.85294872  0.57704815  1
  Sr  Sr12  1  0.68705551  0.15222079  0.17244695  1
  Sr  Sr13  1  0.66465859  0.17343384  0.60883698  1
  Sr  Sr14  1  0.66861785  0.50610012  0.12981595  1
  Sr  Sr15  1  0.69318964  0.49775388  0.61042920  1
  Sr  Sr16  1  0.67973749  0.84335292  0.07938693  1
  Sr  Sr17  1  0.66990318  0.82510823  0.64274363  1
  Sr  Sr18  1  0.15452854  0.00844246  0.15971689  1
  Sr  Sr19  1  0.16411289  0.00304900  0.61681550  1
  Sr  Sr20  1  0.18672526  0.33637124  0.13835232  1
  Sr  Sr21  1  0.15645563  0.34461073  0.57918397  1
  Sr  Sr22  1  0.16375033  0.68504586  0.09469102  1
  Sr  Sr23  1  0.14915293  0.66281823  0.65663922  1
  Sr  Sr24  1  0.49298951  -0.00041653  0.12003645  1
  Sr  Sr25  1  0.49121488  -0.00266105  0.64098562  1
  Sr  Sr26  1  0.50283655  0.34125189  0.08805874  1
  Sr  Sr27  1  0.48039756  0.32566686  0.63382609  1
  Sr  Sr28  1  0.49063335  0.65254166  0.16367575  1
  Sr  Sr29  1  0.48010936  0.66883106  0.62294616  1
  Sr  Sr30  1  0.83732986  0.00040628  0.12376002  1
  Sr  Sr31  1  0.81247353  0.00163897  0.59251712  1
  Sr  Sr32  1  0.82383358  0.33637306  0.12281473  1
  Sr  Sr33  1  0.84402927  0.32512779  0.66954462  1
  Sr  Sr34  1  0.81501939  0.66250605  0.13036989  1
  Sr  Sr35  1  0.81529543  0.66558662  0.59551813  1
  Sr  Sr36  1  0.00459825  0.14560828  0.42111191  1
  Sr  Sr37  1  -0.01270173  0.16714679  0.87046072  1
  Sr  Sr38  1  0.02030707  0.48754139  0.39315414  1
  Sr  Sr39  1  0.01608214  0.50499095  0.86175872  1
  Sr  Sr40  1  -0.00051919  0.83383021  0.33483986  1
  Sr  Sr41  1  0.02473318  0.82745613  0.87381655  1
  Sr  Sr42  1  0.30914817  0.16111622  0.32536819  1
  Sr  Sr43  1  0.34318271  0.17636674  0.88597532  1
  Sr  Sr44  1  0.34704188  0.48758358  0.38741964  1
  Sr  Sr45  1  0.35016358  0.51252410  0.83335457  1
  Sr  Sr46  1  0.35615110  0.83468829  0.37467510  1
  Sr  Sr47  1  0.32823125  0.82998419  0.91779588  1
  Sr  Sr48  1  0.66832376  0.16017153  0.38220347  1
  Sr  Sr49  1  0.67910939  0.17769239  0.84882387  1
  Sr  Sr50  1  0.67957754  0.51075148  0.35936546  1
  Sr  Sr51  1  0.67785189  0.48934024  0.90420399  1
  Sr  Sr52  1  0.69796332  0.83206735  0.41728189  1
  Sr  Sr53  1  0.64546932  0.83225097  0.86030495  1
  Sr  Sr54  1  0.16236039  -0.00166571  0.38419184  1
  Sr  Sr55  1  0.14351760  0.01875079  0.82855433  1
  Sr  Sr56  1  0.17889279  0.33858935  0.36349547  1
  Sr  Sr57  1  0.16208176  0.31977626  0.92034702  1
  Sr  Sr58  1  0.14587208  0.68192215  0.36654736  1
  Sr  Sr59  1  0.17044216  0.66114302  0.87667034  1
  Sr  Sr60  1  0.48905072  0.01093636  0.34877373  1
  Sr  Sr61  1  0.48780227  -0.00383928  0.88807949  1
  Sr  Sr62  1  0.51009351  0.33012643  0.42108743  1
  Sr  Sr63  1  0.48410402  0.33623263  0.86633800  1
  Sr  Sr64  1  0.48393324  0.66054914  0.37342997  1
  Sr  Sr65  1  0.49469068  0.65945972  0.84207674  1
  Sr  Sr66  1  0.82652564  0.01120574  0.37872156  1
  Sr  Sr67  1  0.82790407  -0.01013476  0.90015325  1
  Sr  Sr68  1  0.81369287  0.33170835  0.33211528  1
  Sr  Sr69  1  0.83128723  0.33570752  0.87229654  1
  Sr  Sr70  1  0.82986843  0.66099306  0.37598519  1
  Sr  Sr71  1  0.79667775  0.67211618  0.89916426  1
  Ta  Ta72  1  0.16262147  0.12119245  0.00050238  1
  Ta  Ta73  1  0.19823882  0.16800291  0.49658361  1
  Ta  Ta74  1  0.22088486  0.50340936  -0.00097585  1
  Ta  Ta75  1  0.18030129  0.53608000  0.50316969  1
  Ta  Ta76  1  0.16519939  0.89920412  -0.00080785  1
  Ta  Ta77  1  0.13996646  0.81842425  0.50378145  1
  Ta  Ta78  1  0.54372653  0.16867225  -0.00256295  1
  Ta  Ta79  1  0.47326122  0.14980293  0.50495691  1
  Ta  Ta80  1  0.48534690  0.52100048  0.00458866  1
  Ta  Ta81  1  0.53297416  0.50857369  0.50591487  1
  Ta  Ta82  1  0.50252344  0.78002001  0.00185176  1
  Ta  Ta83  1  0.52148772  0.84162797  0.50071941  1
  Ta  Ta84  1  0.80336652  0.17083942  0.00113820  1
  Ta  Ta85  1  0.83351719  0.21005500  0.49976809  1
  Ta  Ta86  1  0.87095125  0.50344584  -0.00440881  1
  Ta  Ta87  1  0.84301224  0.44575456  0.49767714  1
  Ta  Ta88  1  0.87222180  0.81989278  0.00446420  1
  Ta  Ta89  1  0.88837226  0.82771714  0.50303357  1
  Ta  Ta90  1  0.10828393  0.17342271  0.25454252  1
  Ta  Ta91  1  0.16295503  0.21657931  0.74721819  1
  Ta  Ta92  1  0.16868469  0.53700213  0.24331712  1
  Ta  Ta93  1  0.17384595  0.45377929  0.75206617  1
  Ta  Ta94  1  0.19777918  0.83698306  0.24810278  1
  Ta  Ta95  1  0.21596590  0.84204715  0.74747054  1
  Ta  Ta96  1  0.50082309  0.20290102  0.25030904  1
  Ta  Ta97  1  0.52558636  0.16068767  0.75466243  1
  Ta  Ta98  1  0.50995703  0.46008016  0.25717284  1
  Ta  Ta99  1  0.54658152  0.49248637  0.73791812  1
  Ta  Ta100  1  0.55262886  0.83440520  0.24867791  1
  Ta  Ta101  1  0.44289905  0.83423196  0.75031974  1
  Ta  Ta102  1  0.88057460  0.16821207  0.25326736  1
  Ta  Ta103  1  0.82854404  0.12951345  0.74673497  1
  Ta  Ta104  1  0.88375617  0.50429305  0.24877291  1
  Ta  Ta105  1  0.83428173  0.52931383  0.75391935  1
  Ta  Ta106  1  0.80271771  0.83519154  0.25062960  1
  Ta  Ta107  1  0.85059944  0.83025484  0.74867343  1
  Ta  Ta108  1  -0.00896475  0.02901516  0.25197573  1
  Ta  Ta109  1  -0.04796621  -0.00955500  0.74894792  1
  Ta  Ta110  1  -0.00182092  0.31127885  0.25120167  1
  Ta  Ta111  1  0.04009262  0.33315063  0.74805291  1
  Ta  Ta112  1  -0.00470084  0.63154250  0.24797024  1
  Ta  Ta113  1  -0.06181129  0.66823954  0.75171823  1
  Ta  Ta114  1  0.31665238  -0.02029780  0.24762557  1
  Ta  Ta115  1  0.33058188  -0.03348856  0.74889927  1
  Ta  Ta116  1  0.38194979  0.33095253  0.24845497  1
  Ta  Ta117  1  0.28723808  0.33172635  0.75071699  1
  Ta  Ta118  1  0.29648166  0.67950520  0.24494085  1
  Ta  Ta119  1  0.32474590  0.71281769  0.75237842  1
  Ta  Ta120  1  0.66796700  -0.04253606  0.25041058  1
  Ta  Ta121  1  0.67215271  0.01597778  0.75122517  1
  Ta  Ta122  1  0.62184123  0.32905441  0.25476380  1
  Ta  Ta123  1  0.64896448  0.34724479  0.74802933  1
  Ta  Ta124  1  0.66499490  0.71178105  0.25068784  1
  Ta  Ta125  1  0.66975504  0.63411052  0.74915730  1
  Ta  Ta126  1  0.02099959  -0.00964324  0.00009063  1
  Ta  Ta127  1  -0.00290163  -0.04923580  0.49822873  1
  Ta  Ta128  1  -0.01994921  0.34865476  -0.00686146  1
  Ta  Ta129  1  -0.03849635  0.32602945  0.50272649  1
  Ta  Ta130  1  -0.03036957  0.66323163  -0.00142973  1
  Ta  Ta131  1  0.00071049  0.69775219  0.50322304  1
  Ta  Ta132  1  0.29034512  0.01023390  0.00274051  1
  Ta  Ta133  1  0.33617197  0.04494697  0.49643828  1
  Ta  Ta134  1  0.33558215  0.38015786  -0.00307481  1
  Ta  Ta135  1  0.33072858  0.27290510  0.50231291  1
  Ta  Ta136  1  0.35423530  0.64379909  -0.00045761  1
  Ta  Ta137  1  0.29174228  0.66319135  0.50341573  1
  Ta  Ta138  1  0.66303530  0.04315486  0.00616284  1
  Ta  Ta139  1  0.62274317  -0.00815371  0.49417049  1
  Ta  Ta140  1  0.66742946  0.29183753  0.00396133  1
  Ta  Ta141  1  0.70309430  0.34180558  0.49467350  1
  Ta  Ta142  1  0.61789707  0.66405932  0.00335838  1
  Ta  Ta143  1  0.63395274  0.66440194  0.50012485  1
  N  N144  1  0.66610961  -0.00098080  0.12303055  1
  N  N145  1  0.50415530  0.49925068  0.12532699  1
  N  N146  1  0.32866574  0.00275790  0.62694050  1
  N  N147  1  0.49886819  0.16795446  0.88080985  1
  N  N148  1  0.18512537  0.51167102  0.12339775  1
  N  N149  1  0.34701651  0.34068112  0.12595972  1
  N  N150  1  0.50971111  0.49405838  0.38083689  1
  N  N151  1  0.49308104  0.49684196  0.62895979  1
  N  N152  1  0.00026513  0.33270983  0.62405430  1
  N  N153  1  0.65870056  0.67022192  0.12444963  1
  N  N154  1  0.83124562  0.16229292  0.87362575  1
  N  N155  1  0.32381613  0.31870207  0.61696165  1
  N  N156  1  -0.00361623  -0.00004977  0.12388166  1
  N  N157  1  0.64944052  0.66021825  0.87309544  1
  N  N158  1  0.65814830  -0.00258985  0.37650862  1
  N  N159  1  0.49536470  0.16296838  0.62902658  1
  N  N160  1  0.33059775  0.00583168  0.37651827  1
  N  N161  1  0.83661596  0.16970227  0.12702777  1
  N  N162  1  0.17535914  0.83678439  0.62056697  1
  N  N163  1  -0.00176697  -0.01384485  0.37793778  1
  N  N164  1  0.15645028  0.17075669  0.36996023  1
  N  N165  1  0.66243684  0.67116882  0.62585329  1
  N  N166  1  0.33263550  0.00700129  0.12602252  1
  N  N167  1  0.32835792  0.67282001  0.87586103  1
  N  N168  1  0.82908050  0.16866632  0.62345601  1
  N  N169  1  0.83437389  0.49973298  0.87479343  1
  N  N170  1  0.66366544  0.33017566  0.37648663  1
  N  N171  1  0.83738121  0.17341919  0.37098684  1
  N  N172  1  0.32793580  0.33929699  0.87647984  1
  N  N173  1  0.66397689  0.67493721  0.37443379  1
  N  N174  1  -0.01060540  -0.00544947  0.86577663  1
  N  N175  1  0.32746898  0.67383469  0.12568858  1
  N  N176  1  -0.00129371  0.33458731  0.87346473  1
  O  O177  1  0.33198179  0.00340685  0.87953414  1
  O  O178  1  0.16148032  0.17951099  0.62151542  1
  O  O179  1  0.17027183  0.50315413  0.62828625  1
  O  O180  1  0.50020547  0.18080380  0.12254299  1
  O  O181  1  0.86392378  0.48806489  0.37443782  1
  O  O182  1  0.50012664  0.17409231  0.37397114  1
  O  O183  1  0.30951076  0.67820561  0.38026159  1
  O  O184  1  0.51379471  0.83169335  0.37310438  1
  O  O185  1  0.66093833  0.33023660  0.87562435  1
  O  O186  1  0.83688448  0.82680658  0.62280000  1
  O  O187  1  0.17089567  0.52310287  0.37781426  1
  O  O188  1  -0.00473245  0.65502036  0.12004563  1
  O  O189  1  0.67131455  0.33621319  0.62572750  1
  O  O190  1  0.50332301  0.50289695  0.86135373  1
  O  O191  1  0.00453645  0.33016139  0.37627456  1
  O  O192  1  0.30855438  0.67288606  0.62773402  1
  O  O193  1  -0.02054279  0.66950877  0.86924016  1
  O  O194  1  0.84520941  0.48928347  0.62144064  1
  O  O195  1  0.66810571  0.00360300  0.87700955  1
  O  O196  1  -0.00514858  0.66556695  0.37951449  1
  O  O197  1  0.51195784  0.82544021  0.12446487  1
  O  O198  1  0.14281499  0.15988598  0.12235995  1
  O  O199  1  0.85194589  0.82818280  0.13102266  1
  O  O200  1  0.17441610  0.86346469  0.87391006  1
  O  O201  1  0.65545511  0.00353159  0.62601685  1
  O  O202  1  0.84538357  0.82716317  0.37251054  1
  O  O203  1  -0.00773452  0.33068041  0.12645004  1
  O  O204  1  0.16053116  0.16758352  0.87881547  1
  O  O205  1  0.17400681  0.83474440  0.37513161  1
  O  O206  1  0.00623835  -0.01759374  0.63200208  1
  O  O207  1  0.66574789  0.30932526  0.13077535  1
  O  O208  1  0.85921980  0.49718675  0.12753364  1
  O  O209  1  0.48286849  0.81726130  0.87736733  1
  O  O210  1  0.86035397  0.83005315  0.88121381  1
  O  O211  1  -0.00863537  0.67565666  0.63052871  1
  O  O212  1  0.33879168  0.31700645  0.37357281  1
  O  O213  1  0.17341131  0.84668578  0.12087161  1
  O  O214  1  0.48672644  0.83637074  0.62227749  1
  O  O215  1  0.18029054  0.50045945  0.87219417  1
