# generated using pymatgen
data_Sr24Ta24N11O13
_symmetry_space_group_name_H-M   'P 1'
_cell_length_a   18.10287871
_cell_length_b   16.41001546
_cell_length_c   15.25771646
_cell_angle_alpha   89.97909777
_cell_angle_beta   89.17255539
_cell_angle_gamma   90.61569724
_symmetry_Int_Tables_number   1
_chemical_formula_structural   Sr24Ta24N11O13
_chemical_formula_sum   'Sr72 Ta72 N33 O39'
_cell_volume   4531.85230274
_cell_formula_units_Z   3
loop_
 _symmetry_equiv_pos_site_id
 _symmetry_equiv_pos_as_xyz
  1  'x, y, z'
loop_
 _atom_site_type_symbol
 _atom_site_label
 _atom_site_symmetry_multiplicity
 _atom_site_fract_x
 _atom_site_fract_y
 _atom_site_fract_z
 _atom_site_occupancy
  Sr  Sr0  1  -0.00490784  0.15804760  0.11492480  1
  Sr  Sr1  1  0.04645038  0.15768414  0.60586851  1
  Sr  Sr2  1  0.00556027  0.51004795  0.10475982  1
  Sr  Sr3  1  0.02040120  0.49787560  0.63594280  1
  Sr  Sr4  1  0.02269703  0.83238475  0.14824128  1
  Sr  Sr5  1  0.03886237  0.83335871  0.61437532  1
  Sr  Sr6  1  0.38376595  0.17063167  0.11232523  1
  Sr  Sr7  1  0.34225232  0.16445411  0.64067800  1
  Sr  Sr8  1  0.38307046  0.49777755  0.13393870  1
  Sr  Sr9  1  0.35667524  0.50022795  0.62137932  1
  Sr  Sr10  1  0.35700826  0.83397039  0.12316879  1
  Sr  Sr11  1  0.37017151  0.83154378  0.61094216  1
  Sr  Sr12  1  0.69195190  0.15605387  0.13083889  1
  Sr  Sr13  1  0.67992396  0.16817203  0.61758530  1
  Sr  Sr14  1  0.68614645  0.49623579  0.12318902  1
  Sr  Sr15  1  0.69547610  0.49389537  0.60548987  1
  Sr  Sr16  1  0.69873504  0.83538766  0.11738124  1
  Sr  Sr17  1  0.67098989  0.82667527  0.63836706  1
  Sr  Sr18  1  0.12244919  0.01009277  0.14196173  1
  Sr  Sr19  1  0.16505745  0.00488249  0.63648648  1
  Sr  Sr20  1  0.11738354  0.33208000  0.13266496  1
  Sr  Sr21  1  0.14703140  0.34164496  0.61218438  1
  Sr  Sr22  1  0.13104152  0.66714065  0.12420100  1
  Sr  Sr23  1  0.14341019  0.65969147  0.63409212  1
  Sr  Sr24  1  0.49200854  -0.00219236  0.12681507  1
  Sr  Sr25  1  0.47158716  0.01249707  0.62093673  1
  Sr  Sr26  1  0.50478216  0.33946311  0.10859796  1
  Sr  Sr27  1  0.46524833  0.32950835  0.62801705  1
  Sr  Sr28  1  0.48377052  0.67521852  0.13248620  1
  Sr  Sr29  1  0.48070621  0.66810504  0.63145377  1
  Sr  Sr30  1  0.81672351  0.00596144  0.10881291  1
  Sr  Sr31  1  0.78626888  -0.00279725  0.64206842  1
  Sr  Sr32  1  0.79651996  0.33206412  0.15700271  1
  Sr  Sr33  1  0.81177801  0.33431788  0.62282720  1
  Sr  Sr34  1  0.81644720  0.65903707  0.12097556  1
  Sr  Sr35  1  0.79616720  0.67031547  0.61237386  1
  Sr  Sr36  1  0.02085121  0.15976216  0.36979707  1
  Sr  Sr37  1  0.01620053  0.15021781  0.89275315  1
  Sr  Sr38  1  0.04118769  0.49565572  0.36505130  1
  Sr  Sr39  1  0.00356447  0.50323300  0.87175743  1
  Sr  Sr40  1  0.01900784  0.84045609  0.38210344  1
  Sr  Sr41  1  0.03776251  0.83417946  0.84080150  1
  Sr  Sr42  1  0.35382239  0.16421096  0.36350457  1
  Sr  Sr43  1  0.34004494  0.17105565  0.87302472  1
  Sr  Sr44  1  0.34737107  0.50083285  0.36940248  1
  Sr  Sr45  1  0.36048476  0.49602501  0.87938144  1
  Sr  Sr46  1  0.35362717  0.83476715  0.36413974  1
  Sr  Sr47  1  0.33975244  0.82419862  0.90341998  1
  Sr  Sr48  1  0.69221464  0.16422481  0.37787985  1
  Sr  Sr49  1  0.70980240  0.16298089  0.84540467  1
  Sr  Sr50  1  0.69743109  0.49747989  0.36941539  1
  Sr  Sr51  1  0.69086547  0.49010269  0.87831513  1
  Sr  Sr52  1  0.70130060  0.83426717  0.38708488  1
  Sr  Sr53  1  0.69951535  0.83489678  0.86298522  1
  Sr  Sr54  1  0.14981652  0.00307828  0.38068291  1
  Sr  Sr55  1  0.15623946  0.01519948  0.86045514  1
  Sr  Sr56  1  0.15198910  0.32754109  0.36714054  1
  Sr  Sr57  1  0.13574560  0.34370425  0.90066597  1
  Sr  Sr58  1  0.14389467  0.66951790  0.37287647  1
  Sr  Sr59  1  0.15392205  0.66340045  0.88608046  1
  Sr  Sr60  1  0.46875831  0.00213058  0.37027767  1
  Sr  Sr61  1  0.45366403  0.00655423  0.90061388  1
  Sr  Sr62  1  0.46177033  0.33355469  0.36386570  1
  Sr  Sr63  1  0.48313993  0.33529878  0.88373383  1
  Sr  Sr64  1  0.46256409  0.66786240  0.37539977  1
  Sr  Sr65  1  0.46915484  0.66942503  0.86775933  1
  Sr  Sr66  1  0.80896923  0.00384986  0.39204581  1
  Sr  Sr67  1  0.82792269  0.00438290  0.87756898  1
  Sr  Sr68  1  0.81206134  0.32652755  0.39242424  1
  Sr  Sr69  1  0.81709655  0.33590828  0.83836901  1
  Sr  Sr70  1  0.81435592  0.66704674  0.37672535  1
  Sr  Sr71  1  0.80697509  0.66855729  0.88577600  1
  Ta  Ta72  1  0.20299803  0.17023627  0.01725415  1
  Ta  Ta73  1  0.21085625  0.17085217  0.49982423  1
  Ta  Ta74  1  0.21430509  0.49634559  0.02829430  1
  Ta  Ta75  1  0.20391191  0.50364218  0.49182223  1
  Ta  Ta76  1  0.17209219  0.86138928  -0.00295154  1
  Ta  Ta77  1  0.21020463  0.83226552  0.50418555  1
  Ta  Ta78  1  0.55556298  0.16335136  -0.02181018  1
  Ta  Ta79  1  0.53075254  0.17212582  0.49249995  1
  Ta  Ta80  1  0.53865148  0.52308989  -0.00210313  1
  Ta  Ta81  1  0.53751615  0.49752008  0.49792106  1
  Ta  Ta82  1  0.54372056  0.83316053  -0.00789771  1
  Ta  Ta83  1  0.53936747  0.83882547  0.50086695  1
  Ta  Ta84  1  0.84163174  0.20120707  -0.00547108  1
  Ta  Ta85  1  0.87666075  0.16373209  0.52592007  1
  Ta  Ta86  1  0.84774093  0.46800295  0.00499663  1
  Ta  Ta87  1  0.88653383  0.50162085  0.49698449  1
  Ta  Ta88  1  0.87912018  0.83595907  -0.01136717  1
  Ta  Ta89  1  0.87258926  0.83611755  0.52413836  1
  Ta  Ta90  1  0.21299034  0.16926502  0.22491705  1
  Ta  Ta91  1  0.17671053  0.20051564  0.75833074  1
  Ta  Ta92  1  0.21020625  0.49865647  0.23021584  1
  Ta  Ta93  1  0.20512984  0.49571221  0.75849198  1
  Ta  Ta94  1  0.20312582  0.83745879  0.24374589  1
  Ta  Ta95  1  0.22206252  0.82625194  0.74955374  1
  Ta  Ta96  1  0.54240509  0.16768563  0.25427071  1
  Ta  Ta97  1  0.53484449  0.16750538  0.76678029  1
  Ta  Ta98  1  0.54328107  0.50659626  0.25846010  1
  Ta  Ta99  1  0.54310013  0.49467867  0.73816139  1
  Ta  Ta100  1  0.54760792  0.83449298  0.25844077  1
  Ta  Ta101  1  0.51612749  0.85961730  0.75754245  1
  Ta  Ta102  1  0.86191788  0.16285165  0.25363561  1
  Ta  Ta103  1  0.88660748  0.16210210  0.73628194  1
  Ta  Ta104  1  0.87777596  0.49585734  0.25430991  1
  Ta  Ta105  1  0.85474201  0.52234588  0.73897281  1
  Ta  Ta106  1  0.86375027  0.83721545  0.25336078  1
  Ta  Ta107  1  0.87513072  0.83224421  0.73847943  1
  Ta  Ta108  1  -0.04916954  -0.00422486  0.25282396  1
  Ta  Ta109  1  -0.03411639  -0.00032605  0.72632783  1
  Ta  Ta110  1  -0.04429300  0.33253066  0.25341388  1
  Ta  Ta111  1  -0.00859892  0.29704555  0.74861106  1
  Ta  Ta112  1  -0.03986207  0.66349757  0.25006666  1
  Ta  Ta113  1  -0.05250883  0.66716645  0.74286908  1
  Ta  Ta114  1  0.29130359  0.00304949  0.23636460  1
  Ta  Ta115  1  0.31857433  -0.02622605  0.75501251  1
  Ta  Ta116  1  0.29434212  0.33158494  0.22316737  1
  Ta  Ta117  1  0.28730255  0.34166876  0.75489544  1
  Ta  Ta118  1  0.28892328  0.66407871  0.23925266  1
  Ta  Ta119  1  0.30197666  0.66491017  0.75682765  1
  Ta  Ta120  1  0.63728374  -0.00722235  0.24523740  1
  Ta  Ta121  1  0.61196831  0.00353595  0.77334854  1
  Ta  Ta122  1  0.62703257  0.32986891  0.25711166  1
  Ta  Ta123  1  0.62885789  0.33325045  0.74471166  1
  Ta  Ta124  1  0.63053944  0.67201030  0.25843909  1
  Ta  Ta125  1  0.63482518  0.64024885  0.74313179  1
  Ta  Ta126  1  -0.01194722  -0.03726024  -0.00418000  1
  Ta  Ta127  1  -0.04521065  -0.00159647  0.52307457  1
  Ta  Ta128  1  -0.05512784  0.33383622  -0.00129916  1
  Ta  Ta129  1  -0.03091778  0.33068283  0.50479962  1
  Ta  Ta130  1  -0.02737730  0.70236850  -0.00436975  1
  Ta  Ta131  1  -0.03960192  0.66483333  0.50422580  1
  Ta  Ta132  1  0.28241402  0.00657474  0.01527845  1
  Ta  Ta133  1  0.30100732  -0.00034843  0.49802840  1
  Ta  Ta134  1  0.29281526  0.33601546  0.02343557  1
  Ta  Ta135  1  0.29967397  0.33101344  0.49970699  1
  Ta  Ta136  1  0.29995154  0.64666315  0.01956232  1
  Ta  Ta137  1  0.29296509  0.66830030  0.49612840  1
  Ta  Ta138  1  0.63407880  -0.00035742  -0.01731007  1
  Ta  Ta139  1  0.62399088  -0.00214639  0.50329943  1
  Ta  Ta140  1  0.66930693  0.30900756  -0.00445988  1
  Ta  Ta141  1  0.61888563  0.33256828  0.48566219  1
  Ta  Ta142  1  0.62742180  0.67147474  -0.00596708  1
  Ta  Ta143  1  0.61823878  0.66269860  0.49489341  1
  N  N144  1  0.65491515  -0.00356935  0.11790134  1
  N  N145  1  0.36281751  0.33217969  0.12049373  1
  N  N146  1  0.31827105  0.33829599  0.62496649  1
  N  N147  1  0.31746120  0.00337085  0.36005844  1
  N  N148  1  0.65522386  0.33211392  0.12497929  1
  N  N149  1  -0.01972860  0.67048852  0.12178842  1
  N  N150  1  0.31624712  0.66098904  0.88326437  1
  N  N151  1  0.84371859  0.16633508  0.12746530  1
  N  N152  1  0.81805694  0.17019825  0.63592515  1
  N  N153  1  0.83979759  0.49499250  0.61405706  1
  N  N154  1  0.49818192  0.49271546  0.61625472  1
  N  N155  1  0.48431695  0.17274305  0.88369143  1
  N  N156  1  0.17875170  0.83142199  0.87539885  1
  N  N157  1  0.34949603  0.67185310  0.13248377  1
  N  N158  1  0.52817954  0.50521716  0.12786677  1
  N  N159  1  0.49541377  0.16150741  0.37176835  1
  N  N160  1  0.65280569  0.66586569  0.61519051  1
  N  N161  1  0.67397581  0.33567238  0.37669480  1
  N  N162  1  0.02649748  -0.00578001  0.61871009  1
  N  N163  1  0.80955025  0.83427732  0.62879434  1
  N  N164  1  0.66751620  0.33536628  0.86145264  1
  N  N165  1  0.30956129  0.00306552  0.89163091  1
  N  N166  1  0.84126354  0.49864725  0.13154848  1
  N  N167  1  -0.02207923  -0.00591367  0.12199381  1
  N  N168  1  0.51362311  0.83732555  0.63027088  1
  N  N169  1  0.18827376  0.17002077  0.62973268  1
  N  N170  1  0.31928473  0.66912791  0.37011893  1
  N  N171  1  0.84225725  0.83869905  0.86114187  1
  N  N172  1  0.68756069  -0.00358546  0.86460432  1
  N  N173  1  0.18781459  0.49673636  0.36398993  1
  N  N174  1  0.17693428  0.17653392  0.89388188  1
  N  N175  1  0.85426009  0.16660383  0.86910181  1
  N  N176  1  0.32704005  0.00150067  0.62857157  1
  O  O177  1  0.84690387  0.49785683  0.87152213  1
  O  O178  1  0.67681461  0.67378187  0.37875433  1
  O  O179  1  0.48596338  0.82523471  0.88125600  1
  O  O180  1  0.63389731  0.00820339  0.63533989  1
  O  O181  1  0.48653056  0.50283969  0.37289287  1
  O  O182  1  0.65736155  -0.00088096  0.38061968  1
  O  O183  1  0.84919447  0.83068980  0.38580635  1
  O  O184  1  0.00313358  0.66374085  0.62504585  1
  O  O185  1  -0.01159231  0.67886767  0.38001695  1
  O  O186  1  0.49897927  0.83118628  0.37531189  1
  O  O187  1  0.13758924  0.49003272  0.13015147  1
  O  O188  1  0.35484016  -0.00600647  0.12142962  1
  O  O189  1  0.66629595  0.32874426  0.61227436  1
  O  O190  1  0.54669593  0.83548777  0.12194976  1
  O  O191  1  0.84475495  0.83313701  0.12631964  1
  O  O192  1  0.33668155  0.66237758  0.61955066  1
  O  O193  1  0.84688770  0.16314189  0.39527956  1
  O  O194  1  0.19948303  0.49543441  0.89051660  1
  O  O195  1  0.52847310  0.16063581  0.11644339  1
  O  O196  1  -0.00686242  0.34301665  0.63337007  1
  O  O197  1  0.83242272  0.50026694  0.38245461  1
  O  O198  1  0.13229358  0.17520207  0.12745077  1
  O  O199  1  0.31485729  0.33866156  0.88589507  1
  O  O200  1  0.17137299  0.82512452  0.12489484  1
  O  O201  1  0.17494547  0.82572711  0.63297435  1
  O  O202  1  0.20217910  0.17087214  0.35742013  1
  O  O203  1  -0.02977485  0.32992533  0.12629613  1
  O  O204  1  0.31380588  0.33438625  0.35617983  1
  O  O205  1  0.51203563  0.49591879  0.87233436  1
  O  O206  1  0.18594210  0.50213260  0.63095979  1
  O  O207  1  0.51614812  0.16846889  0.62926320  1
  O  O208  1  -0.02249490  0.34106487  0.86835580  1
  O  O209  1  -0.00739768  -0.00668328  0.86272653  1
  O  O210  1  -0.02499226  -0.00061781  0.38363537  1
  O  O211  1  0.63546579  0.67510857  0.12965841  1
  O  O212  1  0.65888769  0.67179843  0.86580297  1
  O  O213  1  0.19993437  0.83825250  0.37807970  1
  O  O214  1  -0.01689114  0.32093273  0.38063500  1
  O  O215  1  -0.04116323  0.65610615  0.87412120  1
