# generated using pymatgen
data_Sr24Ta24N11O13
_symmetry_space_group_name_H-M   'P 1'
_cell_length_a   16.75419867
_cell_length_b   16.75919620
_cell_length_c   15.74836119
_cell_angle_alpha   90.06448198
_cell_angle_beta   89.78089356
_cell_angle_gamma   90.07982842
_symmetry_Int_Tables_number   1
_chemical_formula_structural   Sr24Ta24N11O13
_chemical_formula_sum   'Sr72 Ta72 N33 O39'
_cell_volume   4421.89416294
_cell_formula_units_Z   3
loop_
 _symmetry_equiv_pos_site_id
 _symmetry_equiv_pos_as_xyz
  1  'x, y, z'
loop_
 _atom_site_type_symbol
 _atom_site_label
 _atom_site_symmetry_multiplicity
 _atom_site_fract_x
 _atom_site_fract_y
 _atom_site_fract_z
 _atom_site_occupancy
  Sr  Sr0  1  0.01604555  0.17176615  0.08188770  1
  Sr  Sr1  1  -0.01727400  0.14474522  0.63219878  1
  Sr  Sr2  1  -0.01679875  0.50238547  0.16996979  1
  Sr  Sr3  1  -0.00241747  0.49230443  0.63009378  1
  Sr  Sr4  1  0.01281007  0.84940885  0.12274018  1
  Sr  Sr5  1  -0.01602418  0.82381297  0.59420390  1
  Sr  Sr6  1  0.33224746  0.17268569  0.15136943  1
  Sr  Sr7  1  0.32702876  0.17110551  0.63675292  1
  Sr  Sr8  1  0.34444390  0.49811695  0.13723015  1
  Sr  Sr9  1  0.32592206  0.49644532  0.57892721  1
  Sr  Sr10  1  0.33062280  0.86861249  0.10860546  1
  Sr  Sr11  1  0.33063344  0.83345499  0.63402785  1
  Sr  Sr12  1  0.66930111  0.17082172  0.13131299  1
  Sr  Sr13  1  0.65679929  0.14654854  0.57531730  1
  Sr  Sr14  1  0.69448808  0.49995830  0.07318541  1
  Sr  Sr15  1  0.65822615  0.49612994  0.63539110  1
  Sr  Sr16  1  0.66293221  0.83034347  0.12278115  1
  Sr  Sr17  1  0.67314318  0.83564849  0.66093266  1
  Sr  Sr18  1  0.16003939  0.00110674  0.11438763  1
  Sr  Sr19  1  0.18260144  0.00326055  0.67349677  1
  Sr  Sr20  1  0.16545309  0.32959674  0.09391573  1
  Sr  Sr21  1  0.16581110  0.33998751  0.61978669  1
  Sr  Sr22  1  0.17258222  0.63451653  0.13848901  1
  Sr  Sr23  1  0.17649249  0.67525527  0.62338059  1
  Sr  Sr24  1  0.51243260  -0.00404798  0.08771895  1
  Sr  Sr25  1  0.50054782  0.00241729  0.60609283  1
  Sr  Sr26  1  0.48146156  0.32558687  0.16612261  1
  Sr  Sr27  1  0.50987315  0.35215261  0.61445145  1
  Sr  Sr28  1  0.49479560  0.65685482  0.13111770  1
  Sr  Sr29  1  0.52088720  0.67837030  0.66413559  1
  Sr  Sr30  1  0.81600512  -0.00362615  0.17201947  1
  Sr  Sr31  1  0.83671106  0.00143299  0.61359000  1
  Sr  Sr32  1  0.82993051  0.31880787  0.11230789  1
  Sr  Sr33  1  0.82976654  0.34868647  0.66987705  1
  Sr  Sr34  1  0.83101634  0.66868545  0.12710779  1
  Sr  Sr35  1  0.83431817  0.65652300  0.58824855  1
  Sr  Sr36  1  0.00543640  0.16236152  0.40953739  1
  Sr  Sr37  1  -0.01997684  0.14555275  0.86151047  1
  Sr  Sr38  1  -0.01111151  0.49387039  0.36959673  1
  Sr  Sr39  1  0.01184183  0.49763005  0.83101778  1
  Sr  Sr40  1  0.00860385  0.84654600  0.38125807  1
  Sr  Sr41  1  -0.00256494  0.81685249  0.91039715  1
  Sr  Sr42  1  0.32384955  0.16210050  0.36167497  1
  Sr  Sr43  1  0.33862216  0.18608552  0.84088664  1
  Sr  Sr44  1  0.33381662  0.51511066  0.36277009  1
  Sr  Sr45  1  0.31451906  0.50291886  0.92182486  1
  Sr  Sr46  1  0.34032223  0.84798835  0.39284362  1
  Sr  Sr47  1  0.31928162  0.84749588  0.86584754  1
  Sr  Sr48  1  0.67482980  0.18042039  0.35794204  1
  Sr  Sr49  1  0.65962051  0.16274253  0.90630398  1
  Sr  Sr50  1  0.66871030  0.50986413  0.41785705  1
  Sr  Sr51  1  0.64966769  0.48334827  0.85443055  1
  Sr  Sr52  1  0.67414668  0.81914206  0.33141678  1
  Sr  Sr53  1  0.66835610  0.84070084  0.87498630  1
  Sr  Sr54  1  0.18601311  -0.00271840  0.33206099  1
  Sr  Sr55  1  0.15894451  -0.00848479  0.89059810  1
  Sr  Sr56  1  0.15288133  0.32208993  0.41301092  1
  Sr  Sr57  1  0.17171326  0.34228695  0.88020309  1
  Sr  Sr58  1  0.18262582  0.66907781  0.38524764  1
  Sr  Sr59  1  0.15903808  0.65746576  0.86440518  1
  Sr  Sr60  1  0.49699860  0.00168003  0.40735771  1
  Sr  Sr61  1  0.51399383  0.00953981  0.89267338  1
  Sr  Sr62  1  0.51321088  0.34698692  0.38445892  1
  Sr  Sr63  1  0.49088710  0.33075302  0.84170699  1
  Sr  Sr64  1  0.50680615  0.68002644  0.34332644  1
  Sr  Sr65  1  0.49331267  0.64717622  0.87388213  1
  Sr  Sr66  1  0.84020914  0.00917612  0.38928980  1
  Sr  Sr67  1  0.82837037  -0.01123384  0.83110922  1
  Sr  Sr68  1  0.83727321  0.33169776  0.33462256  1
  Sr  Sr69  1  0.82124849  0.32015453  0.88781105  1
  Sr  Sr70  1  0.83789667  0.65766079  0.37531161  1
  Sr  Sr71  1  0.83126748  0.67873758  0.91865691  1
  Ta  Ta72  1  0.21397925  0.16590989  -0.00495042  1
  Ta  Ta73  1  0.17689509  0.13075299  0.50052755  1
  Ta  Ta74  1  0.10391551  0.49787423  0.00222263  1
  Ta  Ta75  1  0.14128900  0.51326779  0.49893772  1
  Ta  Ta76  1  0.17762550  0.79648342  0.00780960  1
  Ta  Ta77  1  0.17204899  0.86780467  0.49953982  1
  Ta  Ta78  1  0.47772790  0.19221918  -0.00397735  1
  Ta  Ta79  1  0.46940827  0.18659128  0.49351164  1
  Ta  Ta80  1  0.50059774  0.46623407  -0.00214337  1
  Ta  Ta81  1  0.49829945  0.55406029  0.50582213  1
  Ta  Ta82  1  0.49191098  0.80240593  0.00031621  1
  Ta  Ta83  1  0.52648605  0.81446973  0.50076504  1
  Ta  Ta84  1  0.83088348  0.11368491  0.00108757  1
  Ta  Ta85  1  0.83234377  0.21117518  0.50069813  1
  Ta  Ta86  1  0.89404285  0.49939149  -0.00348645  1
  Ta  Ta87  1  0.83967092  0.46067415  0.49758708  1
  Ta  Ta88  1  0.82937212  0.87716857  0.00161262  1
  Ta  Ta89  1  0.79599862  0.82957785  0.49358705  1
  Ta  Ta90  1  0.14082219  0.18719599  0.25403929  1
  Ta  Ta91  1  0.14662667  0.18832314  0.75072232  1
  Ta  Ta92  1  0.16007267  0.45277644  0.25741396  1
  Ta  Ta93  1  0.20711417  0.50241417  0.74364137  1
  Ta  Ta94  1  0.17519316  0.81044330  0.24737944  1
  Ta  Ta95  1  0.12655613  0.82704347  0.75698213  1
  Ta  Ta96  1  0.50351994  0.13063158  0.25313974  1
  Ta  Ta97  1  0.52309193  0.15363890  0.74752686  1
  Ta  Ta98  1  0.55196924  0.50374811  0.24918149  1
  Ta  Ta99  1  0.44499814  0.50181062  0.74786328  1
  Ta  Ta100  1  0.48509236  0.86210314  0.24316089  1
  Ta  Ta101  1  0.49545051  0.86685567  0.75573131  1
  Ta  Ta102  1  0.88706368  0.16425563  0.25034930  1
  Ta  Ta103  1  0.78507578  0.16556030  0.73950700  1
  Ta  Ta104  1  0.78969897  0.50038204  0.25226157  1
  Ta  Ta105  1  0.83383339  0.54988585  0.75543547  1
  Ta  Ta106  1  0.86524431  0.82058075  0.25359966  1
  Ta  Ta107  1  0.85155236  0.80075653  0.75748541  1
  Ta  Ta108  1  0.00219817  0.03141070  0.24573241  1
  Ta  Ta109  1  0.00387033  -0.04870946  0.75150007  1
  Ta  Ta110  1  0.02079037  0.30688009  0.25004663  1
  Ta  Ta111  1  0.01390362  0.30773783  0.75009349  1
  Ta  Ta112  1  0.00893180  0.69707937  0.25342024  1
  Ta  Ta113  1  -0.02693254  0.68311069  0.75457595  1
  Ta  Ta114  1  0.38704612  -0.00027190  0.24835922  1
  Ta  Ta115  1  0.37433653  0.00482773  0.75272967  1
  Ta  Ta116  1  0.28307271  0.33686220  0.24867683  1
  Ta  Ta117  1  0.32603231  0.37704079  0.75217103  1
  Ta  Ta118  1  0.33074065  0.71285657  0.25168400  1
  Ta  Ta119  1  0.33081299  0.62560680  0.74747515  1
  Ta  Ta120  1  0.62196901  -0.00084519  0.24802174  1
  Ta  Ta121  1  0.65227572  0.02646659  0.74599569  1
  Ta  Ta122  1  0.66505695  0.37799772  0.25172968  1
  Ta  Ta123  1  0.65924573  0.27899930  0.73825372  1
  Ta  Ta124  1  0.67214469  0.62387410  0.24657867  1
  Ta  Ta125  1  0.71636282  0.66332843  0.75427265  1
  Ta  Ta126  1  -0.04557152  -0.00343829  -0.00200363  1
  Ta  Ta127  1  0.06010469  -0.00471267  0.50951044  1
  Ta  Ta128  1  -0.00549121  0.36808025  -0.00313754  1
  Ta  Ta129  1  -0.04795850  0.33323925  0.50369035  1
  Ta  Ta130  1  0.00747814  0.63090830  0.00122092  1
  Ta  Ta131  1  0.01736936  0.64683514  0.49571429  1
  Ta  Ta132  1  0.33495161  0.05041559  -0.00869849  1
  Ta  Ta133  1  0.30116726  0.01061628  0.50826047  1
  Ta  Ta134  1  0.35254011  0.31659779  0.00065253  1
  Ta  Ta135  1  0.34114304  0.31203867  0.49787246  1
  Ta  Ta136  1  0.33289991  0.69512408  -0.00011228  1
  Ta  Ta137  1  0.38030124  0.67876161  0.50003147  1
  Ta  Ta138  1  0.70626040  -0.00309036  0.00049122  1
  Ta  Ta139  1  0.66849798  -0.05479154  0.49906967  1
  Ta  Ta140  1  0.61379433  0.33052362  0.00230373  1
  Ta  Ta141  1  0.70928435  0.33148761  0.50001481  1
  Ta  Ta142  1  0.63989811  0.67646711  0.00057300  1
  Ta  Ta143  1  0.64982089  0.69771496  0.49454561  1
  N  N144  1  0.16964764  0.84482666  0.12304188  1
  N  N145  1  0.15800328  0.82180026  0.87971816  1
  N  N146  1  0.83252708  0.83238814  0.87744468  1
  N  N147  1  0.48211486  0.49177385  0.87924563  1
  N  N148  1  0.67226291  0.34183367  0.37282403  1
  N  N149  1  -0.00880711  -0.01293969  0.87595895  1
  N  N150  1  0.00111121  0.66330946  0.37359104  1
  N  N151  1  0.34758327  0.68742158  0.37435414  1
  N  N152  1  0.16867988  0.49777636  0.62562095  1
  N  N153  1  0.16481206  0.16277130  0.37432483  1
  N  N154  1  0.49888570  0.16976035  0.87288926  1
  N  N155  1  -0.00031299  0.00854141  0.12520137  1
  N  N156  1  0.01175189  -0.01146429  0.62665139  1
  N  N157  1  0.50184675  0.17146114  0.37412975  1
  N  N158  1  0.66570190  0.32432497  0.62349442  1
  N  N159  1  0.82792568  0.49374686  0.37597682  1
  N  N160  1  0.33440991  0.00500696  0.62682789  1
  N  N161  1  0.49408851  0.51677048  0.62276708  1
  N  N162  1  0.17500917  0.84441827  0.37698415  1
  N  N163  1  0.82298112  0.16593105  0.62133507  1
  N  N164  1  0.32836683  0.34566146  0.87663749  1
  N  N165  1  0.33496449  0.01194450  0.87206652  1
  N  N166  1  0.83668329  0.83561203  0.37297103  1
  N  N167  1  0.66301497  -0.00180118  0.12966613  1
  N  N168  1  0.32284143  0.33584548  0.12833315  1
  N  N169  1  0.66726474  0.66031613  0.11776532  1
  N  N170  1  0.66622412  -0.01140453  0.61693925  1
  N  N171  1  0.16418918  0.48865732  0.37723332  1
  N  N172  1  0.67195406  0.00112982  0.86733531  1
  N  N173  1  0.49909137  0.83376408  0.12160557  1
  N  N174  1  0.84681647  0.17293098  0.36655499  1
  N  N175  1  -0.00187583  0.65862317  0.87433938  1
  N  N176  1  0.66751903  0.66748866  0.37564213  1
  O  O177  1  0.17303948  0.83202575  0.63606091  1
  O  O178  1  0.15853116  0.49941423  0.87300341  1
  O  O179  1  -0.00193826  0.32185069  0.37874923  1
  O  O180  1  0.17314807  0.17244346  0.11836613  1
  O  O181  1  0.51494061  0.52075419  0.37411818  1
  O  O182  1  0.33643679  0.67885378  0.12533641  1
  O  O183  1  0.17013585  0.18254734  0.87336185  1
  O  O184  1  0.50239050  0.49436946  0.13090488  1
  O  O185  1  0.16164137  0.17131641  0.62445497  1
  O  O186  1  0.63963485  0.33168902  0.12655776  1
  O  O187  1  0.67468160  0.66900571  0.87421711  1
  O  O188  1  0.34280445  0.00432761  0.37496681  1
  O  O189  1  0.49593151  0.16458398  0.61525420  1
  O  O190  1  0.84304078  0.15950397  0.12263559  1
  O  O191  1  0.02220456  0.00757212  0.38313979  1
  O  O192  1  0.35802586  0.01927569  0.11962623  1
  O  O193  1  0.64870701  -0.02317763  0.37325803  1
  O  O194  1  0.85829477  0.51272971  0.87417303  1
  O  O195  1  0.67953926  0.67628480  0.63044482  1
  O  O196  1  0.64304967  0.31940520  0.87572295  1
  O  O197  1  -0.00983353  0.66550606  0.61989510  1
  O  O198  1  0.84109877  0.50559454  0.63238693  1
  O  O199  1  0.33254647  0.66594451  0.87414288  1
  O  O200  1  0.82951694  0.81470379  0.61775830  1
  O  O201  1  0.49487442  0.85041068  0.88124505  1
  O  O202  1  0.82227544  0.15623476  0.87768168  1
  O  O203  1  0.33885041  0.67113452  0.62425655  1
  O  O204  1  0.83847331  0.49991880  0.12750849  1
  O  O205  1  0.13406930  0.48379431  0.13016188  1
  O  O206  1  0.00069431  0.32668685  0.87239973  1
  O  O207  1  0.83695773  0.84276945  0.13082437  1
  O  O208  1  0.51141266  0.83897973  0.63321235  1
  O  O209  1  0.49334213  0.17019482  0.13171628  1
  O  O210  1  0.31804556  0.32044052  0.37574098  1
  O  O211  1  0.33045453  0.33557281  0.62279708  1
  O  O212  1  0.50732690  0.83301921  0.37506127  1
  O  O213  1  -0.00243255  0.32331170  0.62385128  1
  O  O214  1  0.00765141  0.65749815  0.13385636  1
  O  O215  1  0.00582287  0.32743628  0.12446773  1
