# generated using pymatgen
data_Sr24Ta24N11O13
_symmetry_space_group_name_H-M   'P 1'
_cell_length_a   16.83585916
_cell_length_b   16.82379714
_cell_length_c   15.70389871
_cell_angle_alpha   90.15802869
_cell_angle_beta   90.04482873
_cell_angle_gamma   89.84760582
_symmetry_Int_Tables_number   1
_chemical_formula_structural   Sr24Ta24N11O13
_chemical_formula_sum   'Sr72 Ta72 N33 O39'
_cell_volume   4447.98663963
_cell_formula_units_Z   3
loop_
 _symmetry_equiv_pos_site_id
 _symmetry_equiv_pos_as_xyz
  1  'x, y, z'
loop_
 _atom_site_type_symbol
 _atom_site_label
 _atom_site_symmetry_multiplicity
 _atom_site_fract_x
 _atom_site_fract_y
 _atom_site_fract_z
 _atom_site_occupancy
  Sr  Sr0  1  0.01281757  0.17125666  0.14635726  1
  Sr  Sr1  1  0.00264059  0.15986985  0.58433461  1
  Sr  Sr2  1  -0.01320756  0.49777845  0.08390161  1
  Sr  Sr3  1  -0.00155601  0.48206667  0.62492773  1
  Sr  Sr4  1  -0.02003282  0.80003554  0.14199821  1
  Sr  Sr5  1  -0.01340304  0.82657888  0.63353196  1
  Sr  Sr6  1  0.38239202  0.17253294  0.17081056  1
  Sr  Sr7  1  0.33165219  0.16402709  0.61996669  1
  Sr  Sr8  1  0.34107268  0.48848566  0.11144524  1
  Sr  Sr9  1  0.32563805  0.51558245  0.67998905  1
  Sr  Sr10  1  0.31986477  0.84871078  0.13303567  1
  Sr  Sr11  1  0.32344721  0.82241607  0.58342650  1
  Sr  Sr12  1  0.66418441  0.17470398  0.07674856  1
  Sr  Sr13  1  0.67648265  0.15795242  0.63690227  1
  Sr  Sr14  1  0.67706791  0.48901445  0.16751832  1
  Sr  Sr15  1  0.66046616  0.50692578  0.61477585  1
  Sr  Sr16  1  0.65918818  0.82113216  0.11851424  1
  Sr  Sr17  1  0.62622836  0.82573937  0.65758174  1
  Sr  Sr18  1  0.16114122  0.00340599  0.11171450  1
  Sr  Sr19  1  0.18284229  0.00047864  0.62623173  1
  Sr  Sr20  1  0.15612232  0.34490690  0.09689424  1
  Sr  Sr21  1  0.17341849  0.32962550  0.63027479  1
  Sr  Sr22  1  0.18398096  0.67929567  0.14601911  1
  Sr  Sr23  1  0.17389064  0.67601231  0.63724384  1
  Sr  Sr24  1  0.50189170  -0.01614149  0.11589077  1
  Sr  Sr25  1  0.50833818  0.00484352  0.67100652  1
  Sr  Sr26  1  0.49694011  0.34460867  0.13391417  1
  Sr  Sr27  1  0.50915531  0.30748993  0.56941279  1
  Sr  Sr28  1  0.49597945  0.65803734  0.07845192  1
  Sr  Sr29  1  0.49657371  0.66302135  0.63246296  1
  Sr  Sr30  1  0.84947122  0.03299616  0.11958290  1
  Sr  Sr31  1  0.84343948  0.00564347  0.61932297  1
  Sr  Sr32  1  0.82399625  0.34350797  0.13272498  1
  Sr  Sr33  1  0.81537097  0.34721844  0.66320094  1
  Sr  Sr34  1  0.82634985  0.66591469  0.13317373  1
  Sr  Sr35  1  0.85642341  0.66517779  0.59092451  1
  Sr  Sr36  1  -0.01375380  0.17165107  0.35883344  1
  Sr  Sr37  1  0.02370912  0.14385139  0.92475410  1
  Sr  Sr38  1  0.00756940  0.50109709  0.41153951  1
  Sr  Sr39  1  -0.01439094  0.47756556  0.87701525  1
  Sr  Sr40  1  -0.03125263  0.81223130  0.38262749  1
  Sr  Sr41  1  -0.00045164  0.82466925  0.84339885  1
  Sr  Sr42  1  0.35173229  0.18110342  0.39183482  1
  Sr  Sr43  1  0.32117092  0.15669448  0.83042187  1
  Sr  Sr44  1  0.32196587  0.50608847  0.33350662  1
  Sr  Sr45  1  0.34768964  0.48551534  0.89157676  1
  Sr  Sr46  1  0.32585081  0.83991798  0.36626728  1
  Sr  Sr47  1  0.31045038  0.85945473  0.92233016  1
  Sr  Sr48  1  0.66463597  0.16144750  0.42018897  1
  Sr  Sr49  1  0.66652942  0.16899600  0.86572284  1
  Sr  Sr50  1  0.66222051  0.50266383  0.38184087  1
  Sr  Sr51  1  0.67170272  0.49634942  0.83644520  1
  Sr  Sr52  1  0.65012440  0.84228658  0.34956664  1
  Sr  Sr53  1  0.65607792  0.81156083  0.88927414  1
  Sr  Sr54  1  0.17807199  0.00271119  0.38616678  1
  Sr  Sr55  1  0.16808998  0.00111218  0.88109491  1
  Sr  Sr56  1  0.15014175  0.33377037  0.39788910  1
  Sr  Sr57  1  0.17894140  0.33117644  0.86829004  1
  Sr  Sr58  1  0.18739638  0.67597073  0.36087882  1
  Sr  Sr59  1  0.16861597  0.68038549  0.85596635  1
  Sr  Sr60  1  0.49107499  -0.01692154  0.33106265  1
  Sr  Sr61  1  0.50528462  -0.00089334  0.88165247  1
  Sr  Sr62  1  0.49724214  0.35238718  0.36006051  1
  Sr  Sr63  1  0.50166926  0.32558218  0.90888777  1
  Sr  Sr64  1  0.49145730  0.68512078  0.41601179  1
  Sr  Sr65  1  0.51088965  0.64498907  0.85410204  1
  Sr  Sr66  1  0.83628780  0.02285138  0.40291584  1
  Sr  Sr67  1  0.84888277  0.01744601  0.87131036  1
  Sr  Sr68  1  0.82782297  0.33915952  0.34067848  1
  Sr  Sr69  1  0.82029286  0.34188609  0.86598012  1
  Sr  Sr70  1  0.81648244  0.66215187  0.36607741  1
  Sr  Sr71  1  0.85284416  0.67832523  0.90499785  1
  Ta  Ta72  1  0.21562500  0.17148910  0.00701636  1
  Ta  Ta73  1  0.16728420  0.15542518  0.50205515  1
  Ta  Ta74  1  0.16806008  0.53977949  -0.00490437  1
  Ta  Ta75  1  0.19352433  0.51486009  0.50505316  1
  Ta  Ta76  1  0.13044178  0.82455585  0.00315441  1
  Ta  Ta77  1  0.13459361  0.83464917  0.49437170  1
  Ta  Ta78  1  0.46899230  0.15994210  -0.00919714  1
  Ta  Ta79  1  0.50355585  0.10108142  0.50419918  1
  Ta  Ta80  1  0.54720545  0.49504026  -0.00113938  1
  Ta  Ta81  1  0.45562248  0.50190212  0.50245265  1
  Ta  Ta82  1  0.47619589  0.81613024  -0.01208468  1
  Ta  Ta83  1  0.50338671  0.87438046  0.50739610  1
  Ta  Ta84  1  0.85066757  0.19799868  0.00321624  1
  Ta  Ta85  1  0.83302241  0.21604001  0.49974602  1
  Ta  Ta86  1  0.79789323  0.50183329  -0.00067524  1
  Ta  Ta87  1  0.83064415  0.46947680  0.49931273  1
  Ta  Ta88  1  0.83318882  0.86586467  -0.00172244  1
  Ta  Ta89  1  0.77706916  0.83984715  0.51218859  1
  Ta  Ta90  1  0.19777567  0.17628233  0.24862250  1
  Ta  Ta91  1  0.11987756  0.16491460  0.74762979  1
  Ta  Ta92  1  0.13898198  0.48886965  0.24673239  1
  Ta  Ta93  1  0.14345809  0.51088482  0.75987908  1
  Ta  Ta94  1  0.13731269  0.85753203  0.25242326  1
  Ta  Ta95  1  0.20201627  0.84171490  0.75474908  1
  Ta  Ta96  1  0.56625053  0.15308131  0.24951924  1
  Ta  Ta97  1  0.49836249  0.19680880  0.74393008  1
  Ta  Ta98  1  0.49893906  0.54377039  0.24420483  1
  Ta  Ta99  1  0.49933705  0.45282158  0.75032382  1
  Ta  Ta100  1  0.48973325  0.78874212  0.23655863  1
  Ta  Ta101  1  0.44352077  0.83166798  0.75264268  1
  Ta  Ta102  1  0.77719378  0.16568860  0.25652888  1
  Ta  Ta103  1  0.89058903  0.16977850  0.74920649  1
  Ta  Ta104  1  0.87364077  0.50514160  0.25160669  1
  Ta  Ta105  1  0.83970620  0.53882668  0.74895808  1
  Ta  Ta106  1  0.82689288  0.88248902  0.25524137  1
  Ta  Ta107  1  0.80595840  0.83043254  0.74221046  1
  Ta  Ta108  1  -0.00233745  -0.03049392  0.25220690  1
  Ta  Ta109  1  0.01101978  0.03047994  0.75338126  1
  Ta  Ta110  1  0.00793376  0.38211244  0.24986114  1
  Ta  Ta111  1  0.00351586  0.29367747  0.74913897  1
  Ta  Ta112  1  0.01240908  0.61866109  0.24509531  1
  Ta  Ta113  1  -0.00169636  0.63533356  0.75159511  1
  Ta  Ta114  1  0.30779682  0.02029289  0.24870687  1
  Ta  Ta115  1  0.33367458  -0.03413350  0.75281115  1
  Ta  Ta116  1  0.29012469  0.32856434  0.24511698  1
  Ta  Ta117  1  0.38316712  0.33010526  0.74317171  1
  Ta  Ta118  1  0.37969775  0.67054350  0.24236118  1
  Ta  Ta119  1  0.33514615  0.70645314  0.75922130  1
  Ta  Ta120  1  0.68768029  0.02216921  0.25273105  1
  Ta  Ta121  1  0.69669036  -0.02549419  0.74937016  1
  Ta  Ta122  1  0.65676646  0.29597941  0.25115970  1
  Ta  Ta123  1  0.62104403  0.33033637  0.74428992  1
  Ta  Ta124  1  0.61279482  0.66769775  0.24725293  1
  Ta  Ta125  1  0.71792198  0.67187717  0.75221690  1
  Ta  Ta126  1  -0.00532643  -0.05072820  -0.00304561  1
  Ta  Ta127  1  0.02400448  -0.02062088  0.50067782  1
  Ta  Ta128  1  -0.02643812  0.31203522  0.00272549  1
  Ta  Ta129  1  -0.05057258  0.33114365  0.49977173  1
  Ta  Ta130  1  0.03800170  0.66652827  -0.00221370  1
  Ta  Ta131  1  0.04308912  0.66954958  0.50293329  1
  Ta  Ta132  1  0.33756188  0.04893841  0.00300445  1
  Ta  Ta133  1  0.36698525  0.00259065  0.50280613  1
  Ta  Ta134  1  0.33476009  0.28105045  0.00510319  1
  Ta  Ta135  1  0.32317627  0.39687294  0.50290862  1
  Ta  Ta136  1  0.32192821  0.67010743  -0.01676415  1
  Ta  Ta137  1  0.32585225  0.61991936  0.50965987  1
  Ta  Ta138  1  0.69430390  -0.01603884  -0.00175057  1
  Ta  Ta139  1  0.64412562  -0.02485873  0.50885658  1
  Ta  Ta140  1  0.67139097  0.36307299  -0.00168667  1
  Ta  Ta141  1  0.69890530  0.33742757  0.49687249  1
  Ta  Ta142  1  0.67352799  0.62294438  -0.00441386  1
  Ta  Ta143  1  0.67100143  0.70094414  0.50382286  1
  N  N144  1  0.01299671  0.66161594  0.62183205  1
  N  N145  1  0.83343581  0.50391786  0.87492072  1
  N  N146  1  0.16289731  0.16834545  0.62322273  1
  N  N147  1  0.49034087  0.82462844  0.10864077  1
  N  N148  1  0.33817352  0.00374351  0.37057396  1
  N  N149  1  0.50742423  0.50268435  0.12497243  1
  N  N150  1  0.82220027  0.17709231  0.37297492  1
  N  N151  1  0.83223255  0.50312313  0.62452407  1
  N  N152  1  0.50589820  0.48812051  0.87513281  1
  N  N153  1  0.00447590  0.66414118  0.87538131  1
  N  N154  1  0.50543931  0.15377747  0.61760600  1
  N  N155  1  0.00693311  0.65019291  0.12600976  1
  N  N156  1  0.33362929  0.00865337  0.87658657  1
  N  N157  1  0.16328157  0.83934332  0.87245630  1
  N  N158  1  0.47768004  0.83705898  0.62308441  1
  N  N159  1  0.16877055  0.83169882  0.37569091  1
  N  N160  1  0.34102577  0.00762777  0.12657722  1
  N  N161  1  0.68210513  0.65882703  0.87347886  1
  N  N162  1  0.83406306  0.50468408  0.37333192  1
  N  N163  1  0.66011207  0.33234637  0.62537137  1
  N  N164  1  0.66255720  0.33100476  0.12725168  1
  N  N165  1  0.00523078  -0.00748730  0.87478078  1
  N  N166  1  0.34266277  0.64329269  0.86509032  1
  N  N167  1  0.49788541  0.16027297  0.86946328  1
  N  N168  1  0.66156412  0.32888350  0.87542976  1
  N  N169  1  0.65737076  0.33597830  0.37950184  1
  N  N170  1  0.33494763  0.66414879  0.62758267  1
  N  N171  1  0.15892963  0.83430774  0.12706258  1
  N  N172  1  0.83587280  0.83847187  0.61816260  1
  N  N173  1  0.83342066  0.50481155  0.12691577  1
  N  N174  1  0.67166196  -0.00154380  0.63168015  1
  N  N175  1  0.32571502  0.32932701  0.12668651  1
  N  N176  1  0.33796176  -0.00004839  0.62820205  1
  O  O177  1  0.52243596  0.13110782  0.36854450  1
  O  O178  1  0.34220743  0.65618896  0.36951290  1
  O  O179  1  0.81742501  0.18301904  0.12612680  1
  O  O180  1  0.18614821  0.17482314  0.37259959  1
  O  O181  1  0.47870191  0.50821618  0.37547997  1
  O  O182  1  0.15049259  0.48367403  0.88649788  1
  O  O183  1  0.49611762  0.83492691  0.37756063  1
  O  O184  1  0.67135604  -0.01273234  0.87621373  1
  O  O185  1  0.16839509  0.51154578  0.63777975  1
  O  O186  1  0.17021072  0.83599276  0.62529006  1
  O  O187  1  0.33926225  0.66417201  0.11719387  1
  O  O188  1  -0.00374367  0.32063996  0.62231054  1
  O  O189  1  0.34209662  0.32297484  0.86554010  1
  O  O190  1  0.02928082  0.65050600  0.37567441  1
  O  O191  1  0.68879645  0.00453870  0.12025278  1
  O  O192  1  0.82812014  0.86829264  0.13207350  1
  O  O193  1  0.67261077  -0.00013722  0.37817544  1
  O  O194  1  0.30555279  0.35869594  0.37850956  1
  O  O195  1  0.67211691  0.67383844  0.62711954  1
  O  O196  1  -0.00146758  0.31263747  0.87904047  1
  O  O197  1  0.81054683  0.86490770  0.38158477  1
  O  O198  1  -0.00105023  -0.00830815  0.37538487  1
  O  O199  1  0.48191168  0.50211422  0.62792527  1
  O  O200  1  -0.00409956  0.33100285  0.13120552  1
  O  O201  1  0.16458073  0.17257760  0.12216716  1
  O  O202  1  0.16528223  0.49818775  0.37214806  1
  O  O203  1  -0.00494295  0.34369037  0.37604906  1
  O  O204  1  0.50744697  0.83841637  0.86153754  1
  O  O205  1  0.64827473  0.68650035  0.37849422  1
  O  O206  1  0.01065144  -0.01049145  0.62707136  1
  O  O207  1  0.86847492  0.17265878  0.87473327  1
  O  O208  1  0.85489165  0.17039737  0.62556989  1
  O  O209  1  0.16107183  0.50438359  0.11678293  1
  O  O210  1  -0.00244836  -0.01583111  0.12142411  1
  O  O211  1  0.82887144  0.84083940  0.87511959  1
  O  O212  1  0.66024097  0.66171056  0.12739735  1
  O  O213  1  0.33355492  0.35161526  0.62279041  1
  O  O214  1  0.16958844  0.17271911  0.88057456  1
  O  O215  1  0.52265625  0.15095486  0.12462046  1
