# generated using pymatgen
data_Sr24Ta24N11O13
_symmetry_space_group_name_H-M   'P 1'
_cell_length_a   16.90558421
_cell_length_b   16.73752317
_cell_length_c   15.77567332
_cell_angle_alpha   90.07458762
_cell_angle_beta   89.69452389
_cell_angle_gamma   89.83090683
_symmetry_Int_Tables_number   1
_chemical_formula_structural   Sr24Ta24N11O13
_chemical_formula_sum   'Sr72 Ta72 N33 O39'
_cell_volume   4463.76001997
_cell_formula_units_Z   3
loop_
 _symmetry_equiv_pos_site_id
 _symmetry_equiv_pos_as_xyz
  1  'x, y, z'
loop_
 _atom_site_type_symbol
 _atom_site_label
 _atom_site_symmetry_multiplicity
 _atom_site_fract_x
 _atom_site_fract_y
 _atom_site_fract_z
 _atom_site_occupancy
  Sr  Sr0  1  0.00726954  0.18023640  0.16575424  1
  Sr  Sr1  1  0.01166464  0.15369310  0.63604432  1
  Sr  Sr2  1  0.00080180  0.48214172  0.07701282  1
  Sr  Sr3  1  0.00839579  0.51223502  0.62801828  1
  Sr  Sr4  1  0.00240903  0.83221226  0.12547168  1
  Sr  Sr5  1  0.02784418  0.83562274  0.61722633  1
  Sr  Sr6  1  0.34046464  0.16262754  0.10599860  1
  Sr  Sr7  1  0.35500765  0.17350187  0.62658624  1
  Sr  Sr8  1  0.32247051  0.49634464  0.14116360  1
  Sr  Sr9  1  0.35937922  0.49414319  0.60006204  1
  Sr  Sr10  1  0.36801799  0.83927681  0.10299672  1
  Sr  Sr11  1  0.33738276  0.82622966  0.62760153  1
  Sr  Sr12  1  0.68092497  0.16091294  0.11079539  1
  Sr  Sr13  1  0.67988248  0.17623817  0.59471509  1
  Sr  Sr14  1  0.67504412  0.49465666  0.12078206  1
  Sr  Sr15  1  0.67299147  0.48898912  0.66471344  1
  Sr  Sr16  1  0.67345338  0.83016029  0.15506284  1
  Sr  Sr17  1  0.68460690  0.82117100  0.61213301  1
  Sr  Sr18  1  0.13590971  -0.00094108  0.14589690  1
  Sr  Sr19  1  0.16107456  0.00472758  0.59953785  1
  Sr  Sr20  1  0.16830561  0.33703138  0.11466512  1
  Sr  Sr21  1  0.13850379  0.34442788  0.64409422  1
  Sr  Sr22  1  0.14411758  0.67589658  0.12635445  1
  Sr  Sr23  1  0.16088503  0.66833065  0.64827699  1
  Sr  Sr24  1  0.50058737  0.00594294  0.11650672  1
  Sr  Sr25  1  0.48389781  -0.01099389  0.67415638  1
  Sr  Sr26  1  0.48992605  0.35242798  0.16887329  1
  Sr  Sr27  1  0.50202094  0.33148273  0.61919174  1
  Sr  Sr28  1  0.49413611  0.65678990  0.09372218  1
  Sr  Sr29  1  0.48480189  0.67459470  0.60201599  1
  Sr  Sr30  1  0.82445633  -0.00778763  0.08877392  1
  Sr  Sr31  1  0.82393395  0.00446777  0.63892754  1
  Sr  Sr32  1  0.82413379  0.33229244  0.12721764  1
  Sr  Sr33  1  0.82427315  0.32892647  0.60636581  1
  Sr  Sr34  1  0.81440812  0.67352860  0.16507114  1
  Sr  Sr35  1  0.83400828  0.65994132  0.61439235  1
  Sr  Sr36  1  0.01850559  0.15548556  0.36835002  1
  Sr  Sr37  1  0.00127274  0.16389623  0.83957517  1
  Sr  Sr38  1  -0.00723160  0.49524115  0.41606314  1
  Sr  Sr39  1  0.01920968  0.50920352  0.86399271  1
  Sr  Sr40  1  0.02454452  0.82661683  0.34615404  1
  Sr  Sr41  1  0.00655171  0.84121862  0.90879400  1
  Sr  Sr42  1  0.35185953  0.16161128  0.38670183  1
  Sr  Sr43  1  0.34949970  0.17324316  0.87686559  1
  Sr  Sr44  1  0.33106425  0.49397837  0.36242536  1
  Sr  Sr45  1  0.34745525  0.49974858  0.89097949  1
  Sr  Sr46  1  0.34683870  0.83735651  0.38893940  1
  Sr  Sr47  1  0.35086527  0.83105392  0.86584903  1
  Sr  Sr48  1  0.67477931  0.16602497  0.38967952  1
  Sr  Sr49  1  0.68281999  0.16418454  0.90661370  1
  Sr  Sr50  1  0.68506595  0.48875019  0.33063036  1
  Sr  Sr51  1  0.66472619  0.49785533  0.87957245  1
  Sr  Sr52  1  0.66681273  0.82119450  0.38429505  1
  Sr  Sr53  1  0.68804099  0.84331973  0.83705988  1
  Sr  Sr54  1  0.16636575  -0.00913214  0.38738853  1
  Sr  Sr55  1  0.14443454  0.00445124  0.87624799  1
  Sr  Sr56  1  0.15173628  0.34468939  0.36146830  1
  Sr  Sr57  1  0.16690354  0.34056377  0.88954867  1
  Sr  Sr58  1  0.16499271  0.66164017  0.34590742  1
  Sr  Sr59  1  0.15581882  0.68114043  0.86485875  1
  Sr  Sr60  1  0.50036315  -0.01434353  0.32857543  1
  Sr  Sr61  1  0.48823248  -0.00080292  0.88804051  1
  Sr  Sr62  1  0.48496549  0.33129970  0.39036896  1
  Sr  Sr63  1  0.49533139  0.34433991  0.83396827  1
  Sr  Sr64  1  0.48861321  0.67699600  0.40567429  1
  Sr  Sr65  1  0.48663056  0.66557215  0.89601470  1
  Sr  Sr66  1  0.80529744  -0.00315169  0.41336803  1
  Sr  Sr67  1  0.83267736  0.00164677  0.87144049  1
  Sr  Sr68  1  0.83361457  0.32309855  0.36691429  1
  Sr  Sr69  1  0.81378366  0.34048771  0.90579254  1
  Sr  Sr70  1  0.83160755  0.66720502  0.37970216  1
  Sr  Sr71  1  0.80835974  0.66294985  0.83718908  1
  Ta  Ta72  1  0.14255690  0.15690447  0.00735938  1
  Ta  Ta73  1  0.17408431  0.19815377  0.49977001  1
  Ta  Ta74  1  0.18538946  0.52672168  -0.00136951  1
  Ta  Ta75  1  0.18082046  0.51300897  0.49388513  1
  Ta  Ta76  1  0.19616639  0.84150670  0.00852885  1
  Ta  Ta77  1  0.17613271  0.80228310  0.49319386  1
  Ta  Ta78  1  0.50718729  0.22213853  0.00245057  1
  Ta  Ta79  1  0.50578537  0.10599144  0.50187950  1
  Ta  Ta80  1  0.50363206  0.45817729  0.00273436  1
  Ta  Ta81  1  0.54507733  0.49962374  0.50013616  1
  Ta  Ta82  1  0.55491255  0.83253978  -0.00316165  1
  Ta  Ta83  1  0.50364771  0.88394363  0.50534638  1
  Ta  Ta84  1  0.87443596  0.16727807  0.00247693  1
  Ta  Ta85  1  0.87158109  0.16202180  0.50555537  1
  Ta  Ta86  1  0.83074154  0.54558039  0.00414974  1
  Ta  Ta87  1  0.79980212  0.49469973  0.49371889  1
  Ta  Ta88  1  0.81552014  0.80261850  -0.00546304  1
  Ta  Ta89  1  0.87709344  0.83417418  0.50074401  1
  Ta  Ta90  1  0.20361772  0.16618141  0.24942221  1
  Ta  Ta91  1  0.19393331  0.16838814  0.75327574  1
  Ta  Ta92  1  0.12069205  0.49917110  0.24299022  1
  Ta  Ta93  1  0.21263191  0.50049970  0.75195413  1
  Ta  Ta94  1  0.21619454  0.83695631  0.24276854  1
  Ta  Ta95  1  0.17388485  0.86036782  0.74440763  1
  Ta  Ta96  1  0.52574658  0.17241092  0.24927362  1
  Ta  Ta97  1  0.54444762  0.16390006  0.75262086  1
  Ta  Ta98  1  0.50115428  0.54016385  0.25436434  1
  Ta  Ta99  1  0.49792986  0.53517966  0.74556615  1
  Ta  Ta100  1  0.49914357  0.79371789  0.24412286  1
  Ta  Ta101  1  0.51871883  0.80001793  0.75316188  1
  Ta  Ta102  1  0.82722371  0.13015082  0.24774411  1
  Ta  Ta103  1  0.81739134  0.18647136  0.75451088  1
  Ta  Ta104  1  0.87666403  0.49595502  0.24690968  1
  Ta  Ta105  1  0.85198061  0.47641436  0.75171162  1
  Ta  Ta106  1  0.83948855  0.87297306  0.25333826  1
  Ta  Ta107  1  0.87971371  0.83168239  0.75240508  1
  Ta  Ta108  1  -0.05124669  -0.00143702  0.25019112  1
  Ta  Ta109  1  -0.00226854  -0.02992544  0.75158479  1
  Ta  Ta110  1  -0.00692665  0.37006315  0.24663781  1
  Ta  Ta111  1  -0.04346969  0.34125460  0.75365992  1
  Ta  Ta112  1  -0.01038455  0.62098355  0.25090828  1
  Ta  Ta113  1  -0.01737573  0.69038562  0.74642345  1
  Ta  Ta114  1  0.31039692  0.00357046  0.25441291  1
  Ta  Ta115  1  0.29326058  0.01036875  0.74733457  1
  Ta  Ta116  1  0.31613174  0.30494547  0.25099630  1
  Ta  Ta117  1  0.31142764  0.34376809  0.75370388  1
  Ta  Ta118  1  0.35506463  0.68260224  0.24708268  1
  Ta  Ta119  1  0.34132228  0.64280424  0.74830477  1
  Ta  Ta120  1  0.69065110  0.00778310  0.25448212  1
  Ta  Ta121  1  0.65905523  0.03991480  0.74975608  1
  Ta  Ta122  1  0.65341528  0.30208454  0.24801921  1
  Ta  Ta123  1  0.67403646  0.30157392  0.75267659  1
  Ta  Ta124  1  0.62030990  0.65977353  0.25576297  1
  Ta  Ta125  1  0.62336465  0.66720684  0.74505017  1
  Ta  Ta126  1  -0.00307609  0.04524168  -0.00075580  1
  Ta  Ta127  1  -0.02562209  -0.00884252  0.50470624  1
  Ta  Ta128  1  -0.00265185  0.28803683  0.00211235  1
  Ta  Ta129  1  -0.00160181  0.30449058  0.49465388  1
  Ta  Ta130  1  -0.05284917  0.66731706  0.00214785  1
  Ta  Ta131  1  0.01550251  0.68612339  0.49427487  1
  Ta  Ta132  1  0.28892263  -0.00498994  0.00136204  1
  Ta  Ta133  1  0.37420372  -0.00118363  0.50015880  1
  Ta  Ta134  1  0.36938333  0.33797501  0.00462245  1
  Ta  Ta135  1  0.28988167  0.33175590  0.49659619  1
  Ta  Ta136  1  0.30065539  0.67108969  -0.00432947  1
  Ta  Ta137  1  0.29316736  0.66021906  0.50148516  1
  Ta  Ta138  1  0.65924239  -0.03461781  -0.00299674  1
  Ta  Ta139  1  0.62289210  -0.00541583  0.50071503  1
  Ta  Ta140  1  0.62204528  0.33707762  0.00201413  1
  Ta  Ta141  1  0.66386587  0.37308879  0.50090301  1
  Ta  Ta142  1  0.68194071  0.68424275  -0.00009117  1
  Ta  Ta143  1  0.66577255  0.61663507  0.49574267  1
  N  N144  1  0.32783168  0.33562261  0.37749882  1
  N  N145  1  0.18478944  0.83023559  0.36743455  1
  N  N146  1  0.83723039  0.15989674  0.12951004  1
  N  N147  1  -0.00496154  0.32745483  0.37516616  1
  N  N148  1  0.83894464  0.82839489  0.87591738  1
  N  N149  1  0.15863983  0.50323428  0.12120247  1
  N  N150  1  0.17438205  0.50549531  0.86866879  1
  N  N151  1  0.83492815  0.50677996  0.12079670  1
  N  N152  1  0.16587864  0.16547899  0.12916665  1
  N  N153  1  0.32612554  0.67311189  0.87477248  1
  N  N154  1  -0.00194386  -0.00018365  0.62782894  1
  N  N155  1  0.65912591  0.33521870  0.87071251  1
  N  N156  1  0.51377444  0.82823552  0.87535491  1
  N  N157  1  -0.00476054  0.65795523  0.37267090  1
  N  N158  1  0.33617634  0.00022912  0.37589295  1
  N  N159  1  0.84340420  0.16301579  0.62535071  1
  N  N160  1  -0.00875944  0.00682465  0.87920418  1
  N  N161  1  0.66019140  0.65698743  0.37431146  1
  N  N162  1  0.51795654  0.82303333  0.12408240  1
  N  N163  1  0.16218112  0.83343666  0.12814906  1
  N  N164  1  0.83456302  0.49546357  0.37591696  1
  N  N165  1  0.33525234  0.33327987  0.12721352  1
  N  N166  1  0.32740662  0.66375869  0.62029366  1
  N  N167  1  0.18155127  0.83778353  0.62245001  1
  N  N168  1  0.65782898  -0.00554324  0.37115628  1
  N  N169  1  0.66153157  0.33208000  0.12991568  1
  N  N170  1  -0.00245875  0.33042982  0.11754669  1
  N  N171  1  0.15964703  0.50325706  0.37443205  1
  N  N172  1  -0.00349263  0.66819176  0.62553256  1
  N  N173  1  0.33448815  0.33522205  0.87316599  1
  N  N174  1  0.66280424  0.33643054  0.62188521  1
  N  N175  1  0.83895437  0.16685459  0.87538997  1
  N  N176  1  0.51135864  0.50320883  0.62721893  1
  O  O177  1  0.85668065  0.83885041  0.37350665  1
  O  O178  1  0.65812537  0.00305903  0.87300794  1
  O  O179  1  0.33959221  0.67273175  0.12334627  1
  O  O180  1  0.51914058  0.18122500  0.87728954  1
  O  O181  1  0.83497289  0.48960021  0.62618259  1
  O  O182  1  0.17885968  0.18511185  0.62977441  1
  O  O183  1  0.82848883  0.84029789  0.12823469  1
  O  O184  1  -0.02864422  0.67046886  0.12752213  1
  O  O185  1  0.83205233  0.15517227  0.38267391  1
  O  O186  1  0.66481777  0.67146387  0.12679963  1
  O  O187  1  -0.02872087  0.66811722  0.87854510  1
  O  O188  1  0.64858473  0.66294179  0.61646975  1
  O  O189  1  -0.01844777  0.32896838  0.62836257  1
  O  O190  1  0.30345544  0.00706764  0.87602084  1
  O  O191  1  0.32820062  0.33177857  0.61825925  1
  O  O192  1  0.51428392  0.14748808  0.62899250  1
  O  O193  1  0.66161980  0.33101229  0.37565962  1
  O  O194  1  0.85075158  0.82602989  0.62228178  1
  O  O195  1  0.65806360  0.66899069  0.87637632  1
  O  O196  1  0.17250883  0.16885303  0.37906665  1
  O  O197  1  0.84032272  0.50271477  0.87567461  1
  O  O198  1  0.51561563  0.14543942  0.37127131  1
  O  O199  1  0.66652958  0.02083059  0.62597652  1
  O  O200  1  -0.02409450  0.00080300  0.37169501  1
  O  O201  1  0.33490484  0.66874007  0.37260356  1
  O  O202  1  0.66796829  -0.01452666  0.12351777  1
  O  O203  1  0.17673045  0.83935285  0.87521579  1
  O  O204  1  0.50568035  0.49631044  0.87719402  1
  O  O205  1  0.32807918  0.00766373  0.62595935  1
  O  O206  1  0.51112298  0.17255264  0.12344115  1
  O  O207  1  0.50096170  0.50584290  0.13019426  1
  O  O208  1  -0.02249041  0.00022906  0.12224206  1
  O  O209  1  0.49683297  0.51805958  0.37873247  1
  O  O210  1  -0.02350764  0.32966374  0.87701141  1
  O  O211  1  0.16505273  0.50022763  0.63264350  1
  O  O212  1  0.31433254  0.00493086  0.12045372  1
  O  O213  1  0.50487232  0.83620375  0.37033458  1
  O  O214  1  0.50714859  0.84228695  0.63098321  1
  O  O215  1  0.17561918  0.16852646  0.87669450  1
