# generated using pymatgen
data_Sr24Ta24N11O13
_symmetry_space_group_name_H-M   'P 1'
_cell_length_a   16.59584467
_cell_length_b   17.63954094
_cell_length_c   15.08211145
_cell_angle_alpha   88.33927599
_cell_angle_beta   89.61142782
_cell_angle_gamma   90.98036659
_symmetry_Int_Tables_number   1
_chemical_formula_structural   Sr24Ta24N11O13
_chemical_formula_sum   'Sr72 Ta72 N33 O39'
_cell_volume   4412.56620607
_cell_formula_units_Z   3
loop_
 _symmetry_equiv_pos_site_id
 _symmetry_equiv_pos_as_xyz
  1  'x, y, z'
loop_
 _atom_site_type_symbol
 _atom_site_label
 _atom_site_symmetry_multiplicity
 _atom_site_fract_x
 _atom_site_fract_y
 _atom_site_fract_z
 _atom_site_occupancy
  Sr  Sr0  1  -0.01570953  0.20556325  0.15329784  1
  Sr  Sr1  1  0.00124189  0.20895423  0.61274079  1
  Sr  Sr2  1  0.01242142  0.49453710  0.13939857  1
  Sr  Sr3  1  -0.00114613  0.53325780  0.58481109  1
  Sr  Sr4  1  0.00724557  0.87598140  0.11150188  1
  Sr  Sr5  1  -0.01752632  0.82154893  0.67351879  1
  Sr  Sr6  1  0.32696291  0.15735920  0.12708251  1
  Sr  Sr7  1  0.33096500  0.21796536  0.57645855  1
  Sr  Sr8  1  0.33685479  0.52337576  0.10979897  1
  Sr  Sr9  1  0.31671501  0.50790828  0.63877251  1
  Sr  Sr10  1  0.31521756  0.86235574  0.10631197  1
  Sr  Sr11  1  0.35083287  0.82922017  0.62518903  1
  Sr  Sr12  1  0.66269274  0.18818723  0.11209385  1
  Sr  Sr13  1  0.64677111  0.17737300  0.64486411  1
  Sr  Sr14  1  0.61554794  0.53338485  0.11338967  1
  Sr  Sr15  1  0.66719212  0.50369002  0.62192302  1
  Sr  Sr16  1  0.65877284  0.83423970  0.13438338  1
  Sr  Sr17  1  0.67793040  0.86980302  0.56128942  1
  Sr  Sr18  1  0.17634590  -0.00089765  0.12027052  1
  Sr  Sr19  1  0.17292459  -0.05884433  0.67895457  1
  Sr  Sr20  1  0.18481358  0.29903451  0.15530313  1
  Sr  Sr21  1  0.16989284  0.33939896  0.63186442  1
  Sr  Sr22  1  0.17670967  0.63965025  0.13657324  1
  Sr  Sr23  1  0.18220682  0.65821436  0.60748197  1
  Sr  Sr24  1  0.52156058  -0.02498752  0.13164689  1
  Sr  Sr25  1  0.50744792  -0.00903033  0.62666139  1
  Sr  Sr26  1  0.48753966  0.29608680  0.13849470  1
  Sr  Sr27  1  0.50992413  0.33404113  0.59479951  1
  Sr  Sr28  1  0.48833602  0.68231631  0.10738298  1
  Sr  Sr29  1  0.49582535  0.63595581  0.67746846  1
  Sr  Sr30  1  0.82941925  -0.02642583  0.13161569  1
  Sr  Sr31  1  0.84730100  -0.01202473  0.60044857  1
  Sr  Sr32  1  0.82947481  0.32782463  0.11835550  1
  Sr  Sr33  1  0.82736046  0.31564869  0.65395603  1
  Sr  Sr34  1  0.87275698  0.63142339  0.12084688  1
  Sr  Sr35  1  0.83284599  0.66130651  0.62788049  1
  Sr  Sr36  1  -0.01991546  0.15512364  0.41042743  1
  Sr  Sr37  1  -0.01024685  0.20876045  0.85023915  1
  Sr  Sr38  1  -0.00873795  0.53835958  0.35251801  1
  Sr  Sr39  1  -0.02187573  0.50832457  0.92310912  1
  Sr  Sr40  1  0.00311156  0.86522229  0.34681396  1
  Sr  Sr41  1  0.00539636  0.87625528  0.87317870  1
  Sr  Sr42  1  0.32608045  0.16422517  0.35854040  1
  Sr  Sr43  1  0.31610178  0.17561501  0.89336372  1
  Sr  Sr44  1  0.33139026  0.55142684  0.35068757  1
  Sr  Sr45  1  0.32762882  0.50353040  0.86250792  1
  Sr  Sr46  1  0.31678066  0.84125550  0.40680410  1
  Sr  Sr47  1  0.33661630  0.88499300  0.82946354  1
  Sr  Sr48  1  0.65735733  0.20875084  0.33757380  1
  Sr  Sr49  1  0.66874500  0.17151085  0.86565771  1
  Sr  Sr50  1  0.65557930  0.50636651  0.39305936  1
  Sr  Sr51  1  0.66320829  0.53531886  0.85479094  1
  Sr  Sr52  1  0.67180484  0.82172788  0.35345168  1
  Sr  Sr53  1  0.66498852  0.84924899  0.91675168  1
  Sr  Sr54  1  0.18276416  -0.01927433  0.36628899  1
  Sr  Sr55  1  0.17294486  0.00675567  0.89200991  1
  Sr  Sr56  1  0.16655860  0.26875625  0.42138628  1
  Sr  Sr57  1  0.17534221  0.31901117  0.84786835  1
  Sr  Sr58  1  0.17260690  0.67026392  0.38408050  1
  Sr  Sr59  1  0.16679401  0.61517700  0.91521647  1
  Sr  Sr60  1  0.50855887  -0.04664783  0.40191156  1
  Sr  Sr61  1  0.51833886  -0.00162422  0.84193056  1
  Sr  Sr62  1  0.49992161  0.32088324  0.38357627  1
  Sr  Sr63  1  0.49935024  0.28642419  0.90347539  1
  Sr  Sr64  1  0.51585750  0.65478755  0.32645836  1
  Sr  Sr65  1  0.50584716  0.67276433  0.88942028  1
  Sr  Sr66  1  0.83210136  -0.02823934  0.37817029  1
  Sr  Sr67  1  0.83759334  -0.02330088  0.88789500  1
  Sr  Sr68  1  0.84057437  0.32619125  0.34040665  1
  Sr  Sr69  1  0.83207593  0.33501792  0.89013236  1
  Sr  Sr70  1  0.82597910  0.64043295  0.39978497  1
  Sr  Sr71  1  0.84557593  0.66395917  0.85725381  1
  Ta  Ta72  1  0.12842644  0.17313491  0.00407485  1
  Ta  Ta73  1  0.16912249  0.09789172  0.53984609  1
  Ta  Ta74  1  0.17307798  0.44212133  0.00805494  1
  Ta  Ta75  1  0.16043333  0.46384642  0.46944042  1
  Ta  Ta76  1  0.16576765  0.80509852  -0.02097271  1
  Ta  Ta77  1  0.12748403  0.82920853  0.51060642  1
  Ta  Ta78  1  0.50063735  0.11607483  -0.00178332  1
  Ta  Ta79  1  0.50189268  0.13448597  0.48602619  1
  Ta  Ta80  1  0.49170797  0.45175613  -0.02444652  1
  Ta  Ta81  1  0.47785333  0.52493763  0.50777431  1
  Ta  Ta82  1  0.46901886  0.84821336  -0.01665546  1
  Ta  Ta83  1  0.50816138  0.77543501  0.50102898  1
  Ta  Ta84  1  0.83819689  0.13578167  0.00911497  1
  Ta  Ta85  1  0.78878082  0.17500588  0.49250091  1
  Ta  Ta86  1  0.78841894  0.49728799  0.01808762  1
  Ta  Ta87  1  0.83674030  0.45342151  0.48675413  1
  Ta  Ta88  1  0.84452705  0.79154909  0.00928557  1
  Ta  Ta89  1  0.86792346  0.81237292  0.49596381  1
  Ta  Ta90  1  0.13259288  0.13372507  0.25905729  1
  Ta  Ta91  1  0.16870204  0.14353066  0.72664228  1
  Ta  Ta92  1  0.18090146  0.44722074  0.28023567  1
  Ta  Ta93  1  0.12522662  0.50213138  0.74876934  1
  Ta  Ta94  1  0.16848538  0.81157327  0.23389107  1
  Ta  Ta95  1  0.16597900  0.77119650  0.78601498  1
  Ta  Ta96  1  0.50293941  0.11270264  0.25542159  1
  Ta  Ta97  1  0.46095436  0.17122786  0.73861352  1
  Ta  Ta98  1  0.48717628  0.46449570  0.24933176  1
  Ta  Ta99  1  0.49776686  0.44808223  0.76336108  1
  Ta  Ta100  1  0.45828751  0.82880036  0.24273121  1
  Ta  Ta101  1  0.56369251  0.82786158  0.74066850  1
  Ta  Ta102  1  0.82364694  0.12725240  0.24558351  1
  Ta  Ta103  1  0.83787842  0.12344303  0.74186052  1
  Ta  Ta104  1  0.79190025  0.49674536  0.23275564  1
  Ta  Ta105  1  0.85416083  0.49057122  0.74906220  1
  Ta  Ta106  1  0.84613958  0.78039924  0.23511862  1
  Ta  Ta107  1  0.78110402  0.83517020  0.74244944  1
  Ta  Ta108  1  -0.00537550  0.03717199  0.25637592  1
  Ta  Ta109  1  0.00700549  0.04560148  0.73421629  1
  Ta  Ta110  1  0.03537493  0.35417477  0.29098361  1
  Ta  Ta111  1  -0.00347522  0.39447776  0.75283440  1
  Ta  Ta112  1  0.01121787  0.71157628  0.23417094  1
  Ta  Ta113  1  0.02988300  0.64204509  0.75381701  1
  Ta  Ta114  1  0.36441839  -0.00721579  0.25330597  1
  Ta  Ta115  1  0.32333793  0.06114175  0.71887804  1
  Ta  Ta116  1  0.33331661  0.36804331  0.27572505  1
  Ta  Ta117  1  0.36812034  0.33506063  0.75002895  1
  Ta  Ta118  1  0.32831858  0.72162784  0.24277290  1
  Ta  Ta119  1  0.31250930  0.69174802  0.77816038  1
  Ta  Ta120  1  0.66695119  0.02920740  0.27312718  1
  Ta  Ta121  1  0.69340605  -0.01000997  0.73812620  1
  Ta  Ta122  1  0.65480846  0.38298286  0.23872207  1
  Ta  Ta123  1  0.64247570  0.35593396  0.75851609  1
  Ta  Ta124  1  0.70516310  0.65963627  0.23616259  1
  Ta  Ta125  1  0.67118383  0.71091534  0.74811637  1
  Ta  Ta126  1  -0.00324360  0.06591744  0.00066655  1
  Ta  Ta127  1  0.03449634  -0.02017728  0.52256857  1
  Ta  Ta128  1  0.03929156  0.33882792  0.00587091  1
  Ta  Ta129  1  0.00076484  0.37189717  0.48411540  1
  Ta  Ta130  1  0.01178836  0.71003075  0.00416088  1
  Ta  Ta131  1  0.00302400  0.71546422  0.49872035  1
  Ta  Ta132  1  0.37238835  0.00890944  -0.00540493  1
  Ta  Ta133  1  0.33115568  0.02513830  0.52716419  1
  Ta  Ta134  1  0.32744482  0.35483396  0.00084759  1
  Ta  Ta135  1  0.31968303  0.39308850  0.46958881  1
  Ta  Ta136  1  0.32266380  0.72491170  -0.02960247  1
  Ta  Ta137  1  0.38268654  0.66955304  0.50606545  1
  Ta  Ta138  1  0.66983773  0.02648584  0.00088152  1
  Ta  Ta139  1  0.66661950  0.05502435  0.48255916  1
  Ta  Ta140  1  0.65304052  0.37831957  0.00539593  1
  Ta  Ta141  1  0.69833096  0.33181617  0.49691910  1
  Ta  Ta142  1  0.70941016  0.67259474  0.02024436  1
  Ta  Ta143  1  0.62964391  0.67083402  0.49948683  1
  N  N144  1  0.66963052  0.01383777  0.60715160  1
  N  N145  1  0.67485839  0.00522304  0.87671583  1
  N  N146  1  0.00301834  0.35342038  0.88222746  1
  N  N147  1  0.16126321  0.84150922  0.10915835  1
  N  N148  1  0.82404296  0.17722165  0.13131806  1
  N  N149  1  0.34512206  0.64158096  0.89137729  1
  N  N150  1  0.64321421  0.68463703  0.12809658  1
  N  N151  1  0.34337581  -0.02852036  0.64327075  1
  N  N152  1  0.66498570  0.33937835  0.63383020  1
  N  N153  1  0.49286058  0.49330539  0.63180473  1
  N  N154  1  0.02691972  0.65820343  0.11784108  1
  N  N155  1  0.33900110  0.00704195  0.12808030  1
  N  N156  1  0.33164471  0.32524348  0.87327296  1
  N  N157  1  0.67003545  -0.02952353  0.38447197  1
  N  N158  1  0.66285034  0.34985387  0.37304776  1
  N  N159  1  0.49577902  0.14879404  0.86309519  1
  N  N160  1  0.16549047  0.86371792  0.86075192  1
  N  N161  1  0.15928221  0.15688668  0.12970125  1
  N  N162  1  0.00233957  0.29178508  0.39664367  1
  N  N163  1  0.00741786  0.67256466  0.63138338  1
  N  N164  1  0.49349326  0.82927790  0.11598315  1
  N  N165  1  0.33257749  0.30598535  0.39328723  1
  N  N166  1  0.51139790  0.84193734  0.85467742  1
  N  N167  1  0.83025443  0.49209515  0.36513089  1
  N  N168  1  0.00090278  -0.03337273  0.64927844  1
  N  N169  1  0.50194893  0.14539522  0.13298177  1
  N  N170  1  0.82799602  0.83069421  0.61919147  1
  N  N171  1  0.85587893  0.47911354  0.12222740  1
  N  N172  1  0.83356654  0.83759636  0.12480898  1
  N  N173  1  0.65278829  0.33085612  0.12229785  1
  N  N174  1  0.49546101  0.17131103  0.60393887  1
  N  N175  1  0.66857876  0.66211883  0.37490974  1
  N  N176  1  0.16207193  0.19464266  0.60599386  1
  O  O177  1  0.33367325  0.69333417  0.38073386  1
  O  O178  1  0.33611971  -0.01116362  0.39540284  1
  O  O179  1  0.15953174  0.17157631  0.86146049  1
  O  O180  1  -0.00570242  0.00552110  0.39264835  1
  O  O181  1  0.50273978  0.52498466  0.86797353  1
  O  O182  1  0.47872840  0.46225808  0.11246779  1
  O  O183  1  0.01240408  0.02286213  0.87217277  1
  O  O184  1  0.82313907  0.49760179  0.87908672  1
  O  O185  1  0.68444240  0.67923661  0.88216933  1
  O  O186  1  0.83164332  0.18182116  0.36365788  1
  O  O187  1  0.14865415  0.80482505  0.64274618  1
  O  O188  1  0.34451450  0.67749474  0.64615601  1
  O  O189  1  0.01776384  0.68018809  0.36628165  1
  O  O190  1  0.50999792  0.80781265  0.36462283  1
  O  O191  1  0.50963020  0.83601223  0.61511800  1
  O  O192  1  0.00804881  0.35535616  0.62467874  1
  O  O193  1  0.02101223  0.34504620  0.15459951  1
  O  O194  1  -0.00354674  0.65252257  0.89003412  1
  O  O195  1  0.84161718  0.49497172  0.61822727  1
  O  O196  1  0.32659792  0.02559579  0.86643600  1
  O  O197  1  0.83313861  0.13303344  0.86957685  1
  O  O198  1  0.15711736  0.49123345  0.61697137  1
  O  O199  1  0.32739729  0.70086882  0.11089708  1
  O  O200  1  0.67484301  -0.00638457  0.13897047  1
  O  O201  1  0.33493091  0.34555756  0.14174582  1
  O  O202  1  0.32798010  0.36221193  0.61000426  1
  O  O203  1  0.48003609  0.18432302  0.35842604  1
  O  O204  1  0.15411028  0.53549757  0.35792200  1
  O  O205  1  0.49429732  0.50556739  0.37019403  1
  O  O206  1  0.17830572  0.46236404  0.13840930  1
  O  O207  1  0.16990540  0.47253331  0.87158054  1
  O  O208  1  0.83287690  0.15662572  0.61148521  1
  O  O209  1  0.83248964  0.82251957  0.36486687  1
  O  O210  1  0.82089856  0.82907058  0.87757730  1
  O  O211  1  0.15744624  0.83283764  0.37760686  1
  O  O212  1  0.67176550  0.65653884  0.62837513  1
  O  O213  1  -0.00588785  0.02315029  0.12298907  1
  O  O214  1  0.17175942  0.12642160  0.38919220  1
  O  O215  1  0.67369379  0.32226899  0.88499519  1
