# generated using pymatgen
data_Sr24Ta24N11O13
_symmetry_space_group_name_H-M   'P 1'
_cell_length_a   16.77642271
_cell_length_b   16.79873210
_cell_length_c   15.66340106
_cell_angle_alpha   90.31329120
_cell_angle_beta   89.65932194
_cell_angle_gamma   90.14951501
_symmetry_Int_Tables_number   1
_chemical_formula_structural   Sr24Ta24N11O13
_chemical_formula_sum   'Sr72 Ta72 N33 O39'
_cell_volume   4414.14221179
_cell_formula_units_Z   3
loop_
 _symmetry_equiv_pos_site_id
 _symmetry_equiv_pos_as_xyz
  1  'x, y, z'
loop_
 _atom_site_type_symbol
 _atom_site_label
 _atom_site_symmetry_multiplicity
 _atom_site_fract_x
 _atom_site_fract_y
 _atom_site_fract_z
 _atom_site_occupancy
  Sr  Sr0  1  0.01404656  0.17839885  0.10994802  1
  Sr  Sr1  1  -0.01755701  0.16189006  0.66800903  1
  Sr  Sr2  1  0.00489323  0.52268472  0.17450227  1
  Sr  Sr3  1  0.00421117  0.49722368  0.61762317  1
  Sr  Sr4  1  0.00360886  0.82159698  0.07976066  1
  Sr  Sr5  1  -0.00158302  0.84432348  0.63136769  1
  Sr  Sr6  1  0.35399622  0.18493326  0.14865959  1
  Sr  Sr7  1  0.33885685  0.16045282  0.61970849  1
  Sr  Sr8  1  0.33674056  0.49416372  0.12299826  1
  Sr  Sr9  1  0.34915806  0.50374801  0.58602568  1
  Sr  Sr10  1  0.33838692  0.85658995  0.13866088  1
  Sr  Sr11  1  0.33300581  0.82691448  0.63710129  1
  Sr  Sr12  1  0.66268274  0.16970844  0.12284166  1
  Sr  Sr13  1  0.67727790  0.16669128  0.57593110  1
  Sr  Sr14  1  0.67218230  0.49915141  0.11734729  1
  Sr  Sr15  1  0.65208509  0.48737555  0.67532520  1
  Sr  Sr16  1  0.67430221  0.84456507  0.14103698  1
  Sr  Sr17  1  0.65566061  0.83439223  0.63652100  1
  Sr  Sr18  1  0.16071896  0.00987219  0.13380800  1
  Sr  Sr19  1  0.17720888  -0.00797119  0.57763453  1
  Sr  Sr20  1  0.15820832  0.33367703  0.10817847  1
  Sr  Sr21  1  0.15519405  0.34450585  0.62968103  1
  Sr  Sr22  1  0.16925521  0.66213767  0.12500081  1
  Sr  Sr23  1  0.16066767  0.67976658  0.66788296  1
  Sr  Sr24  1  0.50761476  -0.01754968  0.10713719  1
  Sr  Sr25  1  0.48650929  -0.01858839  0.66668541  1
  Sr  Sr26  1  0.49975604  0.32959527  0.17097291  1
  Sr  Sr27  1  0.49088657  0.31261333  0.60846829  1
  Sr  Sr28  1  0.49088701  0.63521259  0.08909114  1
  Sr  Sr29  1  0.50791374  0.65771925  0.62693681  1
  Sr  Sr30  1  0.83648740  0.01861049  0.16713701  1
  Sr  Sr31  1  0.82642760  -0.00600624  0.61122796  1
  Sr  Sr32  1  0.81954729  0.32159633  0.07553759  1
  Sr  Sr33  1  0.83351549  0.34453950  0.63122468  1
  Sr  Sr34  1  0.82882878  0.67122787  0.13289324  1
  Sr  Sr35  1  0.86452669  0.66087525  0.57151294  1
  Sr  Sr36  1  0.00439059  0.14839984  0.32974730  1
  Sr  Sr37  1  0.00344127  0.17702100  0.88709168  1
  Sr  Sr38  1  -0.01872543  0.49129531  0.39568241  1
  Sr  Sr39  1  0.01553295  0.50661238  0.83139202  1
  Sr  Sr40  1  -0.00663443  0.84686947  0.42015427  1
  Sr  Sr41  1  0.00412821  0.83206155  0.86935428  1
  Sr  Sr42  1  0.33659948  0.17023430  0.39415536  1
  Sr  Sr43  1  0.35165691  0.18209698  0.83574599  1
  Sr  Sr44  1  0.34689374  0.49688121  0.37873618  1
  Sr  Sr45  1  0.32219411  0.50498084  0.91894463  1
  Sr  Sr46  1  0.32313950  0.83336094  0.36262509  1
  Sr  Sr47  1  0.34293847  0.86497692  0.87595153  1
  Sr  Sr48  1  0.67124648  0.17448059  0.37553696  1
  Sr  Sr49  1  0.66491174  0.16264135  0.90699756  1
  Sr  Sr50  1  0.66565452  0.50050583  0.33776285  1
  Sr  Sr51  1  0.68995580  0.51095932  0.89460842  1
  Sr  Sr52  1  0.65938349  0.82560753  0.36545059  1
  Sr  Sr53  1  0.66882864  0.85004586  0.86330045  1
  Sr  Sr54  1  0.17054996  -0.00220897  0.36953380  1
  Sr  Sr55  1  0.15268346  0.00345055  0.92135650  1
  Sr  Sr56  1  0.13863311  0.34403278  0.37797753  1
  Sr  Sr57  1  0.16893491  0.33350055  0.87606905  1
  Sr  Sr58  1  0.17437863  0.66303738  0.33665080  1
  Sr  Sr59  1  0.16146870  0.66966914  0.87555070  1
  Sr  Sr60  1  0.49382178  -0.04084312  0.33866626  1
  Sr  Sr61  1  0.51207148  0.00409070  0.88532146  1
  Sr  Sr62  1  0.49830510  0.32552747  0.37993858  1
  Sr  Sr63  1  0.49854380  0.32894438  0.84032793  1
  Sr  Sr64  1  0.48596486  0.66282252  0.41491289  1
  Sr  Sr65  1  0.51631630  0.63023137  0.87247013  1
  Sr  Sr66  1  0.81962794  0.00070513  0.38275804  1
  Sr  Sr67  1  0.85421097  -0.01378042  0.82136229  1
  Sr  Sr68  1  0.82994984  0.33132728  0.41217503  1
  Sr  Sr69  1  0.83109172  0.34857267  0.86243451  1
  Sr  Sr70  1  0.82473430  0.65093339  0.35258760  1
  Sr  Sr71  1  0.83345620  0.68741536  0.91970143  1
  Ta  Ta72  1  0.22215032  0.17082243  0.00113881  1
  Ta  Ta73  1  0.13594402  0.17525221  0.50097490  1
  Ta  Ta74  1  0.12806688  0.50326867  -0.00536197  1
  Ta  Ta75  1  0.17340898  0.53552463  0.50608225  1
  Ta  Ta76  1  0.19465173  0.82283493  0.00397569  1
  Ta  Ta77  1  0.17165246  0.79760444  0.49775198  1
  Ta  Ta78  1  0.48554123  0.18685141  0.00092983  1
  Ta  Ta79  1  0.50232075  0.10818898  0.49194493  1
  Ta  Ta80  1  0.50198237  0.44738481  0.00598325  1
  Ta  Ta81  1  0.54744870  0.49357736  0.49794176  1
  Ta  Ta82  1  0.50096184  0.80180428  -0.00182788  1
  Ta  Ta83  1  0.49355271  0.84768095  0.49930943  1
  Ta  Ta84  1  0.83782463  0.11763709  -0.00813558  1
  Ta  Ta85  1  0.87326644  0.16266536  0.49967690  1
  Ta  Ta86  1  0.87793700  0.50899524  0.00212443  1
  Ta  Ta87  1  0.77577914  0.50153527  0.49993119  1
  Ta  Ta88  1  0.82757345  0.87819419  0.00166328  1
  Ta  Ta89  1  0.80293630  0.82246198  0.49392087  1
  Ta  Ta90  1  0.19351236  0.18173888  0.24614652  1
  Ta  Ta91  1  0.16607867  0.13535094  0.75174748  1
  Ta  Ta92  1  0.18833196  0.48335935  0.24984658  1
  Ta  Ta93  1  0.21599687  0.50482281  0.74933107  1
  Ta  Ta94  1  0.12837733  0.83660372  0.25393964  1
  Ta  Ta95  1  0.16978482  0.88017554  0.75113710  1
  Ta  Ta96  1  0.50657281  0.13108069  0.26554398  1
  Ta  Ta97  1  0.54590855  0.15903136  0.73391456  1
  Ta  Ta98  1  0.49705922  0.52794573  0.25153755  1
  Ta  Ta99  1  0.44185392  0.49766937  0.75029304  1
  Ta  Ta100  1  0.49717398  0.77989784  0.24355431  1
  Ta  Ta101  1  0.49419302  0.79415814  0.77107618  1
  Ta  Ta102  1  0.83072875  0.21363995  0.24564463  1
  Ta  Ta103  1  0.79420126  0.16919357  0.74322120  1
  Ta  Ta104  1  0.83367724  0.45083264  0.25185339  1
  Ta  Ta105  1  0.83499549  0.56642738  0.74876593  1
  Ta  Ta106  1  0.87139121  0.83808318  0.24552251  1
  Ta  Ta107  1  0.83169918  0.77725708  0.74565688  1
  Ta  Ta108  1  0.00089788  -0.05288121  0.24711983  1
  Ta  Ta109  1  0.05325687  0.00281448  0.74986745  1
  Ta  Ta110  1  -0.03976066  0.33172922  0.25100534  1
  Ta  Ta111  1  0.00054515  0.33065631  0.75044511  1
  Ta  Ta112  1  -0.00116779  0.72058682  0.25066947  1
  Ta  Ta113  1  -0.03400859  0.67389461  0.74977005  1
  Ta  Ta114  1  0.33727230  0.03137768  0.25727414  1
  Ta  Ta115  1  0.28242158  0.00727391  0.74538201  1
  Ta  Ta116  1  0.29708895  0.34035670  0.24719840  1
  Ta  Ta117  1  0.32728029  0.37301782  0.75236128  1
  Ta  Ta118  1  0.36409855  0.65889179  0.25092498  1
  Ta  Ta119  1  0.34623549  0.64353182  0.75135512  1
  Ta  Ta120  1  0.65069355  0.01984047  0.25658830  1
  Ta  Ta121  1  0.66734906  0.04153152  0.73946817  1
  Ta  Ta122  1  0.70056704  0.32917281  0.24808257  1
  Ta  Ta123  1  0.66677522  0.28594709  0.74526237  1
  Ta  Ta124  1  0.62048128  0.66462856  0.24900196  1
  Ta  Ta125  1  0.69793467  0.67259367  0.75389732  1
  Ta  Ta126  1  -0.03997339  0.00141211  -0.00444049  1
  Ta  Ta127  1  0.00101819  0.04419315  0.50572738  1
  Ta  Ta128  1  -0.00373609  0.38810140  -0.00129972  1
  Ta  Ta129  1  -0.00216580  0.28288817  0.50174628  1
  Ta  Ta130  1  0.00244687  0.63118432  0.00065543  1
  Ta  Ta131  1  0.05324162  0.66957361  0.50117442  1
  Ta  Ta132  1  0.33728121  0.04756497  -0.00243019  1
  Ta  Ta133  1  0.36843056  -0.01328365  0.50023622  1
  Ta  Ta134  1  0.35810591  0.31560162  -0.00049970  1
  Ta  Ta135  1  0.30186665  0.32981269  0.50364339  1
  Ta  Ta136  1  0.33047547  0.70227830  -0.00113771  1
  Ta  Ta137  1  0.29242315  0.67288764  0.49735635  1
  Ta  Ta138  1  0.71690342  -0.00159377  -0.00114234  1
  Ta  Ta139  1  0.62699035  -0.01797675  0.50047465  1
  Ta  Ta140  1  0.61990502  0.33273811  0.00315362  1
  Ta  Ta141  1  0.66103757  0.36832524  0.49546031  1
  Ta  Ta142  1  0.65282287  0.69959601  0.00199074  1
  Ta  Ta143  1  0.67205893  0.64591030  0.49572423  1
  N  N144  1  0.65760447  0.66396820  0.37244553  1
  N  N145  1  0.33246400  0.33856311  0.87478656  1
  N  N146  1  0.00976465  0.00491014  0.62238734  1
  N  N147  1  0.50190388  0.85084692  0.87634969  1
  N  N148  1  0.17036305  0.50746836  0.87740417  1
  N  N149  1  0.00272311  0.00235095  0.87534599  1
  N  N150  1  0.50450479  0.15223882  0.61597423  1
  N  N151  1  0.82290127  0.49088827  0.37804268  1
  N  N152  1  -0.00681318  0.34466766  0.87987660  1
  N  N153  1  0.66238546  0.33189719  0.37370309  1
  N  N154  1  0.16156470  0.83590972  0.37768681  1
  N  N155  1  0.01177473  0.67133511  0.62109260  1
  N  N156  1  0.50366785  0.16974030  0.38358164  1
  N  N157  1  0.66542000  -0.00506753  0.37545533  1
  N  N158  1  0.50709019  0.49772245  0.38051639  1
  N  N159  1  0.65987322  0.32777209  0.12137657  1
  N  N160  1  0.49309995  0.81379669  0.38015615  1
  N  N161  1  0.49667333  0.82599529  0.12672563  1
  N  N162  1  0.82960251  0.16620981  0.61970705  1
  N  N163  1  0.33059569  0.33958963  0.12746825  1
  N  N164  1  -0.00035151  0.67106713  0.88121353  1
  N  N165  1  -0.01294667  0.32125985  0.37227354  1
  N  N166  1  0.66541503  -0.00371988  0.62356646  1
  N  N167  1  0.17531270  0.51342868  0.63061572  1
  N  N168  1  0.32976341  -0.00131057  0.37583154  1
  N  N169  1  -0.00722715  0.33006295  0.61898884  1
  N  N170  1  0.32888176  0.66301887  0.37558358  1
  N  N171  1  0.83674711  0.84308863  0.12290613  1
  N  N172  1  0.67423583  0.67113766  0.88431690  1
  N  N173  1  0.50000411  0.48246492  0.12897968  1
  N  N174  1  0.00107923  0.67363594  0.13350152  1
  N  N175  1  0.32935137  -0.00155686  0.62764781  1
  N  N176  1  0.17599594  0.17273488  0.12228234  1
  O  O177  1  0.18016606  0.84837528  0.88176553  1
  O  O178  1  0.83492585  0.14487469  0.86556074  1
  O  O179  1  0.32813596  0.68438554  0.12762111  1
  O  O180  1  0.16897087  0.49792743  0.12324150  1
  O  O181  1  0.49749027  0.49999405  0.63044466  1
  O  O182  1  0.84248379  0.17175244  0.36668681  1
  O  O183  1  0.33153248  0.02396136  0.87005264  1
  O  O184  1  0.33796324  0.66182181  0.62342632  1
  O  O185  1  0.50539103  0.17043516  0.87242042  1
  O  O186  1  0.33305491  0.66737335  0.88005438  1
  O  O187  1  0.81693019  0.81178497  0.61840221  1
  O  O188  1  0.18240501  0.50346540  0.37353170  1
  O  O189  1  0.67198378  0.00691254  0.87620485  1
  O  O190  1  -0.00677037  0.33561344  0.11664906  1
  O  O191  1  0.00516197  -0.00366359  0.38075019  1
  O  O192  1  0.31644209  0.33469875  0.38066087  1
  O  O193  1  0.84567515  0.52530183  0.87434784  1
  O  O194  1  0.81457355  0.52230320  0.62738898  1
  O  O195  1  0.85323310  0.49525396  0.12999163  1
  O  O196  1  0.83153720  0.83271903  0.86461770  1
  O  O197  1  0.50386792  0.16539594  0.12767471  1
  O  O198  1  0.17719555  0.82577860  0.12979917  1
  O  O199  1  0.67110103  0.66706726  0.12527133  1
  O  O200  1  0.83273028  0.16901671  0.12180874  1
  O  O201  1  0.47510370  0.48325832  0.87563804  1
  O  O202  1  0.68128802  0.00798385  0.12770667  1
  O  O203  1  0.66333954  0.66465196  0.63004046  1
  O  O204  1  -0.00253866  -0.01337787  0.12332991  1
  O  O205  1  0.17009397  0.84100572  0.62443984  1
  O  O206  1  0.15926919  0.15873518  0.62254347  1
  O  O207  1  0.66816925  0.32087949  0.62159819  1
  O  O208  1  0.34313146  0.02393576  0.12108501  1
  O  O209  1  0.82202456  0.83505886  0.37038859  1
  O  O210  1  0.01023425  0.68304651  0.37777675  1
  O  O211  1  0.49533702  0.81838713  0.63968410  1
  O  O212  1  0.65489381  0.30929842  0.87330739  1
  O  O213  1  0.17742220  0.15981872  0.87889576  1
  O  O214  1  0.15608936  0.17678600  0.37296677  1
  O  O215  1  0.31851988  0.32504043  0.62820142  1
