# generated using pymatgen
data_Sr24Ta24N11O13
_symmetry_space_group_name_H-M   'P 1'
_cell_length_a   16.73175083
_cell_length_b   16.90446218
_cell_length_c   15.64729033
_cell_angle_alpha   89.63504413
_cell_angle_beta   90.46659148
_cell_angle_gamma   89.88122312
_symmetry_Int_Tables_number   1
_chemical_formula_structural   Sr24Ta24N11O13
_chemical_formula_sum   'Sr72 Ta72 N33 O39'
_cell_volume   4425.45262176
_cell_formula_units_Z   3
loop_
 _symmetry_equiv_pos_site_id
 _symmetry_equiv_pos_as_xyz
  1  'x, y, z'
loop_
 _atom_site_type_symbol
 _atom_site_label
 _atom_site_symmetry_multiplicity
 _atom_site_fract_x
 _atom_site_fract_y
 _atom_site_fract_z
 _atom_site_occupancy
  Sr  Sr0  1  -0.00526181  0.17747886  0.08269708  1
  Sr  Sr1  1  0.00497699  0.16153193  0.63142010  1
  Sr  Sr2  1  0.01522090  0.48485432  0.17267609  1
  Sr  Sr3  1  -0.00803054  0.50235245  0.61705916  1
  Sr  Sr4  1  -0.00186658  0.83178410  0.11570387  1
  Sr  Sr5  1  0.01633481  0.82865692  0.66052056  1
  Sr  Sr6  1  0.32924240  0.17417612  0.11894826  1
  Sr  Sr7  1  0.34209354  0.15077913  0.67049445  1
  Sr  Sr8  1  0.30518630  0.48930690  0.08367129  1
  Sr  Sr9  1  0.33334592  0.50793591  0.63773161  1
  Sr  Sr10  1  0.35199523  0.81380045  0.12061691  1
  Sr  Sr11  1  0.32696866  0.84398653  0.57981060  1
  Sr  Sr12  1  0.66874143  0.13354868  0.13801847  1
  Sr  Sr13  1  0.65076614  0.15645503  0.58460229  1
  Sr  Sr14  1  0.68131234  0.50904701  0.11300130  1
  Sr  Sr15  1  0.66506114  0.45682767  0.66222622  1
  Sr  Sr16  1  0.66455468  0.81881587  0.16912063  1
  Sr  Sr17  1  0.66319908  0.83061952  0.61860536  1
  Sr  Sr18  1  0.16259823  0.00138156  0.15219618  1
  Sr  Sr19  1  0.16319368  -0.00913473  0.61668232  1
  Sr  Sr20  1  0.17529835  0.32663494  0.13280777  1
  Sr  Sr21  1  0.15558043  0.34379793  0.58008406  1
  Sr  Sr22  1  0.16584203  0.67907962  0.11472662  1
  Sr  Sr23  1  0.16036286  0.65706865  0.66856635  1
  Sr  Sr24  1  0.48726204  0.01551737  0.11241273  1
  Sr  Sr25  1  0.50419532  0.01028670  0.63862012  1
  Sr  Sr26  1  0.51871246  0.37669004  0.12412366  1
  Sr  Sr27  1  0.49582005  0.33417334  0.62372368  1
  Sr  Sr28  1  0.51456751  0.67000303  0.14492700  1
  Sr  Sr29  1  0.48523402  0.70021357  0.58030969  1
  Sr  Sr30  1  0.83721470  -0.01202607  0.13506581  1
  Sr  Sr31  1  0.81973686  0.01849892  0.57564085  1
  Sr  Sr32  1  0.82978943  0.34956237  0.12605868  1
  Sr  Sr33  1  0.84740430  0.33240328  0.67002940  1
  Sr  Sr34  1  0.83720705  0.67239329  0.08878630  1
  Sr  Sr35  1  0.83219441  0.69617956  0.62920539  1
  Sr  Sr36  1  0.01490875  0.15663711  0.41875036  1
  Sr  Sr37  1  -0.00685763  0.17077834  0.86682422  1
  Sr  Sr38  1  0.00264004  0.49805750  0.38310251  1
  Sr  Sr39  1  -0.00493725  0.49119626  0.84274230  1
  Sr  Sr40  1  0.01406014  0.83758994  0.33998389  1
  Sr  Sr41  1  0.00286002  0.82676293  0.88172100  1
  Sr  Sr42  1  0.31972947  0.16949217  0.33004389  1
  Sr  Sr43  1  0.33828788  0.16156700  0.88125810  1
  Sr  Sr44  1  0.33453665  0.47465383  0.42795192  1
  Sr  Sr45  1  0.31991074  0.50145904  0.86151766  1
  Sr  Sr46  1  0.34186866  0.80226465  0.37234816  1
  Sr  Sr47  1  0.34984170  0.82917820  0.90810407  1
  Sr  Sr48  1  0.67227173  0.15970578  0.37237639  1
  Sr  Sr49  1  0.65786350  0.12701814  0.90274810  1
  Sr  Sr50  1  0.65335256  0.48623697  0.34752362  1
  Sr  Sr51  1  0.67282074  0.50996015  0.89815515  1
  Sr  Sr52  1  0.68379091  0.80122037  0.39872658  1
  Sr  Sr53  1  0.65424171  0.83293798  0.83597015  1
  Sr  Sr54  1  0.16670681  -0.00394412  0.38169980  1
  Sr  Sr55  1  0.15147040  0.01079450  0.82944428  1
  Sr  Sr56  1  0.15995262  0.33719916  0.37020244  1
  Sr  Sr57  1  0.18240443  0.32075016  0.92208698  1
  Sr  Sr58  1  0.14745405  0.66582515  0.33222312  1
  Sr  Sr59  1  0.16797053  0.66801874  0.88406231  1
  Sr  Sr60  1  0.48514418  0.04461977  0.35195594  1
  Sr  Sr61  1  0.49065367  -0.00014544  0.87934913  1
  Sr  Sr62  1  0.50666331  0.34683854  0.40032147  1
  Sr  Sr63  1  0.50402493  0.37110445  0.84224549  1
  Sr  Sr64  1  0.51743966  0.66208168  0.36343650  1
  Sr  Sr65  1  0.50921711  0.69066614  0.87489204  1
  Sr  Sr66  1  0.84132332  -0.01418433  0.35624510  1
  Sr  Sr67  1  0.83997095  0.00706976  0.91410196  1
  Sr  Sr68  1  0.83231573  0.35643567  0.33776900  1
  Sr  Sr69  1  0.82762683  0.35223820  0.87759223  1
  Sr  Sr70  1  0.84599377  0.65921151  0.41960995  1
  Sr  Sr71  1  0.82691378  0.69178715  0.87505685  1
  Ta  Ta72  1  0.16671107  0.12758795  -0.00240765  1
  Ta  Ta73  1  0.21513062  0.15860730  0.50491281  1
  Ta  Ta74  1  0.11865089  0.49465970  -0.00146431  1
  Ta  Ta75  1  0.15969133  0.53967959  0.49894390  1
  Ta  Ta76  1  0.17031362  0.87224061  -0.00713005  1
  Ta  Ta77  1  0.14793797  0.80493170  0.50399573  1
  Ta  Ta78  1  0.50706713  0.21474548  0.00174588  1
  Ta  Ta79  1  0.45653878  0.16975431  0.49923286  1
  Ta  Ta80  1  0.47456418  0.52828640  -0.00564491  1
  Ta  Ta81  1  0.52351018  0.51710144  0.51710353  1
  Ta  Ta82  1  0.53976917  0.83968610  0.01418791  1
  Ta  Ta83  1  0.50345062  0.88135948  0.47678068  1
  Ta  Ta84  1  0.81433618  0.19061699  0.00097286  1
  Ta  Ta85  1  0.83480952  0.21693771  0.49899272  1
  Ta  Ta86  1  0.88150637  0.50466936  0.00393695  1
  Ta  Ta87  1  0.81214350  0.47473899  0.50793054  1
  Ta  Ta88  1  0.78625926  0.83979718  0.00669772  1
  Ta  Ta89  1  0.88217919  0.84307331  0.49887898  1
  Ta  Ta90  1  0.12711891  0.16606255  0.24345024  1
  Ta  Ta91  1  0.16754657  0.21000611  0.75289810  1
  Ta  Ta92  1  0.21918561  0.49600028  0.25932239  1
  Ta  Ta93  1  0.16086554  0.45354576  0.75554905  1
  Ta  Ta94  1  0.19727161  0.84289792  0.24208075  1
  Ta  Ta95  1  0.21335617  0.83167188  0.75346938  1
  Ta  Ta96  1  0.50482577  0.21891168  0.24902155  1
  Ta  Ta97  1  0.52819201  0.17589263  0.75033036  1
  Ta  Ta98  1  0.43246181  0.50276629  0.25532222  1
  Ta  Ta99  1  0.50737320  0.55761611  0.73263811  1
  Ta  Ta100  1  0.49889716  0.86748744  0.26625797  1
  Ta  Ta101  1  0.46397034  0.83813144  0.73224859  1
  Ta  Ta102  1  0.86539390  0.17338026  0.25406632  1
  Ta  Ta103  1  0.80573085  0.13930349  0.74695466  1
  Ta  Ta104  1  0.83654477  0.54350150  0.24760483  1
  Ta  Ta105  1  0.82613084  0.53858707  0.75787529  1
  Ta  Ta106  1  0.83669116  0.79315571  0.25344233  1
  Ta  Ta107  1  0.82979479  0.88390344  0.74167587  1
  Ta  Ta108  1  -0.00176090  0.04972325  0.24158364  1
  Ta  Ta109  1  -0.04796631  0.00248846  0.75056192  1
  Ta  Ta110  1  -0.00131833  0.28268695  0.25638499  1
  Ta  Ta111  1  0.04864040  0.32987980  0.75130137  1
  Ta  Ta112  1  -0.03931445  0.66306441  0.24658341  1
  Ta  Ta113  1  -0.02130610  0.65409789  0.76008247  1
  Ta  Ta114  1  0.33200130  -0.03192822  0.24753982  1
  Ta  Ta115  1  0.33216216  -0.04224619  0.75300977  1
  Ta  Ta116  1  0.35173181  0.35616469  0.24415573  1
  Ta  Ta117  1  0.29264268  0.33068607  0.75098741  1
  Ta  Ta118  1  0.32885750  0.62851916  0.25340700  1
  Ta  Ta119  1  0.35031500  0.69917433  0.73881640  1
  Ta  Ta120  1  0.64322740  -0.02865860  0.27522511  1
  Ta  Ta121  1  0.69368648  0.01037132  0.74270317  1
  Ta  Ta122  1  0.65402080  0.30678159  0.24944483  1
  Ta  Ta123  1  0.67032355  0.26786458  0.74752395  1
  Ta  Ta124  1  0.71548441  0.65467174  0.25445724  1
  Ta  Ta125  1  0.66315261  0.64366701  0.74562287  1
  Ta  Ta126  1  0.03306513  0.00055740  -0.00277093  1
  Ta  Ta127  1  -0.00057883  -0.03521109  0.49935300  1
  Ta  Ta128  1  -0.00120182  0.36364668  0.00308714  1
  Ta  Ta129  1  -0.04440047  0.33391020  0.49707822  1
  Ta  Ta130  1  0.00495649  0.62415771  0.00516826  1
  Ta  Ta131  1  0.03024549  0.68477560  0.49777540  1
  Ta  Ta132  1  0.28919932  -0.00468043  -0.00664146  1
  Ta  Ta133  1  0.33929636  0.03394777  0.49822788  1
  Ta  Ta134  1  0.37679220  0.33165802  -0.00668453  1
  Ta  Ta135  1  0.33090238  0.28149251  0.50289398  1
  Ta  Ta136  1  0.35843687  0.64919935  -0.00301541  1
  Ta  Ta137  1  0.27460514  0.66129416  0.50317980  1
  Ta  Ta138  1  0.66363337  -0.04688513  0.01057774  1
  Ta  Ta139  1  0.64018944  -0.01846923  0.47731655  1
  Ta  Ta140  1  0.66224529  0.29768488  -0.00463097  1
  Ta  Ta141  1  0.71007887  0.33468172  0.50479195  1
  Ta  Ta142  1  0.66185985  0.70254274  0.00304011  1
  Ta  Ta143  1  0.66917539  0.61027542  0.50973158  1
  N  N144  1  0.17362210  0.83355766  0.12034653  1
  N  N145  1  0.49115312  0.19361226  0.37023689  1
  N  N146  1  0.49224426  0.48820057  0.63693598  1
  N  N147  1  0.70032738  0.01008442  0.37532488  1
  N  N148  1  0.00329783  0.66784665  0.87961679  1
  N  N149  1  0.67890939  0.30886378  0.62717148  1
  N  N150  1  -0.00336511  0.32569893  0.37571421  1
  N  N151  1  0.83111245  0.51168112  0.87841641  1
  N  N152  1  0.33743216  0.33769625  0.86993945  1
  N  N153  1  0.17032162  0.82585908  0.62525185  1
  N  N154  1  0.32396664  0.67373391  0.61858933  1
  N  N155  1  0.84084448  0.50494445  0.12215245  1
  N  N156  1  0.49740402  0.16833595  0.62917268  1
  N  N157  1  -0.00822180  0.00603679  0.86897249  1
  N  N158  1  0.83188753  0.84977941  0.62078196  1
  N  N159  1  0.49030063  0.85219608  0.61023411  1
  N  N160  1  0.84568495  0.82642685  0.37926328  1
  N  N161  1  0.17294506  0.49852254  0.37465427  1
  N  N162  1  0.82500894  0.83187687  0.12644995  1
  N  N163  1  0.00082206  0.66798670  0.37845129  1
  N  N164  1  -0.00396615  0.01147205  0.12252088  1
  N  N165  1  0.16964659  0.83000570  0.86935847  1
  N  N166  1  0.16562159  0.16753262  0.87142414  1
  N  N167  1  0.34166819  0.33842510  0.11996255  1
  N  N168  1  0.50179422  0.80885113  0.38030265  1
  N  N169  1  0.50588534  0.84229467  0.13484356  1
  N  N170  1  0.16168872  0.16743347  0.12195176  1
  N  N171  1  0.67550651  0.66413501  0.12181844  1
  N  N172  1  0.67994596  0.64068789  0.38883366  1
  N  N173  1  0.66714566  0.67042463  0.86708550  1
  N  N174  1  0.15990263  0.48816234  0.87907512  1
  N  N175  1  0.00779062  0.66158631  0.13186335  1
  N  N176  1  0.33013486  -0.00359886  0.87262270  1
  O  O177  1  0.80990663  0.84903320  0.86738936  1
  O  O178  1  0.15548811  0.49635486  0.62197807  1
  O  O179  1  0.66844960  0.00090624  0.61355770  1
  O  O180  1  0.17065508  0.15579569  0.37992854  1
  O  O181  1  0.67967052  0.68041896  0.61432838  1
  O  O182  1  0.49360023  0.53012355  0.86387267  1
  O  O183  1  0.50302362  0.16402835  0.88147076  1
  O  O184  1  0.31896205  0.65246398  0.37957963  1
  O  O185  1  0.00347571  0.00045656  0.37340131  1
  O  O186  1  0.34814385  0.67180502  0.87259577  1
  O  O187  1  0.32926074  0.32350902  0.62562212  1
  O  O188  1  0.00329824  0.33289762  0.61977384  1
  O  O189  1  0.33468921  -0.02441826  0.11896914  1
  O  O190  1  0.82852458  0.16961920  0.62194735  1
  O  O191  1  0.33714663  0.00411864  0.62378617  1
  O  O192  1  0.83531807  0.18653530  0.12467238  1
  O  O193  1  0.67142006  0.31335024  0.87111610  1
  O  O194  1  0.16544007  0.48547748  0.13744828  1
  O  O195  1  0.84161031  0.17137603  0.37770343  1
  O  O196  1  0.67069985  0.31403241  0.12550726  1
  O  O197  1  0.33233811  0.32249927  0.37904286  1
  O  O198  1  0.17126629  0.16651324  0.62493052  1
  O  O199  1  0.48266199  0.50596351  0.39198499  1
  O  O200  1  0.66369458  -0.02075776  0.14450376  1
  O  O201  1  0.82863464  0.50106704  0.38280689  1
  O  O202  1  0.81760543  0.16183665  0.87883866  1
  O  O203  1  0.50183441  0.84333881  0.87210178  1
  O  O204  1  -0.00048913  0.66912357  0.63201796  1
  O  O205  1  0.67546385  -0.01557157  0.87012478  1
  O  O206  1  0.46539139  0.51508756  0.12521101  1
  O  O207  1  0.17070588  0.83027220  0.36872806  1
  O  O208  1  0.66885360  0.32569099  0.37789609  1
  O  O209  1  0.00672048  0.33512035  0.87845221  1
  O  O210  1  0.33599289  0.65306992  0.12355559  1
  O  O211  1  0.00313978  -0.01352886  0.62770065  1
  O  O212  1  0.49991196  0.17305122  0.12281662  1
  O  O213  1  -0.00538865  0.33370424  0.12935364  1
  O  O214  1  0.32751408  0.01043226  0.36720910  1
  O  O215  1  0.82741079  0.48420551  0.63596059  1
