# generated using pymatgen
data_Sr24Ta24N11O13
_symmetry_space_group_name_H-M   'P 1'
_cell_length_a   16.80227849
_cell_length_b   16.72889355
_cell_length_c   15.76453264
_cell_angle_alpha   90.14903344
_cell_angle_beta   90.28936222
_cell_angle_gamma   90.26240374
_symmetry_Int_Tables_number   1
_chemical_formula_structural   Sr24Ta24N11O13
_chemical_formula_sum   'Sr72 Ta72 N33 O39'
_cell_volume   4431.03221521
_cell_formula_units_Z   3
loop_
 _symmetry_equiv_pos_site_id
 _symmetry_equiv_pos_as_xyz
  1  'x, y, z'
loop_
 _atom_site_type_symbol
 _atom_site_label
 _atom_site_symmetry_multiplicity
 _atom_site_fract_x
 _atom_site_fract_y
 _atom_site_fract_z
 _atom_site_occupancy
  Sr  Sr0  1  0.00506612  0.16101099  0.10891876  1
  Sr  Sr1  1  0.00276033  0.15909796  0.62730019  1
  Sr  Sr2  1  0.01610441  0.49111741  0.16644654  1
  Sr  Sr3  1  -0.00263054  0.50359767  0.62298611  1
  Sr  Sr4  1  0.00103744  0.82886683  0.12110197  1
  Sr  Sr5  1  -0.01029625  0.82733438  0.63919373  1
  Sr  Sr6  1  0.34210712  0.18696848  0.13975473  1
  Sr  Sr7  1  0.35091364  0.16052609  0.65831531  1
  Sr  Sr8  1  0.31493621  0.50388475  0.08318793  1
  Sr  Sr9  1  0.32173427  0.53049293  0.64141252  1
  Sr  Sr10  1  0.32807734  0.85108648  0.13106177  1
  Sr  Sr11  1  0.32558191  0.85704666  0.58302911  1
  Sr  Sr12  1  0.67719543  0.16042058  0.10292539  1
  Sr  Sr13  1  0.66385902  0.15467607  0.59229457  1
  Sr  Sr14  1  0.68032460  0.48599222  0.12287035  1
  Sr  Sr15  1  0.66017649  0.49627796  0.62590142  1
  Sr  Sr16  1  0.66038976  0.84028410  0.12545841  1
  Sr  Sr17  1  0.64958246  0.83914783  0.65933732  1
  Sr  Sr18  1  0.15096800  -0.01187911  0.07573106  1
  Sr  Sr19  1  0.17606552  0.01590532  0.62706328  1
  Sr  Sr20  1  0.16632093  0.33021344  0.13083475  1
  Sr  Sr21  1  0.15873620  0.35068744  0.57818467  1
  Sr  Sr22  1  0.15876166  0.66541788  0.14636445  1
  Sr  Sr23  1  0.16802358  0.67990017  0.64754466  1
  Sr  Sr24  1  0.50495868  -0.00500618  0.11853628  1
  Sr  Sr25  1  0.50230859  -0.00669692  0.61402666  1
  Sr  Sr26  1  0.49791688  0.33603155  0.16114903  1
  Sr  Sr27  1  0.51484352  0.33094407  0.60907120  1
  Sr  Sr28  1  0.50996468  0.62788792  0.13125053  1
  Sr  Sr29  1  0.51475324  0.66931999  0.65028761  1
  Sr  Sr30  1  0.84779596  -0.01043635  0.16974353  1
  Sr  Sr31  1  0.83822986  0.00599214  0.61587290  1
  Sr  Sr32  1  0.82273218  0.32702230  0.10712000  1
  Sr  Sr33  1  0.84773353  0.34361553  0.67517725  1
  Sr  Sr34  1  0.82653058  0.66985016  0.09891949  1
  Sr  Sr35  1  0.83244687  0.64864375  0.59809823  1
  Sr  Sr36  1  0.00547747  0.15564779  0.39038126  1
  Sr  Sr37  1  0.00826523  0.16640754  0.87388466  1
  Sr  Sr38  1  0.00014710  0.50124423  0.38048766  1
  Sr  Sr39  1  -0.00347628  0.49855582  0.84217194  1
  Sr  Sr40  1  -0.01499740  0.83388462  0.36328673  1
  Sr  Sr41  1  0.00743597  0.82308997  0.88228146  1
  Sr  Sr42  1  0.35342970  0.17714846  0.33530685  1
  Sr  Sr43  1  0.34644280  0.17438623  0.85292986  1
  Sr  Sr44  1  0.31801752  0.46983317  0.43664511  1
  Sr  Sr45  1  0.32002113  0.51481634  0.87352871  1
  Sr  Sr46  1  0.32997129  0.84508496  0.37248159  1
  Sr  Sr47  1  0.33432373  0.86656520  0.91422999  1
  Sr  Sr48  1  0.67406584  0.15671621  0.39516700  1
  Sr  Sr49  1  0.66467795  0.15976665  0.90221279  1
  Sr  Sr50  1  0.65578061  0.49933343  0.37522946  1
  Sr  Sr51  1  0.66915860  0.49150329  0.87712541  1
  Sr  Sr52  1  0.65319049  0.83707409  0.34381492  1
  Sr  Sr53  1  0.65350962  0.83642386  0.87445238  1
  Sr  Sr54  1  0.16857848  0.00209702  0.40641246  1
  Sr  Sr55  1  0.17326515  0.02090973  0.86617077  1
  Sr  Sr56  1  0.15237188  0.32662021  0.36401427  1
  Sr  Sr57  1  0.18260804  0.34165330  0.91170945  1
  Sr  Sr58  1  0.17928544  0.68658211  0.36015283  1
  Sr  Sr59  1  0.15612062  0.65593792  0.85454225  1
  Sr  Sr60  1  0.48866407  -0.01079507  0.36164403  1
  Sr  Sr61  1  0.51230075  -0.00372192  0.89094503  1
  Sr  Sr62  1  0.51163046  0.33849519  0.38492767  1
  Sr  Sr63  1  0.49258865  0.32387375  0.83623842  1
  Sr  Sr64  1  0.51895983  0.65660595  0.35675494  1
  Sr  Sr65  1  0.49687690  0.64863027  0.86330555  1
  Sr  Sr66  1  0.84267083  0.01165643  0.38339790  1
  Sr  Sr67  1  0.84255948  -0.02024241  0.82987576  1
  Sr  Sr68  1  0.82682426  0.35524987  0.33413429  1
  Sr  Sr69  1  0.81962528  0.33007941  0.88918430  1
  Sr  Sr70  1  0.83454573  0.65546956  0.40468091  1
  Sr  Sr71  1  0.82457263  0.66929182  0.90712887  1
  Ta  Ta72  1  0.20761207  0.16860216  -0.00608400  1
  Ta  Ta73  1  0.21453095  0.17228515  0.49882646  1
  Ta  Ta74  1  0.12281602  0.50954820  -0.00291152  1
  Ta  Ta75  1  0.15351413  0.54853758  0.50613165  1
  Ta  Ta76  1  0.17468248  0.79504595  0.00343909  1
  Ta  Ta77  1  0.13370533  0.82695716  0.50557679  1
  Ta  Ta78  1  0.48594466  0.19123478  0.00054786  1
  Ta  Ta79  1  0.47346896  0.15953919  0.49551094  1
  Ta  Ta80  1  0.49345321  0.46035057  -0.00095645  1
  Ta  Ta81  1  0.48584060  0.53353724  0.50122486  1
  Ta  Ta82  1  0.49284907  0.78981950  0.01072287  1
  Ta  Ta83  1  0.51064437  0.81119844  0.49548960  1
  Ta  Ta84  1  0.84049130  0.11634798  0.00065668  1
  Ta  Ta85  1  0.83940173  0.21251360  0.49786336  1
  Ta  Ta86  1  0.88130997  0.49631076  0.00437485  1
  Ta  Ta87  1  0.83441341  0.45664211  0.50339400  1
  Ta  Ta88  1  0.83006588  0.86793639  0.00034393  1
  Ta  Ta89  1  0.79741658  0.83367616  0.50395696  1
  Ta  Ta90  1  0.16428839  0.14014231  0.24500382  1
  Ta  Ta91  1  0.17278804  0.21997466  0.74946908  1
  Ta  Ta92  1  0.22542513  0.50629915  0.25875674  1
  Ta  Ta93  1  0.16414765  0.46286313  0.74858609  1
  Ta  Ta94  1  0.16253441  0.87226617  0.24663574  1
  Ta  Ta95  1  0.19287278  0.85205788  0.75044946  1
  Ta  Ta96  1  0.54302962  0.15947605  0.25241143  1
  Ta  Ta97  1  0.53955338  0.15399438  0.74258167  1
  Ta  Ta98  1  0.42414404  0.49818217  0.26339693  1
  Ta  Ta99  1  0.48146090  0.48438737  0.74204399  1
  Ta  Ta100  1  0.48063669  0.80225753  0.24120461  1
  Ta  Ta101  1  0.46169295  0.84102310  0.74760813  1
  Ta  Ta102  1  0.82841606  0.17887043  0.24863646  1
  Ta  Ta103  1  0.79964526  0.16331491  0.75061169  1
  Ta  Ta104  1  0.83697041  0.53843935  0.24488972  1
  Ta  Ta105  1  0.82772731  0.53382468  0.76185693  1
  Ta  Ta106  1  0.82743263  0.79220501  0.25111816  1
  Ta  Ta107  1  0.82613111  0.78558462  0.75114800  1
  Ta  Ta108  1  0.03993363  0.00380102  0.24779093  1
  Ta  Ta109  1  0.02381704  -0.01560552  0.75148734  1
  Ta  Ta110  1  -0.01550207  0.30398779  0.24647789  1
  Ta  Ta111  1  0.04815254  0.33306764  0.74764116  1
  Ta  Ta112  1  -0.04084425  0.66864006  0.25008656  1
  Ta  Ta113  1  -0.04675215  0.66760414  0.75539920  1
  Ta  Ta114  1  0.28296857  0.00954594  0.24523109  1
  Ta  Ta115  1  0.34098980  -0.02765755  0.75374720  1
  Ta  Ta116  1  0.32260067  0.36763348  0.25248755  1
  Ta  Ta117  1  0.30976373  0.35110713  0.74560467  1
  Ta  Ta118  1  0.34443048  0.64849936  0.25073376  1
  Ta  Ta119  1  0.33552771  0.73793368  0.75159161  1
  Ta  Ta120  1  0.66618780  0.02572488  0.24520639  1
  Ta  Ta121  1  0.66744306  0.02962448  0.75004003  1
  Ta  Ta122  1  0.66878243  0.29267600  0.24539983  1
  Ta  Ta123  1  0.66835699  0.29237787  0.74955380  1
  Ta  Ta124  1  0.70186621  0.66339154  0.25400806  1
  Ta  Ta125  1  0.70137237  0.66293986  0.75030926  1
  Ta  Ta126  1  -0.03921368  -0.00742197  -0.00214933  1
  Ta  Ta127  1  0.00797851  -0.02878272  0.50215102  1
  Ta  Ta128  1  0.00136118  0.36461539  -0.00283797  1
  Ta  Ta129  1  -0.04748242  0.33496400  0.50013911  1
  Ta  Ta130  1  0.00985514  0.63527754  -0.00216866  1
  Ta  Ta131  1  0.03034229  0.67594466  0.50191540  1
  Ta  Ta132  1  0.33639665  0.04946550  -0.00120929  1
  Ta  Ta133  1  0.33754515  0.05204259  0.48864762  1
  Ta  Ta134  1  0.36627519  0.32502282  -0.00718290  1
  Ta  Ta135  1  0.33928183  0.28067498  0.50198003  1
  Ta  Ta136  1  0.33069551  0.69214090  -0.00029765  1
  Ta  Ta137  1  0.36185110  0.67140031  0.50172214  1
  Ta  Ta138  1  0.71837044  -0.01050380  -0.00204679  1
  Ta  Ta139  1  0.67020908  -0.04169211  0.50109646  1
  Ta  Ta140  1  0.61796902  0.33058960  -0.00257727  1
  Ta  Ta141  1  0.71622082  0.33433790  0.50658162  1
  Ta  Ta142  1  0.64060795  0.67315267  -0.00387527  1
  Ta  Ta143  1  0.65753455  0.69956824  0.50256431  1
  N  N144  1  0.66828629  -0.00846040  0.61998519  1
  N  N145  1  0.65872622  0.66419822  0.87500593  1
  N  N146  1  -0.00811829  0.66312107  0.87677812  1
  N  N147  1  0.34234114  0.01536618  0.87294237  1
  N  N148  1  0.83822472  0.17063480  0.38015931  1
  N  N149  1  0.65724895  0.32165156  0.87851847  1
  N  N150  1  0.84049155  0.15319871  0.12012319  1
  N  N151  1  0.00377360  -0.00188744  0.37586027  1
  N  N152  1  0.16321793  0.82984093  0.12502414  1
  N  N153  1  -0.00132257  0.00011283  0.62664288  1
  N  N154  1  0.00109803  -0.00533484  0.12642682  1
  N  N155  1  0.49122700  0.82457135  0.36702461  1
  N  N156  1  0.16090055  0.51012242  0.62278175  1
  N  N157  1  0.67118703  0.66870583  0.62322211  1
  N  N158  1  0.33543204  0.34262015  0.87117735  1
  N  N159  1  0.48888585  0.83565618  0.62435632  1
  N  N160  1  0.47247116  0.49514183  0.38087485  1
  N  N161  1  0.67622133  0.66646751  0.37515173  1
  N  N162  1  0.66017973  0.32199245  0.12333649  1
  N  N163  1  0.83512332  0.50198572  0.88133587  1
  N  N164  1  0.50976606  0.16691137  0.37041969  1
  N  N165  1  0.50923593  0.16245968  0.62346222  1
  N  N166  1  0.00109843  -0.00378813  0.87610985  1
  N  N167  1  0.15801665  0.49866380  0.87732402  1
  N  N168  1  0.16838296  0.84125836  0.62587273  1
  N  N169  1  0.32582508  0.01462820  0.36628459  1
  N  N170  1  0.67798582  -0.00139929  0.12681598  1
  N  N171  1  0.67884699  -0.00656631  0.86828292  1
  N  N172  1  0.18197075  0.18320388  0.87252397  1
  N  N173  1  0.49872845  0.49071836  0.62325646  1
  N  N174  1  0.68183069  0.32691441  0.62655950  1
  N  N175  1  0.84214230  0.50015261  0.12636472  1
  N  N176  1  0.49993366  0.84088420  0.12105049  1
  O  O177  1  -0.01392885  0.32197253  0.37105115  1
  O  O178  1  0.67112243  -0.00510683  0.37613596  1
  O  O179  1  0.33009459  0.32751666  0.38082523  1
  O  O180  1  -0.01119989  0.67093339  0.37556704  1
  O  O181  1  0.50454272  0.16796225  0.87501743  1
  O  O182  1  0.17282403  0.51026318  0.13627715  1
  O  O183  1  0.82760394  0.82788077  0.87312262  1
  O  O184  1  0.81987090  0.81547184  0.37629541  1
  O  O185  1  0.33225028  0.66098127  0.11945886  1
  O  O186  1  0.33429457  0.00839788  0.62652845  1
  O  O187  1  0.83967783  0.50110313  0.37719230  1
  O  O188  1  0.18506846  0.52748727  0.37791981  1
  O  O189  1  -0.00855656  0.66758438  0.62735617  1
  O  O190  1  0.49611499  0.17796788  0.12899785  1
  O  O191  1  0.46675939  0.48295378  0.12429433  1
  O  O192  1  0.34043665  0.67108796  0.38037318  1
  O  O193  1  0.32516723  0.01225816  0.12264396  1
  O  O194  1  0.32707698  0.34619445  0.11706444  1
  O  O195  1  0.19106295  0.18040045  0.62816450  1
  O  O196  1  0.17999545  0.16438403  0.36881122  1
  O  O197  1  0.17202332  0.82915441  0.88213277  1
  O  O198  1  0.67794102  0.32185131  0.37269876  1
  O  O199  1  0.66896317  0.66242357  0.12174233  1
  O  O200  1  0.33262133  0.69289265  0.87126445  1
  O  O201  1  0.00936817  0.34124911  0.87395743  1
  O  O202  1  0.00075310  0.33660712  0.62742541  1
  O  O203  1  0.34077986  0.31722036  0.62471097  1
  O  O204  1  0.16363506  0.83797517  0.37539038  1
  O  O205  1  -0.01517371  0.66834908  0.12559445  1
  O  O206  1  0.82555885  0.16879610  0.62605455  1
  O  O207  1  0.83076626  0.82573484  0.12651713  1
  O  O208  1  0.81704920  0.83085770  0.62808411  1
  O  O209  1  0.16778452  0.16480364  0.12054683  1
  O  O210  1  0.82246232  0.16090032  0.87497270  1
  O  O211  1  0.48879214  0.48313809  0.87575220  1
  O  O212  1  0.34163312  0.69206787  0.62641034  1
  O  O213  1  0.83737432  0.49393541  0.63041539  1
  O  O214  1  -0.00291315  0.33134240  0.12434035  1
  O  O215  1  0.48949320  0.83680854  0.89076269  1
