# generated using pymatgen
data_Sr24Ta24N11O13
_symmetry_space_group_name_H-M   'P 1'
_cell_length_a   16.64756640
_cell_length_b   16.98263496
_cell_length_c   15.68555974
_cell_angle_alpha   89.99720897
_cell_angle_beta   90.16787112
_cell_angle_gamma   89.48694776
_symmetry_Int_Tables_number   1
_chemical_formula_structural   Sr24Ta24N11O13
_chemical_formula_sum   'Sr72 Ta72 N33 O39'
_cell_volume   4434.41744935
_cell_formula_units_Z   3
loop_
 _symmetry_equiv_pos_site_id
 _symmetry_equiv_pos_as_xyz
  1  'x, y, z'
loop_
 _atom_site_type_symbol
 _atom_site_label
 _atom_site_symmetry_multiplicity
 _atom_site_fract_x
 _atom_site_fract_y
 _atom_site_fract_z
 _atom_site_occupancy
  Sr  Sr0  1  0.01266787  0.19122447  0.10479202  1
  Sr  Sr1  1  0.01668456  0.18125683  0.60595392  1
  Sr  Sr2  1  0.01174494  0.50495305  0.15070375  1
  Sr  Sr3  1  -0.00762528  0.51293785  0.62747983  1
  Sr  Sr4  1  -0.00015037  0.83115698  0.11516372  1
  Sr  Sr5  1  -0.00047677  0.86718088  0.66275754  1
  Sr  Sr6  1  0.33340736  0.17817589  0.11044151  1
  Sr  Sr7  1  0.33402680  0.20140138  0.66238560  1
  Sr  Sr8  1  0.34636555  0.52621312  0.10833567  1
  Sr  Sr9  1  0.34633047  0.50801702  0.60768461  1
  Sr  Sr10  1  0.34276412  0.84313396  0.17003298  1
  Sr  Sr11  1  0.32030062  0.84980275  0.61443137  1
  Sr  Sr12  1  0.67577725  0.16792232  0.16255807  1
  Sr  Sr13  1  0.65188160  0.17431711  0.61316351  1
  Sr  Sr14  1  0.66731260  0.51248260  0.11608809  1
  Sr  Sr15  1  0.66953648  0.53309302  0.65129965  1
  Sr  Sr16  1  0.65848538  0.84677807  0.09068146  1
  Sr  Sr17  1  0.67634354  0.83947843  0.60985562  1
  Sr  Sr18  1  0.16404464  -0.03283883  0.15010473  1
  Sr  Sr19  1  0.15926105  -0.00105348  0.60985387  1
  Sr  Sr20  1  0.16905319  0.32643184  0.12998347  1
  Sr  Sr21  1  0.15666830  0.32683794  0.65392909  1
  Sr  Sr22  1  0.15764140  0.65179726  0.09683875  1
  Sr  Sr23  1  0.15431342  0.64152686  0.60696484  1
  Sr  Sr24  1  0.49444123  -0.00633956  0.11098658  1
  Sr  Sr25  1  0.49614341  -0.01903486  0.59979929  1
  Sr  Sr26  1  0.49209547  0.30356632  0.14332305  1
  Sr  Sr27  1  0.49451470  0.32679823  0.61534064  1
  Sr  Sr28  1  0.50952683  0.66544517  0.11630313  1
  Sr  Sr29  1  0.49216959  0.65878299  0.66484541  1
  Sr  Sr30  1  0.83897143  -0.01703772  0.11701244  1
  Sr  Sr31  1  0.82617769  -0.00951524  0.66711637  1
  Sr  Sr32  1  0.82237239  0.32267382  0.10929228  1
  Sr  Sr33  1  0.82356734  0.30958767  0.60465933  1
  Sr  Sr34  1  0.84148096  0.64084929  0.16916263  1
  Sr  Sr35  1  0.82475167  0.66007643  0.60684962  1
  Sr  Sr36  1  0.01695639  0.18047276  0.39828404  1
  Sr  Sr37  1  0.00543506  0.19594774  0.89549050  1
  Sr  Sr38  1  -0.00605365  0.51511011  0.37464350  1
  Sr  Sr39  1  0.01000335  0.50587754  0.84881136  1
  Sr  Sr40  1  -0.00662841  0.86097709  0.34236373  1
  Sr  Sr41  1  0.00869973  0.83587627  0.89296421  1
  Sr  Sr42  1  0.32942848  0.20427831  0.34137856  1
  Sr  Sr43  1  0.34324653  0.17094419  0.89036544  1
  Sr  Sr44  1  0.34462979  0.50832180  0.39393929  1
  Sr  Sr45  1  0.34863983  0.53389222  0.89296723  1
  Sr  Sr46  1  0.32224959  0.84711636  0.38446194  1
  Sr  Sr47  1  0.34064923  0.83732743  0.83453945  1
  Sr  Sr48  1  0.65488801  0.16392943  0.38036421  1
  Sr  Sr49  1  0.67627733  0.17113434  0.83936414  1
  Sr  Sr50  1  0.66926281  0.53743619  0.34804568  1
  Sr  Sr51  1  0.67163445  0.51015325  0.88410139  1
  Sr  Sr52  1  0.66928040  0.83892694  0.40337821  1
  Sr  Sr53  1  0.67241796  0.84832990  0.88997726  1
  Sr  Sr54  1  0.16032393  -0.00588637  0.38591681  1
  Sr  Sr55  1  0.16746461  -0.03885745  0.84042724  1
  Sr  Sr56  1  0.15601184  0.32796142  0.35073166  1
  Sr  Sr57  1  0.16841234  0.31594301  0.87400736  1
  Sr  Sr58  1  0.16847211  0.64746781  0.40255299  1
  Sr  Sr59  1  0.15055597  0.65351939  0.89634653  1
  Sr  Sr60  1  0.50027915  -0.02011909  0.39000774  1
  Sr  Sr61  1  0.49150632  -0.00534007  0.89886711  1
  Sr  Sr62  1  0.49415419  0.32503249  0.38511509  1
  Sr  Sr63  1  0.49631679  0.29647994  0.84830986  1
  Sr  Sr64  1  0.49094062  0.65901105  0.33620194  1
  Sr  Sr65  1  0.51873594  0.66150752  0.88997388  1
  Sr  Sr66  1  0.82905127  -0.00700973  0.34071155  1
  Sr  Sr67  1  0.84260120  -0.01759632  0.88298113  1
  Sr  Sr68  1  0.82216101  0.30071498  0.39202274  1
  Sr  Sr69  1  0.82380441  0.32624013  0.89597122  1
  Sr  Sr70  1  0.82822024  0.66780179  0.38635064  1
  Sr  Sr71  1  0.83598939  0.63060992  0.83706729  1
  Ta  Ta72  1  0.17274655  0.10129114  -0.00797653  1
  Ta  Ta73  1  0.20607188  0.17703108  0.50137709  1
  Ta  Ta74  1  0.16990651  0.47050584  0.00097464  1
  Ta  Ta75  1  0.16366820  0.45834247  0.50480083  1
  Ta  Ta76  1  0.20853162  0.83357201  -0.00328554  1
  Ta  Ta77  1  0.13272458  0.81987867  0.50356857  1
  Ta  Ta78  1  0.54153636  0.16640076  -0.00028919  1
  Ta  Ta79  1  0.45812383  0.15672636  0.50290089  1
  Ta  Ta80  1  0.50612693  0.44217556  -0.01253912  1
  Ta  Ta81  1  0.52722763  0.51444738  0.50171371  1
  Ta  Ta82  1  0.45321412  0.82948779  0.00361190  1
  Ta  Ta83  1  0.49077323  0.78958475  0.49925434  1
  Ta  Ta84  1  0.81380268  0.14842975  0.00010394  1
  Ta  Ta85  1  0.84011955  0.11193003  0.50287358  1
  Ta  Ta86  1  0.85251178  0.50696102  0.00399959  1
  Ta  Ta87  1  0.81725448  0.47555663  0.49344705  1
  Ta  Ta88  1  0.83725849  0.77792286  -0.00234009  1
  Ta  Ta89  1  0.85838847  0.85752908  0.50609237  1
  Ta  Ta90  1  0.16156882  0.13918481  0.25196564  1
  Ta  Ta91  1  0.16656938  0.13753434  0.75097043  1
  Ta  Ta92  1  0.19527234  0.51137768  0.24791860  1
  Ta  Ta93  1  0.20181781  0.50703847  0.74871884  1
  Ta  Ta94  1  0.16365777  0.78394655  0.24944087  1
  Ta  Ta95  1  0.16345122  0.77895497  0.75119041  1
  Ta  Ta96  1  0.49145597  0.12566492  0.24862141  1
  Ta  Ta97  1  0.49737491  0.11733760  0.74776533  1
  Ta  Ta98  1  0.50204108  0.47200746  0.24491008  1
  Ta  Ta99  1  0.50147451  0.47023440  0.76388789  1
  Ta  Ta100  1  0.53345561  0.83714336  0.24601346  1
  Ta  Ta101  1  0.52531567  0.84432829  0.75175296  1
  Ta  Ta102  1  0.87384015  0.16202593  0.25037167  1
  Ta  Ta103  1  0.86532133  0.17150300  0.74948878  1
  Ta  Ta104  1  0.82599144  0.45469632  0.26320732  1
  Ta  Ta105  1  0.82648410  0.45249631  0.73991953  1
  Ta  Ta106  1  0.79787929  0.82346304  0.24592819  1
  Ta  Ta107  1  0.83079071  0.80359042  0.75128268  1
  Ta  Ta108  1  0.00222166  0.04681251  0.24543735  1
  Ta  Ta109  1  0.00404358  0.05046066  0.75842017  1
  Ta  Ta110  1  -0.03379216  0.32854348  0.25125262  1
  Ta  Ta111  1  -0.03489321  0.33017545  0.74923741  1
  Ta  Ta112  1  0.02962944  0.68210111  0.24906812  1
  Ta  Ta113  1  0.00213839  0.69323294  0.75374602  1
  Ta  Ta114  1  0.33741737  0.03098019  0.26037058  1
  Ta  Ta115  1  0.34081361  0.02144124  0.74404609  1
  Ta  Ta116  1  0.33505331  0.38118090  0.24573500  1
  Ta  Ta117  1  0.33636435  0.38001591  0.75962032  1
  Ta  Ta118  1  0.29392539  0.66615556  0.24637180  1
  Ta  Ta119  1  0.29843846  0.66395048  0.74856627  1
  Ta  Ta120  1  0.64936281  -0.02246741  0.24844635  1
  Ta  Ta121  1  0.63325304  -0.00998093  0.74903146  1
  Ta  Ta122  1  0.66455277  0.36160574  0.25447525  1
  Ta  Ta123  1  0.66794105  0.36003104  0.74697086  1
  Ta  Ta124  1  0.66933862  0.71465342  0.24635621  1
  Ta  Ta125  1  0.67142017  0.71007955  0.75404371  1
  Ta  Ta126  1  0.02461940  0.02066148  -0.01418139  1
  Ta  Ta127  1  -0.03107839  -0.00154933  0.50767905  1
  Ta  Ta128  1  0.00163352  0.37946432  0.00098176  1
  Ta  Ta129  1  0.00523518  0.36329196  0.50009455  1
  Ta  Ta130  1  -0.04173001  0.65348862  0.00164955  1
  Ta  Ta131  1  -0.00672234  0.72584674  0.50053311  1
  Ta  Ta132  1  0.30993181  -0.02647418  0.00122974  1
  Ta  Ta133  1  0.33021576  0.05467179  0.49112692  1
  Ta  Ta134  1  0.33880236  0.36148468  -0.00593775  1
  Ta  Ta135  1  0.30681736  0.33291836  0.50310738  1
  Ta  Ta136  1  0.33351957  0.71513894  0.00556887  1
  Ta  Ta137  1  0.36393530  0.68294828  0.49928334  1
  Ta  Ta138  1  0.67443153  0.04232875  0.00420610  1
  Ta  Ta139  1  0.70666099  0.00889947  0.49733597  1
  Ta  Ta140  1  0.64002995  0.31882202  -0.00050908  1
  Ta  Ta141  1  0.66097564  0.39863682  0.49783041  1
  Ta  Ta142  1  0.71636743  0.67048702  0.00176029  1
  Ta  Ta143  1  0.62395177  0.66715299  0.50046115  1
  N  N144  1  0.16955182  0.49124203  0.62757344  1
  N  N145  1  0.83376157  0.51200955  0.36862899  1
  N  N146  1  0.17412117  0.81315690  0.87436652  1
  N  N147  1  0.32563671  -0.00096903  0.37828261  1
  N  N148  1  0.67170879  0.00211143  0.37738902  1
  N  N149  1  0.00139873  -0.01063905  0.86396168  1
  N  N150  1  -0.00491678  0.34274430  0.12361760  1
  N  N151  1  0.50869204  0.14827818  0.87582428  1
  N  N152  1  0.67545246  0.66932009  0.87347316  1
  N  N153  1  -0.00430187  0.01470585  0.62841109  1
  N  N154  1  0.32973600  0.32344708  0.86838382  1
  N  N155  1  0.33089197  0.35306897  0.37322770  1
  N  N156  1  0.17306918  0.49711828  0.12430688  1
  N  N157  1  0.17119991  0.16411506  0.37326044  1
  N  N158  1  0.17409513  0.16116847  0.63047540  1
  N  N159  1  0.33274924  0.34108960  0.12250831  1
  N  N160  1  0.67174392  0.00583570  0.12464190  1
  N  N161  1  -0.00612810  0.33600176  0.62512360  1
  N  N162  1  0.51204663  0.50544804  0.88245730  1
  N  N163  1  -0.00492206  0.34679730  0.87664978  1
  N  N164  1  0.49499504  0.15833379  0.62308363  1
  N  N165  1  0.67425576  0.67245627  0.12146565  1
  N  N166  1  0.49673183  0.83031727  0.12230493  1
  N  N167  1  0.50574565  0.15133960  0.12778238  1
  N  N168  1  -0.00642454  0.66586215  0.87565493  1
  N  N169  1  -0.00644632  0.33396355  0.37550957  1
  N  N170  1  0.83537886  0.83503732  0.62804147  1
  N  N171  1  0.33428850  0.67943256  0.12954308  1
  N  N172  1  0.65851375  0.68365251  0.37681001  1
  N  N173  1  0.33313019  0.35093566  0.62797572  1
  N  N174  1  -0.00075650  0.66776499  0.12824570  1
  N  N175  1  0.65880416  0.68222623  0.62486948  1
  N  N176  1  0.83201192  0.49235927  0.62333382  1
  O  O177  1  0.33010904  -0.00675833  0.86796448  1
  O  O178  1  0.50901237  0.50501776  0.63030601  1
  O  O179  1  0.31920025  0.67995875  0.87353242  1
  O  O180  1  0.15730049  0.80820629  0.38091008  1
  O  O181  1  0.65889806  -0.00336089  0.62240189  1
  O  O182  1  0.65391633  0.00199346  0.87507000  1
  O  O183  1  0.66401454  0.32766241  0.86882808  1
  O  O184  1  0.50566406  0.50155727  0.36957520  1
  O  O185  1  0.49635111  0.81749433  0.36803696  1
  O  O186  1  0.16791267  0.49964750  0.87258352  1
  O  O187  1  0.83482924  0.16769214  0.87726824  1
  O  O188  1  0.83941154  0.15921026  0.12411905  1
  O  O189  1  0.85639715  0.15266967  0.37736469  1
  O  O190  1  0.33931550  0.67639280  0.37260821  1
  O  O191  1  -0.00888640  0.68946126  0.61916385  1
  O  O192  1  0.15675314  0.82794942  0.62908604  1
  O  O193  1  0.83489987  0.48483739  0.87694506  1
  O  O194  1  0.84410048  0.82888533  0.88077496  1
  O  O195  1  0.18514759  0.16193310  0.88396855  1
  O  O196  1  0.82607418  0.83856719  0.37188583  1
  O  O197  1  0.33323436  0.66957128  0.62219694  1
  O  O198  1  0.50557525  0.82248753  0.62969094  1
  O  O199  1  0.50932100  0.47457813  0.11760492  1
  O  O200  1  0.33293230  0.00859572  0.61789030  1
  O  O201  1  -0.01217352  0.70662253  0.37219272  1
  O  O202  1  0.49941951  0.83999957  0.87760908  1
  O  O203  1  0.17651878  0.12825941  0.11572555  1
  O  O204  1  0.83336769  0.49008852  0.13098171  1
  O  O205  1  0.00524227  0.02984550  0.11788162  1
  O  O206  1  0.65494925  0.34642419  0.37780262  1
  O  O207  1  0.16475573  0.81639478  0.11885464  1
  O  O208  1  0.83216692  0.82133318  0.12345553  1
  O  O209  1  0.49838636  0.16311314  0.37622008  1
  O  O210  1  0.65934827  0.33542608  0.12706232  1
  O  O211  1  0.00012241  0.01296292  0.37225588  1
  O  O212  1  0.84980467  0.15835415  0.62415397  1
  O  O213  1  0.65700051  0.35789457  0.61689019  1
  O  O214  1  0.32156482  -0.00667793  0.12981224  1
  O  O215  1  0.17506337  0.49687414  0.38190660  1
