# generated using pymatgen
data_Sr24Ta24N11O13
_symmetry_space_group_name_H-M   'P 1'
_cell_length_a   16.95108526
_cell_length_b   16.63097140
_cell_length_c   15.65385649
_cell_angle_alpha   89.96498679
_cell_angle_beta   90.05520370
_cell_angle_gamma   89.36924901
_symmetry_Int_Tables_number   1
_chemical_formula_structural   Sr24Ta24N11O13
_chemical_formula_sum   'Sr72 Ta72 N33 O39'
_cell_volume   4412.75555815
_cell_formula_units_Z   3
loop_
 _symmetry_equiv_pos_site_id
 _symmetry_equiv_pos_as_xyz
  1  'x, y, z'
loop_
 _atom_site_type_symbol
 _atom_site_label
 _atom_site_symmetry_multiplicity
 _atom_site_fract_x
 _atom_site_fract_y
 _atom_site_fract_z
 _atom_site_occupancy
  Sr  Sr0  1  0.00136457  0.17380334  0.11301855  1
  Sr  Sr1  1  0.01833415  0.15532905  0.65282587  1
  Sr  Sr2  1  0.00392827  0.50630762  0.15474930  1
  Sr  Sr3  1  0.00550262  0.49181311  0.62076429  1
  Sr  Sr4  1  0.03347984  0.84784727  0.11801678  1
  Sr  Sr5  1  0.00439611  0.84130665  0.59478809  1
  Sr  Sr6  1  0.34893633  0.16570935  0.07962924  1
  Sr  Sr7  1  0.34216020  0.17165136  0.62222848  1
  Sr  Sr8  1  0.33335732  0.49573794  0.12311029  1
  Sr  Sr9  1  0.37306153  0.49407071  0.66048160  1
  Sr  Sr10  1  0.34032161  0.84388399  0.16248516  1
  Sr  Sr11  1  0.34591087  0.82408940  0.61300775  1
  Sr  Sr12  1  0.66816205  0.17402837  0.17249208  1
  Sr  Sr13  1  0.68400253  0.15574521  0.60997325  1
  Sr  Sr14  1  0.67889068  0.50183615  0.10137017  1
  Sr  Sr15  1  0.67584345  0.50497775  0.60103472  1
  Sr  Sr16  1  0.66566136  0.84132391  0.10443018  1
  Sr  Sr17  1  0.69611911  0.82707643  0.66653481  1
  Sr  Sr18  1  0.15310929  0.02449306  0.10488473  1
  Sr  Sr19  1  0.17532060  -0.00194241  0.66727883  1
  Sr  Sr20  1  0.14554939  0.34705310  0.17095877  1
  Sr  Sr21  1  0.15628402  0.32217637  0.60398192  1
  Sr  Sr22  1  0.15969636  0.65529199  0.09221224  1
  Sr  Sr23  1  0.13328462  0.65849653  0.61749038  1
  Sr  Sr24  1  0.49101786  -0.00633926  0.11488562  1
  Sr  Sr25  1  0.49011987  0.00783184  0.58262906  1
  Sr  Sr26  1  0.49598569  0.34379424  0.11435231  1
  Sr  Sr27  1  0.49736741  0.32284444  0.67199608  1
  Sr  Sr28  1  0.45991514  0.66972374  0.15555375  1
  Sr  Sr29  1  0.50106138  0.66330313  0.61449735  1
  Sr  Sr30  1  0.80315591  -0.00257093  0.15209421  1
  Sr  Sr31  1  0.84362472  0.00173895  0.61958357  1
  Sr  Sr32  1  0.82747425  0.32242636  0.11339129  1
  Sr  Sr33  1  0.81451916  0.34184190  0.58560406  1
  Sr  Sr34  1  0.80736477  0.66758769  0.12239214  1
  Sr  Sr35  1  0.82800741  0.65834798  0.66093838  1
  Sr  Sr36  1  0.04379696  0.16277571  0.34466525  1
  Sr  Sr37  1  -0.00611591  0.16124320  0.87909236  1
  Sr  Sr38  1  0.01838482  0.49008245  0.38799231  1
  Sr  Sr39  1  0.00635369  0.51677322  0.84633505  1
  Sr  Sr40  1  0.01171433  0.84395972  0.38826786  1
  Sr  Sr41  1  0.02660986  0.83870063  0.91238657  1
  Sr  Sr42  1  0.34091183  0.17088687  0.40681358  1
  Sr  Sr43  1  0.35075213  0.16366754  0.87693905  1
  Sr  Sr44  1  0.35334206  0.49132464  0.35091939  1
  Sr  Sr45  1  0.33404789  0.50793747  0.88762512  1
  Sr  Sr46  1  0.33889363  0.81948696  0.38602948  1
  Sr  Sr47  1  0.33046766  0.83284583  0.83388903  1
  Sr  Sr48  1  0.66652913  0.14600619  0.38690364  1
  Sr  Sr49  1  0.67214591  0.17114495  0.83790661  1
  Sr  Sr50  1  0.67127012  0.51409981  0.39232886  1
  Sr  Sr51  1  0.68701949  0.49233873  0.89997548  1
  Sr  Sr52  1  0.70273746  0.82983954  0.33853931  1
  Sr  Sr53  1  0.66289374  0.84206333  0.88615668  1
  Sr  Sr54  1  0.16095816  -0.01443404  0.32697563  1
  Sr  Sr55  1  0.16163285  0.00890366  0.88285207  1
  Sr  Sr56  1  0.17668915  0.33240359  0.38463254  1
  Sr  Sr57  1  0.12257172  0.34193404  0.83569854  1
  Sr  Sr58  1  0.14792154  0.67257250  0.41444763  1
  Sr  Sr59  1  0.15294500  0.65527507  0.88668650  1
  Sr  Sr60  1  0.47502277  -0.01417229  0.37854205  1
  Sr  Sr61  1  0.49974320  -0.00777943  0.91040950  1
  Sr  Sr62  1  0.49680072  0.33474175  0.33737428  1
  Sr  Sr63  1  0.48860349  0.34389781  0.88745008  1
  Sr  Sr64  1  0.48878604  0.65898182  0.39069615  1
  Sr  Sr65  1  0.47131325  0.67935127  0.83194652  1
  Sr  Sr66  1  0.83839662  -0.01030231  0.39280343  1
  Sr  Sr67  1  0.81426424  0.00915599  0.84542334  1
  Sr  Sr68  1  0.79860205  0.31985811  0.38436114  1
  Sr  Sr69  1  0.83334500  0.32697749  0.90429679  1
  Sr  Sr70  1  0.82992118  0.65926654  0.33946794  1
  Sr  Sr71  1  0.81307095  0.67254808  0.88014080  1
  Ta  Ta72  1  0.16419401  0.22622342  0.00133575  1
  Ta  Ta73  1  0.17131728  0.12529193  0.50396463  1
  Ta  Ta74  1  0.15708971  0.46320387  -0.00239296  1
  Ta  Ta75  1  0.21944188  0.49499378  0.51572250  1
  Ta  Ta76  1  0.21545400  0.83300957  -0.00264699  1
  Ta  Ta77  1  0.17742880  0.87699650  0.49828576  1
  Ta  Ta78  1  0.54515601  0.16967475  0.00297223  1
  Ta  Ta79  1  0.50648568  0.21670801  0.50143542  1
  Ta  Ta80  1  0.50111179  0.54171064  0.00188120  1
  Ta  Ta81  1  0.49815238  0.46402311  0.50109491  1
  Ta  Ta82  1  0.47275579  0.80864194  -0.00372867  1
  Ta  Ta83  1  0.56226550  0.82594318  0.50094342  1
  Ta  Ta84  1  0.80681031  0.14683794  0.00754581  1
  Ta  Ta85  1  0.88691225  0.16520690  0.49238770  1
  Ta  Ta86  1  0.87714159  0.50518599  0.00493800  1
  Ta  Ta87  1  0.84673084  0.53529871  0.50076731  1
  Ta  Ta88  1  0.85229217  0.84512850  0.00141462  1
  Ta  Ta89  1  0.82497410  0.80098109  0.50290344  1
  Ta  Ta90  1  0.22012970  0.17091086  0.23906900  1
  Ta  Ta91  1  0.19607211  0.18156092  0.75434985  1
  Ta  Ta92  1  0.17402100  0.53663600  0.25513608  1
  Ta  Ta93  1  0.19414614  0.49905166  0.74222116  1
  Ta  Ta94  1  0.16839206  0.78746292  0.25587079  1
  Ta  Ta95  1  0.14668129  0.81471657  0.75259973  1
  Ta  Ta96  1  0.47275936  0.15417182  0.24438833  1
  Ta  Ta97  1  0.50251295  0.11916169  0.74914460  1
  Ta  Ta98  1  0.53875993  0.51022419  0.24681926  1
  Ta  Ta99  1  0.55364808  0.50328292  0.75182256  1
  Ta  Ta100  1  0.52751177  0.83151948  0.24686436  1
  Ta  Ta101  1  0.50640488  0.87194154  0.74790106  1
  Ta  Ta102  1  0.86076959  0.16489703  0.25700189  1
  Ta  Ta103  1  0.84025913  0.20836104  0.73616563  1
  Ta  Ta104  1  0.82381454  0.46956020  0.24822364  1
  Ta  Ta105  1  0.82502434  0.46670364  0.74676578  1
  Ta  Ta106  1  0.88248296  0.83425951  0.25073796  1
  Ta  Ta107  1  0.88140692  0.83766261  0.75206784  1
  Ta  Ta108  1  -0.02690900  0.00202074  0.24562710  1
  Ta  Ta109  1  -0.00226952  -0.03483859  0.75596288  1
  Ta  Ta110  1  -0.04158784  0.32819416  0.26214278  1
  Ta  Ta111  1  -0.05008675  0.33399138  0.74038437  1
  Ta  Ta112  1  0.01702891  0.68804758  0.25094683  1
  Ta  Ta113  1  -0.00275359  0.71324535  0.75802783  1
  Ta  Ta114  1  0.33293021  0.04242934  0.24189877  1
  Ta  Ta115  1  0.37095409  0.00656403  0.74963396  1
  Ta  Ta116  1  0.33179832  0.29558610  0.24239594  1
  Ta  Ta117  1  0.29802849  0.33161792  0.75183084  1
  Ta  Ta118  1  0.28620181  0.66258615  0.25756751  1
  Ta  Ta119  1  0.28633357  0.65887480  0.73896904  1
  Ta  Ta120  1  0.62519563  -0.00918005  0.24871360  1
  Ta  Ta121  1  0.62335872  -0.00071756  0.75145477  1
  Ta  Ta122  1  0.66995112  0.37063354  0.24229194  1
  Ta  Ta123  1  0.68948686  0.35228782  0.75012619  1
  Ta  Ta124  1  0.63633987  0.66365703  0.24434842  1
  Ta  Ta125  1  0.65105164  0.64159603  0.75521765  1
  Ta  Ta126  1  -0.05538121  0.00208784  0.00331334  1
  Ta  Ta127  1  0.03005035  0.02045544  0.50022958  1
  Ta  Ta128  1  0.00950980  0.35678656  0.01033922  1
  Ta  Ta129  1  -0.01716390  0.30242121  0.48309583  1
  Ta  Ta130  1  -0.03152295  0.65973569  0.00190295  1
  Ta  Ta131  1  -0.04517285  0.66413016  0.50216206  1
  Ta  Ta132  1  0.32518217  -0.04050700  -0.00827974  1
  Ta  Ta133  1  0.28873317  -0.00023626  0.49783105  1
  Ta  Ta134  1  0.27969272  0.33951451  -0.00655095  1
  Ta  Ta135  1  0.36017192  0.35107448  0.50914466  1
  Ta  Ta136  1  0.33650233  0.69178836  -0.00943835  1
  Ta  Ta137  1  0.31701391  0.63000741  0.51782192  1
  Ta  Ta138  1  0.67275049  0.04086938  0.00085838  1
  Ta  Ta139  1  0.66878166  -0.04576835  0.50188963  1
  Ta  Ta140  1  0.66267728  0.28632641  0.00443226  1
  Ta  Ta141  1  0.61867811  0.33091307  0.49885925  1
  Ta  Ta142  1  0.59914943  0.67140715  -0.00144995  1
  Ta  Ta143  1  0.68685493  0.69707324  0.50007121  1
  N  N144  1  0.33632947  -0.00370526  0.87235946  1
  N  N145  1  0.52143273  0.49201183  0.62917319  1
  N  N146  1  0.50285195  0.16940872  0.12549678  1
  N  N147  1  0.66231159  0.33557880  0.11979524  1
  N  N148  1  0.16358510  0.49365767  0.87376796  1
  N  N149  1  0.17237554  0.83205759  0.37764391  1
  N  N150  1  0.17329867  0.18176963  0.11940306  1
  N  N151  1  0.83775217  0.49675007  0.12601245  1
  N  N152  1  0.00880823  -0.00195701  0.62735657  1
  N  N153  1  0.02203559  0.33075972  0.36606288  1
  N  N154  1  0.65879857  0.00585547  0.87642018  1
  N  N155  1  0.65092349  0.00480223  0.12906006  1
  N  N156  1  0.84721094  0.16854774  0.61404026  1
  N  N157  1  0.17944623  0.15970906  0.63119666  1
  N  N158  1  -0.00959033  0.00224884  0.88018170  1
  N  N159  1  0.34959271  0.66521580  0.63673540  1
  N  N160  1  -0.00629055  0.33877516  0.13268646  1
  N  N161  1  0.49731482  0.50567447  0.12204781  1
  N  N162  1  0.84663180  0.83040605  0.62464818  1
  N  N163  1  -0.00851847  0.67534142  0.87943543  1
  N  N164  1  0.82870011  0.16226839  0.13846518  1
  N  N165  1  0.33842106  0.33186209  0.63168270  1
  N  N166  1  0.17463199  0.83193286  0.87321247  1
  N  N167  1  0.50935362  0.49786584  0.37414367  1
  N  N168  1  -0.00208725  0.00772389  0.11420738  1
  N  N169  1  0.49783584  0.83670214  0.86851628  1
  N  N170  1  0.31973564  0.66831183  0.86902358  1
  N  N171  1  0.15778749  0.48507757  0.61954132  1
  N  N172  1  0.83272308  0.49993970  0.62487665  1
  N  N173  1  0.00736554  0.00265977  0.36961237  1
  N  N174  1  0.49782316  0.83114045  0.12594719  1
  N  N175  1  0.16443800  0.50323402  0.13442788  1
  N  N176  1  0.85311500  0.82787623  0.37124527  1
  O  O177  1  -0.00954570  0.67212295  0.37248793  1
  O  O178  1  0.33364890  0.00175239  0.62493838  1
  O  O179  1  0.64416017  0.67382966  0.11791579  1
  O  O180  1  0.81831409  0.15557323  0.38651249  1
  O  O181  1  0.66885181  0.67450542  0.36776752  1
  O  O182  1  0.32601745  0.32578615  0.11796210  1
  O  O183  1  0.67031950  -0.01846091  0.62622146  1
  O  O184  1  0.16772278  0.17150837  0.88082481  1
  O  O185  1  0.66641763  -0.01722326  0.37614835  1
  O  O186  1  0.17819199  0.49423175  0.38492267  1
  O  O187  1  0.31183983  0.66881161  0.12637638  1
  O  O188  1  0.32396995  0.01596685  0.36816890  1
  O  O189  1  0.68050159  0.33079874  0.87745515  1
  O  O190  1  -0.01895716  0.66979109  0.63337974  1
  O  O191  1  0.64808528  0.66821298  0.87801203  1
  O  O192  1  0.33264522  0.01008621  0.11564215  1
  O  O193  1  0.83315172  0.83586095  0.87672911  1
  O  O194  1  0.16304424  0.84206221  0.62207635  1
  O  O195  1  0.51006740  0.49794822  0.87569474  1
  O  O196  1  0.82470721  0.17161351  0.86052007  1
  O  O197  1  0.49284093  0.18035555  0.37768403  1
  O  O198  1  0.34079849  0.32319694  0.36952060  1
  O  O199  1  0.30972697  0.66132017  0.39131893  1
  O  O200  1  0.00988725  0.67884158  0.12227905  1
  O  O201  1  0.82793265  0.50273013  0.37725998  1
  O  O202  1  0.51762239  0.82505146  0.38332656  1
  O  O203  1  0.51702131  0.83001660  0.62212915  1
  O  O204  1  0.18343358  0.81642780  0.12801429  1
  O  O205  1  0.66290302  0.34048588  0.62593440  1
  O  O206  1  -0.02638631  0.33692571  0.61073339  1
  O  O207  1  0.50173852  0.16641410  0.62191460  1
  O  O208  1  0.67299955  0.66688440  0.63096169  1
  O  O209  1  0.84330545  0.82847818  0.12555876  1
  O  O210  1  0.84221378  0.49003742  0.88069769  1
  O  O211  1  0.65088614  0.34155756  0.36859209  1
  O  O212  1  0.50741279  0.15539853  0.87379525  1
  O  O213  1  0.18842476  0.17039511  0.38091975  1
  O  O214  1  0.33313163  0.34306929  0.87843495  1
  O  O215  1  -0.02189428  0.33932031  0.87036061  1
