# generated using pymatgen
data_Sr24Ta24N11O13
_symmetry_space_group_name_H-M   'P 1'
_cell_length_a   16.66153972
_cell_length_b   16.97479660
_cell_length_c   15.68991784
_cell_angle_alpha   89.96841913
_cell_angle_beta   89.73829843
_cell_angle_gamma   90.31925425
_symmetry_Int_Tables_number   1
_chemical_formula_structural   Sr24Ta24N11O13
_chemical_formula_sum   'Sr72 Ta72 N33 O39'
_cell_volume   4437.40467854
_cell_formula_units_Z   3
loop_
 _symmetry_equiv_pos_site_id
 _symmetry_equiv_pos_as_xyz
  1  'x, y, z'
loop_
 _atom_site_type_symbol
 _atom_site_label
 _atom_site_symmetry_multiplicity
 _atom_site_fract_x
 _atom_site_fract_y
 _atom_site_fract_z
 _atom_site_occupancy
  Sr  Sr0  1  0.00907419  0.14640008  0.11092147  1
  Sr  Sr1  1  0.00859774  0.15864318  0.59647343  1
  Sr  Sr2  1  -0.00406477  0.50343622  0.11518226  1
  Sr  Sr3  1  -0.00037548  0.46876064  0.64632660  1
  Sr  Sr4  1  0.02006138  0.83009987  0.15644722  1
  Sr  Sr5  1  0.00305918  0.82375989  0.62710016  1
  Sr  Sr6  1  0.33948964  0.16019867  0.10280394  1
  Sr  Sr7  1  0.32021257  0.14452426  0.66983164  1
  Sr  Sr8  1  0.33947123  0.48596830  0.15940010  1
  Sr  Sr9  1  0.32697051  0.47719099  0.61731314  1
  Sr  Sr10  1  0.34631321  0.79794358  0.10552289  1
  Sr  Sr11  1  0.34863817  0.81988001  0.60565650  1
  Sr  Sr12  1  0.66897321  0.17174737  0.17008156  1
  Sr  Sr13  1  0.65057543  0.16062153  0.60884134  1
  Sr  Sr14  1  0.66254811  0.47709232  0.08633490  1
  Sr  Sr15  1  0.67080172  0.49014524  0.61815831  1
  Sr  Sr16  1  0.67559270  0.82351936  0.11728636  1
  Sr  Sr17  1  0.67772095  0.79695949  0.65163445  1
  Sr  Sr18  1  0.17120727  0.01614640  0.12752603  1
  Sr  Sr19  1  0.16050044  0.00312159  0.65830550  1
  Sr  Sr20  1  0.16545124  0.36554152  0.15545487  1
  Sr  Sr21  1  0.15917788  0.32579962  0.61455353  1
  Sr  Sr22  1  0.15851782  0.67679326  0.09619311  1
  Sr  Sr23  1  0.15894430  0.69304544  0.60835255  1
  Sr  Sr24  1  0.50195846  0.03528198  0.15233186  1
  Sr  Sr25  1  0.49806967  0.01385700  0.61866836  1
  Sr  Sr26  1  0.48991857  0.34019057  0.11571438  1
  Sr  Sr27  1  0.50647480  0.34436651  0.58368606  1
  Sr  Sr28  1  0.50521869  0.67126670  0.11653003  1
  Sr  Sr29  1  0.48513977  0.66376387  0.66176133  1
  Sr  Sr30  1  0.82422232  0.01089393  0.10218079  1
  Sr  Sr31  1  0.82705488  0.03435928  0.61330148  1
  Sr  Sr32  1  0.84401152  0.34946255  0.11010254  1
  Sr  Sr33  1  0.82268817  0.34578918  0.66767426  1
  Sr  Sr34  1  0.84059414  0.68572087  0.16061619  1
  Sr  Sr35  1  0.83606564  0.66455864  0.60368574  1
  Sr  Sr36  1  0.01265042  0.15606039  0.38893263  1
  Sr  Sr37  1  -0.00945150  0.15690033  0.91278176  1
  Sr  Sr38  1  -0.01276276  0.47390105  0.34164788  1
  Sr  Sr39  1  0.00160494  0.49055616  0.88178281  1
  Sr  Sr40  1  -0.00901827  0.81488871  0.38137472  1
  Sr  Sr41  1  0.02077157  0.83689621  0.84522516  1
  Sr  Sr42  1  0.32593693  0.12406138  0.33479689  1
  Sr  Sr43  1  0.33606144  0.17288634  0.88483781  1
  Sr  Sr44  1  0.32903320  0.47450089  0.37763778  1
  Sr  Sr45  1  0.33230020  0.49223140  0.84283639  1
  Sr  Sr46  1  0.34921993  0.82589448  0.39572275  1
  Sr  Sr47  1  0.34937317  0.80549460  0.89341340  1
  Sr  Sr48  1  0.64537983  0.17405463  0.38517874  1
  Sr  Sr49  1  0.67504470  0.15792753  0.82801769  1
  Sr  Sr50  1  0.66922660  0.49636735  0.40888235  1
  Sr  Sr51  1  0.66784891  0.47539543  0.87919087  1
  Sr  Sr52  1  0.67861595  0.80100736  0.35338828  1
  Sr  Sr53  1  0.67147487  0.83258732  0.89114431  1
  Sr  Sr54  1  0.15462737  0.00312144  0.34325477  1
  Sr  Sr55  1  0.17232871  0.01924497  0.88147419  1
  Sr  Sr56  1  0.15136963  0.33782342  0.39064493  1
  Sr  Sr57  1  0.17683140  0.35376387  0.83552466  1
  Sr  Sr58  1  0.16334582  0.69852298  0.39920056  1
  Sr  Sr59  1  0.15318817  0.68073559  0.89314803  1
  Sr  Sr60  1  0.50306240  0.00852138  0.38790235  1
  Sr  Sr61  1  0.49810109  0.03590893  0.85044840  1
  Sr  Sr62  1  0.49786734  0.34539488  0.38284099  1
  Sr  Sr63  1  0.49266427  0.33798606  0.90609954  1
  Sr  Sr64  1  0.48549010  0.67563251  0.34033256  1
  Sr  Sr65  1  0.51066279  0.66313291  0.87849775  1
  Sr  Sr66  1  0.81731392  0.03275586  0.39741635  1
  Sr  Sr67  1  0.82606476  0.01417682  0.89162740  1
  Sr  Sr68  1  0.82938581  0.33641942  0.33718112  1
  Sr  Sr69  1  0.84366335  0.34424479  0.88607264  1
  Sr  Sr70  1  0.83491745  0.65501839  0.38227826  1
  Sr  Sr71  1  0.83575573  0.70336149  0.84657956  1
  Ta  Ta72  1  0.16995402  0.21843770  -0.00312872  1
  Ta  Ta73  1  0.20054744  0.14412853  0.50545175  1
  Ta  Ta74  1  0.18846244  0.49150901  -0.00168667  1
  Ta  Ta75  1  0.15630396  0.52189477  0.49440617  1
  Ta  Ta76  1  0.16946951  0.86240546  -0.00021069  1
  Ta  Ta77  1  0.16951997  0.88511210  0.50512539  1
  Ta  Ta78  1  0.54710596  0.16950084  -0.00120104  1
  Ta  Ta79  1  0.44316409  0.16837959  0.50070901  1
  Ta  Ta80  1  0.46552770  0.50925887  -0.00641740  1
  Ta  Ta81  1  0.49078524  0.54379334  0.50300942  1
  Ta  Ta82  1  0.50663084  0.90124313  0.00455019  1
  Ta  Ta83  1  0.53509335  0.81373482  0.50322774  1
  Ta  Ta84  1  0.78164921  0.17772249  -0.00304550  1
  Ta  Ta85  1  0.83436437  0.21335462  0.50276313  1
  Ta  Ta86  1  0.83253155  0.55107898  -0.00487171  1
  Ta  Ta87  1  0.85064533  0.47614810  0.49875500  1
  Ta  Ta88  1  0.87547132  0.83233971  0.00316711  1
  Ta  Ta89  1  0.82685580  0.86520694  0.50426598  1
  Ta  Ta90  1  0.16393563  0.19403001  0.24097352  1
  Ta  Ta91  1  0.12750994  0.17412946  0.75740631  1
  Ta  Ta92  1  0.16376868  0.54582654  0.24862578  1
  Ta  Ta93  1  0.15978213  0.54697315  0.75104511  1
  Ta  Ta94  1  0.20499413  0.82482650  0.24586639  1
  Ta  Ta95  1  0.20810464  0.82922221  0.75141878  1
  Ta  Ta96  1  0.48331435  0.20517846  0.25304854  1
  Ta  Ta97  1  0.49701505  0.21343504  0.74436304  1
  Ta  Ta98  1  0.53545993  0.49883238  0.24864232  1
  Ta  Ta99  1  0.50993967  0.47192209  0.74638853  1
  Ta  Ta100  1  0.50385674  0.86065090  0.24756513  1
  Ta  Ta101  1  0.50363297  0.85990483  0.75311164  1
  Ta  Ta102  1  0.86119584  0.16165003  0.24508982  1
  Ta  Ta103  1  0.87097014  0.16982933  0.75712341  1
  Ta  Ta104  1  0.79317745  0.50599307  0.24347821  1
  Ta  Ta105  1  0.83039792  0.53157283  0.75470187  1
  Ta  Ta106  1  0.83327732  0.88435511  0.24987353  1
  Ta  Ta107  1  0.83361394  0.88470556  0.75166771  1
  Ta  Ta108  1  -0.03847292  0.00389709  0.24736215  1
  Ta  Ta109  1  -0.01895141  0.02289967  0.75938928  1
  Ta  Ta110  1  0.00253979  0.28936014  0.24757334  1
  Ta  Ta111  1  -0.00024886  0.28928064  0.75307029  1
  Ta  Ta112  1  0.02892574  0.65215118  0.25343168  1
  Ta  Ta113  1  0.00350889  0.64224362  0.74657636  1
  Ta  Ta114  1  0.34445226  -0.05332658  0.23798581  1
  Ta  Ta115  1  0.34323995  -0.04717670  0.75427561  1
  Ta  Ta116  1  0.32734187  0.29965122  0.24721887  1
  Ta  Ta117  1  0.37114989  0.32492667  0.74748662  1
  Ta  Ta118  1  0.29332967  0.66260360  0.24630624  1
  Ta  Ta119  1  0.29801121  0.66576910  0.75210459  1
  Ta  Ta120  1  0.67579675  -0.02223618  0.25545018  1
  Ta  Ta121  1  0.67143694  -0.03017342  0.73757632  1
  Ta  Ta122  1  0.65222580  0.36273605  0.25426433  1
  Ta  Ta123  1  0.62508082  0.32985797  0.74241623  1
  Ta  Ta124  1  0.66131991  0.61247129  0.24564056  1
  Ta  Ta125  1  0.67254451  0.62793945  0.75288679  1
  Ta  Ta126  1  0.00479784  -0.04052000  0.00298520  1
  Ta  Ta127  1  0.01153578  -0.02173924  0.50171025  1
  Ta  Ta128  1  0.04457682  0.33080491  -0.00494375  1
  Ta  Ta129  1  -0.04226615  0.32961957  0.50132976  1
  Ta  Ta130  1  -0.03153323  0.68554553  0.00509490  1
  Ta  Ta131  1  0.00494773  0.60696937  0.49138530  1
  Ta  Ta132  1  0.34584852  -0.02857439  0.01323173  1
  Ta  Ta133  1  0.31038467  0.00961423  0.50194289  1
  Ta  Ta134  1  0.30563785  0.35169573  -0.00088279  1
  Ta  Ta135  1  0.32326671  0.27661104  0.49864089  1
  Ta  Ta136  1  0.33082303  0.61202967  0.00398754  1
  Ta  Ta137  1  0.34037800  0.64025624  0.49764790  1
  Ta  Ta138  1  0.64594828  0.02679997  -0.00103743  1
  Ta  Ta139  1  0.66511129  -0.05893007  0.51389117  1
  Ta  Ta140  1  0.66902627  0.29266119  -0.00216086  1
  Ta  Ta141  1  0.71002777  0.32774209  0.49977709  1
  Ta  Ta142  1  0.69908565  0.65274466  0.00120690  1
  Ta  Ta143  1  0.61925269  0.66854746  0.50009347  1
  N  N144  1  0.65951943  0.00442682  0.61955134  1
  N  N145  1  0.48795661  0.17104773  0.61808320  1
  N  N146  1  0.17338943  0.17847104  0.87177602  1
  N  N147  1  -0.00429699  0.67074516  0.12628077  1
  N  N148  1  0.83489675  0.50140684  0.62925641  1
  N  N149  1  0.33273485  0.00746251  0.13428899  1
  N  N150  1  -0.00686705  0.65442608  0.37893525  1
  N  N151  1  -0.00110245  0.00154753  0.87940868  1
  N  N152  1  0.16510842  0.51483800  0.12516720  1
  N  N153  1  0.66388318  0.33144127  0.61844387  1
  N  N154  1  -0.00532453  0.31751889  0.36764102  1
  N  N155  1  0.33721298  0.33232661  0.86853569  1
  N  N156  1  0.17886255  0.83097924  0.12609496  1
  N  N157  1  -0.00554935  0.31858469  0.62180726  1
  N  N158  1  0.32904946  0.33043669  0.12451114  1
  N  N159  1  0.83079014  0.50711073  0.12039133  1
  N  N160  1  0.50940043  0.18232523  0.87984833  1
  N  N161  1  -0.00384422  -0.00539879  0.12708880  1
  N  N162  1  0.33153915  0.64795395  0.12659115  1
  N  N163  1  0.48820768  0.16787770  0.37535338  1
  N  N164  1  0.82965795  0.17116657  0.88183282  1
  N  N165  1  0.50796590  0.18354566  0.12906380  1
  N  N166  1  0.16314672  0.51440194  0.87101841  1
  N  N167  1  0.66511757  0.33562567  0.37595721  1
  N  N168  1  0.83702401  0.49856063  0.88191545  1
  N  N169  1  0.00432162  0.33270535  0.87881739  1
  N  N170  1  0.16512710  0.16139454  0.62506878  1
  N  N171  1  0.82820983  0.49772257  0.37203202  1
  N  N172  1  0.49446002  0.50234195  0.87283221  1
  N  N173  1  0.17584165  0.84638687  0.62353660  1
  N  N174  1  0.17739825  0.83730187  0.87468552  1
  N  N175  1  0.17007278  0.17403307  0.12022481  1
  N  N176  1  0.49478111  0.50340106  0.61982377  1
  O  O177  1  0.18478750  0.84989739  0.38045221  1
  O  O178  1  0.66669522  -0.02854981  0.38170213  1
  O  O179  1  0.52046040  0.85710924  0.11824140  1
  O  O180  1  0.33459585  0.65162904  0.37106177  1
  O  O181  1  0.84639926  0.86523409  0.63127174  1
  O  O182  1  0.32346665  0.65817108  0.62131716  1
  O  O183  1  -0.00392841  0.64481362  0.61927773  1
  O  O184  1  0.50622304  0.50063809  0.12358813  1
  O  O185  1  0.66376130  0.31665891  0.86475280  1
  O  O186  1  0.16879805  0.15552829  0.37434656  1
  O  O187  1  0.64770073  0.64840071  0.63046782  1
  O  O188  1  0.66014888  0.00623521  0.87006496  1
  O  O189  1  0.83405141  0.18541087  0.63513326  1
  O  O190  1  0.31457090  0.65746842  0.87815708  1
  O  O191  1  0.31396202  0.32027935  0.38083915  1
  O  O192  1  0.67254255  0.66349499  0.12710956  1
  O  O193  1  0.66419114  0.32551107  0.13031595  1
  O  O194  1  0.33775983  -0.02000048  0.37492884  1
  O  O195  1  0.00177717  0.33024257  0.12108798  1
  O  O196  1  0.51369879  0.83455997  0.37072662  1
  O  O197  1  0.83460391  0.85713902  0.87872192  1
  O  O198  1  0.17138968  0.49213059  0.37206030  1
  O  O199  1  -0.00013296  -0.00242887  0.62561489  1
  O  O200  1  0.32103546  0.31628402  0.62296963  1
  O  O201  1  -0.00601587  0.66880771  0.87089335  1
  O  O202  1  0.83033244  0.16349048  0.12133006  1
  O  O203  1  0.64169354  0.65457873  0.37021660  1
  O  O204  1  0.84678396  0.17926502  0.37009204  1
  O  O205  1  0.51070815  0.50347293  0.37817878  1
  O  O206  1  0.50869166  0.82408667  0.63390593  1
  O  O207  1  0.34071307  -0.03330722  0.87830096  1
  O  O208  1  0.33880112  -0.01920595  0.62570254  1
  O  O209  1  0.67431439  0.65282981  0.87933527  1
  O  O210  1  0.83369289  0.85386599  0.12269421  1
  O  O211  1  -0.00234127  -0.00694410  0.37577622  1
  O  O212  1  0.51383990  0.86856477  0.88092704  1
  O  O213  1  0.83236760  0.86886283  0.38024130  1
  O  O214  1  0.16771962  0.51706527  0.61961529  1
  O  O215  1  0.66451494  0.00732746  0.13327177  1
