# generated using pymatgen
data_Sr24Ta24N11O13
_symmetry_space_group_name_H-M   'P 1'
_cell_length_a   16.89591242
_cell_length_b   16.79940428
_cell_length_c   15.69648247
_cell_angle_alpha   89.99781997
_cell_angle_beta   90.06463736
_cell_angle_gamma   90.30113061
_symmetry_Int_Tables_number   1
_chemical_formula_structural   Sr24Ta24N11O13
_chemical_formula_sum   'Sr72 Ta72 N33 O39'
_cell_volume   4455.24504446
_cell_formula_units_Z   3
loop_
 _symmetry_equiv_pos_site_id
 _symmetry_equiv_pos_as_xyz
  1  'x, y, z'
loop_
 _atom_site_type_symbol
 _atom_site_label
 _atom_site_symmetry_multiplicity
 _atom_site_fract_x
 _atom_site_fract_y
 _atom_site_fract_z
 _atom_site_occupancy
  Sr  Sr0  1  -0.00025846  0.14862067  0.10998841  1
  Sr  Sr1  1  0.00970539  0.17394684  0.66455708  1
  Sr  Sr2  1  -0.00539862  0.51545131  0.08198859  1
  Sr  Sr3  1  -0.03132385  0.49975173  0.62712521  1
  Sr  Sr4  1  -0.01121570  0.81689467  0.16853615  1
  Sr  Sr5  1  0.01095220  0.84060482  0.60876893  1
  Sr  Sr6  1  0.32950132  0.16841318  0.12592485  1
  Sr  Sr7  1  0.32365036  0.18396157  0.57276360  1
  Sr  Sr8  1  0.29787001  0.49830140  0.14321475  1
  Sr  Sr9  1  0.33056473  0.49538961  0.64989953  1
  Sr  Sr10  1  0.33800264  0.83742671  0.12765790  1
  Sr  Sr11  1  0.30891976  0.92055200  0.73871447  1
  Sr  Sr12  1  0.65462719  0.16404834  0.16380575  1
  Sr  Sr13  1  0.68103380  0.18116717  0.61617353  1
  Sr  Sr14  1  0.65920144  0.49816354  0.13685728  1
  Sr  Sr15  1  0.63127750  0.50655978  0.58064252  1
  Sr  Sr16  1  0.68654845  0.85942251  0.06207620  1
  Sr  Sr17  1  0.65938907  0.83121603  0.62776206  1
  Sr  Sr18  1  0.16900820  0.01819324  0.06505842  1
  Sr  Sr19  1  0.15551438  0.00770761  0.63288493  1
  Sr  Sr20  1  0.17888100  0.31749550  0.16314379  1
  Sr  Sr21  1  0.18732377  0.32679457  0.62073525  1
  Sr  Sr22  1  0.16650513  0.68714953  0.13866172  1
  Sr  Sr23  1  0.15230334  0.64945434  0.57692457  1
  Sr  Sr24  1  0.49112725  0.00361175  0.13078612  1
  Sr  Sr25  1  0.51044135  -0.00437588  0.66410762  1
  Sr  Sr26  1  0.52216837  0.33291267  0.11874378  1
  Sr  Sr27  1  0.51246278  0.32453775  0.60613006  1
  Sr  Sr28  1  0.51939466  0.64054814  0.16288004  1
  Sr  Sr29  1  0.51373540  0.66402542  0.61652052  1
  Sr  Sr30  1  0.84105433  0.00352229  0.13014905  1
  Sr  Sr31  1  0.82067244  -0.01045360  0.57762835  1
  Sr  Sr32  1  0.87535528  0.32195967  0.10339153  1
  Sr  Sr33  1  0.84889684  0.32143313  0.63791930  1
  Sr  Sr34  1  0.82817180  0.65911942  0.11287928  1
  Sr  Sr35  1  0.84123149  0.68026411  0.67213715  1
  Sr  Sr36  1  0.00707091  0.18384515  0.33175442  1
  Sr  Sr37  1  -0.01021559  0.15462075  0.88580714  1
  Sr  Sr38  1  -0.00993958  0.49617632  0.41648438  1
  Sr  Sr39  1  -0.03089113  0.51309465  0.87028000  1
  Sr  Sr40  1  -0.01459487  0.83928497  0.37886125  1
  Sr  Sr41  1  0.00104899  0.82883436  0.82791227  1
  Sr  Sr42  1  0.32122653  0.14980549  0.37291019  1
  Sr  Sr43  1  0.34325070  0.18335870  0.91943228  1
  Sr  Sr44  1  0.28862342  0.52657943  0.37234016  1
  Sr  Sr45  1  0.33048893  0.50545930  0.86107749  1
  Sr  Sr46  1  0.34132967  0.83463925  0.36337872  1
  Sr  Sr47  1  0.31835282  0.80094168  0.91042510  1
  Sr  Sr48  1  0.68680103  0.17663659  0.38765475  1
  Sr  Sr49  1  0.65934162  0.18386516  0.83865000  1
  Sr  Sr50  1  0.66318886  0.51447879  0.35330018  1
  Sr  Sr51  1  0.64228312  0.49704521  0.91386986  1
  Sr  Sr52  1  0.63806605  0.83806201  0.40732092  1
  Sr  Sr53  1  0.65610771  0.81246950  0.85073225  1
  Sr  Sr54  1  0.17860113  -0.02939436  0.41849793  1
  Sr  Sr55  1  0.14925310  0.00720588  0.85544486  1
  Sr  Sr56  1  0.18105051  0.31701800  0.36958006  1
  Sr  Sr57  1  0.19102455  0.34075902  0.84330719  1
  Sr  Sr58  1  0.15417183  0.70740972  0.36996173  1
  Sr  Sr59  1  0.17275486  0.64543556  0.90981791  1
  Sr  Sr60  1  0.48482665  -0.01710023  0.35233870  1
  Sr  Sr61  1  0.51326216  -0.03018845  0.88348856  1
  Sr  Sr62  1  0.53933957  0.33581399  0.37925255  1
  Sr  Sr63  1  0.50216701  0.33550946  0.89103707  1
  Sr  Sr64  1  0.51542517  0.67510268  0.38389792  1
  Sr  Sr65  1  0.48063441  0.64711627  0.85623106  1
  Sr  Sr66  1  0.83812363  0.00823418  0.36089257  1
  Sr  Sr67  1  0.82758279  -0.00300511  0.90986260  1
  Sr  Sr68  1  0.86223518  0.33580849  0.39422423  1
  Sr  Sr69  1  0.85282791  0.31685445  0.85753829  1
  Sr  Sr70  1  0.83326911  0.66689502  0.33702450  1
  Sr  Sr71  1  0.81534601  0.66910051  0.88420026  1
  Ta  Ta72  1  0.16436959  0.21628816  -0.00134870  1
  Ta  Ta73  1  0.12515411  0.15979726  0.49884812  1
  Ta  Ta74  1  0.16640757  0.44921884  -0.00011901  1
  Ta  Ta75  1  0.16107658  0.46674526  0.50312103  1
  Ta  Ta76  1  0.12321311  0.83242957  -0.00302999  1
  Ta  Ta77  1  0.24774008  0.82602634  0.56619575  1
  Ta  Ta78  1  0.52546336  0.15344960  0.00416615  1
  Ta  Ta79  1  0.50424946  0.12773646  0.49830364  1
  Ta  Ta80  1  0.46869116  0.50371827  0.01599640  1
  Ta  Ta81  1  0.45477346  0.49815513  0.48091636  1
  Ta  Ta82  1  0.50252381  0.78438208  0.00643423  1
  Ta  Ta83  1  0.41985830  0.83330081  0.57148315  1
  Ta  Ta84  1  0.79055367  0.17293132  -0.00483532  1
  Ta  Ta85  1  0.88364914  0.16737116  0.50219073  1
  Ta  Ta86  1  0.81005587  0.46809990  -0.00488862  1
  Ta  Ta87  1  0.81232460  0.53073559  0.49996518  1
  Ta  Ta88  1  0.87516502  0.82544768  -0.00480410  1
  Ta  Ta89  1  0.82785410  0.80032304  0.50194818  1
  Ta  Ta90  1  0.16722903  0.09993962  0.24857029  1
  Ta  Ta91  1  0.19673267  0.17723037  0.74466472  1
  Ta  Ta92  1  0.11857069  0.50292010  0.25038456  1
  Ta  Ta93  1  0.13408081  0.50741839  0.74918705  1
  Ta  Ta94  1  0.16797226  0.90393860  0.22271131  1
  Ta  Ta95  1  0.17660354  0.77782382  0.74227890  1
  Ta  Ta96  1  0.47838267  0.18479836  0.25275762  1
  Ta  Ta97  1  0.47915564  0.17983968  0.74871545  1
  Ta  Ta98  1  0.45599006  0.48440960  0.26289631  1
  Ta  Ta99  1  0.52435955  0.48544070  0.75268232  1
  Ta  Ta100  1  0.54721299  0.82756226  0.21328998  1
  Ta  Ta101  1  0.46237605  0.80905091  0.75402769  1
  Ta  Ta102  1  0.83173361  0.18913370  0.24983310  1
  Ta  Ta103  1  0.83122254  0.12254490  0.74447996  1
  Ta  Ta104  1  0.85812903  0.48180552  0.24784988  1
  Ta  Ta105  1  0.76959118  0.49638262  0.74491420  1
  Ta  Ta106  1  0.78939022  0.83808546  0.24046799  1
  Ta  Ta107  1  0.82600268  0.87102554  0.74979968  1
  Ta  Ta108  1  0.03416409  -0.00370885  0.24354072  1
  Ta  Ta109  1  -0.04859379  -0.00031561  0.73952639  1
  Ta  Ta110  1  0.00355685  0.37986993  0.25327912  1
  Ta  Ta111  1  0.03067588  0.35734245  0.74476442  1
  Ta  Ta112  1  0.00153106  0.61931531  0.25598084  1
  Ta  Ta113  1  0.03976582  0.65506500  0.74073907  1
  Ta  Ta114  1  0.29925105  0.00129032  0.23727286  1
  Ta  Ta115  1  0.33998633  0.09832327  0.74741799  1
  Ta  Ta116  1  0.36816770  0.32783749  0.25556520  1
  Ta  Ta117  1  0.35482089  0.29322587  0.75073368  1
  Ta  Ta118  1  0.35710116  0.65651755  0.24721920  1
  Ta  Ta119  1  0.32417934  0.71676950  0.68965942  1
  Ta  Ta120  1  0.66661809  -0.03228752  0.24183693  1
  Ta  Ta121  1  0.70422476  0.00547843  0.74558600  1
  Ta  Ta122  1  0.72812939  0.33671579  0.25051063  1
  Ta  Ta123  1  0.66409617  0.37268195  0.74177167  1
  Ta  Ta124  1  0.67281299  0.71515035  0.23893410  1
  Ta  Ta125  1  0.65848961  0.62305517  0.74719413  1
  Ta  Ta126  1  -0.00185665  -0.05515985  0.00049080  1
  Ta  Ta127  1  -0.00072093  0.03986545  0.49757367  1
  Ta  Ta128  1  0.04489038  0.33250188  -0.00278048  1
  Ta  Ta129  1  0.02591288  0.30810799  0.50092862  1
  Ta  Ta130  1  -0.00124956  0.71042404  -0.00373764  1
  Ta  Ta131  1  -0.04750221  0.66904235  0.50036517  1
  Ta  Ta132  1  0.34471215  0.00154705  -0.01419017  1
  Ta  Ta133  1  0.35957935  -0.01431244  0.52373638  1
  Ta  Ta134  1  0.32005043  0.35706237  -0.00140403  1
  Ta  Ta135  1  0.34711425  0.36978684  0.48702968  1
  Ta  Ta136  1  0.37607175  0.64926383  0.03660486  1
  Ta  Ta137  1  0.34849873  0.67820682  0.50758748  1
  Ta  Ta138  1  0.65892244  0.05085688  0.00032760  1
  Ta  Ta139  1  0.63109267  0.01746384  0.50039121  1
  Ta  Ta140  1  0.69697745  0.32046583  -0.00028398  1
  Ta  Ta141  1  0.70956774  0.36255478  0.49890473  1
  Ta  Ta142  1  0.63394558  0.67135244  0.00854446  1
  Ta  Ta143  1  0.71546910  0.66800933  0.50506516  1
  N  N144  1  0.67490072  0.65704577  0.12319071  1
  N  N145  1  0.82641495  0.16105256  0.87626030  1
  N  N146  1  0.83217891  0.83116863  0.62164835  1
  N  N147  1  0.34289363  0.33472791  0.87621731  1
  N  N148  1  0.66450221  0.00395286  0.62273619  1
  N  N149  1  0.69413936  0.34539182  0.37159612  1
  N  N150  1  0.30295433  0.62863125  0.60558282  1
  N  N151  1  0.00847732  0.33734459  0.62503855  1
  N  N152  1  0.33564470  0.03553410  0.63229765  1
  N  N153  1  0.84082885  0.16409260  0.61918822  1
  N  N154  1  0.83352132  0.82902324  0.86754347  1
  N  N155  1  0.01499883  0.33805653  0.36975715  1
  N  N156  1  0.16973347  0.84483866  0.10950718  1
  N  N157  1  0.50105577  0.85513203  0.10368862  1
  N  N158  1  0.32951863  0.00875522  0.10658079  1
  N  N159  1  -0.00476761  0.66410941  0.62233725  1
  N  N160  1  0.49062635  0.81336937  0.88062554  1
  N  N161  1  0.66808825  0.00884845  0.12499654  1
  N  N162  1  0.16770005  0.16902793  0.61862887  1
  N  N163  1  0.49131452  0.49201356  0.87359394  1
  N  N164  1  0.67293304  0.66206128  0.62596887  1
  N  N165  1  -0.00563995  0.00197232  0.62335380  1
  N  N166  1  0.51207487  0.50496370  0.37169093  1
  N  N167  1  0.83441799  0.83100328  0.12531900  1
  N  N168  1  -0.00123100  -0.01243903  0.12058428  1
  N  N169  1  0.51595615  0.83747303  0.64899498  1
  N  N170  1  0.49719745  0.48571649  0.13774796  1
  N  N171  1  -0.01126338  0.65992227  0.37319671  1
  N  N172  1  0.49397779  0.16699485  0.12826283  1
  N  N173  1  0.67230748  0.33995094  0.61913375  1
  N  N174  1  0.84911930  0.17286499  0.37012169  1
  N  N175  1  0.31250991  0.68046450  0.13631607  1
  N  N176  1  0.16534921  0.85970042  0.65795253  1
  O  O177  1  0.68454112  0.33289268  0.13028328  1
  O  O178  1  0.32912628  0.03389070  0.85928523  1
  O  O179  1  0.16581019  0.13595757  0.37425777  1
  O  O180  1  0.84493773  0.16859075  0.11464726  1
  O  O181  1  -0.00443925  -0.00386307  0.37410065  1
  O  O182  1  -0.00431886  -0.00948331  0.86446082  1
  O  O183  1  0.20176035  0.82499256  0.45432362  1
  O  O184  1  0.83334560  0.82413594  0.36298305  1
  O  O185  1  0.81597187  0.51670556  0.63055501  1
  O  O186  1  0.02400580  0.33920926  0.12814273  1
  O  O187  1  0.16944283  0.80062874  0.87213331  1
  O  O188  1  0.16873702  0.49575870  0.62505532  1
  O  O189  1  0.01699157  0.33330644  0.87195047  1
  O  O190  1  0.35001894  0.33520125  0.61447011  1
  O  O191  1  0.67495063  0.68741522  0.37045628  1
  O  O192  1  0.64894424  -0.01090786  0.37478146  1
  O  O193  1  0.84396766  0.47830371  0.11550955  1
  O  O194  1  -0.00115757  0.66557804  0.12087955  1
  O  O195  1  0.49614825  0.83181251  0.32635116  1
  O  O196  1  0.33984769  0.30913504  0.38191521  1
  O  O197  1  0.33144162  -0.00885073  0.38765298  1
  O  O198  1  0.83590808  0.50921869  0.36894353  1
  O  O199  1  0.31979941  0.64864978  0.92749990  1
  O  O200  1  0.50114980  0.17974240  0.88033980  1
  O  O201  1  0.14468346  0.48300841  0.38088861  1
  O  O202  1  0.65617227  0.65621887  0.87678426  1
  O  O203  1  0.50243096  0.16298831  0.61873873  1
  O  O204  1  0.67494473  0.33402850  0.87442927  1
  O  O205  1  0.34342291  0.33360157  0.12940065  1
  O  O206  1  0.80995140  0.48683158  0.87098335  1
  O  O207  1  0.01594593  0.67067591  0.87325939  1
  O  O208  1  0.15186551  0.49587235  0.87726490  1
  O  O209  1  0.33815090  0.67864520  0.37396855  1
  O  O210  1  0.14545440  0.49177700  0.11895098  1
  O  O211  1  0.48097636  0.13809739  0.37032695  1
  O  O212  1  0.16083515  0.16401156  0.11926350  1
  O  O213  1  0.48621707  0.49879164  0.62548037  1
  O  O214  1  0.17458437  0.18603623  0.87729936  1
  O  O215  1  0.66595900  0.02219287  0.86965646  1
