# generated using pymatgen
data_Sr24Ta24N11O13
_symmetry_space_group_name_H-M   'P 1'
_cell_length_a   16.85019014
_cell_length_b   16.77541166
_cell_length_c   15.75067111
_cell_angle_alpha   89.76072572
_cell_angle_beta   90.12449495
_cell_angle_gamma   89.77344313
_symmetry_Int_Tables_number   1
_chemical_formula_structural   Sr24Ta24N11O13
_chemical_formula_sum   'Sr72 Ta72 N33 O39'
_cell_volume   4452.14020029
_cell_formula_units_Z   3
loop_
 _symmetry_equiv_pos_site_id
 _symmetry_equiv_pos_as_xyz
  1  'x, y, z'
loop_
 _atom_site_type_symbol
 _atom_site_label
 _atom_site_symmetry_multiplicity
 _atom_site_fract_x
 _atom_site_fract_y
 _atom_site_fract_z
 _atom_site_occupancy
  Sr  Sr0  1  -0.02040082  0.16196719  0.15872440  1
  Sr  Sr1  1  0.02053963  0.16876983  0.61311291  1
  Sr  Sr2  1  -0.00517863  0.50041405  0.12714709  1
  Sr  Sr3  1  -0.03072483  0.51464771  0.59265128  1
  Sr  Sr4  1  -0.02324494  0.84458209  0.08899789  1
  Sr  Sr5  1  0.00259774  0.82404323  0.64207344  1
  Sr  Sr6  1  0.32133168  0.18132482  0.11108199  1
  Sr  Sr7  1  0.34491953  0.15702829  0.66847052  1
  Sr  Sr8  1  0.31446091  0.50575489  0.14971800  1
  Sr  Sr9  1  0.33125960  0.49335408  0.61567112  1
  Sr  Sr10  1  0.32141186  0.82847057  0.12253130  1
  Sr  Sr11  1  0.32878862  0.84712793  0.58661309  1
  Sr  Sr12  1  0.66303207  0.15339242  0.08867343  1
  Sr  Sr13  1  0.64673087  0.17101927  0.62514716  1
  Sr  Sr14  1  0.65321247  0.50867120  0.11563045  1
  Sr  Sr15  1  0.66541326  0.50072335  0.65185737  1
  Sr  Sr16  1  0.65706496  0.84344849  0.16033947  1
  Sr  Sr17  1  0.65888407  0.82679693  0.61874428  1
  Sr  Sr18  1  0.18033930  0.01298634  0.13499883  1
  Sr  Sr19  1  0.16928905  -0.01289338  0.58411635  1
  Sr  Sr20  1  0.15681445  0.34025139  0.08025718  1
  Sr  Sr21  1  0.17971610  0.31958078  0.63891098  1
  Sr  Sr22  1  0.17189206  0.65415110  0.16057477  1
  Sr  Sr23  1  0.18680561  0.65703428  0.62750854  1
  Sr  Sr24  1  0.51934803  -0.00085966  0.13958196  1
  Sr  Sr25  1  0.50393586  -0.01165346  0.61792959  1
  Sr  Sr26  1  0.48496284  0.32886812  0.13713390  1
  Sr  Sr27  1  0.50281527  0.34752624  0.58088588  1
  Sr  Sr28  1  0.51382450  0.68015834  0.11268206  1
  Sr  Sr29  1  0.52244221  0.65663668  0.67176281  1
  Sr  Sr30  1  0.82864562  0.00434859  0.11868656  1
  Sr  Sr31  1  0.87351882  -0.01036127  0.66964241  1
  Sr  Sr32  1  0.84692018  0.33745969  0.16985765  1
  Sr  Sr33  1  0.83340252  0.31389357  0.62012204  1
  Sr  Sr34  1  0.84810020  0.65947381  0.09895523  1
  Sr  Sr35  1  0.84417292  0.68005397  0.60718881  1
  Sr  Sr36  1  0.00787482  0.15886834  0.38097382  1
  Sr  Sr37  1  -0.01264080  0.17806039  0.83862451  1
  Sr  Sr38  1  -0.01705356  0.51374420  0.35711330  1
  Sr  Sr39  1  -0.00375114  0.49807833  0.91195122  1
  Sr  Sr40  1  -0.01440621  0.83274050  0.39915828  1
  Sr  Sr41  1  -0.00041075  0.82941562  0.86562218  1
  Sr  Sr42  1  0.34440390  0.16427453  0.32781191  1
  Sr  Sr43  1  0.31856875  0.18217077  0.88674533  1
  Sr  Sr44  1  0.32293556  0.48261633  0.39176505  1
  Sr  Sr45  1  0.31537873  0.51498298  0.83506416  1
  Sr  Sr46  1  0.31671568  0.83096190  0.37723418  1
  Sr  Sr47  1  0.33350301  0.83213628  0.90706989  1
  Sr  Sr48  1  0.65267003  0.17021823  0.41901000  1
  Sr  Sr49  1  0.65778381  0.16144552  0.87801148  1
  Sr  Sr50  1  0.65025987  0.48989917  0.34918326  1
  Sr  Sr51  1  0.65786816  0.51432785  0.88615737  1
  Sr  Sr52  1  0.66924759  0.83846794  0.37845773  1
  Sr  Sr53  1  0.63504218  0.83550779  0.83471597  1
  Sr  Sr54  1  0.17000572  0.00757652  0.36683629  1
  Sr  Sr55  1  0.18725441  -0.01383546  0.91257591  1
  Sr  Sr56  1  0.16881602  0.32573923  0.40717136  1
  Sr  Sr57  1  0.16929219  0.32999812  0.86351311  1
  Sr  Sr58  1  0.19319858  0.64969580  0.37195412  1
  Sr  Sr59  1  0.17075432  0.66852649  0.84059920  1
  Sr  Sr60  1  0.51707616  -0.01069505  0.39371119  1
  Sr  Sr61  1  0.50870397  0.01102121  0.84170345  1
  Sr  Sr62  1  0.48742848  0.33607941  0.36234802  1
  Sr  Sr63  1  0.51797226  0.33561640  0.92503063  1
  Sr  Sr64  1  0.53804455  0.67475165  0.34380119  1
  Sr  Sr65  1  0.49980412  0.67418667  0.88432469  1
  Sr  Sr66  1  0.84131462  -0.00990910  0.33984168  1
  Sr  Sr67  1  0.84415515  0.00348690  0.89011107  1
  Sr  Sr68  1  0.84158718  0.31902757  0.38236956  1
  Sr  Sr69  1  0.82546584  0.32837067  0.83927958  1
  Sr  Sr70  1  0.83956515  0.66943931  0.40144024  1
  Sr  Sr71  1  0.85347526  0.66227069  0.89439634  1
  Ta  Ta72  1  0.11641291  0.16384595  -0.00075849  1
  Ta  Ta73  1  0.21981854  0.16091552  0.50359507  1
  Ta  Ta74  1  0.18007402  0.52724776  0.00097936  1
  Ta  Ta75  1  0.13174309  0.49691690  0.49430888  1
  Ta  Ta76  1  0.15915304  0.79305584  0.00126131  1
  Ta  Ta77  1  0.14669234  0.80665303  0.50034117  1
  Ta  Ta78  1  0.48401362  0.14437367  0.00378797  1
  Ta  Ta79  1  0.45931888  0.16719467  0.49642352  1
  Ta  Ta80  1  0.44933877  0.50902745  -0.00349158  1
  Ta  Ta81  1  0.50898810  0.53949382  0.50702058  1
  Ta  Ta82  1  0.51345802  0.85925081  -0.00146382  1
  Ta  Ta83  1  0.50103808  0.78832201  0.50265222  1
  Ta  Ta84  1  0.84270093  0.19434460  0.00679145  1
  Ta  Ta85  1  0.83549422  0.11091290  0.50177318  1
  Ta  Ta86  1  0.82381002  0.45312161  0.00645778  1
  Ta  Ta87  1  0.79608967  0.48729943  0.49353151  1
  Ta  Ta88  1  0.78637569  0.83705315  -0.00586737  1
  Ta  Ta89  1  0.83053478  0.87231734  0.50630525  1
  Ta  Ta90  1  0.16013176  0.20765496  0.24254494  1
  Ta  Ta91  1  0.17189089  0.11726938  0.74869683  1
  Ta  Ta92  1  0.15458948  0.45863611  0.25005630  1
  Ta  Ta93  1  0.11476321  0.49381480  0.74604019  1
  Ta  Ta94  1  0.11885871  0.83044468  0.24967673  1
  Ta  Ta95  1  0.19169886  0.85211342  0.74409200  1
  Ta  Ta96  1  0.53389357  0.16060182  0.25210499  1
  Ta  Ta97  1  0.50097247  0.23272576  0.75444887  1
  Ta  Ta98  1  0.47164515  0.52247914  0.25173688  1
  Ta  Ta99  1  0.49616985  0.45259519  0.74986859  1
  Ta  Ta100  1  0.47025953  0.83639296  0.25275413  1
  Ta  Ta101  1  0.45353833  0.83475458  0.74621408  1
  Ta  Ta102  1  0.78500917  0.16378300  0.25336678  1
  Ta  Ta103  1  0.80454556  0.14847410  0.74792018  1
  Ta  Ta104  1  0.81601653  0.52831334  0.24744199  1
  Ta  Ta105  1  0.85002281  0.51279865  0.75225519  1
  Ta  Ta106  1  0.84324628  0.80815132  0.25338008  1
  Ta  Ta107  1  0.81381115  0.82194591  0.75342066  1
  Ta  Ta108  1  0.01164843  -0.03358042  0.25191444  1
  Ta  Ta109  1  0.05721180  -0.00145648  0.74751057  1
  Ta  Ta110  1  0.03996810  0.33403144  0.24614018  1
  Ta  Ta111  1  -0.00566540  0.38086869  0.74769515  1
  Ta  Ta112  1  -0.00949536  0.70111676  0.24863785  1
  Ta  Ta113  1  -0.00561438  0.63210546  0.74974090  1
  Ta  Ta114  1  0.36142216  -0.01532973  0.25242766  1
  Ta  Ta115  1  0.31408896  -0.02422877  0.74464010  1
  Ta  Ta116  1  0.29119573  0.33665479  0.24440142  1
  Ta  Ta117  1  0.37097323  0.33788131  0.75539077  1
  Ta  Ta118  1  0.36622118  0.66871663  0.25261113  1
  Ta  Ta119  1  0.34119930  0.71069468  0.74761725  1
  Ta  Ta120  1  0.66990124  0.04068213  0.26157823  1
  Ta  Ta121  1  0.69921853  0.00436547  0.74605756  1
  Ta  Ta122  1  0.66568911  0.28939065  0.25027484  1
  Ta  Ta123  1  0.63702558  0.33145670  0.74976283  1
  Ta  Ta124  1  0.71142124  0.66742977  0.24162212  1
  Ta  Ta125  1  0.71438841  0.66946259  0.75681742  1
  Ta  Ta126  1  0.01014479  0.03351882  -0.00249174  1
  Ta  Ta127  1  -0.02383438  -0.00439088  0.50220742  1
  Ta  Ta128  1  -0.03119540  0.31206129  0.00372106  1
  Ta  Ta129  1  0.00605026  0.35937549  0.49567919  1
  Ta  Ta130  1  0.04745829  0.67127616  -0.00380291  1
  Ta  Ta131  1  0.03651464  0.67003293  0.50253736  1
  Ta  Ta132  1  0.37620029  0.00805792  -0.00171871  1
  Ta  Ta133  1  0.34146451  0.04214361  0.50066384  1
  Ta  Ta134  1  0.33247778  0.38050862  -0.00402257  1
  Ta  Ta135  1  0.33309963  0.28678198  0.49523738  1
  Ta  Ta136  1  0.31533765  0.64774131  -0.00541175  1
  Ta  Ta137  1  0.38833844  0.66288323  0.50411041  1
  Ta  Ta138  1  0.66390496  -0.03753782  -0.00979013  1
  Ta  Ta139  1  0.71302895  -0.00270056  0.50617415  1
  Ta  Ta140  1  0.71558766  0.32969918  0.00517045  1
  Ta  Ta141  1  0.67748383  0.35980627  0.50226654  1
  Ta  Ta142  1  0.67577992  0.71423186  -0.00449696  1
  Ta  Ta143  1  0.65566629  0.64495547  0.50804160  1
  N  N144  1  0.48727076  0.83968073  0.87451947  1
  N  N145  1  0.32424155  0.34204362  0.12073360  1
  N  N146  1  0.33821464  0.00183684  0.62552657  1
  N  N147  1  0.82140037  0.49541830  0.37340385  1
  N  N148  1  0.15958218  0.50064453  0.11957345  1
  N  N149  1  0.49685873  0.49715883  0.63089990  1
  N  N150  1  0.83106636  0.83285370  0.37442252  1
  N  N151  1  0.49691878  0.83603435  0.12664516  1
  N  N152  1  0.32942618  0.34204900  0.87474994  1
  N  N153  1  0.67901378  0.66227537  0.62728604  1
  N  N154  1  0.83171176  0.83585203  0.63276448  1
  N  N155  1  0.00378901  -0.00672109  0.37315695  1
  N  N156  1  0.33106001  0.67381842  0.87429129  1
  N  N157  1  0.49721514  0.16939024  0.37758678  1
  N  N158  1  0.67115899  0.67039032  0.87255167  1
  N  N159  1  0.49805980  0.16625252  0.12522936  1
  N  N160  1  0.18440728  0.15374873  0.62958256  1
  N  N161  1  0.01197652  0.66307104  0.87481406  1
  N  N162  1  0.17004990  0.82476792  0.62366710  1
  N  N163  1  0.67005586  -0.00443061  0.86885076  1
  N  N164  1  0.68024573  0.67753286  0.12213885  1
  N  N165  1  0.15898044  0.49555252  0.37262422  1
  N  N166  1  0.82424648  0.16813705  0.12735798  1
  N  N167  1  0.02036552  -0.00201809  0.62604025  1
  N  N168  1  0.01133068  0.66522234  0.62532080  1
  N  N169  1  0.15192909  0.17251027  0.12094780  1
  N  N170  1  0.49953423  0.82613121  0.38067115  1
  N  N171  1  0.83007247  0.49281361  0.12404174  1
  N  N172  1  0.66357961  0.33508900  0.62351885  1
  N  N173  1  0.49753807  0.82953685  0.62690792  1
  N  N174  1  -0.00261083  0.33250137  0.12213617  1
  N  N175  1  0.67592797  0.00443174  0.38205867  1
  N  N176  1  0.32797401  0.32285665  0.37076383  1
  O  O177  1  0.35886722  -0.00086603  0.12849550  1
  O  O178  1  0.00541308  0.00307308  0.12152282  1
  O  O179  1  0.00289289  0.68383190  0.12264639  1
  O  O180  1  0.67235063  0.00051418  0.12071460  1
  O  O181  1  0.68565948  0.66558125  0.38042652  1
  O  O182  1  0.82660101  0.15598285  0.37990369  1
  O  O183  1  -0.01704933  0.34647618  0.87027763  1
  O  O184  1  0.15759860  0.82594594  0.36852573  1
  O  O185  1  -0.00294446  0.67390218  0.37258001  1
  O  O186  1  0.33506978  0.33325699  0.61668320  1
  O  O187  1  0.82416446  0.50142036  0.62834719  1
  O  O188  1  0.49420681  0.19460879  0.62922160  1
  O  O189  1  0.15687297  0.81188355  0.13082009  1
  O  O190  1  0.66597741  0.32087871  0.37468758  1
  O  O191  1  0.35012152  0.66401451  0.62648359  1
  O  O192  1  -0.00104875  0.33874180  0.37188022  1
  O  O193  1  0.47525963  0.50116157  0.87295387  1
  O  O194  1  0.00965576  0.01587658  0.87172935  1
  O  O195  1  0.16186692  0.15902399  0.87776459  1
  O  O196  1  0.67126435  0.30932385  0.12500851  1
  O  O197  1  -0.01014573  0.35699226  0.61948357  1
  O  O198  1  0.17226918  0.82304499  0.87793538  1
  O  O199  1  0.82315090  0.83651357  0.12194639  1
  O  O200  1  0.49241679  0.50942546  0.37674633  1
  O  O201  1  0.35254593  0.66906856  0.38271188  1
  O  O202  1  0.33845742  0.67012600  0.12862570  1
  O  O203  1  0.84501623  0.84127138  0.88298436  1
  O  O204  1  0.15170974  0.50081958  0.87003010  1
  O  O205  1  0.82435943  0.15543638  0.62113296  1
  O  O206  1  0.47177848  0.51220794  0.12622014  1
  O  O207  1  0.65835934  -0.00635573  0.62592555  1
  O  O208  1  0.83958621  0.49302429  0.87851722  1
  O  O209  1  0.50044432  0.18690094  0.88071342  1
  O  O210  1  0.82127713  0.16509942  0.87296905  1
  O  O211  1  0.17187235  0.16669207  0.36574587  1
  O  O212  1  0.14857349  0.49742880  0.62630401  1
  O  O213  1  0.34758893  -0.00263360  0.87612561  1
  O  O214  1  0.34430610  -0.00379481  0.37707217  1
  O  O215  1  0.67567154  0.32721083  0.88111344  1
