# generated using pymatgen
data_Sr24Ta24N11O13
_symmetry_space_group_name_H-M   'P 1'
_cell_length_a   16.66349794
_cell_length_b   17.58610384
_cell_length_c   15.04778575
_cell_angle_alpha   91.23935031
_cell_angle_beta   89.63863923
_cell_angle_gamma   88.92737975
_symmetry_Int_Tables_number   1
_chemical_formula_structural   Sr24Ta24N11O13
_chemical_formula_sum   'Sr72 Ta72 N33 O39'
_cell_volume   4407.79002703
_cell_formula_units_Z   3
loop_
 _symmetry_equiv_pos_site_id
 _symmetry_equiv_pos_as_xyz
  1  'x, y, z'
loop_
 _atom_site_type_symbol
 _atom_site_label
 _atom_site_symmetry_multiplicity
 _atom_site_fract_x
 _atom_site_fract_y
 _atom_site_fract_z
 _atom_site_occupancy
  Sr  Sr0  1  0.00867196  0.13739473  0.06818327  1
  Sr  Sr1  1  0.00424974  0.16326452  0.63849238  1
  Sr  Sr2  1  0.00098056  0.50794069  0.13084201  1
  Sr  Sr3  1  -0.04834460  0.47038922  0.60875909  1
  Sr  Sr4  1  -0.00348297  0.84050268  0.16666359  1
  Sr  Sr5  1  0.01129162  0.81673390  0.61477273  1
  Sr  Sr6  1  0.31243368  0.15748516  0.15278092  1
  Sr  Sr7  1  0.32991587  0.11291517  0.60146054  1
  Sr  Sr8  1  0.32894236  0.45540509  0.08321691  1
  Sr  Sr9  1  0.33960148  0.51828476  0.63425828  1
  Sr  Sr10  1  0.31997324  0.82227209  0.11885427  1
  Sr  Sr11  1  0.31455573  0.80678896  0.61369840  1
  Sr  Sr12  1  0.68570402  0.16528283  0.11738256  1
  Sr  Sr13  1  0.63771141  0.12610733  0.62034192  1
  Sr  Sr14  1  0.65147807  0.49519663  0.13700261  1
  Sr  Sr15  1  0.67665678  0.47130760  0.60300021  1
  Sr  Sr16  1  0.67462033  0.77995199  0.10108796  1
  Sr  Sr17  1  0.66276991  0.83406509  0.62906166  1
  Sr  Sr18  1  0.18170766  0.00580396  0.10737861  1
  Sr  Sr19  1  0.16372544  0.01768034  0.63670527  1
  Sr  Sr20  1  0.16341632  0.33709083  0.12872137  1
  Sr  Sr21  1  0.20546451  0.37692809  0.63451981  1
  Sr  Sr22  1  0.14801280  0.69649297  0.17165177  1
  Sr  Sr23  1  0.17121116  0.67368613  0.62404762  1
  Sr  Sr24  1  0.50503718  0.04917511  0.16464513  1
  Sr  Sr25  1  0.50321030  -0.01376070  0.61842249  1
  Sr  Sr26  1  0.50820947  0.34224447  0.09496310  1
  Sr  Sr27  1  0.50395595  0.38222669  0.64655881  1
  Sr  Sr28  1  0.50489360  0.66361772  0.12439729  1
  Sr  Sr29  1  0.52361063  0.69556037  0.62843793  1
  Sr  Sr30  1  0.83952376  -0.00573718  0.12411498  1
  Sr  Sr31  1  0.86236442  0.03449955  0.64741397  1
  Sr  Sr32  1  0.82217530  0.34903634  0.17291835  1
  Sr  Sr33  1  0.82551565  0.32111427  0.60765599  1
  Sr  Sr34  1  0.81870384  0.63774789  0.09399921  1
  Sr  Sr35  1  0.82746515  0.69867529  0.65668089  1
  Sr  Sr36  1  -0.00806821  0.16408877  0.42304607  1
  Sr  Sr37  1  0.00561323  0.17050475  0.85568567  1
  Sr  Sr38  1  0.00374599  0.46875591  0.35698199  1
  Sr  Sr39  1  -0.01609224  0.50364291  0.90103242  1
  Sr  Sr40  1  0.00563664  0.81964674  0.37952311  1
  Sr  Sr41  1  0.00584322  0.78789690  0.83375724  1
  Sr  Sr42  1  0.32707897  0.16590936  0.36871757  1
  Sr  Sr43  1  0.33119608  0.12493377  0.83949562  1
  Sr  Sr44  1  0.32321924  0.48399714  0.41195569  1
  Sr  Sr45  1  0.32201582  0.48339854  0.85075159  1
  Sr  Sr46  1  0.33356085  0.78305975  0.33336511  1
  Sr  Sr47  1  0.31833886  0.82713432  0.90629706  1
  Sr  Sr48  1  0.67459132  0.12578658  0.33355481  1
  Sr  Sr49  1  0.64378803  0.15273236  0.89632386  1
  Sr  Sr50  1  0.65781825  0.48087673  0.36362067  1
  Sr  Sr51  1  0.66131876  0.44324662  0.83467757  1
  Sr  Sr52  1  0.65278232  0.83466756  0.39527910  1
  Sr  Sr53  1  0.67589804  0.83141988  0.86952601  1
  Sr  Sr54  1  0.16871728  0.04790465  0.40266451  1
  Sr  Sr55  1  0.16940402  0.01568601  0.88367335  1
  Sr  Sr56  1  0.18395672  0.34187478  0.36004551  1
  Sr  Sr57  1  0.16243576  0.37130852  0.89795036  1
  Sr  Sr58  1  0.17076777  0.66426789  0.39218180  1
  Sr  Sr59  1  0.18044745  0.67938539  0.85322917  1
  Sr  Sr60  1  0.51430665  0.01189998  0.39347272  1
  Sr  Sr61  1  0.51536887  0.00735208  0.84988817  1
  Sr  Sr62  1  0.49699348  0.37096079  0.41200599  1
  Sr  Sr63  1  0.49705340  0.33193958  0.87575072  1
  Sr  Sr64  1  0.52351576  0.67666711  0.33894535  1
  Sr  Sr65  1  0.50509731  0.71892573  0.91269343  1
  Sr  Sr66  1  0.84732266  0.00463934  0.34566124  1
  Sr  Sr67  1  0.83801349  0.04046188  0.90604572  1
  Sr  Sr68  1  0.83510983  0.32145311  0.38976018  1
  Sr  Sr69  1  0.85081819  0.34369230  0.82105100  1
  Sr  Sr70  1  0.84080330  0.73485944  0.45547407  1
  Sr  Sr71  1  0.83340986  0.67080838  0.88423556  1
  Ta  Ta72  1  0.18988480  0.19379281  -0.02141785  1
  Ta  Ta73  1  0.17410256  0.21892122  0.51853842  1
  Ta  Ta74  1  0.16681764  0.55560485  0.00178383  1
  Ta  Ta75  1  0.12776870  0.50632191  0.51817925  1
  Ta  Ta76  1  0.12392032  0.82734322  0.00335596  1
  Ta  Ta77  1  0.17464258  0.86956917  0.47444759  1
  Ta  Ta78  1  0.45914605  0.16452449  -0.00287990  1
  Ta  Ta79  1  0.49330988  0.20397833  0.50957786  1
  Ta  Ta80  1  0.49243529  0.52547116  -0.03088067  1
  Ta  Ta81  1  0.50444270  0.55224610  0.49695531  1
  Ta  Ta82  1  0.50333332  0.88880064  0.02832330  1
  Ta  Ta83  1  0.46421314  0.82886872  0.48514484  1
  Ta  Ta84  1  0.83943368  0.23422454  -0.00384555  1
  Ta  Ta85  1  0.79631483  0.15081248  0.49380033  1
  Ta  Ta86  1  0.81023373  0.45593233  -0.00571278  1
  Ta  Ta87  1  0.82669066  0.55316894  0.46601355  1
  Ta  Ta88  1  0.87980608  0.83576267  -0.00586308  1
  Ta  Ta89  1  0.84265649  0.89949987  0.51716086  1
  Ta  Ta90  1  0.11919549  0.17661396  0.25338432  1
  Ta  Ta91  1  0.17975806  0.21873352  0.73899711  1
  Ta  Ta92  1  0.19245617  0.51101281  0.24485012  1
  Ta  Ta93  1  0.11981862  0.51200389  0.74075997  1
  Ta  Ta94  1  0.17426070  0.88905053  0.27585572  1
  Ta  Ta95  1  0.17259978  0.86362846  0.75422951  1
  Ta  Ta96  1  0.49908858  0.21954666  0.26437319  1
  Ta  Ta97  1  0.48420678  0.19613489  0.72101379  1
  Ta  Ta98  1  0.46205042  0.49280416  0.24495638  1
  Ta  Ta99  1  0.50743599  0.55741129  0.77419188  1
  Ta  Ta100  1  0.50237404  0.86741130  0.23272336  1
  Ta  Ta101  1  0.46214881  0.84006168  0.74988126  1
  Ta  Ta102  1  0.88887507  0.16940802  0.24467971  1
  Ta  Ta103  1  0.78827950  0.17322904  0.74307325  1
  Ta  Ta104  1  0.83290300  0.52687878  0.26828977  1
  Ta  Ta105  1  0.82020229  0.53007200  0.74888506  1
  Ta  Ta106  1  0.81446158  0.81094240  0.25455557  1
  Ta  Ta107  1  0.84533836  0.88056815  0.75027097  1
  Ta  Ta108  1  0.02503424  0.02596910  0.24362135  1
  Ta  Ta109  1  0.00448934  -0.03276279  0.77284897  1
  Ta  Ta110  1  0.00037708  0.29002541  0.25582045  1
  Ta  Ta111  1  0.03934467  0.34195751  0.73331290  1
  Ta  Ta112  1  -0.06836206  0.66217693  0.26710372  1
  Ta  Ta113  1  -0.00850909  0.61768331  0.73573676  1
  Ta  Ta114  1  0.33538392  -0.03279699  0.26591233  1
  Ta  Ta115  1  0.33034855  -0.05026860  0.74741552  1
  Ta  Ta116  1  0.36294814  0.33778634  0.25216866  1
  Ta  Ta117  1  0.34327180  0.28955803  0.73250074  1
  Ta  Ta118  1  0.32990792  0.60345603  0.23864640  1
  Ta  Ta119  1  0.37187181  0.67560801  0.76400400  1
  Ta  Ta120  1  0.66447813  -0.05559239  0.22484509  1
  Ta  Ta121  1  0.70458899  -0.00305006  0.75610539  1
  Ta  Ta122  1  0.63361095  0.30922502  0.25950992  1
  Ta  Ta123  1  0.65570588  0.27477873  0.73047371  1
  Ta  Ta124  1  0.74886326  0.65826810  0.30621821  1
  Ta  Ta125  1  0.66534529  0.63048005  0.76043541  1
  Ta  Ta126  1  0.00310280  -0.05048191  -0.01428392  1
  Ta  Ta127  1  0.00147239  -0.02108041  0.50934485  1
  Ta  Ta128  1  -0.03065835  0.33441885  0.00181545  1
  Ta  Ta129  1  0.04579161  0.33330466  0.52309195  1
  Ta  Ta130  1  0.01090509  0.68550620  0.01535919  1
  Ta  Ta131  1  -0.00600770  0.62401095  0.50622209  1
  Ta  Ta132  1  0.37433672  0.00316775  0.01345605  1
  Ta  Ta133  1  0.32944898  -0.05559129  0.46791857  1
  Ta  Ta134  1  0.33117565  0.28071660  -0.00882091  1
  Ta  Ta135  1  0.34287685  0.29813106  0.51746645  1
  Ta  Ta136  1  0.32646986  0.63304902  0.00866033  1
  Ta  Ta137  1  0.37525758  0.65939457  0.48979076  1
  Ta  Ta138  1  0.65001529  -0.02451546  0.01917809  1
  Ta  Ta139  1  0.70957646  -0.00632370  0.50930643  1
  Ta  Ta140  1  0.69930987  0.33048696  0.00142733  1
  Ta  Ta141  1  0.65220303  0.27336320  0.49864747  1
  Ta  Ta142  1  0.65165944  0.59557543  -0.05045850  1
  Ta  Ta143  1  0.67299294  0.63584821  0.49688164  1
  N  N144  1  0.16554736  0.15812563  0.62651073  1
  N  N145  1  0.16420205  0.80597706  0.36042960  1
  N  N146  1  0.01344449  -0.00492005  0.63958140  1
  N  N147  1  0.18466336  0.52616452  0.63056394  1
  N  N148  1  0.48958529  0.83709085  0.61846175  1
  N  N149  1  0.33911798  0.00434170  0.14422802  1
  N  N150  1  0.83578794  0.15867706  0.37102064  1
  N  N151  1  0.66576650  0.32913615  0.13517307  1
  N  N152  1  0.33526287  0.31387353  0.12621760  1
  N  N153  1  0.15746152  0.19053742  0.37750929  1
  N  N154  1  0.66308779  -0.01810562  0.63103197  1
  N  N155  1  0.15470927  0.52362264  0.87859968  1
  N  N156  1  0.49830004  0.51209540  0.36653275  1
  N  N157  1  -0.01859214  0.67027559  0.13998997  1
  N  N158  1  0.50002571  0.82892563  0.35202028  1
  N  N159  1  0.48164159  0.13396365  0.60891371  1
  N  N160  1  -0.01674281  0.67291556  0.62233111  1
  N  N161  1  0.67243882  -0.00355377  0.89257129  1
  N  N162  1  0.00349698  0.02669749  0.89084601  1
  N  N163  1  0.33986414  0.32569786  0.39273462  1
  N  N164  1  0.67293461  0.68648124  0.87447865  1
  N  N165  1  0.16598561  0.16339922  0.85257256  1
  N  N166  1  0.82730924  0.48706344  0.86897674  1
  N  N167  1  0.33695418  0.64157737  0.36576733  1
  N  N168  1  0.16409456  0.83145618  0.87936255  1
  N  N169  1  0.67929778  0.02493007  0.14247241  1
  N  N170  1  0.66087875  0.32591252  0.61304880  1
  N  N171  1  -0.02260819  0.31555260  0.62781249  1
  N  N172  1  0.48305060  0.47163023  0.85156890  1
  N  N173  1  0.84336058  0.84020799  0.62869836  1
  N  N174  1  0.66581504  0.69811948  0.39629906  1
  N  N175  1  0.00803124  -0.00453369  0.12013184  1
  N  N176  1  0.33617890  0.67872407  0.89151377  1
  O  O177  1  0.65253926  0.30511977  0.87751145  1
  O  O178  1  0.35570452  0.37332459  0.62780425  1
  O  O179  1  0.00168453  0.34074415  0.87086899  1
  O  O180  1  0.33635010  0.66379290  0.63129386  1
  O  O181  1  0.84499085  0.18807761  0.12238183  1
  O  O182  1  0.49322657  0.49368457  0.10345032  1
  O  O183  1  0.50160187  0.52812666  0.63185091  1
  O  O184  1  0.82781553  0.19023520  0.86873652  1
  O  O185  1  0.00110794  0.32608510  0.38843885  1
  O  O186  1  0.32928545  -0.03758662  0.61213834  1
  O  O187  1  0.47650727  0.80542136  0.11370091  1
  O  O188  1  0.84516277  0.17868234  0.61654144  1
  O  O189  1  0.17232459  0.48668776  0.11578415  1
  O  O190  1  0.00614526  0.01532940  0.38270247  1
  O  O191  1  0.16611720  0.85480970  0.60924633  1
  O  O192  1  0.48767133  0.15888182  0.37532594  1
  O  O193  1  0.67719221  0.33899516  0.38362434  1
  O  O194  1  0.36061458  0.02886883  0.38651879  1
  O  O195  1  -0.01527181  0.33794702  0.13157256  1
  O  O196  1  0.15920756  0.84895713  0.13646087  1
  O  O197  1  0.65878047  0.63820771  0.06956370  1
  O  O198  1  0.49595561  0.86048660  0.88227301  1
  O  O199  1  0.84100347  0.81825660  0.86931260  1
  O  O200  1  0.67463121  0.67048992  0.63034438  1
  O  O201  1  0.67237249  -0.01881418  0.36000472  1
  O  O202  1  0.81660209  0.53168532  0.60732066  1
  O  O203  1  0.84326873  0.85832039  0.37548001  1
  O  O204  1  0.16565155  0.50881462  0.37742620  1
  O  O205  1  0.48321428  0.18907650  0.12613607  1
  O  O206  1  -0.01204429  0.65225307  0.87815772  1
  O  O207  1  0.84419519  0.82725997  0.12062175  1
  O  O208  1  0.84621588  0.46320282  0.38237544  1
  O  O209  1  -0.00500412  0.67626448  0.38041415  1
  O  O210  1  0.34210137  0.32697550  0.86145775  1
  O  O211  1  0.15697388  0.18326604  0.11062249  1
  O  O212  1  0.34053198  -0.02027473  0.88457677  1
  O  O213  1  0.81976996  0.49527640  0.13516558  1
  O  O214  1  0.35104705  0.68038717  0.13062262  1
  O  O215  1  0.48341148  0.15962908  0.86345351  1
