# generated using pymatgen
data_Sr24Ta24N11O13
_symmetry_space_group_name_H-M   'P 1'
_cell_length_a   16.78683492
_cell_length_b   16.77672599
_cell_length_c   15.72868454
_cell_angle_alpha   89.96733929
_cell_angle_beta   90.22124925
_cell_angle_gamma   89.98878825
_symmetry_Int_Tables_number   1
_chemical_formula_structural   Sr24Ta24N11O13
_chemical_formula_sum   'Sr72 Ta72 N33 O39'
_cell_volume   4429.60617747
_cell_formula_units_Z   3
loop_
 _symmetry_equiv_pos_site_id
 _symmetry_equiv_pos_as_xyz
  1  'x, y, z'
loop_
 _atom_site_type_symbol
 _atom_site_label
 _atom_site_symmetry_multiplicity
 _atom_site_fract_x
 _atom_site_fract_y
 _atom_site_fract_z
 _atom_site_occupancy
  Sr  Sr0  1  0.00044746  0.17089239  0.12008011  1
  Sr  Sr1  1  -0.00945002  0.17605872  0.67028074  1
  Sr  Sr2  1  0.01079308  0.50186293  0.13440450  1
  Sr  Sr3  1  -0.01300671  0.48291053  0.57213773  1
  Sr  Sr4  1  0.00628563  0.84595374  0.08451239  1
  Sr  Sr5  1  -0.00527196  0.81648559  0.64002945  1
  Sr  Sr6  1  0.33216437  0.16064779  0.12485572  1
  Sr  Sr7  1  0.31788058  0.14598971  0.61719484  1
  Sr  Sr8  1  0.33334766  0.51617334  0.08169529  1
  Sr  Sr9  1  0.31477760  0.49346733  0.64196993  1
  Sr  Sr10  1  0.32309506  0.81872891  0.16819378  1
  Sr  Sr11  1  0.32370318  0.83100405  0.63114801  1
  Sr  Sr12  1  0.66505281  0.16907386  0.11940267  1
  Sr  Sr13  1  0.65006330  0.16215120  0.59678277  1
  Sr  Sr14  1  0.66765828  0.50151830  0.11795894  1
  Sr  Sr15  1  0.68688422  0.49336987  0.67213526  1
  Sr  Sr16  1  0.64980028  0.84187532  0.11388684  1
  Sr  Sr17  1  0.63671425  0.83204680  0.60711529  1
  Sr  Sr18  1  0.18568604  -0.00187019  0.12991896  1
  Sr  Sr19  1  0.16840277  -0.01296589  0.58627354  1
  Sr  Sr20  1  0.16660220  0.32757277  0.16708614  1
  Sr  Sr21  1  0.16476414  0.33653743  0.61759460  1
  Sr  Sr22  1  0.14931008  0.65572780  0.11098792  1
  Sr  Sr23  1  0.17629613  0.67486307  0.67370611  1
  Sr  Sr24  1  0.51479950  0.01623676  0.08120558  1
  Sr  Sr25  1  0.50306285  0.00242588  0.64307544  1
  Sr  Sr26  1  0.50340075  0.32895981  0.15896300  1
  Sr  Sr27  1  0.50124911  0.35592522  0.61916244  1
  Sr  Sr28  1  0.51248705  0.67660298  0.13998346  1
  Sr  Sr29  1  0.48139248  0.66543720  0.57512654  1
  Sr  Sr30  1  0.83677056  -0.00387657  0.15346069  1
  Sr  Sr31  1  0.86673955  -0.00767704  0.63485428  1
  Sr  Sr32  1  0.82892786  0.32902650  0.07668625  1
  Sr  Sr33  1  0.83085054  0.32767369  0.62942361  1
  Sr  Sr34  1  0.84549118  0.62153365  0.17865834  1
  Sr  Sr35  1  0.84246821  0.66174190  0.61653111  1
  Sr  Sr36  1  -0.00572659  0.16334533  0.33832414  1
  Sr  Sr37  1  0.00151857  0.17862615  0.87701404  1
  Sr  Sr38  1  0.00181781  0.50709569  0.36031818  1
  Sr  Sr39  1  0.00291332  0.50702238  0.91304434  1
  Sr  Sr40  1  -0.00855133  0.85740105  0.41219353  1
  Sr  Sr41  1  0.00403976  0.81242004  0.86857697  1
  Sr  Sr42  1  0.32349011  0.16435423  0.35811139  1
  Sr  Sr43  1  0.33162501  0.14617181  0.89464078  1
  Sr  Sr44  1  0.36841862  0.50161015  0.43217805  1
  Sr  Sr45  1  0.31928254  0.49450878  0.86293970  1
  Sr  Sr46  1  0.32147447  0.82495179  0.37218469  1
  Sr  Sr47  1  0.33434687  0.82997373  0.84256695  1
  Sr  Sr48  1  0.66964612  0.17149171  0.37794193  1
  Sr  Sr49  1  0.65099673  0.15561702  0.89352315  1
  Sr  Sr50  1  0.66686031  0.51484970  0.32681007  1
  Sr  Sr51  1  0.67728870  0.49865087  0.87868319  1
  Sr  Sr52  1  0.65290567  0.83861412  0.37668571  1
  Sr  Sr53  1  0.63837742  0.84225057  0.89123662  1
  Sr  Sr54  1  0.18814155  -0.00868963  0.37439922  1
  Sr  Sr55  1  0.16057048  0.01679135  0.92674235  1
  Sr  Sr56  1  0.16142901  0.34723585  0.38640374  1
  Sr  Sr57  1  0.17740507  0.32597699  0.83408252  1
  Sr  Sr58  1  0.16487685  0.66857349  0.33746025  1
  Sr  Sr59  1  0.16266805  0.65616539  0.88774117  1
  Sr  Sr60  1  0.52635142  0.01537232  0.40897069  1
  Sr  Sr61  1  0.49406383  0.00150615  0.86351061  1
  Sr  Sr62  1  0.50938893  0.33273770  0.36985333  1
  Sr  Sr63  1  0.49658209  0.36898140  0.83852683  1
  Sr  Sr64  1  0.49773559  0.68314220  0.36434383  1
  Sr  Sr65  1  0.52747625  0.66199232  0.92757970  1
  Sr  Sr66  1  0.84325942  0.00748958  0.35502121  1
  Sr  Sr67  1  0.85766579  -0.01999155  0.85249384  1
  Sr  Sr68  1  0.83337222  0.32920126  0.41205859  1
  Sr  Sr69  1  0.82678661  0.33452386  0.86920765  1
  Sr  Sr70  1  0.85493523  0.65795109  0.39192520  1
  Sr  Sr71  1  0.82712356  0.66261913  0.83759777  1
  Ta  Ta72  1  0.16913154  0.21858128  -0.00043513  1
  Ta  Ta73  1  0.13645233  0.16887762  0.50489782  1
  Ta  Ta74  1  0.16878165  0.44220905  -0.00152103  1
  Ta  Ta75  1  0.16582586  0.54135963  0.50341006  1
  Ta  Ta76  1  0.20701434  0.82873521  -0.00151307  1
  Ta  Ta77  1  0.16263172  0.79006531  0.50395297  1
  Ta  Ta78  1  0.49012143  0.21814826  -0.00142991  1
  Ta  Ta79  1  0.46844534  0.18223750  0.49694207  1
  Ta  Ta80  1  0.50465429  0.46646312  -0.00074167  1
  Ta  Ta81  1  0.57403773  0.50929549  0.50009968  1
  Ta  Ta82  1  0.45218048  0.83138950  0.00935273  1
  Ta  Ta83  1  0.46962398  0.85189680  0.50327986  1
  Ta  Ta84  1  0.83496170  0.13208215  -0.00141277  1
  Ta  Ta85  1  0.85502930  0.14994389  0.49585330  1
  Ta  Ta86  1  0.83444261  0.52269236  0.00080443  1
  Ta  Ta87  1  0.78443955  0.49950788  0.49617743  1
  Ta  Ta88  1  0.82074230  0.81670886  0.00093338  1
  Ta  Ta89  1  0.80748436  0.84183694  0.49802215  1
  Ta  Ta90  1  0.15596920  0.14603909  0.24452498  1
  Ta  Ta91  1  0.17224550  0.13687239  0.75389045  1
  Ta  Ta92  1  0.20565064  0.50206782  0.24657781  1
  Ta  Ta93  1  0.11993839  0.49752258  0.74766403  1
  Ta  Ta94  1  0.12424298  0.84143668  0.24884275  1
  Ta  Ta95  1  0.15941717  0.87585256  0.76259468  1
  Ta  Ta96  1  0.50420305  0.13775425  0.24842503  1
  Ta  Ta97  1  0.49621995  0.18868437  0.74655394  1
  Ta  Ta98  1  0.46817745  0.50653743  0.25292407  1
  Ta  Ta99  1  0.51466628  0.56791261  0.74934333  1
  Ta  Ta100  1  0.50076908  0.88145305  0.24729410  1
  Ta  Ta101  1  0.50194667  0.77327525  0.74729309  1
  Ta  Ta102  1  0.82810307  0.21089142  0.24829656  1
  Ta  Ta103  1  0.79002774  0.15624701  0.74899567  1
  Ta  Ta104  1  0.83784360  0.44253283  0.25026689  1
  Ta  Ta105  1  0.87728822  0.49312539  0.74662796  1
  Ta  Ta106  1  0.83769824  0.81289796  0.24657972  1
  Ta  Ta107  1  0.77697039  0.83325714  0.74635654  1
  Ta  Ta108  1  0.02611654  -0.01621549  0.24480261  1
  Ta  Ta109  1  0.05557000  0.00322123  0.75486586  1
  Ta  Ta110  1  -0.03543795  0.33155939  0.25108754  1
  Ta  Ta111  1  -0.00021669  0.37502485  0.74525392  1
  Ta  Ta112  1  -0.00441135  0.72342873  0.24444290  1
  Ta  Ta113  1  -0.00036180  0.61543409  0.74352473  1
  Ta  Ta114  1  0.38234744  0.00005352  0.24688481  1
  Ta  Ta115  1  0.28155285  -0.00067984  0.75952686  1
  Ta  Ta116  1  0.33854441  0.39766319  0.25368512  1
  Ta  Ta117  1  0.34790599  0.28792991  0.75163944  1
  Ta  Ta118  1  0.33716896  0.61406202  0.25924561  1
  Ta  Ta119  1  0.37221319  0.65893296  0.74950996  1
  Ta  Ta120  1  0.64324553  0.00369524  0.24641470  1
  Ta  Ta121  1  0.68865791  0.00212089  0.75118645  1
  Ta  Ta122  1  0.70081931  0.33008296  0.24113904  1
  Ta  Ta123  1  0.66067446  0.29294752  0.75314829  1
  Ta  Ta124  1  0.69558784  0.70055400  0.24303915  1
  Ta  Ta125  1  0.64587204  0.68329157  0.75245700  1
  Ta  Ta126  1  -0.03116768  0.01936147  0.00332656  1
  Ta  Ta127  1  0.00114651  0.06148990  0.49963388  1
  Ta  Ta128  1  0.03100741  0.33531185  -0.00097499  1
  Ta  Ta129  1  -0.00058938  0.27632310  0.50625178  1
  Ta  Ta130  1  -0.06570491  0.67352631  0.00920348  1
  Ta  Ta131  1  0.04642584  0.66740280  0.50524288  1
  Ta  Ta132  1  0.33859158  -0.04492330  0.00501707  1
  Ta  Ta133  1  0.35806693  -0.00987532  0.49440907  1
  Ta  Ta134  1  0.34016698  0.33109716  -0.00359640  1
  Ta  Ta135  1  0.33962947  0.31066147  0.49830933  1
  Ta  Ta136  1  0.33413577  0.70299228  0.00238108  1
  Ta  Ta137  1  0.29095660  0.67008028  0.50289193  1
  Ta  Ta138  1  0.71431764  -0.00115263  -0.00139760  1
  Ta  Ta139  1  0.71127057  -0.00690883  0.49580535  1
  Ta  Ta140  1  0.62867257  0.33563007  -0.00469753  1
  Ta  Ta141  1  0.66311688  0.36778451  0.49880595  1
  Ta  Ta142  1  0.72990280  0.67473722  0.01423575  1
  Ta  Ta143  1  0.67487370  0.64805631  0.49678516  1
  N  N144  1  -0.01227868  0.67864727  0.12188892  1
  N  N145  1  0.32963676  0.66058738  0.62965892  1
  N  N146  1  0.00647588  0.00143338  0.12169437  1
  N  N147  1  0.83355098  0.17114774  0.37240824  1
  N  N148  1  0.83870835  0.49532996  0.86744884  1
  N  N149  1  0.16238095  0.48935133  0.88358294  1
  N  N150  1  0.34310301  -0.00121033  0.37288191  1
  N  N151  1  0.00516726  0.65740088  0.62409199  1
  N  N152  1  0.32702088  -0.00799634  0.87433793  1
  N  N153  1  0.67739713  -0.00034871  0.12274825  1
  N  N154  1  0.83808640  0.47861656  0.11706511  1
  N  N155  1  0.82837169  0.48981098  0.37070660  1
  N  N156  1  0.16514384  0.17381601  0.88477552  1
  N  N157  1  0.49579008  0.17679760  0.11450032  1
  N  N158  1  0.16008124  0.50557275  0.62112564  1
  N  N159  1  0.17380623  0.49185200  0.12177408  1
  N  N160  1  0.16598595  0.16927680  0.12348723  1
  N  N161  1  0.16184155  0.83093019  0.88325400  1
  N  N162  1  0.48447497  0.82202345  0.62594664  1
  N  N163  1  0.68390012  0.00428608  0.37302951  1
  N  N164  1  0.66961186  0.33444286  0.11965941  1
  N  N165  1  0.67239131  0.66859739  0.12293318  1
  N  N166  1  0.66399504  0.33435417  0.86757523  1
  N  N167  1  0.33671767  0.32859321  0.87050660  1
  N  N168  1  0.34234569  -0.00261217  0.12255600  1
  N  N169  1  0.49676988  0.17091411  0.37016200  1
  N  N170  1  0.49156442  0.83647294  0.13085272  1
  N  N171  1  0.33194051  0.65533910  0.37815541  1
  N  N172  1  0.83258795  0.49498523  0.61151621  1
  N  N173  1  0.49612811  0.17029781  0.62469664  1
  N  N174  1  0.15975346  0.16570124  0.62909427  1
  N  N175  1  -0.00472962  0.32647372  0.61966853  1
  N  N176  1  0.67175490  -0.00260164  0.87472240  1
  O  O177  1  0.31905618  -0.00766687  0.62897525  1
  O  O178  1  0.16037625  0.83599336  0.12163049  1
  O  O179  1  0.66816614  0.00477351  0.61483501  1
  O  O180  1  0.00413828  0.01132352  0.37877242  1
  O  O181  1  0.66139871  0.34021987  0.62976905  1
  O  O182  1  0.49363639  0.48850730  0.12239507  1
  O  O183  1  0.15904034  0.83204171  0.62776239  1
  O  O184  1  -0.01286468  0.31592849  0.38107017  1
  O  O185  1  0.82179374  0.15952524  0.62739725  1
  O  O186  1  0.51487447  0.51618391  0.87917014  1
  O  O187  1  0.79875632  0.82372296  0.62594756  1
  O  O188  1  0.00761336  0.68033797  0.36554639  1
  O  O189  1  0.83851881  0.83793838  0.12673721  1
  O  O190  1  0.49494484  0.83872570  0.37645066  1
  O  O191  1  0.34088329  0.35942851  0.13313692  1
  O  O192  1  0.49499706  0.15826827  0.88373697  1
  O  O193  1  0.14694313  0.83362020  0.38308754  1
  O  O194  1  0.16495799  0.16149830  0.37166444  1
  O  O195  1  0.33612637  0.67124838  0.87948779  1
  O  O196  1  0.00813438  0.33755740  0.87141032  1
  O  O197  1  0.01023428  0.01505521  0.88192138  1
  O  O198  1  0.67753191  0.67370017  0.88563461  1
  O  O199  1  0.83402626  0.83021878  0.37762030  1
  O  O200  1  0.00037583  0.33477371  0.12287675  1
  O  O201  1  0.83524936  0.16489973  0.12571008  1
  O  O202  1  0.66739966  0.34554900  0.37254033  1
  O  O203  1  0.01802431  0.02082231  0.62237404  1
  O  O204  1  0.33972323  0.34857632  0.37940666  1
  O  O205  1  0.66675483  0.66970310  0.61945681  1
  O  O206  1  0.79974586  0.82729178  0.86946262  1
  O  O207  1  0.82142405  0.15058719  0.86957887  1
  O  O208  1  0.53877312  0.52549913  0.63073619  1
  O  O209  1  -0.02174445  0.66101543  0.88412895  1
  O  O210  1  0.51941915  0.50816163  0.37429359  1
  O  O211  1  0.49078177  0.80950596  0.87257846  1
  O  O212  1  0.16018074  0.50562663  0.36947970  1
  O  O213  1  0.32634317  0.31090191  0.62700202  1
  O  O214  1  0.68126681  0.66993147  0.36671474  1
  O  O215  1  0.33528077  0.66501009  0.12641046  1
