# generated using pymatgen
data_Sr24Ta24N11O13
_symmetry_space_group_name_H-M   'P 1'
_cell_length_a   16.92891871
_cell_length_b   16.73238481
_cell_length_c   15.77219105
_cell_angle_alpha   89.96509957
_cell_angle_beta   90.20673261
_cell_angle_gamma   90.17885651
_symmetry_Int_Tables_number   1
_chemical_formula_structural   Sr24Ta24N11O13
_chemical_formula_sum   'Sr72 Ta72 N33 O39'
_cell_volume   4467.59783618
_cell_formula_units_Z   3
loop_
 _symmetry_equiv_pos_site_id
 _symmetry_equiv_pos_as_xyz
  1  'x, y, z'
loop_
 _atom_site_type_symbol
 _atom_site_label
 _atom_site_symmetry_multiplicity
 _atom_site_fract_x
 _atom_site_fract_y
 _atom_site_fract_z
 _atom_site_occupancy
  Sr  Sr0  1  0.00917645  0.15793162  0.09789809  1
  Sr  Sr1  1  -0.00203851  0.16706484  0.63563286  1
  Sr  Sr2  1  0.02014060  0.50041578  0.12833418  1
  Sr  Sr3  1  0.01946278  0.49454760  0.63833846  1
  Sr  Sr4  1  0.03275869  0.83149672  0.14034856  1
  Sr  Sr5  1  0.01760581  0.81675423  0.60841317  1
  Sr  Sr6  1  0.32880236  0.16952483  0.12082543  1
  Sr  Sr7  1  0.34806397  0.15297130  0.66125647  1
  Sr  Sr8  1  0.37088183  0.49591565  0.16205418  1
  Sr  Sr9  1  0.33524213  0.49053718  0.61608768  1
  Sr  Sr10  1  0.35500400  0.81550531  0.11281769  1
  Sr  Sr11  1  0.35835034  0.83032826  0.60178059  1
  Sr  Sr12  1  0.67070020  0.17592107  0.13788117  1
  Sr  Sr13  1  0.66250975  0.15846368  0.58317223  1
  Sr  Sr14  1  0.66864396  0.51558692  0.08516146  1
  Sr  Sr15  1  0.67825978  0.49755837  0.64099886  1
  Sr  Sr16  1  0.68828940  0.83910569  0.14302079  1
  Sr  Sr17  1  0.68059371  0.83466900  0.64897614  1
  Sr  Sr18  1  0.16183277  0.00164301  0.16140061  1
  Sr  Sr19  1  0.14347438  -0.00106748  0.61660067  1
  Sr  Sr20  1  0.15172526  0.32949793  0.11027856  1
  Sr  Sr21  1  0.15432107  0.32962339  0.59572223  1
  Sr  Sr22  1  0.15665893  0.67176310  0.10804390  1
  Sr  Sr23  1  0.15912787  0.65841457  0.65576301  1
  Sr  Sr24  1  0.47542874  0.01446824  0.08225972  1
  Sr  Sr25  1  0.50021394  -0.00639102  0.63396448  1
  Sr  Sr26  1  0.48931703  0.32261378  0.15626622  1
  Sr  Sr27  1  0.48209231  0.34140023  0.63728726  1
  Sr  Sr28  1  0.49786072  0.66706852  0.13793594  1
  Sr  Sr29  1  0.46829924  0.66134538  0.58317251  1
  Sr  Sr30  1  0.82695476  0.01376792  0.11032356  1
  Sr  Sr31  1  0.81758605  0.01222883  0.64492939  1
  Sr  Sr32  1  0.81912889  0.34763262  0.13989877  1
  Sr  Sr33  1  0.82495987  0.33296080  0.63057460  1
  Sr  Sr34  1  0.81355360  0.67778803  0.11238346  1
  Sr  Sr35  1  0.81988976  0.67345958  0.61508688  1
  Sr  Sr36  1  0.02358100  0.16025936  0.40015542  1
  Sr  Sr37  1  -0.00750645  0.16017637  0.86656393  1
  Sr  Sr38  1  0.00444802  0.48985611  0.34430975  1
  Sr  Sr39  1  0.03034682  0.50160548  0.88884926  1
  Sr  Sr40  1  0.01379214  0.83240342  0.38287140  1
  Sr  Sr41  1  0.03759605  0.81729061  0.86567237  1
  Sr  Sr42  1  0.33381044  0.15687783  0.34842515  1
  Sr  Sr43  1  0.33717173  0.16714574  0.87852954  1
  Sr  Sr44  1  0.34726300  0.49468263  0.38981913  1
  Sr  Sr45  1  0.34343891  0.49824348  0.84286175  1
  Sr  Sr46  1  0.36006026  0.82877905  0.38746002  1
  Sr  Sr47  1  0.35555320  0.82067396  0.90341991  1
  Sr  Sr48  1  0.65778904  0.18322785  0.36587502  1
  Sr  Sr49  1  0.66728181  0.15951600  0.91932898  1
  Sr  Sr50  1  0.69795518  0.50973736  0.41369630  1
  Sr  Sr51  1  0.66276880  0.49557271  0.86772356  1
  Sr  Sr52  1  0.67883705  0.82732976  0.35072594  1
  Sr  Sr53  1  0.68961827  0.84814437  0.85510334  1
  Sr  Sr54  1  0.16329726  -0.00451550  0.37576567  1
  Sr  Sr55  1  0.15133908  0.00395112  0.83441933  1
  Sr  Sr56  1  0.15171128  0.33988053  0.38833853  1
  Sr  Sr57  1  0.15841005  0.31510146  0.91182065  1
  Sr  Sr58  1  0.13401394  0.66478308  0.34356673  1
  Sr  Sr59  1  0.17587248  0.66075613  0.87696317  1
  Sr  Sr60  1  0.49363874  0.00771406  0.41393526  1
  Sr  Sr61  1  0.49208713  0.00226901  0.86698808  1
  Sr  Sr62  1  0.48149745  0.33161992  0.36451848  1
  Sr  Sr63  1  0.48154833  0.34053653  0.84260996  1
  Sr  Sr64  1  0.48636643  0.66653002  0.36237728  1
  Sr  Sr65  1  0.49027425  0.65989438  0.90889116  1
  Sr  Sr66  1  0.80097202  0.01766973  0.34926102  1
  Sr  Sr67  1  0.83135998  0.01446497  0.88819350  1
  Sr  Sr68  1  0.82052320  0.33223329  0.37251347  1
  Sr  Sr69  1  0.82634208  0.34689729  0.85722867  1
  Sr  Sr70  1  0.82874058  0.68345175  0.39802443  1
  Sr  Sr71  1  0.80438393  0.66973357  0.87086374  1
  Ta  Ta72  1  0.17073533  0.12022531  -0.00514377  1
  Ta  Ta73  1  0.20895899  0.15742578  0.50876107  1
  Ta  Ta74  1  0.22320584  0.49219595  -0.00113025  1
  Ta  Ta75  1  0.16172773  0.52619348  0.49796791  1
  Ta  Ta76  1  0.18101704  0.87037907  -0.00150080  1
  Ta  Ta77  1  0.18961997  0.81065102  0.49816866  1
  Ta  Ta78  1  0.49868960  0.20583906  -0.00160376  1
  Ta  Ta79  1  0.47725834  0.18548598  0.50196514  1
  Ta  Ta80  1  0.48691131  0.47548065  -0.00638820  1
  Ta  Ta81  1  0.52927842  0.48918430  0.49752792  1
  Ta  Ta82  1  0.54222911  0.83875086  -0.00252738  1
  Ta  Ta83  1  0.54790536  0.83194018  0.50359791  1
  Ta  Ta84  1  0.84168059  0.20218928  0.00133416  1
  Ta  Ta85  1  0.84825254  0.16267458  0.50392777  1
  Ta  Ta86  1  0.86266945  0.50655888  0.00188377  1
  Ta  Ta87  1  0.87862458  0.49558275  0.49997002  1
  Ta  Ta88  1  0.87785271  0.83307965  -0.00322736  1
  Ta  Ta89  1  0.82797084  0.87098070  0.49937446  1
  Ta  Ta90  1  0.15814908  0.18815141  0.24436317  1
  Ta  Ta91  1  0.16660070  0.19547121  0.74975259  1
  Ta  Ta92  1  0.19620661  0.49041881  0.24689042  1
  Ta  Ta93  1  0.17494800  0.45315935  0.75719445  1
  Ta  Ta94  1  0.21554609  0.82542675  0.24619002  1
  Ta  Ta95  1  0.21976902  0.83095983  0.75454175  1
  Ta  Ta96  1  0.49863116  0.12614582  0.24800220  1
  Ta  Ta97  1  0.53806233  0.16568494  0.75195123  1
  Ta  Ta98  1  0.55189993  0.50300077  0.26169842  1
  Ta  Ta99  1  0.50408112  0.54428654  0.74359014  1
  Ta  Ta100  1  0.50379995  0.88009998  0.24851827  1
  Ta  Ta101  1  0.49851641  0.79518025  0.74683289  1
  Ta  Ta102  1  0.87590706  0.17348260  0.24326188  1
  Ta  Ta103  1  0.78931735  0.17382934  0.75454396  1
  Ta  Ta104  1  0.81578846  0.52449187  0.25010133  1
  Ta  Ta105  1  0.86867935  0.51837501  0.75012623  1
  Ta  Ta106  1  0.86680206  0.84218898  0.24833932  1
  Ta  Ta107  1  0.87142505  0.83325867  0.74727458  1
  Ta  Ta108  1  -0.02582608  0.00712655  0.24308264  1
  Ta  Ta109  1  -0.02706740  -0.03236510  0.75275303  1
  Ta  Ta110  1  -0.00031670  0.29985688  0.24397942  1
  Ta  Ta111  1  0.02694345  0.33639238  0.75648489  1
  Ta  Ta112  1  -0.04664699  0.67231529  0.24733819  1
  Ta  Ta113  1  -0.03093093  0.66348816  0.74553326  1
  Ta  Ta114  1  0.35597811  -0.02025070  0.25203727  1
  Ta  Ta115  1  0.32463970  -0.03711148  0.75215283  1
  Ta  Ta116  1  0.29231005  0.33413687  0.25187470  1
  Ta  Ta117  1  0.28679152  0.32756266  0.75201667  1
  Ta  Ta118  1  0.30281992  0.66207828  0.25378121  1
  Ta  Ta119  1  0.35008864  0.68048051  0.75499140  1
  Ta  Ta120  1  0.61833407  0.00339984  0.24784360  1
  Ta  Ta121  1  0.66037714  0.04486863  0.75646236  1
  Ta  Ta122  1  0.66002062  0.38569170  0.25261851  1
  Ta  Ta123  1  0.65631812  0.28291405  0.75237432  1
  Ta  Ta124  1  0.67456149  0.63292929  0.24890300  1
  Ta  Ta125  1  0.61806895  0.66842576  0.75039626  1
  Ta  Ta126  1  0.02219812  -0.02235602  -0.00338106  1
  Ta  Ta127  1  -0.05076450  0.00041380  0.49974019  1
  Ta  Ta128  1  -0.03654521  0.33945284  0.00106210  1
  Ta  Ta129  1  -0.02679627  0.34356107  0.50542887  1
  Ta  Ta130  1  -0.03051902  0.66913641  0.00546207  1
  Ta  Ta131  1  0.00593444  0.63341650  0.49652867  1
  Ta  Ta132  1  0.28785253  -0.00235730  -0.00122993  1
  Ta  Ta133  1  0.31800221  0.01665513  0.49951155  1
  Ta  Ta134  1  0.34767053  0.35386178  -0.00304941  1
  Ta  Ta135  1  0.32815872  0.29238334  0.50777563  1
  Ta  Ta136  1  0.33067154  0.62182507  0.00747196  1
  Ta  Ta137  1  0.28023295  0.66195080  0.48863541  1
  Ta  Ta138  1  0.65061749  -0.02455701  -0.00261664  1
  Ta  Ta139  1  0.67350899  -0.03242786  0.50248613  1
  Ta  Ta140  1  0.62318719  0.33752089  -0.00124863  1
  Ta  Ta141  1  0.63319312  0.34236689  0.50279030  1
  Ta  Ta142  1  0.64771634  0.70776334  0.00429959  1
  Ta  Ta143  1  0.64218256  0.68459758  0.49970833  1
  N  N144  1  0.49901990  0.50681604  0.37302645  1
  N  N145  1  -0.00297225  0.66521346  0.12746416  1
  N  N146  1  0.19240583  0.83478211  0.12599516  1
  N  N147  1  0.50294829  0.16578167  0.62377302  1
  N  N148  1  -0.00339214  -0.00491863  0.87097703  1
  N  N149  1  0.18342864  0.48705215  0.87806828  1
  N  N150  1  0.19111015  0.82878698  0.87608866  1
  N  N151  1  0.16272739  0.15753077  0.87570189  1
  N  N152  1  0.32745656  0.32893647  0.87892343  1
  N  N153  1  -0.00775972  0.66400104  0.62184483  1
  N  N154  1  0.16618266  0.16228693  0.12469802  1
  N  N155  1  0.49790720  0.16940133  0.87975096  1
  N  N156  1  0.66410764  0.00305951  0.87567556  1
  N  N157  1  0.49581375  0.16667897  0.12611882  1
  N  N158  1  0.33788700  0.65455686  0.12947810  1
  N  N159  1  -0.00250515  0.00051577  0.12268395  1
  N  N160  1  0.33741833  0.66107045  0.87641825  1
  N  N161  1  0.83010551  0.17324198  0.12892872  1
  N  N162  1  0.32550729  0.32555497  0.62479633  1
  N  N163  1  0.65857868  0.67214057  0.12760214  1
  N  N164  1  -0.01613874  0.66349148  0.37278592  1
  N  N165  1  -0.00170447  0.33894289  0.12818336  1
  N  N166  1  0.82682025  0.17124534  0.62305949  1
  N  N167  1  0.16979297  0.15826351  0.62591577  1
  N  N168  1  0.82438845  0.17630840  0.87775965  1
  N  N169  1  0.51345946  0.82796255  0.62564114  1
  N  N170  1  -0.00598760  0.33191498  0.62552257  1
  N  N171  1  0.33059482  -0.00489369  0.37755203  1
  N  N172  1  0.50151255  0.50188707  0.87468809  1
  N  N173  1  0.49609881  0.16459075  0.37298871  1
  N  N174  1  0.33495695  0.65593625  0.38012953  1
  N  N175  1  -0.00316914  0.33348502  0.87715838  1
  N  N176  1  0.50410342  0.50847565  0.62284999  1
  O  O177  1  0.51200593  0.85304192  0.12618366  1
  O  O178  1  0.32424519  0.33148110  0.12941236  1
  O  O179  1  0.32044254  0.66573968  0.61623710  1
  O  O180  1  0.85696375  0.50277309  0.62441668  1
  O  O181  1  0.64599365  0.32344744  0.62747882  1
  O  O182  1  0.18137345  0.48788840  0.12358484  1
  O  O183  1  0.16663045  0.50115118  0.37214573  1
  O  O184  1  0.32692794  -0.00207825  0.12546333  1
  O  O185  1  0.64366603  0.33278501  0.87222953  1
  O  O186  1  0.64626626  0.67253296  0.87841328  1
  O  O187  1  0.82667410  0.50986311  0.12095095  1
  O  O188  1  0.65248892  -0.01371055  0.37823232  1
  O  O189  1  -0.02423227  -0.00024216  0.62518538  1
  O  O190  1  0.86068402  0.84467553  0.11840668  1
  O  O191  1  0.84574375  0.50705086  0.37175534  1
  O  O192  1  0.18642632  0.83708426  0.37559834  1
  O  O193  1  0.64514512  0.35873835  0.12104330  1
  O  O194  1  0.51459690  0.85351368  0.37499467  1
  O  O195  1  0.51730766  0.50907696  0.12859839  1
  O  O196  1  0.66521326  0.67302001  0.37323364  1
  O  O197  1  0.66693475  -0.00380370  0.62872586  1
  O  O198  1  0.85800636  0.50977643  0.87294224  1
  O  O199  1  0.85684253  0.82464289  0.87550459  1
  O  O200  1  -0.00007487  0.33330694  0.37233787  1
  O  O201  1  0.17047589  0.50157226  0.62436837  1
  O  O202  1  0.83815734  0.17173227  0.36732345  1
  O  O203  1  0.33405399  -0.01620943  0.87837271  1
  O  O204  1  0.51734111  0.83461895  0.86803985  1
  O  O205  1  0.84088855  0.83789652  0.61964472  1
  O  O206  1  0.18670433  0.81687028  0.62426744  1
  O  O207  1  0.64620052  0.67076565  0.62336988  1
  O  O208  1  -0.00998053  0.66652957  0.87712970  1
  O  O209  1  0.64152282  0.00705202  0.12122187  1
  O  O210  1  -0.02969742  0.00458082  0.37880345  1
  O  O211  1  0.66428175  0.35133383  0.38023098  1
  O  O212  1  0.30781054  0.32500882  0.37775607  1
  O  O213  1  0.33084890  -0.01469577  0.62837394  1
  O  O214  1  0.83724462  0.85133666  0.36970890  1
  O  O215  1  0.17443369  0.15916742  0.37337692  1
