# generated using pymatgen
data_Sr24Ta24N11O13
_symmetry_space_group_name_H-M   'P 1'
_cell_length_a   16.75835015
_cell_length_b   16.71726631
_cell_length_c   15.73743368
_cell_angle_alpha   89.58729753
_cell_angle_beta   90.26869994
_cell_angle_gamma   90.29644247
_symmetry_Int_Tables_number   1
_chemical_formula_structural   Sr24Ta24N11O13
_chemical_formula_sum   'Sr72 Ta72 N33 O39'
_cell_volume   4408.68078458
_cell_formula_units_Z   3
loop_
 _symmetry_equiv_pos_site_id
 _symmetry_equiv_pos_as_xyz
  1  'x, y, z'
loop_
 _atom_site_type_symbol
 _atom_site_label
 _atom_site_symmetry_multiplicity
 _atom_site_fract_x
 _atom_site_fract_y
 _atom_site_fract_z
 _atom_site_occupancy
  Sr  Sr0  1  0.00364909  0.15985612  0.12248794  1
  Sr  Sr1  1  0.01616109  0.16456676  0.59398056  1
  Sr  Sr2  1  0.01673960  0.49848019  0.17112416  1
  Sr  Sr3  1  -0.00779130  0.50465030  0.61933152  1
  Sr  Sr4  1  0.00697296  0.82461499  0.11363199  1
  Sr  Sr5  1  0.02989203  0.84128176  0.62953852  1
  Sr  Sr6  1  0.33661300  0.17169203  0.15683043  1
  Sr  Sr7  1  0.33019488  0.16423221  0.65051369  1
  Sr  Sr8  1  0.32503337  0.49284846  0.07563471  1
  Sr  Sr9  1  0.34326945  0.51039266  0.64146067  1
  Sr  Sr10  1  0.34021759  0.83782761  0.13984719  1
  Sr  Sr11  1  0.35232003  0.84738740  0.58491472  1
  Sr  Sr12  1  0.64230551  0.16312245  0.06897836  1
  Sr  Sr13  1  0.66283139  0.19092986  0.63963780  1
  Sr  Sr14  1  0.66110226  0.48137231  0.14895280  1
  Sr  Sr15  1  0.66820433  0.52906043  0.58735750  1
  Sr  Sr16  1  0.67191353  0.84246617  0.11537886  1
  Sr  Sr17  1  0.67696491  0.82059742  0.67067240  1
  Sr  Sr18  1  0.14565016  -0.00733757  0.08243785  1
  Sr  Sr19  1  0.17053357  0.01290985  0.63817730  1
  Sr  Sr20  1  0.15986102  0.32005414  0.13558432  1
  Sr  Sr21  1  0.15060548  0.34831770  0.57348993  1
  Sr  Sr22  1  0.16887829  0.66278147  0.12548192  1
  Sr  Sr23  1  0.16145650  0.65326359  0.66926277  1
  Sr  Sr24  1  0.50499816  -0.01513839  0.13339648  1
  Sr  Sr25  1  0.50446327  -0.00473321  0.59146235  1
  Sr  Sr26  1  0.49203668  0.32841174  0.13094245  1
  Sr  Sr27  1  0.49733095  0.31726798  0.65309507  1
  Sr  Sr28  1  0.50184466  0.64032039  0.14389478  1
  Sr  Sr29  1  0.49446189  0.66168462  0.62090997  1
  Sr  Sr30  1  0.84266484  -0.00820751  0.16568460  1
  Sr  Sr31  1  0.80751427  0.02904154  0.61832312  1
  Sr  Sr32  1  0.81643563  0.33397417  0.10663467  1
  Sr  Sr33  1  0.83585350  0.34518237  0.66159763  1
  Sr  Sr34  1  0.82684961  0.67860059  0.08792639  1
  Sr  Sr35  1  0.83426613  0.66717457  0.61736300  1
  Sr  Sr36  1  0.00074332  0.15502685  0.37673982  1
  Sr  Sr37  1  0.01590376  0.17258150  0.90002825  1
  Sr  Sr38  1  0.00013750  0.50401532  0.38121533  1
  Sr  Sr39  1  -0.00561295  0.50289951  0.83460873  1
  Sr  Sr40  1  -0.00522883  0.83149984  0.37883361  1
  Sr  Sr41  1  0.02453682  0.84080671  0.88055601  1
  Sr  Sr42  1  0.33912743  0.17849827  0.35039701  1
  Sr  Sr43  1  0.32202612  0.16238670  0.84647456  1
  Sr  Sr44  1  0.33480762  0.49233097  0.42077622  1
  Sr  Sr45  1  0.33748560  0.50488590  0.86469906  1
  Sr  Sr46  1  0.33982022  0.82522511  0.36803238  1
  Sr  Sr47  1  0.34718915  0.85761548  0.90515276  1
  Sr  Sr48  1  0.65447399  0.15039744  0.42549123  1
  Sr  Sr49  1  0.68154339  0.17619148  0.85808713  1
  Sr  Sr50  1  0.65877948  0.51786561  0.36916516  1
  Sr  Sr51  1  0.69984079  0.50643659  0.92562683  1
  Sr  Sr52  1  0.67516779  0.86363610  0.32763283  1
  Sr  Sr53  1  0.66660590  0.82873161  0.88006014  1
  Sr  Sr54  1  0.15210315  -0.01434395  0.42145789  1
  Sr  Sr55  1  0.15892803  0.01138054  0.86278817  1
  Sr  Sr56  1  0.15395573  0.32220910  0.36080439  1
  Sr  Sr57  1  0.15943020  0.33168815  0.90722101  1
  Sr  Sr58  1  0.15467016  0.67412946  0.33264351  1
  Sr  Sr59  1  0.17428207  0.65240754  0.87736658  1
  Sr  Sr60  1  0.48907949  -0.01388319  0.36321642  1
  Sr  Sr61  1  0.51202242  -0.01410455  0.91876842  1
  Sr  Sr62  1  0.51031578  0.32433270  0.36323660  1
  Sr  Sr63  1  0.48084975  0.32726168  0.86441671  1
  Sr  Sr64  1  0.49180710  0.64994816  0.39396696  1
  Sr  Sr65  1  0.49373355  0.66019144  0.84925618  1
  Sr  Sr66  1  0.82949833  0.01372400  0.37375746  1
  Sr  Sr67  1  0.81414188  0.00129633  0.83527288  1
  Sr  Sr68  1  0.80633653  0.35999560  0.32743546  1
  Sr  Sr69  1  0.83779860  0.33183736  0.88174832  1
  Sr  Sr70  1  0.84403116  0.66278978  0.41087177  1
  Sr  Sr71  1  0.82735986  0.67843692  0.88194363  1
  Ta  Ta72  1  0.20931376  0.16289469  0.00927999  1
  Ta  Ta73  1  0.20697826  0.16917908  0.49427446  1
  Ta  Ta74  1  0.11953383  0.49889570  0.00188910  1
  Ta  Ta75  1  0.16631442  0.54693756  0.50284891  1
  Ta  Ta76  1  0.19110694  0.81450762  0.00325689  1
  Ta  Ta77  1  0.17431544  0.78624434  0.50083008  1
  Ta  Ta78  1  0.45366498  0.16418475  -0.00277057  1
  Ta  Ta79  1  0.46325982  0.17230574  0.50710687  1
  Ta  Ta80  1  0.51746941  0.49678415  -0.00513723  1
  Ta  Ta81  1  0.50718936  0.45383352  0.51152275  1
  Ta  Ta82  1  0.50217688  0.78642239  0.00054068  1
  Ta  Ta83  1  0.54501548  0.82472657  0.49498281  1
  Ta  Ta84  1  0.83677438  0.12957263  -0.00606465  1
  Ta  Ta85  1  0.82979636  0.22584932  0.49821767  1
  Ta  Ta86  1  0.88187907  0.50368357  0.00841067  1
  Ta  Ta87  1  0.82736562  0.46158733  0.49011538  1
  Ta  Ta88  1  0.83924148  0.87311464  0.00091525  1
  Ta  Ta89  1  0.81483497  0.84857227  0.49337311  1
  Ta  Ta90  1  0.16196962  0.12129480  0.25327839  1
  Ta  Ta91  1  0.15138683  0.21348795  0.73884462  1
  Ta  Ta92  1  0.22160464  0.49745806  0.25282040  1
  Ta  Ta93  1  0.16384863  0.45477184  0.74206739  1
  Ta  Ta94  1  0.16544113  0.87035780  0.24856792  1
  Ta  Ta95  1  0.21517109  0.83920808  0.74744607  1
  Ta  Ta96  1  0.53065265  0.15631680  0.25036066  1
  Ta  Ta97  1  0.50128372  0.11429173  0.74993900  1
  Ta  Ta98  1  0.44619140  0.48857133  0.24601541  1
  Ta  Ta99  1  0.54323396  0.49529953  0.75850293  1
  Ta  Ta100  1  0.51444276  0.79681703  0.25402422  1
  Ta  Ta101  1  0.48582682  0.85310728  0.75507110  1
  Ta  Ta102  1  0.81081381  0.17925369  0.24530417  1
  Ta  Ta103  1  0.88188527  0.17121793  0.75089029  1
  Ta  Ta104  1  0.83296742  0.54647994  0.24365884  1
  Ta  Ta105  1  0.80721326  0.51539926  0.75711002  1
  Ta  Ta106  1  0.83929055  0.79775800  0.24762300  1
  Ta  Ta107  1  0.86845441  0.83311519  0.74564533  1
  Ta  Ta108  1  0.03117313  -0.00983765  0.24968501  1
  Ta  Ta109  1  -0.01908316  0.01381673  0.74568830  1
  Ta  Ta110  1  -0.02574787  0.31469709  0.24856066  1
  Ta  Ta111  1  0.02170508  0.31776680  0.74023543  1
  Ta  Ta112  1  -0.03420146  0.67171692  0.24965463  1
  Ta  Ta113  1  -0.02134871  0.68722424  0.74796876  1
  Ta  Ta114  1  0.27782810  -0.00132140  0.25347769  1
  Ta  Ta115  1  0.35949830  -0.02052508  0.74412184  1
  Ta  Ta116  1  0.32681373  0.36854360  0.25002078  1
  Ta  Ta117  1  0.28588192  0.33814511  0.75045527  1
  Ta  Ta118  1  0.33682230  0.62648377  0.25201499  1
  Ta  Ta119  1  0.33471562  0.71994198  0.74872465  1
  Ta  Ta120  1  0.66771287  0.05960298  0.24226678  1
  Ta  Ta121  1  0.62482821  -0.00137107  0.75664216  1
  Ta  Ta122  1  0.66187161  0.26142784  0.24025990  1
  Ta  Ta123  1  0.67058697  0.39625427  0.75341361  1
  Ta  Ta124  1  0.69491817  0.67956281  0.24861758  1
  Ta  Ta125  1  0.67125839  0.62608747  0.75832890  1
  Ta  Ta126  1  -0.04293819  0.00053572  -0.00570919  1
  Ta  Ta127  1  -0.02971040  -0.01443569  0.50649904  1
  Ta  Ta128  1  -0.00359781  0.38102157  0.00336577  1
  Ta  Ta129  1  -0.04680223  0.33530414  0.49663772  1
  Ta  Ta130  1  0.00741845  0.63214795  0.00519147  1
  Ta  Ta131  1  0.03803887  0.67247434  0.50097625  1
  Ta  Ta132  1  0.32871885  0.03441231  0.00512501  1
  Ta  Ta133  1  0.33247588  0.03944373  0.49855442  1
  Ta  Ta134  1  0.33307110  0.29755044  -0.00405803  1
  Ta  Ta135  1  0.34813974  0.30980873  0.50600188  1
  Ta  Ta136  1  0.34664599  0.68435486  -0.00477379  1
  Ta  Ta137  1  0.29180759  0.66838259  0.50798909  1
  Ta  Ta138  1  0.71056744  0.00139307  0.00095391  1
  Ta  Ta139  1  0.67224202  -0.05843744  0.50083697  1
  Ta  Ta140  1  0.63812624  0.34225038  -0.00209276  1
  Ta  Ta141  1  0.68520900  0.34352209  0.49915144  1
  Ta  Ta142  1  0.62775614  0.66483215  -0.00089885  1
  Ta  Ta143  1  0.67275867  0.72893856  0.49409831  1
  N  N144  1  0.16880798  0.18149770  0.62053653  1
  N  N145  1  0.50348573  0.82902312  0.87617769  1
  N  N146  1  0.33473897  0.67387076  0.87297425  1
  N  N147  1  0.16149382  0.49980300  0.62358683  1
  N  N148  1  0.00146415  0.66576488  0.37679649  1
  N  N149  1  0.33231716  0.67598219  0.62862311  1
  N  N150  1  0.00365350  0.66164787  0.12571855  1
  N  N151  1  0.48946540  0.49070248  0.87124579  1
  N  N152  1  0.82737423  0.50746857  0.37474903  1
  N  N153  1  0.33821281  0.00213011  0.62260371  1
  N  N154  1  0.50349321  0.48951724  0.62709901  1
  N  N155  1  0.32047588  0.33079360  0.87411347  1
  N  N156  1  0.83345778  0.50495061  0.12630287  1
  N  N157  1  0.66628388  0.66465004  0.87615861  1
  N  N158  1  0.48401631  0.48695420  0.12560452  1
  N  N159  1  -0.00047909  0.66973346  0.62746454  1
  N  N160  1  0.84437342  0.50755559  0.87559421  1
  N  N161  1  0.01672653  0.00232761  0.62193552  1
  N  N162  1  0.67434383  0.01482949  0.12598932  1
  N  N163  1  0.49708290  0.15749402  0.62972341  1
  N  N164  1  -0.00044250  0.00192873  0.87514183  1
  N  N165  1  0.65361690  0.31460234  0.11798646  1
  N  N166  1  0.66232135  0.00160068  0.87608150  1
  N  N167  1  0.16450600  0.16296525  0.37771718  1
  N  N168  1  0.83493501  0.83649440  0.12111507  1
  N  N169  1  0.49886857  0.82206672  0.37202537  1
  N  N170  1  0.84472610  0.16912138  0.86889833  1
  N  N171  1  0.17572505  0.83073017  0.12274202  1
  N  N172  1  0.83282532  0.83803100  0.36876948  1
  N  N173  1  -0.00486159  0.33592565  0.61815129  1
  N  N174  1  -0.00461339  -0.00228684  0.12974228  1
  N  N175  1  0.16901224  0.16131014  0.12637918  1
  N  N176  1  -0.00461325  -0.00464921  0.38265637  1
  O  O177  1  0.15057596  0.48886428  0.87499700  1
  O  O178  1  0.17205375  0.82737015  0.37700761  1
  O  O179  1  0.83545619  0.18932668  0.62548811  1
  O  O180  1  0.32522520  0.33988019  0.11856053  1
  O  O181  1  0.33551395  0.00969410  0.87790011  1
  O  O182  1  0.33877188  0.65105448  0.12733608  1
  O  O183  1  0.18917068  0.84189952  0.87138323  1
  O  O184  1  0.19139356  0.83774992  0.62139776  1
  O  O185  1  0.32525879  0.00123648  0.37524015  1
  O  O186  1  0.17155937  0.49990721  0.12114300  1
  O  O187  1  0.67816584  0.35203174  0.62900480  1
  O  O188  1  0.82452598  0.50419684  0.61451801  1
  O  O189  1  0.16892760  0.17480119  0.88065521  1
  O  O190  1  0.83265915  0.16625335  0.12116270  1
  O  O191  1  0.33782025  0.33630822  0.38197523  1
  O  O192  1  0.47581676  0.15318848  0.87218407  1
  O  O193  1  -0.00047835  0.34517298  0.87913214  1
  O  O194  1  0.84233311  0.83036478  0.62526558  1
  O  O195  1  0.18365507  0.51414406  0.37531058  1
  O  O196  1  0.48498904  0.47862144  0.38405388  1
  O  O197  1  -0.00743109  0.32310149  0.37086703  1
  O  O198  1  -0.01357540  0.32913079  0.12465303  1
  O  O199  1  0.48657896  0.15926115  0.12137274  1
  O  O200  1  0.68483876  0.67910055  0.37734363  1
  O  O201  1  0.84921427  0.84092380  0.87116688  1
  O  O202  1  0.50048813  0.16618066  0.38255253  1
  O  O203  1  0.32331123  0.00987605  0.13170956  1
  O  O204  1  0.67548062  0.34732488  0.87355781  1
  O  O205  1  0.33820942  0.32516229  0.63229102  1
  O  O206  1  0.66099313  -0.02814917  0.62624020  1
  O  O207  1  0.67249596  0.00411142  0.38266432  1
  O  O208  1  0.66520863  0.30622973  0.37683401  1
  O  O209  1  0.67613909  0.67572816  0.62998163  1
  O  O210  1  0.67031854  0.67104296  0.12302612  1
  O  O211  1  -0.00213813  0.66064820  0.87225964  1
  O  O212  1  0.50132298  0.81917648  0.12643928  1
  O  O213  1  0.81908722  0.18617913  0.37972547  1
  O  O214  1  0.50600600  0.83325603  0.61909465  1
  O  O215  1  0.33420561  0.65061917  0.37966541  1
