# generated using pymatgen
data_Sr24Ta24N11O13
_symmetry_space_group_name_H-M   'P 1'
_cell_length_a   16.80664100
_cell_length_b   16.85154243
_cell_length_c   15.73851793
_cell_angle_alpha   89.96191959
_cell_angle_beta   90.14017612
_cell_angle_gamma   90.00012570
_symmetry_Int_Tables_number   1
_chemical_formula_structural   Sr24Ta24N11O13
_chemical_formula_sum   'Sr72 Ta72 N33 O39'
_cell_volume   4457.41447598
_cell_formula_units_Z   3
loop_
 _symmetry_equiv_pos_site_id
 _symmetry_equiv_pos_as_xyz
  1  'x, y, z'
loop_
 _atom_site_type_symbol
 _atom_site_label
 _atom_site_symmetry_multiplicity
 _atom_site_fract_x
 _atom_site_fract_y
 _atom_site_fract_z
 _atom_site_occupancy
  Sr  Sr0  1  0.01574167  0.17623359  0.14876512  1
  Sr  Sr1  1  -0.01484742  0.18426734  0.59758639  1
  Sr  Sr2  1  -0.00187086  0.53556794  0.16801030  1
  Sr  Sr3  1  0.00867992  0.51255078  0.62758380  1
  Sr  Sr4  1  -0.00472436  0.84274526  0.08210953  1
  Sr  Sr5  1  -0.00426740  0.84778930  0.63829919  1
  Sr  Sr6  1  0.33418182  0.16342307  0.08173203  1
  Sr  Sr7  1  0.33165987  0.18689571  0.63513153  1
  Sr  Sr8  1  0.32797023  0.49636246  0.12610992  1
  Sr  Sr9  1  0.32049743  0.52306916  0.61256639  1
  Sr  Sr10  1  0.34311588  0.84806574  0.14931026  1
  Sr  Sr11  1  0.33060067  0.83104130  0.63135497  1
  Sr  Sr12  1  0.66473653  0.15666142  0.11432619  1
  Sr  Sr13  1  0.66880771  0.16668275  0.66154810  1
  Sr  Sr14  1  0.68388188  0.50745597  0.09066703  1
  Sr  Sr15  1  0.65751379  0.49342473  0.62815258  1
  Sr  Sr16  1  0.66836925  0.82650499  0.16124935  1
  Sr  Sr17  1  0.65243945  0.85253229  0.60610595  1
  Sr  Sr18  1  0.15206562  -0.01099698  0.13564844  1
  Sr  Sr19  1  0.17261391  -0.02387795  0.66844996  1
  Sr  Sr20  1  0.17832436  0.31756268  0.09411493  1
  Sr  Sr21  1  0.15602269  0.32941862  0.64635055  1
  Sr  Sr22  1  0.18744991  0.65561063  0.13927632  1
  Sr  Sr23  1  0.16991400  0.66888550  0.57995500  1
  Sr  Sr24  1  0.51356550  -0.00495299  0.13961536  1
  Sr  Sr25  1  0.47273311  0.00440835  0.57093600  1
  Sr  Sr26  1  0.50078043  0.33368589  0.16239484  1
  Sr  Sr27  1  0.50881846  0.32916116  0.62017490  1
  Sr  Sr28  1  0.50712511  0.63512004  0.09108130  1
  Sr  Sr29  1  0.50820939  0.66289072  0.64114463  1
  Sr  Sr30  1  0.83793373  -0.01360743  0.09248553  1
  Sr  Sr31  1  0.83488350  0.00697937  0.63437960  1
  Sr  Sr32  1  0.82983500  0.31100568  0.13104723  1
  Sr  Sr33  1  0.82825801  0.34285182  0.58521785  1
  Sr  Sr34  1  0.83018149  0.67034905  0.12214447  1
  Sr  Sr35  1  0.85802531  0.64870907  0.66982993  1
  Sr  Sr36  1  -0.00403188  0.15778398  0.37529341  1
  Sr  Sr37  1  0.00905470  0.20793005  0.88573973  1
  Sr  Sr38  1  0.00968245  0.53146193  0.37673217  1
  Sr  Sr39  1  0.00438907  0.50597599  0.83913304  1
  Sr  Sr40  1  -0.00339954  0.84715207  0.40696564  1
  Sr  Sr41  1  -0.00400706  0.83715180  0.86768637  1
  Sr  Sr42  1  0.34641232  0.17130294  0.41916507  1
  Sr  Sr43  1  0.32462156  0.17439621  0.86500857  1
  Sr  Sr44  1  0.33035968  0.50334271  0.35358210  1
  Sr  Sr45  1  0.32801484  0.51975476  0.90783438  1
  Sr  Sr46  1  0.32586242  0.83667395  0.36554578  1
  Sr  Sr47  1  0.34193243  0.83758567  0.85582888  1
  Sr  Sr48  1  0.65102496  0.17618615  0.32389215  1
  Sr  Sr49  1  0.67811590  0.15750215  0.88618903  1
  Sr  Sr50  1  0.66412427  0.48744061  0.40792475  1
  Sr  Sr51  1  0.66436431  0.50540484  0.86977162  1
  Sr  Sr52  1  0.67046473  0.83131347  0.37992004  1
  Sr  Sr53  1  0.63868570  0.83234863  0.84923999  1
  Sr  Sr54  1  0.15583217  -0.00057139  0.34252282  1
  Sr  Sr55  1  0.15872968  -0.02491469  0.86645775  1
  Sr  Sr56  1  0.16346444  0.29604956  0.39043349  1
  Sr  Sr57  1  0.17020416  0.34763531  0.87154079  1
  Sr  Sr58  1  0.18428209  0.66226876  0.36560118  1
  Sr  Sr59  1  0.17673597  0.66070822  0.91139222  1
  Sr  Sr60  1  0.51372766  -0.01938829  0.35686969  1
  Sr  Sr61  1  0.48738458  0.01204416  0.92643334  1
  Sr  Sr62  1  0.49839190  0.33518298  0.37618847  1
  Sr  Sr63  1  0.51696313  0.31029566  0.82961351  1
  Sr  Sr64  1  0.53278633  0.65343034  0.40993882  1
  Sr  Sr65  1  0.50041774  0.65587152  0.86737736  1
  Sr  Sr66  1  0.84232263  -0.01731677  0.41645486  1
  Sr  Sr67  1  0.82223626  -0.00063157  0.85967490  1
  Sr  Sr68  1  0.83566261  0.31854939  0.36836051  1
  Sr  Sr69  1  0.81647610  0.33145496  0.91713510  1
  Sr  Sr70  1  0.83222479  0.66446586  0.33444664  1
  Sr  Sr71  1  0.83578548  0.65667118  0.88312211  1
  Ta  Ta72  1  0.15759160  0.12664899  -0.00079294  1
  Ta  Ta73  1  0.16644687  0.11908469  0.50920905  1
  Ta  Ta74  1  0.11390377  0.49690309  0.01131057  1
  Ta  Ta75  1  0.16705738  0.46781937  0.50032573  1
  Ta  Ta76  1  0.19846348  0.83373353  -0.00109232  1
  Ta  Ta77  1  0.16842875  0.86498164  0.50553103  1
  Ta  Ta78  1  0.50151901  0.20591054  0.00320031  1
  Ta  Ta79  1  0.54381046  0.16661930  0.49483601  1
  Ta  Ta80  1  0.50308329  0.44854709  -0.00861287  1
  Ta  Ta81  1  0.46782702  0.49271996  0.50387831  1
  Ta  Ta82  1  0.50965952  0.82349253  0.01125572  1
  Ta  Ta83  1  0.48107143  0.81758449  0.49441961  1
  Ta  Ta84  1  0.86346946  0.14972751  -0.00506758  1
  Ta  Ta85  1  0.78996538  0.16208230  0.50062790  1
  Ta  Ta86  1  0.88536912  0.50178939  -0.00100027  1
  Ta  Ta87  1  0.84514281  0.52856855  0.50541133  1
  Ta  Ta88  1  0.79001258  0.82604796  -0.00460108  1
  Ta  Ta89  1  0.83119773  0.78859736  0.50095253  1
  Ta  Ta90  1  0.22757798  0.16373383  0.24719346  1
  Ta  Ta91  1  0.14468852  0.14939082  0.74805469  1
  Ta  Ta92  1  0.15990057  0.44705013  0.24747136  1
  Ta  Ta93  1  0.18200962  0.52931511  0.74700800  1
  Ta  Ta94  1  0.12590719  0.82438730  0.24811103  1
  Ta  Ta95  1  0.16770929  0.78500055  0.75148517  1
  Ta  Ta96  1  0.44683133  0.16201908  0.24406477  1
  Ta  Ta97  1  0.49818701  0.10865572  0.74896658  1
  Ta  Ta98  1  0.52040699  0.51528616  0.25538418  1
  Ta  Ta99  1  0.46455474  0.48919211  0.75048354  1
  Ta  Ta100  1  0.50368367  0.77865742  0.25089572  1
  Ta  Ta101  1  0.49287272  0.90608901  0.74634385  1
  Ta  Ta102  1  0.83723298  0.11716039  0.25186275  1
  Ta  Ta103  1  0.85050917  0.19753244  0.74810571  1
  Ta  Ta104  1  0.81783205  0.48224826  0.25029825  1
  Ta  Ta105  1  0.82986083  0.46403802  0.75377282  1
  Ta  Ta106  1  0.85658316  0.85167322  0.25405150  1
  Ta  Ta107  1  0.80308096  0.81862718  0.74428666  1
  Ta  Ta108  1  -0.02919197  -0.01710276  0.24364610  1
  Ta  Ta109  1  0.00112143  0.05044958  0.75299862  1
  Ta  Ta110  1  0.00745768  0.36140460  0.25030500  1
  Ta  Ta111  1  -0.05536573  0.33880525  0.74868402  1
  Ta  Ta112  1  0.00153033  0.72564831  0.24917011  1
  Ta  Ta113  1  0.05388245  0.67284389  0.74638991  1
  Ta  Ta114  1  0.33530009  0.03475289  0.25110933  1
  Ta  Ta115  1  0.36019737  0.01163103  0.75373209  1
  Ta  Ta116  1  0.31814680  0.30730113  0.24326253  1
  Ta  Ta117  1  0.33493339  0.38067632  0.75249415  1
  Ta  Ta118  1  0.38336723  0.66517435  0.25230879  1
  Ta  Ta119  1  0.30985506  0.66039953  0.75179149  1
  Ta  Ta120  1  0.71372896  -0.00242045  0.25194679  1
  Ta  Ta121  1  0.62867848  0.00147870  0.75518799  1
  Ta  Ta122  1  0.67406492  0.37105317  0.24715389  1
  Ta  Ta123  1  0.70795016  0.33414820  0.74951397  1
  Ta  Ta124  1  0.64933280  0.64145680  0.24829029  1
  Ta  Ta125  1  0.68522659  0.67897473  0.74864394  1
  Ta  Ta126  1  0.00650133  0.03625359  -0.00508215  1
  Ta  Ta127  1  0.04711211  0.00939365  0.51606723  1
  Ta  Ta128  1  -0.00326960  0.37608172  0.00363779  1
  Ta  Ta129  1  0.00966492  0.36967521  0.49962494  1
  Ta  Ta130  1  0.00306016  0.64233557  0.00027410  1
  Ta  Ta131  1  -0.04512041  0.67447735  0.50180525  1
  Ta  Ta132  1  0.30030417  -0.01386058  -0.00296768  1
  Ta  Ta133  1  0.28092347  -0.00404912  0.50154149  1
  Ta  Ta134  1  0.37709143  0.33680365  -0.00230119  1
  Ta  Ta135  1  0.32580502  0.36484534  0.50038459  1
  Ta  Ta136  1  0.34712567  0.70899238  0.00574971  1
  Ta  Ta137  1  0.36262592  0.67705528  0.49656663  1
  Ta  Ta138  1  0.66593192  -0.04290694  0.00352673  1
  Ta  Ta139  1  0.66312200  0.04387379  0.49183815  1
  Ta  Ta140  1  0.62932950  0.33099121  0.00041201  1
  Ta  Ta141  1  0.66338584  0.29164407  0.49577851  1
  Ta  Ta142  1  0.66617196  0.70414669  -0.00109823  1
  Ta  Ta143  1  0.71927739  0.66168117  0.49933330  1
  N  N144  1  0.67012709  0.66404414  0.12413278  1
  N  N145  1  0.83595645  0.50216651  0.62513497  1
  N  N146  1  0.67382712  -0.00931382  0.12565275  1
  N  N147  1  -0.00049790  0.01152963  0.63573704  1
  N  N148  1  0.50276618  0.49538367  0.37650642  1
  N  N149  1  0.68414955  0.65804752  0.37637080  1
  N  N150  1  0.66812833  0.32738031  0.86734736  1
  N  N151  1  0.82678084  0.16932803  0.62055465  1
  N  N152  1  -0.00290577  0.00189658  0.12164880  1
  N  N153  1  0.32582864  0.00700762  0.87711772  1
  N  N154  1  0.34538179  0.66772925  0.12380981  1
  N  N155  1  0.67002548  0.32531412  0.62161212  1
  N  N156  1  0.66473716  0.33053368  0.36714590  1
  N  N157  1  0.84173034  0.49840007  0.88285936  1
  N  N158  1  0.83516312  0.82804928  0.37429963  1
  N  N159  1  0.16604746  0.82718706  0.62285500  1
  N  N160  1  0.16948259  0.82082799  0.88007279  1
  N  N161  1  0.83949120  0.16804111  0.87745651  1
  N  N162  1  0.66671764  0.66692988  0.87228733  1
  N  N163  1  0.33972473  0.67536310  0.87895008  1
  N  N164  1  0.33708474  0.33047248  0.12118306  1
  N  N165  1  0.16493724  0.49985710  0.62600791  1
  N  N166  1  0.65470678  -0.00445059  0.87920858  1
  N  N167  1  0.50464784  0.83175911  0.13492020  1
  N  N168  1  0.66724563  0.33621609  0.12108864  1
  N  N169  1  0.49116997  0.16817871  0.12726121  1
  N  N170  1  0.50181677  0.82510675  0.37416180  1
  N  N171  1  0.67192670  0.00076500  0.37142110  1
  N  N172  1  0.33627073  0.67558212  0.62667868  1
  N  N173  1  0.50024083  0.49472381  0.87634552  1
  N  N174  1  0.33921102  0.66388432  0.37102079  1
  N  N175  1  0.49846041  0.50158274  0.62569241  1
  N  N176  1  0.16281995  0.48894003  0.12549056  1
  O  O177  1  -0.00637109  0.34504968  0.12953232  1
  O  O178  1  0.83962455  0.14044178  0.37858728  1
  O  O179  1  0.82498665  0.82871508  0.12060491  1
  O  O180  1  -0.00569559  0.68238108  0.12092408  1
  O  O181  1  0.33031615  0.00635592  0.12214370  1
  O  O182  1  0.65696618  0.00711989  0.61597038  1
  O  O183  1  0.01890920  0.65839541  0.87479350  1
  O  O184  1  0.16833147  0.17304506  0.62758623  1
  O  O185  1  -0.00974635  0.35484764  0.86922033  1
  O  O186  1  0.16468710  0.14681076  0.87490176  1
  O  O187  1  0.49502727  0.16777049  0.37302150  1
  O  O188  1  0.32257797  0.00391939  0.62264516  1
  O  O189  1  0.14948501  0.84132791  0.37281783  1
  O  O190  1  0.84436366  0.14385315  0.12857450  1
  O  O191  1  -0.01235037  0.68767876  0.37536728  1
  O  O192  1  0.32232872  0.35415467  0.63067929  1
  O  O193  1  -0.00795321  0.35033137  0.62515194  1
  O  O194  1  0.50862287  0.14705865  0.61890722  1
  O  O195  1  0.00697527  0.67177896  0.61977444  1
  O  O196  1  0.32588328  0.33397619  0.37916063  1
  O  O197  1  0.15011110  0.83266211  0.12234405  1
  O  O198  1  0.49194950  0.86113321  0.62306036  1
  O  O199  1  0.50301760  0.48698614  0.12543608  1
  O  O200  1  0.81683813  0.83435003  0.62162151  1
  O  O201  1  -0.00212258  -0.00639191  0.87302400  1
  O  O202  1  0.32801768  0.35841698  0.87924311  1
  O  O203  1  0.81313362  0.82858609  0.86840806  1
  O  O204  1  0.83994831  0.49784934  0.12582047  1
  O  O205  1  0.15496132  0.50197893  0.87705980  1
  O  O206  1  0.17478655  0.14767696  0.12722936  1
  O  O207  1  -0.00867650  0.36855304  0.37813596  1
  O  O208  1  0.16807820  0.48577832  0.36898466  1
  O  O209  1  0.00681710  0.00142344  0.37369347  1
  O  O210  1  0.49268550  0.86330422  0.87098682  1
  O  O211  1  0.67410044  0.65312435  0.62234017  1
  O  O212  1  0.83346424  0.49666638  0.37317370  1
  O  O213  1  0.32182044  0.01360097  0.37972666  1
  O  O214  1  0.49745436  0.15848958  0.88159246  1
  O  O215  1  0.19221428  0.15032206  0.37249970  1
