# generated using pymatgen
data_Sr24Ta24N11O13
_symmetry_space_group_name_H-M   'P 1'
_cell_length_a   16.63191628
_cell_length_b   17.01822342
_cell_length_c   15.53125201
_cell_angle_alpha   90.88988814
_cell_angle_beta   89.43497679
_cell_angle_gamma   89.30719487
_symmetry_Int_Tables_number   1
_chemical_formula_structural   Sr24Ta24N11O13
_chemical_formula_sum   'Sr72 Ta72 N33 O39'
_cell_volume   4394.98002702
_cell_formula_units_Z   3
loop_
 _symmetry_equiv_pos_site_id
 _symmetry_equiv_pos_as_xyz
  1  'x, y, z'
loop_
 _atom_site_type_symbol
 _atom_site_label
 _atom_site_symmetry_multiplicity
 _atom_site_fract_x
 _atom_site_fract_y
 _atom_site_fract_z
 _atom_site_occupancy
  Sr  Sr0  1  0.01019828  0.14817453  0.10244729  1
  Sr  Sr1  1  -0.00514726  0.15475673  0.64889465  1
  Sr  Sr2  1  -0.00173054  0.49936108  0.16348456  1
  Sr  Sr3  1  -0.00159550  0.45234881  0.59583772  1
  Sr  Sr4  1  -0.00970747  0.79178828  0.08418824  1
  Sr  Sr5  1  0.01147817  0.84798510  0.63626423  1
  Sr  Sr6  1  0.33422459  0.18633607  0.16788045  1
  Sr  Sr7  1  0.33024938  0.16654849  0.61316703  1
  Sr  Sr8  1  0.31778732  0.49534842  0.08301306  1
  Sr  Sr9  1  0.33032354  0.50998345  0.63929196  1
  Sr  Sr10  1  0.32143620  0.83500838  0.13327858  1
  Sr  Sr11  1  0.34915220  0.83573888  0.56841495  1
  Sr  Sr12  1  0.66805025  0.16088281  0.13173094  1
  Sr  Sr13  1  0.68635002  0.15475285  0.58241900  1
  Sr  Sr14  1  0.65232784  0.48986509  0.11835762  1
  Sr  Sr15  1  0.66725201  0.46020361  0.62805250  1
  Sr  Sr16  1  0.67806747  0.82023587  0.12582438  1
  Sr  Sr17  1  0.65143311  0.84595054  0.67326440  1
  Sr  Sr18  1  0.17281432  0.00633804  0.11862340  1
  Sr  Sr19  1  0.15155894  0.01526675  0.66129165  1
  Sr  Sr20  1  0.16333621  0.34791870  0.12564511  1
  Sr  Sr21  1  0.18799939  0.33612192  0.57474901  1
  Sr  Sr22  1  0.17823450  0.67362983  0.10635356  1
  Sr  Sr23  1  0.15881849  0.69081237  0.63661787  1
  Sr  Sr24  1  0.50491678  -0.01438986  0.08205391  1
  Sr  Sr25  1  0.50956326  0.00602701  0.63280442  1
  Sr  Sr26  1  0.50967032  0.33219416  0.11017888  1
  Sr  Sr27  1  0.48103605  0.33324619  0.67623098  1
  Sr  Sr28  1  0.49810134  0.68632484  0.16897182  1
  Sr  Sr29  1  0.49691261  0.66713681  0.61222814  1
  Sr  Sr30  1  0.82752224  0.00979147  0.14750241  1
  Sr  Sr31  1  0.84221797  0.00699861  0.59541326  1
  Sr  Sr32  1  0.85213411  0.36859584  0.16495991  1
  Sr  Sr33  1  0.84031585  0.31832065  0.62219131  1
  Sr  Sr34  1  0.82552203  0.66748519  0.11214816  1
  Sr  Sr35  1  0.83346753  0.72566069  0.67487209  1
  Sr  Sr36  1  -0.00152606  0.11680733  0.32885999  1
  Sr  Sr37  1  0.00616152  0.17663224  0.87959986  1
  Sr  Sr38  1  -0.00550546  0.50546661  0.37542048  1
  Sr  Sr39  1  -0.01340829  0.47234182  0.85046901  1
  Sr  Sr40  1  -0.01032871  0.82127823  0.42170864  1
  Sr  Sr41  1  -0.00037945  0.79043687  0.84612919  1
  Sr  Sr42  1  0.32208795  0.17621465  0.37972073  1
  Sr  Sr43  1  0.35560524  0.16128704  0.82936785  1
  Sr  Sr44  1  0.32794879  0.49489410  0.40524753  1
  Sr  Sr45  1  0.32713108  0.49488111  0.86841647  1
  Sr  Sr46  1  0.32194459  0.82170916  0.35318203  1
  Sr  Sr47  1  0.33127692  0.86020943  0.91929672  1
  Sr  Sr48  1  0.67295084  0.15708156  0.36868901  1
  Sr  Sr49  1  0.66201710  0.16217114  0.92134891  1
  Sr  Sr50  1  0.65502950  0.50152229  0.40078664  1
  Sr  Sr51  1  0.67526523  0.47859680  0.88403869  1
  Sr  Sr52  1  0.67933850  0.81992557  0.33836813  1
  Sr  Sr53  1  0.67128721  0.80916451  0.87474375  1
  Sr  Sr54  1  0.17337552  0.00161395  0.32706861  1
  Sr  Sr55  1  0.16461821  0.01494834  0.87591277  1
  Sr  Sr56  1  0.17187982  0.35340133  0.37121924  1
  Sr  Sr57  1  0.15881791  0.33929929  0.90943620  1
  Sr  Sr58  1  0.15531222  0.68631804  0.38023301  1
  Sr  Sr59  1  0.17066150  0.65399378  0.86526763  1
  Sr  Sr60  1  0.47754162  0.01088140  0.42126153  1
  Sr  Sr61  1  0.51213632  -0.00764173  0.86681732  1
  Sr  Sr62  1  0.50577489  0.30883547  0.31997907  1
  Sr  Sr63  1  0.50357863  0.34066731  0.88866276  1
  Sr  Sr64  1  0.49497517  0.66721392  0.38641308  1
  Sr  Sr65  1  0.50107298  0.68546555  0.83843652  1
  Sr  Sr66  1  0.83073857  -0.00841967  0.37044332  1
  Sr  Sr67  1  0.83820770  0.05390311  0.92714661  1
  Sr  Sr68  1  0.83064780  0.37056100  0.40645382  1
  Sr  Sr69  1  0.84779395  0.33521641  0.84023832  1
  Sr  Sr70  1  0.84014871  0.67535258  0.37859586  1
  Sr  Sr71  1  0.82665978  0.66465483  0.89071707  1
  Ta  Ta72  1  0.21377836  0.17400209  0.00101202  1
  Ta  Ta73  1  0.14256347  0.13907908  0.48851786  1
  Ta  Ta74  1  0.12290090  0.50674868  -0.00118337  1
  Ta  Ta75  1  0.15590323  0.53858774  0.50546745  1
  Ta  Ta76  1  0.14186761  0.85168169  -0.00626161  1
  Ta  Ta77  1  0.16828222  0.87906138  0.49437868  1
  Ta  Ta78  1  0.46290138  0.16233972  0.00642314  1
  Ta  Ta79  1  0.50324952  0.20002383  0.49973839  1
  Ta  Ta80  1  0.49536914  0.54962226  -0.00864594  1
  Ta  Ta81  1  0.49542504  0.45475238  0.50266559  1
  Ta  Ta82  1  0.50656391  0.80082478  0.00483372  1
  Ta  Ta83  1  0.54862970  0.83431804  0.50008045  1
  Ta  Ta84  1  0.84461569  0.22689812  0.02178919  1
  Ta  Ta85  1  0.87977990  0.16993969  0.47878200  1
  Ta  Ta86  1  0.84875294  0.48486968  0.00620479  1
  Ta  Ta87  1  0.82963699  0.55957381  0.53919335  1
  Ta  Ta88  1  0.83914946  0.86628527  -0.02164773  1
  Ta  Ta89  1  0.79155321  0.83424501  0.50343088  1
  Ta  Ta90  1  0.14964532  0.19584454  0.24766050  1
  Ta  Ta91  1  0.17115871  0.20736957  0.74832801  1
  Ta  Ta92  1  0.18853688  0.51891282  0.25175676  1
  Ta  Ta93  1  0.15315418  0.46870238  0.74479696  1
  Ta  Ta94  1  0.12119108  0.82556212  0.24520844  1
  Ta  Ta95  1  0.22314780  0.84737745  0.74006369  1
  Ta  Ta96  1  0.50313200  0.11588895  0.24305324  1
  Ta  Ta97  1  0.55169372  0.16350820  0.75227437  1
  Ta  Ta98  1  0.46769759  0.50094946  0.24653800  1
  Ta  Ta99  1  0.51823368  0.51806632  0.76125166  1
  Ta  Ta100  1  0.50040888  0.87715293  0.25319428  1
  Ta  Ta101  1  0.44499660  0.84339900  0.74059633  1
  Ta  Ta102  1  0.84062358  0.20638928  0.24469445  1
  Ta  Ta103  1  0.81053783  0.15225361  0.75223074  1
  Ta  Ta104  1  0.79867756  0.52369046  0.25753541  1
  Ta  Ta105  1  0.82837564  0.53166346  0.73043272  1
  Ta  Ta106  1  0.87298743  0.82345243  0.25061817  1
  Ta  Ta107  1  0.83007915  0.90266098  0.77839838  1
  Ta  Ta108  1  -0.00329363  -0.06278475  0.24519213  1
  Ta  Ta109  1  -0.04301866  -0.00147539  0.77004466  1
  Ta  Ta110  1  0.00162785  0.29771559  0.26169413  1
  Ta  Ta111  1  0.05468627  0.31985868  0.73235991  1
  Ta  Ta112  1  -0.00156965  0.68694635  0.25246698  1
  Ta  Ta113  1  -0.00963540  0.61363656  0.72817949  1
  Ta  Ta114  1  0.37256968  0.00456869  0.24224433  1
  Ta  Ta115  1  0.33514753  -0.02795499  0.74176586  1
  Ta  Ta116  1  0.33399644  0.37587390  0.24385992  1
  Ta  Ta117  1  0.28589909  0.33084321  0.75353709  1
  Ta  Ta118  1  0.32748169  0.62803127  0.25062424  1
  Ta  Ta119  1  0.33362254  0.71388736  0.74594198  1
  Ta  Ta120  1  0.62546216  -0.00751399  0.24938977  1
  Ta  Ta121  1  0.69478890  0.03348722  0.74911023  1
  Ta  Ta122  1  0.69683980  0.33269844  0.25051835  1
  Ta  Ta123  1  0.67119429  0.28040935  0.75371487  1
  Ta  Ta124  1  0.67716487  0.63717459  0.25543059  1
  Ta  Ta125  1  0.67114075  0.62375232  0.75006875  1
  Ta  Ta126  1  -0.00517082  -0.04253618  -0.00480194  1
  Ta  Ta127  1  0.03004881  0.00923470  0.49136550  1
  Ta  Ta128  1  -0.02260377  0.34746356  0.01340470  1
  Ta  Ta129  1  0.00905970  0.27270795  0.47934109  1
  Ta  Ta130  1  -0.00269825  0.61437690  -0.01329250  1
  Ta  Ta131  1  -0.01661681  0.64193730  0.53585645  1
  Ta  Ta132  1  0.33645340  0.05115269  0.00380604  1
  Ta  Ta133  1  0.27596116  0.00645370  0.49470143  1
  Ta  Ta134  1  0.33529724  0.29543881  -0.00427052  1
  Ta  Ta135  1  0.38892502  0.33051848  0.49127053  1
  Ta  Ta136  1  0.37223503  0.67382048  0.00149894  1
  Ta  Ta137  1  0.30941486  0.65661800  0.49909697  1
  Ta  Ta138  1  0.68648639  -0.03256057  -0.00004416  1
  Ta  Ta139  1  0.66565680  -0.03974452  0.50026280  1
  Ta  Ta140  1  0.72253122  0.33090559  0.01427864  1
  Ta  Ta141  1  0.60474087  0.32510932  0.49830030  1
  Ta  Ta142  1  0.62366995  0.65654987  -0.00344205  1
  Ta  Ta143  1  0.68404890  0.69565843  0.51440656  1
  N  N144  1  0.00218069  -0.02599283  0.37447191  1
  N  N145  1  0.15991898  0.83988672  0.36792210  1
  N  N146  1  0.83773432  0.81480577  0.86222803  1
  N  N147  1  0.83205896  0.83209423  0.37953706  1
  N  N148  1  0.34790785  0.33496350  0.37017560  1
  N  N149  1  0.15296381  0.50831013  0.37445782  1
  N  N150  1  0.33827886  0.34010180  0.12196193  1
  N  N151  1  0.17005371  0.48931239  0.61519172  1
  N  N152  1  0.82630635  0.51435558  0.12594725  1
  N  N153  1  0.16069269  0.83445779  0.11563325  1
  N  N154  1  0.17146627  0.17357036  0.11852168  1
  N  N155  1  0.02163514  0.30349912  0.60112408  1
  N  N156  1  0.66799975  0.65304494  0.87264369  1
  N  N157  1  0.50120388  0.83569002  0.61757858  1
  N  N158  1  0.16069799  0.49511237  0.87353860  1
  N  N159  1  0.33516468  0.67708020  0.62296624  1
  N  N160  1  0.84440589  0.16198621  0.12963856  1
  N  N161  1  -0.00771438  0.70225146  0.64820594  1
  N  N162  1  0.66638693  0.33449796  0.13035303  1
  N  N163  1  0.33635966  0.67000554  0.37178417  1
  N  N164  1  0.50538818  0.16403290  0.12495824  1
  N  N165  1  0.50045472  0.83479793  0.12899408  1
  N  N166  1  0.66774293  -0.01323327  0.12360504  1
  N  N167  1  0.49260938  0.49047611  0.87920870  1
  N  N168  1  0.16811046  0.15646197  0.36522101  1
  N  N169  1  0.00555866  0.33152288  0.13378976  1
  N  N170  1  -0.00473173  0.63655915  0.86056474  1
  N  N171  1  0.33441267  0.33136521  0.86770603  1
  N  N172  1  0.33271393  0.00500175  0.12289488  1
  N  N173  1  0.17570018  0.84891038  0.62357573  1
  N  N174  1  0.15548710  0.50595605  0.12598914  1
  N  N175  1  0.33944420  0.66689436  0.12435603  1
  N  N176  1  0.67258562  0.00166739  0.62649469  1
  O  O177  1  0.65582583  0.30806179  0.62717944  1
  O  O178  1  -0.00596298  0.66572420  0.38324304  1
  O  O179  1  0.33367372  0.68542248  0.87762158  1
  O  O180  1  0.17167178  0.16472221  0.62330298  1
  O  O181  1  0.32616016  0.01353387  0.37352145  1
  O  O182  1  0.66715015  -0.00143947  0.37477706  1
  O  O183  1  0.65707100  0.64820100  0.12828017  1
  O  O184  1  0.84585589  0.18926486  0.87673582  1
  O  O185  1  0.82314224  0.46452340  0.61580179  1
  O  O186  1  -0.00447837  0.00275303  0.63983483  1
  O  O187  1  0.65406761  0.33495966  0.37591669  1
  O  O188  1  0.17978057  0.85731407  0.86888820  1
  O  O189  1  0.82930310  0.50384835  0.85978200  1
  O  O190  1  0.33177680  0.01088173  0.86876433  1
  O  O191  1  0.84288742  0.16380094  0.60836189  1
  O  O192  1  0.69115552  0.30841689  0.87937210  1
  O  O193  1  0.31183908  0.01559598  0.62111645  1
  O  O194  1  0.48553720  0.51201372  0.12055340  1
  O  O195  1  0.16502594  0.16718752  0.87394601  1
  O  O196  1  0.49297380  0.48492658  0.37079831  1
  O  O197  1  0.83797879  0.82629866  0.12304016  1
  O  O198  1  0.82194110  0.86418953  0.63275374  1
  O  O199  1  0.67650431  0.66526483  0.38771480  1
  O  O200  1  0.00593037  0.02625781  0.88409930  1
  O  O201  1  0.50695180  0.82777262  0.37377159  1
  O  O202  1  -0.00453555  0.35540576  0.37702731  1
  O  O203  1  0.66238806  0.69259138  0.63957162  1
  O  O204  1  0.51461417  0.15497059  0.87724505  1
  O  O205  1  0.81482499  0.52608879  0.40648888  1
  O  O206  1  0.83226547  0.14538168  0.36269147  1
  O  O207  1  -0.00542737  0.65102508  0.12770274  1
  O  O208  1  -0.01295848  -0.01448603  0.12063339  1
  O  O209  1  0.00447994  0.32644164  0.87368076  1
  O  O210  1  0.33628246  0.32368442  0.62681484  1
  O  O211  1  0.48279803  0.83834901  0.88053331  1
  O  O212  1  0.50621568  0.48075839  0.63622216  1
  O  O213  1  0.50751746  0.15794847  0.37377757  1
  O  O214  1  0.66498184  0.01340256  0.88331870  1
  O  O215  1  0.52973837  0.16190614  0.62423921  1
