# generated using pymatgen
data_Sr24Ta24N11O13
_symmetry_space_group_name_H-M   'P 1'
_cell_length_a   16.78385399
_cell_length_b   16.76356670
_cell_length_c   15.74289322
_cell_angle_alpha   90.21083349
_cell_angle_beta   89.89945840
_cell_angle_gamma   89.98850003
_symmetry_Int_Tables_number   1
_chemical_formula_structural   Sr24Ta24N11O13
_chemical_formula_sum   'Sr72 Ta72 N33 O39'
_cell_volume   4429.34033204
_cell_formula_units_Z   3
loop_
 _symmetry_equiv_pos_site_id
 _symmetry_equiv_pos_as_xyz
  1  'x, y, z'
loop_
 _atom_site_type_symbol
 _atom_site_label
 _atom_site_symmetry_multiplicity
 _atom_site_fract_x
 _atom_site_fract_y
 _atom_site_fract_z
 _atom_site_occupancy
  Sr  Sr0  1  0.00990449  0.15288807  0.09656624  1
  Sr  Sr1  1  0.01150680  0.17355264  0.61086267  1
  Sr  Sr2  1  -0.00144680  0.51632116  0.11923033  1
  Sr  Sr3  1  0.01586279  0.49143024  0.63912248  1
  Sr  Sr4  1  -0.00715561  0.84008285  0.16408003  1
  Sr  Sr5  1  0.00604972  0.82089916  0.61015443  1
  Sr  Sr6  1  0.33628522  0.17186609  0.13889757  1
  Sr  Sr7  1  0.34278720  0.15382316  0.60568827  1
  Sr  Sr8  1  0.35327432  0.48392145  0.11045173  1
  Sr  Sr9  1  0.33357786  0.50231420  0.62283800  1
  Sr  Sr10  1  0.31739904  0.83121976  0.11311081  1
  Sr  Sr11  1  0.35354497  0.83166470  0.66254821  1
  Sr  Sr12  1  0.67324444  0.16644667  0.12770415  1
  Sr  Sr13  1  0.68458909  0.15228156  0.65346896  1
  Sr  Sr14  1  0.66571983  0.49854334  0.14043216  1
  Sr  Sr15  1  0.68037811  0.49785847  0.61979605  1
  Sr  Sr16  1  0.67325224  0.82361572  0.11303386  1
  Sr  Sr17  1  0.66293354  0.83640557  0.59167532  1
  Sr  Sr18  1  0.17458377  0.00400541  0.08488415  1
  Sr  Sr19  1  0.15486015  -0.02418999  0.62495529  1
  Sr  Sr20  1  0.14923649  0.34092594  0.11989643  1
  Sr  Sr21  1  0.17280216  0.34033650  0.67111657  1
  Sr  Sr22  1  0.15177773  0.68271508  0.13732172  1
  Sr  Sr23  1  0.16814023  0.65233184  0.58172921  1
  Sr  Sr24  1  0.48031247  0.02225648  0.17174745  1
  Sr  Sr25  1  0.50674089  -0.00260160  0.61353087  1
  Sr  Sr26  1  0.50030595  0.33315736  0.10015798  1
  Sr  Sr27  1  0.48458599  0.34583676  0.59635702  1
  Sr  Sr28  1  0.49214831  0.69013684  0.12570593  1
  Sr  Sr29  1  0.48181116  0.66001544  0.66721372  1
  Sr  Sr30  1  0.83082927  0.01204244  0.11611285  1
  Sr  Sr31  1  0.83697938  -0.00483800  0.66854252  1
  Sr  Sr32  1  0.81280902  0.34803250  0.17006871  1
  Sr  Sr33  1  0.82648625  0.32471968  0.61043233  1
  Sr  Sr34  1  0.82134109  0.65503995  0.08140374  1
  Sr  Sr35  1  0.83926420  0.66024701  0.63948938  1
  Sr  Sr36  1  0.00772339  0.16242830  0.39457802  1
  Sr  Sr37  1  0.01829556  0.17486035  0.89336462  1
  Sr  Sr38  1  0.01614336  0.48740103  0.34508125  1
  Sr  Sr39  1  0.00921515  0.50840733  0.89234023  1
  Sr  Sr40  1  0.01215274  0.83229215  0.38608492  1
  Sr  Sr41  1  -0.01611437  0.84510103  0.82367399  1
  Sr  Sr42  1  0.33999841  0.16090177  0.37754243  1
  Sr  Sr43  1  0.34132603  0.16764626  0.86964855  1
  Sr  Sr44  1  0.33763582  0.49856110  0.40085941  1
  Sr  Sr45  1  0.34441451  0.49105572  0.85681507  1
  Sr  Sr46  1  0.34623927  0.81918478  0.33523700  1
  Sr  Sr47  1  0.31753382  0.83048227  0.88619453  1
  Sr  Sr48  1  0.68884919  0.15517927  0.35016590  1
  Sr  Sr49  1  0.66600116  0.16045333  0.87617560  1
  Sr  Sr50  1  0.67156228  0.49202010  0.38538969  1
  Sr  Sr51  1  0.67756835  0.50725605  0.85589640  1
  Sr  Sr52  1  0.66477518  0.83134607  0.38704552  1
  Sr  Sr53  1  0.67481069  0.83321788  0.91353515  1
  Sr  Sr54  1  0.15548666  0.00969315  0.41696996  1
  Sr  Sr55  1  0.16481364  -0.01211027  0.87512363  1
  Sr  Sr56  1  0.17472901  0.32447067  0.32855867  1
  Sr  Sr57  1  0.15059792  0.34068575  0.87333557  1
  Sr  Sr58  1  0.16058718  0.67803983  0.36353008  1
  Sr  Sr59  1  0.16031575  0.66796566  0.90842625  1
  Sr  Sr60  1  0.50453083  0.00149766  0.38978873  1
  Sr  Sr61  1  0.49034073  0.01585806  0.83157422  1
  Sr  Sr62  1  0.48614585  0.34884536  0.40220146  1
  Sr  Sr63  1  0.49460269  0.33258176  0.90529792  1
  Sr  Sr64  1  0.50387477  0.66864313  0.33871872  1
  Sr  Sr65  1  0.48338092  0.69223018  0.87797603  1
  Sr  Sr66  1  0.84592326  -0.00996494  0.33396172  1
  Sr  Sr67  1  0.81824676  0.00907978  0.89100417  1
  Sr  Sr68  1  0.82716405  0.33184656  0.38469938  1
  Sr  Sr69  1  0.80095208  0.32901844  0.84215537  1
  Sr  Sr70  1  0.80817029  0.68051778  0.42340817  1
  Sr  Sr71  1  0.84032005  0.65771517  0.86658172  1
  Ta  Ta72  1  0.19583371  0.18310598  -0.00608899  1
  Ta  Ta73  1  0.17053472  0.22278544  0.50074062  1
  Ta  Ta74  1  0.20041678  0.49897512  -0.00683737  1
  Ta  Ta75  1  0.15989688  0.45523323  0.50215678  1
  Ta  Ta76  1  0.11497092  0.83456125  -0.00140928  1
  Ta  Ta77  1  0.21865725  0.82884266  0.49365594  1
  Ta  Ta78  1  0.49828724  0.13678618  -0.00225008  1
  Ta  Ta79  1  0.54058585  0.17142032  0.50110926  1
  Ta  Ta80  1  0.51502904  0.52794317  -0.00393083  1
  Ta  Ta81  1  0.50572489  0.54392950  0.50283816  1
  Ta  Ta82  1  0.49293091  0.88363076  -0.00015819  1
  Ta  Ta83  1  0.48122190  0.80744082  0.50113798  1
  Ta  Ta84  1  0.83209557  0.21560341  0.00636339  1
  Ta  Ta85  1  0.83434898  0.12512404  0.50120665  1
  Ta  Ta86  1  0.82637408  0.46306540  -0.00029490  1
  Ta  Ta87  1  0.87404645  0.49883276  0.50112473  1
  Ta  Ta88  1  0.87077493  0.83591907  -0.00557122  1
  Ta  Ta89  1  0.83712753  0.87753586  0.50391662  1
  Ta  Ta90  1  0.15799500  0.12982197  0.24885203  1
  Ta  Ta91  1  0.17327762  0.14282662  0.74771401  1
  Ta  Ta92  1  0.20601875  0.50727638  0.24786073  1
  Ta  Ta93  1  0.17149059  0.53603819  0.75064025  1
  Ta  Ta94  1  0.16687221  0.88148178  0.24955912  1
  Ta  Ta95  1  0.16579587  0.79578673  0.74950274  1
  Ta  Ta96  1  0.50564595  0.21106565  0.25595411  1
  Ta  Ta97  1  0.50383413  0.20596893  0.75005517  1
  Ta  Ta98  1  0.49111032  0.48141616  0.25570483  1
  Ta  Ta99  1  0.50889843  0.46456823  0.74452490  1
  Ta  Ta100  1  0.52887542  0.85331977  0.25234867  1
  Ta  Ta101  1  0.54343162  0.83853707  0.74845341  1
  Ta  Ta102  1  0.87799979  0.17256487  0.24398281  1
  Ta  Ta103  1  0.87458035  0.16898533  0.75706421  1
  Ta  Ta104  1  0.83234287  0.53955989  0.25095921  1
  Ta  Ta105  1  0.86195732  0.48240366  0.75176948  1
  Ta  Ta106  1  0.81857507  0.80209413  0.24941251  1
  Ta  Ta107  1  0.78677363  0.82600031  0.75420893  1
  Ta  Ta108  1  0.03136051  0.01819948  0.24377344  1
  Ta  Ta109  1  0.00700283  0.03799173  0.75137701  1
  Ta  Ta110  1  -0.01036713  0.29992629  0.24465220  1
  Ta  Ta111  1  -0.02654639  0.32572544  0.75793368  1
  Ta  Ta112  1  -0.06215657  0.67270952  0.25402869  1
  Ta  Ta113  1  0.03375307  0.66150541  0.74841159  1
  Ta  Ta114  1  0.28874837  0.00040576  0.25020489  1
  Ta  Ta115  1  0.30948863  0.01163321  0.74256475  1
  Ta  Ta116  1  0.36052658  0.34504774  0.24884481  1
  Ta  Ta117  1  0.36614541  0.32342924  0.75113739  1
  Ta  Ta118  1  0.32524483  0.62767502  0.24824985  1
  Ta  Ta119  1  0.28831242  0.66289084  0.74930785  1
  Ta  Ta120  1  0.66177139  -0.02740667  0.24601765  1
  Ta  Ta121  1  0.66402172  -0.03731458  0.75359712  1
  Ta  Ta122  1  0.62347070  0.33134054  0.25736150  1
  Ta  Ta123  1  0.62278585  0.33398951  0.74763491  1
  Ta  Ta124  1  0.69999880  0.67248480  0.24811449  1
  Ta  Ta125  1  0.66190512  0.70365023  0.75265159  1
  Ta  Ta126  1  -0.00535881  -0.04239212  -0.00017119  1
  Ta  Ta127  1  -0.04414844  -0.00167867  0.50863992  1
  Ta  Ta128  1  -0.05329433  0.33920041  -0.00195782  1
  Ta  Ta129  1  0.03356718  0.34169020  0.49973835  1
  Ta  Ta130  1  -0.00817345  0.71797811  -0.00802036  1
  Ta  Ta131  1  -0.01312225  0.63388333  0.49996573  1
  Ta  Ta132  1  0.36809798  0.00714341  0.00380197  1
  Ta  Ta133  1  0.33476288  -0.04798497  0.49793539  1
  Ta  Ta134  1  0.30597462  0.32660090  -0.00154842  1
  Ta  Ta135  1  0.29222584  0.32829349  0.49653095  1
  Ta  Ta136  1  0.33072100  0.63400559  -0.00734114  1
  Ta  Ta137  1  0.35673945  0.68667360  0.50403630  1
  Ta  Ta138  1  0.61211424  0.00429649  -0.00201317  1
  Ta  Ta139  1  0.70937832  0.01159976  0.50562888  1
  Ta  Ta140  1  0.68909893  0.33907951  0.00730762  1
  Ta  Ta141  1  0.65509976  0.29520027  0.49663960  1
  Ta  Ta142  1  0.63976807  0.64311229  0.00308985  1
  Ta  Ta143  1  0.61305175  0.66491531  0.50401845  1
  N  N144  1  0.83355573  0.50457149  0.13136758  1
  N  N145  1  0.32998191  0.66552156  0.87529750  1
  N  N146  1  0.50697824  0.83284853  0.62774634  1
  N  N147  1  0.66774822  0.33015791  0.37663385  1
  N  N148  1  0.17211159  0.49685501  0.87106877  1
  N  N149  1  0.83839682  0.17161798  0.12292043  1
  N  N150  1  0.17552812  0.83855943  0.37808764  1
  N  N151  1  0.17294319  0.16804723  0.87219227  1
  N  N152  1  0.67746574  -0.00233698  0.62637785  1
  N  N153  1  0.50498769  0.17132196  0.87634965  1
  N  N154  1  0.65988486  0.33529171  0.12648639  1
  N  N155  1  0.50139439  0.50303939  0.62821156  1
  N  N156  1  0.32979021  0.66559062  0.62244080  1
  N  N157  1  0.33121891  0.00105430  0.12432032  1
  N  N158  1  0.33469850  -0.01156110  0.62299213  1
  N  N159  1  0.32712338  0.33053794  0.37676621  1
  N  N160  1  0.00142931  0.66018915  0.62035157  1
  N  N161  1  0.83295955  0.49615686  0.87612299  1
  N  N162  1  0.50057996  0.50666244  0.37529309  1
  N  N163  1  0.82937712  0.83635681  0.87244209  1
  N  N164  1  0.33580524  0.33280315  0.87003589  1
  N  N165  1  -0.00695835  0.33470590  0.87944834  1
  N  N166  1  -0.00332874  0.67929991  0.87041791  1
  N  N167  1  0.50675261  0.83619374  0.37298406  1
  N  N168  1  0.65569942  -0.00054394  0.88058355  1
  N  N169  1  0.00235092  -0.00240482  0.12360217  1
  N  N170  1  0.15371823  0.82839706  0.86776307  1
  N  N171  1  0.17214477  0.49288508  0.62025564  1
  N  N172  1  0.84276971  0.49243561  0.62191579  1
  N  N173  1  0.66292510  0.66595497  0.12712024  1
  N  N174  1  -0.00241574  0.00002459  0.63143122  1
  N  N175  1  0.33047759  0.32937919  0.12830632  1
  N  N176  1  0.15463196  0.84356120  0.13022425  1
  O  O177  1  0.50996079  0.50468543  0.87199609  1
  O  O178  1  -0.00812234  0.32402867  0.12173132  1
  O  O179  1  0.00369145  -0.00077381  0.87302209  1
  O  O180  1  0.84931215  0.15641695  0.63163833  1
  O  O181  1  0.64850824  0.67996487  0.62854128  1
  O  O182  1  0.52283701  0.16270932  0.62727021  1
  O  O183  1  0.16912286  0.18678898  0.62889902  1
  O  O184  1  0.82951016  0.81969648  0.12281824  1
  O  O185  1  0.01173671  0.32139866  0.36783392  1
  O  O186  1  0.17347380  0.16320768  0.12511485  1
  O  O187  1  0.49866878  0.17366577  0.13076805  1
  O  O188  1  0.32903459  0.32921354  0.62690645  1
  O  O189  1  0.64900945  0.33506191  0.87664974  1
  O  O190  1  0.68340484  -0.00898485  0.37026612  1
  O  O191  1  0.33637973  0.65587848  0.37222504  1
  O  O192  1  0.49660778  0.85719484  0.12372498  1
  O  O193  1  0.16282754  0.17530386  0.37113353  1
  O  O194  1  0.65869114  0.67759035  0.87992270  1
  O  O195  1  -0.00103949  0.00662966  0.38435925  1
  O  O196  1  0.82481173  0.83393890  0.37794021  1
  O  O197  1  0.16652769  0.82093171  0.61271933  1
  O  O198  1  0.51379448  0.16259732  0.37625030  1
  O  O199  1  0.33740119  0.00334833  0.86847564  1
  O  O200  1  0.84952991  0.14512024  0.36884549  1
  O  O201  1  0.49848823  0.85247661  0.87501130  1
  O  O202  1  0.17960964  0.48749332  0.37105921  1
  O  O203  1  0.65920872  0.67268094  0.37367401  1
  O  O204  1  0.18554228  0.49847399  0.12557779  1
  O  O205  1  -0.03698625  0.67779805  0.37952650  1
  O  O206  1  -0.02947525  0.67739375  0.12894915  1
  O  O207  1  0.82444978  0.83885440  0.62585780  1
  O  O208  1  0.33704716  0.64951215  0.12525876  1
  O  O209  1  0.00976107  0.33179351  0.62569032  1
  O  O210  1  0.66177860  -0.00734563  0.12178336  1
  O  O211  1  0.83738688  0.48974172  0.37611397  1
  O  O212  1  0.65096212  0.33241438  0.62175085  1
  O  O213  1  0.50603943  0.50825838  0.12296607  1
  O  O214  1  0.84999953  0.16965107  0.88253156  1
  O  O215  1  0.32644572  -0.00364783  0.37595189  1
