# generated using pymatgen
data_Sr24Ta24N11O13
_symmetry_space_group_name_H-M   'P 1'
_cell_length_a   16.77284928
_cell_length_b   16.80622020
_cell_length_c   15.64128317
_cell_angle_alpha   89.52808292
_cell_angle_beta   90.43187751
_cell_angle_gamma   89.91035743
_symmetry_Int_Tables_number   1
_chemical_formula_structural   Sr24Ta24N11O13
_chemical_formula_sum   'Sr72 Ta72 N33 O39'
_cell_volume   4408.81249249
_cell_formula_units_Z   3
loop_
 _symmetry_equiv_pos_site_id
 _symmetry_equiv_pos_as_xyz
  1  'x, y, z'
loop_
 _atom_site_type_symbol
 _atom_site_label
 _atom_site_symmetry_multiplicity
 _atom_site_fract_x
 _atom_site_fract_y
 _atom_site_fract_z
 _atom_site_occupancy
  Sr  Sr0  1  -0.00516730  0.16730105  0.12788904  1
  Sr  Sr1  1  -0.00764502  0.20982602  0.60783015  1
  Sr  Sr2  1  -0.00846145  0.52391977  0.11150985  1
  Sr  Sr3  1  0.00938366  0.50087418  0.66158123  1
  Sr  Sr4  1  -0.00820550  0.85140173  0.11661676  1
  Sr  Sr5  1  0.00872916  0.82666690  0.62679676  1
  Sr  Sr6  1  0.34320170  0.17021698  0.16474677  1
  Sr  Sr7  1  0.32308099  0.14105157  0.60839165  1
  Sr  Sr8  1  0.32334734  0.50474777  0.11693595  1
  Sr  Sr9  1  0.31901054  0.50599307  0.59200724  1
  Sr  Sr10  1  0.31412271  0.83775047  0.10837189  1
  Sr  Sr11  1  0.34029937  0.81436183  0.66931294  1
  Sr  Sr12  1  0.65152499  0.19286646  0.07708666  1
  Sr  Sr13  1  0.67162453  0.15979862  0.63434687  1
  Sr  Sr14  1  0.65800191  0.49244857  0.16698608  1
  Sr  Sr15  1  0.67702691  0.51063428  0.61339773  1
  Sr  Sr16  1  0.67115811  0.83905599  0.13169882  1
  Sr  Sr17  1  0.63468316  0.83774483  0.58847436  1
  Sr  Sr18  1  0.14705202  -0.00949705  0.07883704  1
  Sr  Sr19  1  0.18055901  -0.03213706  0.64240230  1
  Sr  Sr20  1  0.16702918  0.29126200  0.15348445  1
  Sr  Sr21  1  0.17313453  0.33283254  0.62198107  1
  Sr  Sr22  1  0.17449716  0.66118524  0.14605937  1
  Sr  Sr23  1  0.18096833  0.64985046  0.60633572  1
  Sr  Sr24  1  0.49842987  0.00039843  0.13172712  1
  Sr  Sr25  1  0.50893614  0.00558066  0.58210325  1
  Sr  Sr26  1  0.48877783  0.34068377  0.11369789  1
  Sr  Sr27  1  0.51131716  0.31628879  0.67291722  1
  Sr  Sr28  1  0.54293873  0.65647228  0.15634578  1
  Sr  Sr29  1  0.50684459  0.65915039  0.61948506  1
  Sr  Sr30  1  0.84391084  0.00267806  0.16842697  1
  Sr  Sr31  1  0.84249455  -0.00117024  0.63375006  1
  Sr  Sr32  1  0.84255477  0.33875461  0.13626357  1
  Sr  Sr33  1  0.81687089  0.33294395  0.57759067  1
  Sr  Sr34  1  0.84174567  0.69008417  0.08515181  1
  Sr  Sr35  1  0.85278129  0.65953707  0.64443005  1
  Sr  Sr36  1  -0.01654979  0.17999661  0.35252402  1
  Sr  Sr37  1  -0.00225356  0.17765871  0.89344306  1
  Sr  Sr38  1  0.00103575  0.52732221  0.33833264  1
  Sr  Sr39  1  -0.00691239  0.50275951  0.88423570  1
  Sr  Sr40  1  0.00408933  0.83936342  0.40786573  1
  Sr  Sr41  1  -0.02272344  0.85308861  0.85207986  1
  Sr  Sr42  1  0.33422709  0.15934662  0.38070367  1
  Sr  Sr43  1  0.32354290  0.17739433  0.82735559  1
  Sr  Sr44  1  0.32127408  0.51533721  0.38722477  1
  Sr  Sr45  1  0.34085785  0.48538170  0.91594952  1
  Sr  Sr46  1  0.31981206  0.82747045  0.33683253  1
  Sr  Sr47  1  0.34289770  0.83130215  0.88433349  1
  Sr  Sr48  1  0.66513166  0.16819164  0.41456621  1
  Sr  Sr49  1  0.65840860  0.16465671  0.86604936  1
  Sr  Sr50  1  0.67016123  0.50071144  0.38316853  1
  Sr  Sr51  1  0.65462432  0.51908934  0.83074231  1
  Sr  Sr52  1  0.65577253  0.84282442  0.35768447  1
  Sr  Sr53  1  0.66585462  0.83012547  0.90531124  1
  Sr  Sr54  1  0.16573450  -0.01853202  0.41159830  1
  Sr  Sr55  1  0.18258577  -0.01644747  0.86335623  1
  Sr  Sr56  1  0.17593395  0.31536075  0.39390829  1
  Sr  Sr57  1  0.15309596  0.32391947  0.84518668  1
  Sr  Sr58  1  0.16998570  0.66578712  0.36370813  1
  Sr  Sr59  1  0.20049290  0.63190874  0.92691961  1
  Sr  Sr60  1  0.49614539  -0.00628338  0.36419558  1
  Sr  Sr61  1  0.51386709  -0.01585571  0.91585788  1
  Sr  Sr62  1  0.49278337  0.33072331  0.33673453  1
  Sr  Sr63  1  0.50490616  0.33082459  0.88330819  1
  Sr  Sr64  1  0.52315083  0.65720972  0.38893942  1
  Sr  Sr65  1  0.50819686  0.67074986  0.84473945  1
  Sr  Sr66  1  0.85062380  -0.01036328  0.36723902  1
  Sr  Sr67  1  0.82161357  0.01942628  0.83427628  1
  Sr  Sr68  1  0.82769935  0.34817044  0.36503179  1
  Sr  Sr69  1  0.83458903  0.32264347  0.92139470  1
  Sr  Sr70  1  0.85431526  0.67640212  0.39775467  1
  Sr  Sr71  1  0.83612503  0.65944572  0.86709496  1
  Ta  Ta72  1  0.19903327  0.16980607  -0.00066815  1
  Ta  Ta73  1  0.13918979  0.14600219  0.49786105  1
  Ta  Ta74  1  0.15788941  0.44310741  0.00937027  1
  Ta  Ta75  1  0.12469941  0.49370873  0.49035026  1
  Ta  Ta76  1  0.14156129  0.80566574  -0.00425795  1
  Ta  Ta77  1  0.20517941  0.81452859  0.50408060  1
  Ta  Ta78  1  0.44854423  0.16574380  -0.00458980  1
  Ta  Ta79  1  0.49656698  0.21136909  0.50223545  1
  Ta  Ta80  1  0.52557582  0.51918613  0.00539268  1
  Ta  Ta81  1  0.49557858  0.45402400  0.49725819  1
  Ta  Ta82  1  0.50124422  0.79270166  0.00641946  1
  Ta  Ta83  1  0.45510314  0.82632865  0.49721070  1
  Ta  Ta84  1  0.82882516  0.12903382  0.00886295  1
  Ta  Ta85  1  0.84073822  0.13961344  0.50022551  1
  Ta  Ta86  1  0.78804695  0.50311271  -0.00334265  1
  Ta  Ta87  1  0.87055716  0.51226874  0.50103426  1
  Ta  Ta88  1  0.83153207  0.88786317  0.00300195  1
  Ta  Ta89  1  0.80958265  0.83714686  0.50180067  1
  Ta  Ta90  1  0.16270757  0.10913265  0.24674647  1
  Ta  Ta91  1  0.13525432  0.14526056  0.74497224  1
  Ta  Ta92  1  0.16743669  0.46490266  0.25153185  1
  Ta  Ta93  1  0.19327267  0.50902023  0.76379017  1
  Ta  Ta94  1  0.14440953  0.85308396  0.25133544  1
  Ta  Ta95  1  0.16927835  0.77800175  0.75989664  1
  Ta  Ta96  1  0.54754089  0.16700589  0.24897729  1
  Ta  Ta97  1  0.49965934  0.11436146  0.75025238  1
  Ta  Ta98  1  0.46447322  0.50342731  0.25239993  1
  Ta  Ta99  1  0.45545353  0.49621254  0.74814020  1
  Ta  Ta100  1  0.48180358  0.81276171  0.24553466  1
  Ta  Ta101  1  0.51989136  0.85693899  0.74993386  1
  Ta  Ta102  1  0.77949421  0.17366706  0.24621156  1
  Ta  Ta103  1  0.84075496  0.20629305  0.74584451  1
  Ta  Ta104  1  0.83403252  0.53671484  0.25024866  1
  Ta  Ta105  1  0.83054699  0.45976406  0.75042880  1
  Ta  Ta106  1  0.84444923  0.81023835  0.25246977  1
  Ta  Ta107  1  0.78585830  0.83865286  0.73849517  1
  Ta  Ta108  1  0.03670002  -0.00361447  0.25824938  1
  Ta  Ta109  1  0.01038106  0.04327454  0.73783036  1
  Ta  Ta110  1  0.01953811  0.36416093  0.26208192  1
  Ta  Ta111  1  -0.05301843  0.33704949  0.75233107  1
  Ta  Ta112  1  -0.01101350  0.70236974  0.25416309  1
  Ta  Ta113  1  0.05767056  0.66470786  0.76558965  1
  Ta  Ta114  1  0.28725226  -0.00643351  0.24463077  1
  Ta  Ta115  1  0.38191452  -0.00544189  0.75117820  1
  Ta  Ta116  1  0.32190627  0.36351227  0.25682109  1
  Ta  Ta117  1  0.33103306  0.38237652  0.74934306  1
  Ta  Ta118  1  0.37019117  0.66499992  0.23651382  1
  Ta  Ta119  1  0.32453746  0.62992350  0.76419425  1
  Ta  Ta120  1  0.66452177  0.04416853  0.25202667  1
  Ta  Ta121  1  0.64201978  -0.02059050  0.74220139  1
  Ta  Ta122  1  0.66039366  0.29949104  0.25364732  1
  Ta  Ta123  1  0.71412840  0.33676581  0.75193304  1
  Ta  Ta124  1  0.71976130  0.67159185  0.25031241  1
  Ta  Ta125  1  0.67690588  0.71030163  0.74235784  1
  Ta  Ta126  1  -0.05144770  0.00957318  -0.00512411  1
  Ta  Ta127  1  0.00037587  0.03770375  0.50536794  1
  Ta  Ta128  1  0.02504265  0.34187714  0.00977933  1
  Ta  Ta129  1  0.00011013  0.38370882  0.48837389  1
  Ta  Ta130  1  0.02408335  0.69387232  -0.00779744  1
  Ta  Ta131  1  0.01241294  0.63672302  0.50156972  1
  Ta  Ta132  1  0.33240968  0.04361590  -0.00816175  1
  Ta  Ta133  1  0.33555759  -0.05486964  0.50574457  1
  Ta  Ta134  1  0.31058498  0.30032060  -0.00048757  1
  Ta  Ta135  1  0.37483895  0.32963709  0.50135584  1
  Ta  Ta136  1  0.38986436  0.66603329  0.01333141  1
  Ta  Ta137  1  0.34024737  0.70488607  0.49559523  1
  Ta  Ta138  1  0.71040259  0.00751297  0.00767241  1
  Ta  Ta139  1  0.70276959  -0.00430817  0.49587402  1
  Ta  Ta140  1  0.66152843  0.39140283  -0.00276273  1
  Ta  Ta141  1  0.61889571  0.33503264  0.49955890  1
  Ta  Ta142  1  0.66060149  0.64204805  -0.00269976  1
  Ta  Ta143  1  0.70055352  0.68342367  0.49859685  1
  N  N144  1  0.16670218  0.82626402  0.37702360  1
  N  N145  1  0.49579639  0.49571516  0.37925607  1
  N  N146  1  0.67882434  0.67050176  0.37262903  1
  N  N147  1  0.69005723  0.66859690  0.12120085  1
  N  N148  1  0.66761731  0.00364261  0.37195405  1
  N  N149  1  0.67075188  0.66694685  0.62422803  1
  N  N150  1  0.82491453  0.17368173  0.12916113  1
  N  N151  1  0.00562932  0.00644124  0.38214846  1
  N  N152  1  0.01052688  0.67902282  0.37735819  1
  N  N153  1  0.34211887  -0.01827385  0.62546798  1
  N  N154  1  0.49099291  0.83040293  0.63069879  1
  N  N155  1  0.16886429  0.14482260  0.11903189  1
  N  N156  1  0.50096106  0.49825197  0.12654303  1
  N  N157  1  0.16768305  0.50161932  0.37123874  1
  N  N158  1  0.82629273  0.49950271  0.87743496  1
  N  N159  1  0.65751294  0.33206712  0.37713568  1
  N  N160  1  0.83340199  0.83817474  0.38049465  1
  N  N161  1  0.50560439  0.82677530  0.88527974  1
  N  N162  1  0.83777464  0.49854743  0.62300394  1
  N  N163  1  0.32702465  0.66458439  0.11862023  1
  N  N164  1  0.34934053  0.65362833  0.88324149  1
  N  N165  1  0.83302384  0.84957930  0.12626936  1
  N  N166  1  0.67404796  0.67214377  0.87076965  1
  N  N167  1  0.15722964  0.82698978  0.12085030  1
  N  N168  1  0.33319683  0.33395867  0.37839788  1
  N  N169  1  0.33962072  0.00083839  0.87575658  1
  N  N170  1  0.83150032  0.17266912  0.62006866  1
  N  N171  1  0.16852075  0.47964333  0.88327264  1
  N  N172  1  0.83722255  0.51019719  0.36993863  1
  N  N173  1  0.66614653  0.00075903  0.62146905  1
  N  N174  1  0.49332786  0.83025079  0.36604833  1
  N  N175  1  -0.01303968  0.33130637  0.37662756  1
  N  N176  1  0.17660376  0.80724400  0.63569155  1
  O  O177  1  0.84993005  0.83741938  0.63206389  1
  O  O178  1  0.33136379  0.34851274  0.62507075  1
  O  O179  1  0.18846235  0.83238623  0.87820713  1
  O  O180  1  -0.02249289  0.02371921  0.86147546  1
  O  O181  1  0.83347023  0.50449535  0.11908775  1
  O  O182  1  -0.01865602  0.35438822  0.62518915  1
  O  O183  1  0.31618820  -0.01846983  0.36987249  1
  O  O184  1  0.02775800  0.65589702  0.63330400  1
  O  O185  1  -0.00596028  0.00725958  0.12206777  1
  O  O186  1  0.30740783  -0.00149817  0.11719454  1
  O  O187  1  0.15629900  0.15540513  0.87181893  1
  O  O188  1  0.34006360  0.67026941  0.37008408  1
  O  O189  1  0.16028659  0.15310289  0.37217080  1
  O  O190  1  0.00697568  0.32627936  0.13866690  1
  O  O191  1  0.51283056  0.85137818  0.12050033  1
  O  O192  1  -0.00694589  0.33839194  0.88323790  1
  O  O193  1  0.47464044  0.49933648  0.62076152  1
  O  O194  1  0.49381503  0.16067499  0.87438761  1
  O  O195  1  0.66204850  -0.00169653  0.12666996  1
  O  O196  1  0.31698727  0.32887576  0.86939688  1
  O  O197  1  0.81657741  0.86189373  0.86367770  1
  O  O198  1  0.49084283  0.49891788  0.87241498  1
  O  O199  1  0.49697401  0.16214819  0.11783896  1
  O  O200  1  0.00886691  0.68623502  0.12008677  1
  O  O201  1  0.66621092  0.33360709  0.62990198  1
  O  O202  1  0.50876685  0.17563411  0.37485984  1
  O  O203  1  0.83523077  0.17005670  0.87272965  1
  O  O204  1  0.32306792  0.31979552  0.12729960  1
  O  O205  1  0.82443540  0.16961922  0.37350359  1
  O  O206  1  0.49968852  0.16287603  0.63013488  1
  O  O207  1  0.33649073  0.65908893  0.61978512  1
  O  O208  1  0.16550964  0.50334764  0.12055066  1
  O  O209  1  0.16536654  0.49346836  0.62144954  1
  O  O210  1  0.66791911  0.34858145  0.87363178  1
  O  O211  1  0.15407959  0.16981020  0.61851382  1
  O  O212  1  0.65372333  0.34462454  0.11942808  1
  O  O213  1  0.67212497  0.00631542  0.88133077  1
  O  O214  1  -0.00709990  0.66595212  0.87075946  1
  O  O215  1  0.00388587  -0.01672136  0.62730062  1
