# generated using pymatgen
data_Sr24Ta24N11O13
_symmetry_space_group_name_H-M   'P 1'
_cell_length_a   16.77865632
_cell_length_b   16.76297021
_cell_length_c   15.68666882
_cell_angle_alpha   89.62734408
_cell_angle_beta   89.49354339
_cell_angle_gamma   89.99844374
_symmetry_Int_Tables_number   1
_chemical_formula_structural   Sr24Ta24N11O13
_chemical_formula_sum   'Sr72 Ta72 N33 O39'
_cell_volume   4411.76861038
_cell_formula_units_Z   3
loop_
 _symmetry_equiv_pos_site_id
 _symmetry_equiv_pos_as_xyz
  1  'x, y, z'
loop_
 _atom_site_type_symbol
 _atom_site_label
 _atom_site_symmetry_multiplicity
 _atom_site_fract_x
 _atom_site_fract_y
 _atom_site_fract_z
 _atom_site_occupancy
  Sr  Sr0  1  0.00873666  0.16888549  0.12248920  1
  Sr  Sr1  1  -0.02286496  0.15987956  0.67044236  1
  Sr  Sr2  1  0.00289018  0.48816885  0.08828896  1
  Sr  Sr3  1  -0.01708655  0.49755256  0.64585102  1
  Sr  Sr4  1  -0.00947997  0.81291435  0.12848021  1
  Sr  Sr5  1  0.01038299  0.84556145  0.57643881  1
  Sr  Sr6  1  0.32376423  0.18612863  0.08833335  1
  Sr  Sr7  1  0.32885864  0.16303983  0.63159365  1
  Sr  Sr8  1  0.31889614  0.48575666  0.17072663  1
  Sr  Sr9  1  0.33528280  0.50664195  0.61937063  1
  Sr  Sr10  1  0.34638243  0.83415315  0.11415618  1
  Sr  Sr11  1  0.31352348  0.84204603  0.66966230  1
  Sr  Sr12  1  0.65164443  0.14612753  0.11245224  1
  Sr  Sr13  1  0.66235592  0.16960637  0.60459360  1
  Sr  Sr14  1  0.67217307  0.49298303  0.13618170  1
  Sr  Sr15  1  0.66418949  0.49888202  0.59135874  1
  Sr  Sr16  1  0.67136851  0.83034184  0.16444051  1
  Sr  Sr17  1  0.64298347  0.82758802  0.61346441  1
  Sr  Sr18  1  0.16946546  0.00412214  0.15910948  1
  Sr  Sr19  1  0.16655941  0.00439493  0.61732149  1
  Sr  Sr20  1  0.15934828  0.33167787  0.12802711  1
  Sr  Sr21  1  0.17304665  0.34354540  0.57936072  1
  Sr  Sr22  1  0.18447893  0.67869735  0.13532059  1
  Sr  Sr23  1  0.16852958  0.67454001  0.63476776  1
  Sr  Sr24  1  0.49942974  -0.01732105  0.13733137  1
  Sr  Sr25  1  0.50778829  0.01228770  0.57652108  1
  Sr  Sr26  1  0.49966893  0.33954995  0.12000966  1
  Sr  Sr27  1  0.47271190  0.32861055  0.67456354  1
  Sr  Sr28  1  0.50877724  0.66094847  0.08836216  1
  Sr  Sr29  1  0.50793175  0.66888243  0.62971494  1
  Sr  Sr30  1  0.85538565  0.02016076  0.09338628  1
  Sr  Sr31  1  0.83696487  -0.00228145  0.63650716  1
  Sr  Sr32  1  0.83551348  0.32922548  0.16120825  1
  Sr  Sr33  1  0.82949153  0.34311639  0.60816864  1
  Sr  Sr34  1  0.83971700  0.65223914  0.11308197  1
  Sr  Sr35  1  0.84221763  0.67777085  0.65141949  1
  Sr  Sr36  1  -0.00606737  0.16951731  0.33127241  1
  Sr  Sr37  1  -0.00152908  0.15841287  0.88018531  1
  Sr  Sr38  1  -0.00848162  0.46609403  0.42105359  1
  Sr  Sr39  1  -0.00533501  0.49951054  0.86479067  1
  Sr  Sr40  1  -0.00420664  0.81892219  0.37639842  1
  Sr  Sr41  1  -0.00874565  0.82814434  0.91923329  1
  Sr  Sr42  1  0.31506434  0.15795384  0.41846577  1
  Sr  Sr43  1  0.33344544  0.17983757  0.86791687  1
  Sr  Sr44  1  0.32542477  0.50317208  0.38592760  1
  Sr  Sr45  1  0.34714784  0.49332312  0.83420479  1
  Sr  Sr46  1  0.32659797  0.85051802  0.32863705  1
  Sr  Sr47  1  0.34875684  0.82305289  0.89269903  1
  Sr  Sr48  1  0.64531901  0.15217487  0.38549699  1
  Sr  Sr49  1  0.65602580  0.15914366  0.89236699  1
  Sr  Sr50  1  0.67222933  0.49209516  0.36760541  1
  Sr  Sr51  1  0.65767828  0.51651653  0.91756290  1
  Sr  Sr52  1  0.65285858  0.82850634  0.37836052  1
  Sr  Sr53  1  0.69495661  0.82693778  0.81979941  1
  Sr  Sr54  1  0.16350484  0.00182642  0.38162124  1
  Sr  Sr55  1  0.19950183  0.00642126  0.82720093  1
  Sr  Sr56  1  0.16657846  0.33516110  0.37187392  1
  Sr  Sr57  1  0.15601678  0.31619578  0.91999510  1
  Sr  Sr58  1  0.17150395  0.67649571  0.36664828  1
  Sr  Sr59  1  0.18336397  0.67378307  0.86447099  1
  Sr  Sr60  1  0.50643651  -0.01278643  0.36030793  1
  Sr  Sr61  1  0.49786835  -0.00530565  0.91421366  1
  Sr  Sr62  1  0.49125868  0.35647608  0.33313414  1
  Sr  Sr63  1  0.50096115  0.33235525  0.88456570  1
  Sr  Sr64  1  0.51548541  0.65208450  0.42340451  1
  Sr  Sr65  1  0.51100211  0.67310090  0.87047415  1
  Sr  Sr66  1  0.84944479  0.00425638  0.39191742  1
  Sr  Sr67  1  0.83627152  0.00534081  0.87206017  1
  Sr  Sr68  1  0.82209572  0.33208587  0.38592968  1
  Sr  Sr69  1  0.86103713  0.32989389  0.82038324  1
  Sr  Sr70  1  0.83143598  0.68379626  0.33887922  1
  Sr  Sr71  1  0.84513377  0.65001165  0.88364466  1
  Ta  Ta72  1  0.16874115  0.11324199  -0.00573230  1
  Ta  Ta73  1  0.11887235  0.16861253  0.50239735  1
  Ta  Ta74  1  0.19039297  0.51124012  -0.00048241  1
  Ta  Ta75  1  0.14808006  0.52876687  0.50697022  1
  Ta  Ta76  1  0.17153537  0.87855982  -0.00427421  1
  Ta  Ta77  1  0.20399159  0.83408066  0.50099246  1
  Ta  Ta78  1  0.48623788  0.16344496  0.00506386  1
  Ta  Ta79  1  0.48893404  0.22010517  0.50066577  1
  Ta  Ta80  1  0.46333183  0.49699196  -0.00193996  1
  Ta  Ta81  1  0.49584859  0.45906154  0.50523615  1
  Ta  Ta82  1  0.55260389  0.83111418  0.00144112  1
  Ta  Ta83  1  0.44739322  0.83136328  0.50129112  1
  Ta  Ta84  1  0.82453122  0.22086435  -0.00389429  1
  Ta  Ta85  1  0.85694053  0.16288955  0.50414720  1
  Ta  Ta86  1  0.82845919  0.44198137  -0.01004408  1
  Ta  Ta87  1  0.83610353  0.54716566  0.50434551  1
  Ta  Ta88  1  0.79773378  0.83690111  0.00023432  1
  Ta  Ta89  1  0.81592521  0.82808490  0.49825897  1
  Ta  Ta90  1  0.19629406  0.16906745  0.25035767  1
  Ta  Ta91  1  0.16173380  0.20385075  0.74438289  1
  Ta  Ta92  1  0.12238986  0.50032222  0.25253384  1
  Ta  Ta93  1  0.16429795  0.46082156  0.75260259  1
  Ta  Ta94  1  0.14564590  0.84463651  0.25253563  1
  Ta  Ta95  1  0.11677931  0.83907922  0.74705129  1
  Ta  Ta96  1  0.46254192  0.17240960  0.25646594  1
  Ta  Ta97  1  0.50930502  0.12935271  0.74768300  1
  Ta  Ta98  1  0.49859303  0.54546143  0.25655763  1
  Ta  Ta99  1  0.53847555  0.50246987  0.74991888  1
  Ta  Ta100  1  0.49894620  0.77761581  0.24948491  1
  Ta  Ta101  1  0.49764612  0.87028385  0.74438968  1
  Ta  Ta102  1  0.80127952  0.15563123  0.25028785  1
  Ta  Ta103  1  0.78543250  0.16690914  0.74662968  1
  Ta  Ta104  1  0.87390012  0.49896223  0.25088981  1
  Ta  Ta105  1  0.78539341  0.49790281  0.74967791  1
  Ta  Ta106  1  0.83855861  0.87634613  0.25160333  1
  Ta  Ta107  1  0.89859094  0.83771057  0.74969316  1
  Ta  Ta108  1  -0.00651719  -0.02289659  0.25206687  1
  Ta  Ta109  1  0.00661403  -0.03198359  0.74934539  1
  Ta  Ta110  1  0.00111645  0.36424925  0.25255382  1
  Ta  Ta111  1  0.05059542  0.33046334  0.74417650  1
  Ta  Ta112  1  0.00540296  0.62048710  0.24757371  1
  Ta  Ta113  1  0.00810362  0.70620289  0.75332487  1
  Ta  Ta114  1  0.33505348  0.04807521  0.24925166  1
  Ta  Ta115  1  0.39392642  0.00504525  0.74774649  1
  Ta  Ta116  1  0.32596201  0.29280405  0.25235527  1
  Ta  Ta117  1  0.27622908  0.33310825  0.74892884  1
  Ta  Ta118  1  0.37181718  0.66555713  0.25088822  1
  Ta  Ta119  1  0.35278266  0.66842874  0.75553841  1
  Ta  Ta120  1  0.71117972  0.00491884  0.25127644  1
  Ta  Ta121  1  0.63285798  0.01101941  0.74699859  1
  Ta  Ta122  1  0.66475124  0.29606334  0.25430700  1
  Ta  Ta123  1  0.66795470  0.35182799  0.74797196  1
  Ta  Ta124  1  0.63827466  0.66020866  0.25400176  1
  Ta  Ta125  1  0.67113728  0.63404404  0.74723528  1
  Ta  Ta126  1  0.04492798  -0.00255856  0.00236985  1
  Ta  Ta127  1  0.00087140  0.04608416  0.50078434  1
  Ta  Ta128  1  -0.03599833  0.32313972  -0.00406136  1
  Ta  Ta129  1  -0.00351978  0.28160316  0.50524096  1
  Ta  Ta130  1  0.04012927  0.65131292  -0.00058248  1
  Ta  Ta131  1  -0.00504000  0.64780810  0.50545208  1
  Ta  Ta132  1  0.30883168  0.00784571  0.00645872  1
  Ta  Ta133  1  0.33361946  -0.03701220  0.49423938  1
  Ta  Ta134  1  0.32956414  0.37585229  -0.00000048  1
  Ta  Ta135  1  0.36304946  0.33449341  0.49940077  1
  Ta  Ta136  1  0.33298883  0.61127912  0.00002402  1
  Ta  Ta137  1  0.33060346  0.70667461  0.50000225  1
  Ta  Ta138  1  0.67449683  -0.05063254  -0.00110025  1
  Ta  Ta139  1  0.69486209  -0.01566819  0.49436657  1
  Ta  Ta140  1  0.69765393  0.33213785  -0.00129520  1
  Ta  Ta141  1  0.61213221  0.33189050  0.49753376  1
  Ta  Ta142  1  0.68034220  0.71414764  -0.00660397  1
  Ta  Ta143  1  0.70848287  0.67150692  0.50150213  1
  N  N144  1  0.00363409  0.66882564  0.62594048  1
  N  N145  1  0.82631055  0.50774922  0.62312734  1
  N  N146  1  0.33825814  0.00221839  0.12768139  1
  N  N147  1  0.16497988  0.83625330  0.37298201  1
  N  N148  1  0.66782308  0.67080852  0.62102424  1
  N  N149  1  0.32164786  0.33538313  0.63063493  1
  N  N150  1  -0.00196350  0.32906228  0.12469506  1
  N  N151  1  0.32737294  0.33704704  0.13224602  1
  N  N152  1  0.51138025  0.81944940  0.12560450  1
  N  N153  1  0.32555409  0.33269280  0.37933169  1
  N  N154  1  0.00180323  0.00428713  0.62910371  1
  N  N155  1  0.00595861  0.65630328  0.12312251  1
  N  N156  1  0.66809612  0.66486370  0.37331459  1
  N  N157  1  0.82058080  0.17175902  0.62900743  1
  N  N158  1  0.00884825  -0.00111000  0.12386954  1
  N  N159  1  0.50251896  0.49624053  0.87948376  1
  N  N160  1  0.48574451  0.84209463  0.62258651  1
  N  N161  1  0.67836460  0.67572478  0.87132977  1
  N  N162  1  0.83297206  0.83724346  0.37532614  1
  N  N163  1  0.65326676  0.32410953  0.37271462  1
  N  N164  1  0.31811777  0.33673404  0.88323171  1
  N  N165  1  0.00752465  0.32749703  0.87665082  1
  N  N166  1  0.82688960  0.48618228  0.87223860  1
  N  N167  1  0.00971029  0.66598507  0.87881485  1
  N  N168  1  0.49788838  0.50502682  0.37556483  1
  N  N169  1  0.34351503  0.66055330  0.87761807  1
  N  N170  1  0.00516390  0.00656230  0.37872868  1
  N  N171  1  0.66863425  -0.00547828  0.37504390  1
  N  N172  1  0.49697253  0.49154232  0.63233414  1
  N  N173  1  -0.00562798  0.32045961  0.37032585  1
  N  N174  1  0.16089686  0.84008972  0.62079936  1
  N  N175  1  0.33597893  0.00303243  0.37450514  1
  N  N176  1  0.00248799  0.32654708  0.62407604  1
  O  O177  1  0.16056138  0.51309751  0.63163662  1
  O  O178  1  0.66435426  0.33702877  0.87241115  1
  O  O179  1  0.65412579  -0.00897615  0.87095532  1
  O  O180  1  0.65692004  0.00455974  0.61825077  1
  O  O181  1  0.84812539  0.51132083  0.37484239  1
  O  O182  1  0.67627413  0.32989209  0.12830772  1
  O  O183  1  0.48048768  0.17106529  0.38151638  1
  O  O184  1  0.82609964  0.16558344  0.37413002  1
  O  O185  1  0.16963405  0.16329747  0.62164760  1
  O  O186  1  0.49981683  0.17146500  0.62460985  1
  O  O187  1  0.34760735  0.65229515  0.12187221  1
  O  O188  1  0.14413066  0.51001381  0.38354973  1
  O  O189  1  0.16581067  0.85730541  0.87137879  1
  O  O190  1  0.16281182  0.17132680  0.37512878  1
  O  O191  1  0.84612282  0.84344608  0.87066130  1
  O  O192  1  0.33798779  0.67863005  0.37242533  1
  O  O193  1  0.16345626  0.49916846  0.12621555  1
  O  O194  1  0.17141285  0.85001316  0.11993002  1
  O  O195  1  0.00141319  0.66361205  0.36812558  1
  O  O196  1  0.16499229  0.15622407  0.86856736  1
  O  O197  1  0.65797283  0.33399235  0.62271036  1
  O  O198  1  0.85821420  0.83743245  0.62631388  1
  O  O199  1  0.35418379  0.00512422  0.62312286  1
  O  O200  1  0.49182761  0.82116706  0.37296197  1
  O  O201  1  0.49451900  0.50002154  0.13332774  1
  O  O202  1  0.66821615  0.67285302  0.11937695  1
  O  O203  1  0.50867273  0.84100910  0.87926632  1
  O  O204  1  0.17481232  0.50096721  0.87243376  1
  O  O205  1  0.84780161  0.48387393  0.12434599  1
  O  O206  1  0.50191712  0.15137192  0.87979778  1
  O  O207  1  0.81326807  0.17762991  0.87304495  1
  O  O208  1  0.83115814  0.84139079  0.12724685  1
  O  O209  1  0.67758820  -0.01156890  0.12655709  1
  O  O210  1  0.17119144  0.15970503  0.12244278  1
  O  O211  1  0.33384521  0.68291774  0.62387630  1
  O  O212  1  0.81319429  0.17300738  0.12019001  1
  O  O213  1  0.48838398  0.17485169  0.12819964  1
  O  O214  1  0.34856983  0.00422131  0.87121889  1
  O  O215  1  -0.00655229  0.00164235  0.88244241  1
