# generated using pymatgen
data_Sr24Ta24N11O13
_symmetry_space_group_name_H-M   'P 1'
_cell_length_a   16.83003301
_cell_length_b   16.81023519
_cell_length_c   15.74884184
_cell_angle_alpha   90.34695956
_cell_angle_beta   90.08765946
_cell_angle_gamma   89.93292507
_symmetry_Int_Tables_number   1
_chemical_formula_structural   Sr24Ta24N11O13
_chemical_formula_sum   'Sr72 Ta72 N33 O39'
_cell_volume   4455.52223147
_cell_formula_units_Z   3
loop_
 _symmetry_equiv_pos_site_id
 _symmetry_equiv_pos_as_xyz
  1  'x, y, z'
loop_
 _atom_site_type_symbol
 _atom_site_label
 _atom_site_symmetry_multiplicity
 _atom_site_fract_x
 _atom_site_fract_y
 _atom_site_fract_z
 _atom_site_occupancy
  Sr  Sr0  1  0.01109375  0.12703434  0.11221853  1
  Sr  Sr1  1  -0.00560444  0.15790102  0.63560730  1
  Sr  Sr2  1  -0.00395965  0.48816923  0.10346026  1
  Sr  Sr3  1  0.02328919  0.48383967  0.61526979  1
  Sr  Sr4  1  0.01061884  0.81735924  0.16775580  1
  Sr  Sr5  1  -0.00476430  0.81392086  0.59837593  1
  Sr  Sr6  1  0.33379221  0.13681800  0.14278223  1
  Sr  Sr7  1  0.33825297  0.16709954  0.62697217  1
  Sr  Sr8  1  0.34319203  0.49533978  0.11904085  1
  Sr  Sr9  1  0.33700183  0.49597754  0.65978330  1
  Sr  Sr10  1  0.33130760  0.82529316  0.09579055  1
  Sr  Sr11  1  0.33978540  0.81907853  0.61311716  1
  Sr  Sr12  1  0.67453493  0.17302113  0.13056491  1
  Sr  Sr13  1  0.66415257  0.15078505  0.58316069  1
  Sr  Sr14  1  0.69122715  0.49443180  0.15999742  1
  Sr  Sr15  1  0.66090521  0.51374245  0.61332310  1
  Sr  Sr16  1  0.68130064  0.83090502  0.10980696  1
  Sr  Sr17  1  0.67128110  0.85753462  0.67106680  1
  Sr  Sr18  1  0.18444464  -0.00858033  0.11168320  1
  Sr  Sr19  1  0.16817019  0.03320388  0.66765170  1
  Sr  Sr20  1  0.16396817  0.36244521  0.13169221  1
  Sr  Sr21  1  0.16099072  0.31987804  0.58926587  1
  Sr  Sr22  1  0.15587678  0.67918189  0.14500698  1
  Sr  Sr23  1  0.16896174  0.67568462  0.62214932  1
  Sr  Sr24  1  0.51826038  0.01009898  0.16991581  1
  Sr  Sr25  1  0.48695816  0.00915624  0.61739775  1
  Sr  Sr26  1  0.48796049  0.33733280  0.10786933  1
  Sr  Sr27  1  0.48074431  0.34926628  0.66657157  1
  Sr  Sr28  1  0.48390710  0.66729514  0.12766995  1
  Sr  Sr29  1  0.49543127  0.67134190  0.58944147  1
  Sr  Sr30  1  0.82439018  0.00700038  0.07782871  1
  Sr  Sr31  1  0.84146012  0.00203588  0.62873453  1
  Sr  Sr32  1  0.83078812  0.33391363  0.13562314  1
  Sr  Sr33  1  0.81234832  0.34793870  0.63269981  1
  Sr  Sr34  1  0.83767890  0.67904150  0.12641917  1
  Sr  Sr35  1  0.81258875  0.67485928  0.61813630  1
  Sr  Sr36  1  0.00462980  0.15270002  0.38107344  1
  Sr  Sr37  1  0.00007635  0.14287857  0.86121138  1
  Sr  Sr38  1  0.01692047  0.46285247  0.36928509  1
  Sr  Sr39  1  -0.00139420  0.49366539  0.88837573  1
  Sr  Sr40  1  -0.01204562  0.83284767  0.38256323  1
  Sr  Sr41  1  0.01752208  0.80472387  0.84773773  1
  Sr  Sr42  1  0.32854823  0.15774506  0.38054597  1
  Sr  Sr43  1  0.34133122  0.14602636  0.85165356  1
  Sr  Sr44  1  0.33938480  0.49694495  0.33918690  1
  Sr  Sr45  1  0.34115056  0.48997842  0.88578668  1
  Sr  Sr46  1  0.34002565  0.82007848  0.40908098  1
  Sr  Sr47  1  0.32857073  0.82379211  0.88607199  1
  Sr  Sr48  1  0.66971311  0.16631913  0.36997425  1
  Sr  Sr49  1  0.67052540  0.17978214  0.91878033  1
  Sr  Sr50  1  0.67514359  0.50538343  0.39560058  1
  Sr  Sr51  1  0.67698517  0.48789882  0.82696916  1
  Sr  Sr52  1  0.65324091  0.84405378  0.32849733  1
  Sr  Sr53  1  0.68272159  0.84236046  0.88413688  1
  Sr  Sr54  1  0.15805022  0.00888422  0.32895718  1
  Sr  Sr55  1  0.18013899  0.01010512  0.89279089  1
  Sr  Sr56  1  0.16456300  0.32915083  0.38360316  1
  Sr  Sr57  1  0.16337754  0.35951453  0.91719929  1
  Sr  Sr58  1  0.15865799  0.68721357  0.39324067  1
  Sr  Sr59  1  0.16874597  0.66122635  0.83402922  1
  Sr  Sr60  1  0.48788071  0.01852091  0.39085718  1
  Sr  Sr61  1  0.50312166  -0.00578907  0.83589106  1
  Sr  Sr62  1  0.47652445  0.35130212  0.35813655  1
  Sr  Sr63  1  0.48809008  0.32350055  0.88305509  1
  Sr  Sr64  1  0.48767604  0.66531721  0.37713015  1
  Sr  Sr65  1  0.48839509  0.68340574  0.91886190  1
  Sr  Sr66  1  0.84255216  0.01182579  0.41371252  1
  Sr  Sr67  1  0.83130219  0.00652699  0.86914491  1
  Sr  Sr68  1  0.81077375  0.33526959  0.35811822  1
  Sr  Sr69  1  0.84649488  0.34297509  0.85975932  1
  Sr  Sr70  1  0.82216006  0.68740984  0.36124678  1
  Sr  Sr71  1  0.82704957  0.67243692  0.88102082  1
  Ta  Ta72  1  0.17073098  0.19065415  -0.00011751  1
  Ta  Ta73  1  0.16333310  0.12966043  0.49483639  1
  Ta  Ta74  1  0.16510300  0.54756321  -0.00567011  1
  Ta  Ta75  1  0.20448991  0.50310518  0.50170979  1
  Ta  Ta76  1  0.14244236  0.81565909  0.00382042  1
  Ta  Ta77  1  0.16557911  0.88775606  0.50083846  1
  Ta  Ta78  1  0.49029263  0.13882155  -0.00403162  1
  Ta  Ta79  1  0.49388598  0.22044441  0.50756306  1
  Ta  Ta80  1  0.55155884  0.50128510  -0.00158526  1
  Ta  Ta81  1  0.47851811  0.48266242  0.50096557  1
  Ta  Ta82  1  0.50574882  0.88032428  0.00359830  1
  Ta  Ta83  1  0.53699765  0.84687478  0.50506204  1
  Ta  Ta84  1  0.85742347  0.19361133  -0.00328412  1
  Ta  Ta85  1  0.84444357  0.19754093  0.49947856  1
  Ta  Ta86  1  0.79784056  0.50072325  -0.00850651  1
  Ta  Ta87  1  0.86353789  0.49843965  0.49534321  1
  Ta  Ta88  1  0.88695887  0.83141569  0.00235775  1
  Ta  Ta89  1  0.79225166  0.83950818  0.49552326  1
  Ta  Ta90  1  0.16232391  0.19359875  0.24518745  1
  Ta  Ta91  1  0.16267606  0.21550792  0.76473072  1
  Ta  Ta92  1  0.15992751  0.52865288  0.25241290  1
  Ta  Ta93  1  0.16324396  0.45972112  0.75610914  1
  Ta  Ta94  1  0.20866194  0.83338410  0.25072754  1
  Ta  Ta95  1  0.17662153  0.85623743  0.74561606  1
  Ta  Ta96  1  0.49890812  0.19722469  0.25247239  1
  Ta  Ta97  1  0.53977703  0.17108063  0.74916298  1
  Ta  Ta98  1  0.53031163  0.50806378  0.25598008  1
  Ta  Ta99  1  0.50538481  0.56071705  0.75413999  1
  Ta  Ta100  1  0.46670563  0.83056878  0.25072258  1
  Ta  Ta101  1  0.49297630  0.80360199  0.74948890  1
  Ta  Ta102  1  0.84998976  0.14214971  0.24151479  1
  Ta  Ta103  1  0.79014396  0.17453223  0.75399415  1
  Ta  Ta104  1  0.86077577  0.51536155  0.24927633  1
  Ta  Ta105  1  0.86351996  0.52224620  0.74740688  1
  Ta  Ta106  1  0.83419207  0.87728892  0.24664002  1
  Ta  Ta107  1  0.86077519  0.83355791  0.74477473  1
  Ta  Ta108  1  -0.04875483  -0.00346396  0.24816633  1
  Ta  Ta109  1  0.00765973  -0.04133591  0.74543360  1
  Ta  Ta110  1  0.00239696  0.29076569  0.24692809  1
  Ta  Ta111  1  0.03357006  0.33064783  0.75587669  1
  Ta  Ta112  1  -0.00289762  0.62530191  0.26142780  1
  Ta  Ta113  1  -0.02347782  0.64554968  0.74347321  1
  Ta  Ta114  1  0.33984855  -0.04421702  0.25351479  1
  Ta  Ta115  1  0.32665163  -0.03795812  0.74888548  1
  Ta  Ta116  1  0.31907318  0.30628823  0.25175124  1
  Ta  Ta117  1  0.28877624  0.32536146  0.75647535  1
  Ta  Ta118  1  0.31899842  0.68673081  0.25218067  1
  Ta  Ta119  1  0.36508859  0.66964861  0.75218015  1
  Ta  Ta120  1  0.72043597  0.00718054  0.24341780  1
  Ta  Ta121  1  0.67128040  0.04882565  0.75734866  1
  Ta  Ta122  1  0.62995669  0.33424188  0.25658023  1
  Ta  Ta123  1  0.65990621  0.28822958  0.74885790  1
  Ta  Ta124  1  0.64659972  0.65618124  0.25203707  1
  Ta  Ta125  1  0.62682434  0.67698458  0.75223800  1
  Ta  Ta126  1  0.00907762  -0.05284859  0.00067599  1
  Ta  Ta127  1  0.04242943  -0.00363062  0.50486700  1
  Ta  Ta128  1  -0.00117202  0.29455464  0.00088438  1
  Ta  Ta129  1  -0.03752778  0.31813693  0.49720783  1
  Ta  Ta130  1  0.01724257  0.67655007  -0.00565386  1
  Ta  Ta131  1  -0.02190586  0.62966214  0.48360704  1
  Ta  Ta132  1  0.38104702  -0.00363286  0.00119420  1
  Ta  Ta133  1  0.29218021  -0.00168666  0.50113092  1
  Ta  Ta134  1  0.31947516  0.28340825  -0.00167602  1
  Ta  Ta135  1  0.34299381  0.35471419  0.50560555  1
  Ta  Ta136  1  0.29258774  0.65631464  0.00010749  1
  Ta  Ta137  1  0.32578304  0.61909988  0.50113784  1
  Ta  Ta138  1  0.62796000  0.00387482  0.00069605  1
  Ta  Ta139  1  0.66634482  -0.04309227  0.49776550  1
  Ta  Ta140  1  0.66962599  0.37097612  -0.00196916  1
  Ta  Ta141  1  0.61690959  0.33573945  0.50268607  1
  Ta  Ta142  1  0.66707114  0.62343648  -0.00112072  1
  Ta  Ta143  1  0.65949738  0.73518853  0.49937220  1
  N  N144  1  0.32991479  0.65814866  0.37911492  1
  N  N145  1  0.34331870  -0.01233400  0.87516542  1
  N  N146  1  0.16470710  0.16356966  0.37282082  1
  N  N147  1  0.33115709  0.32085268  0.88211903  1
  N  N148  1  0.17100552  0.83347823  0.12450812  1
  N  N149  1  0.50408636  0.83693487  0.63170479  1
  N  N150  1  -0.00629859  0.68040780  0.37139725  1
  N  N151  1  0.33160565  -0.00488026  0.62681714  1
  N  N152  1  0.66704602  0.01184724  0.87791645  1
  N  N153  1  0.00492558  0.32313718  0.87783288  1
  N  N154  1  0.33267707  0.65791486  0.62689882  1
  N  N155  1  0.32125373  0.32831728  0.37244347  1
  N  N156  1  0.49767138  0.17995605  0.62439430  1
  N  N157  1  0.83627104  0.16488955  0.12118229  1
  N  N158  1  0.32714301  0.65984246  0.12593562  1
  N  N159  1  0.50287357  0.50729299  0.38133891  1
  N  N160  1  0.16051857  0.16368317  0.87886310  1
  N  N161  1  -0.00168121  0.65496380  0.87398235  1
  N  N162  1  -0.00919382  0.31298831  0.36878149  1
  N  N163  1  0.32174366  0.33243491  0.62724896  1
  N  N164  1  0.50259825  0.16293069  0.87595809  1
  N  N165  1  0.65017274  0.33859984  0.37863103  1
  N  N166  1  0.34563235  -0.01308822  0.12623237  1
  N  N167  1  0.16846480  0.50861196  0.86819181  1
  N  N168  1  0.82793636  0.84398933  0.37459936  1
  N  N169  1  0.33066294  0.66312030  0.87690668  1
  N  N170  1  0.83516035  0.83665523  0.62604040  1
  N  N171  1  0.00466799  -0.00883953  0.62651603  1
  N  N172  1  0.84378888  0.83707383  0.11790313  1
  N  N173  1  0.67342439  0.00420852  0.12838589  1
  N  N174  1  0.82907383  0.17221125  0.87385927  1
  N  N175  1  0.83216994  0.50399226  0.87096733  1
  N  N176  1  0.32949932  -0.00748813  0.37713778  1
  O  O177  1  0.00091606  -0.02634787  0.12912304  1
  O  O178  1  0.66464807  0.64793522  0.12828236  1
  O  O179  1  0.15852332  0.17380731  0.62050145  1
  O  O180  1  0.67335875  0.00287489  0.62137463  1
  O  O181  1  0.84734581  0.49756685  0.62000860  1
  O  O182  1  -0.00673988  -0.00487855  0.37211427  1
  O  O183  1  0.84346162  0.49087175  0.36812079  1
  O  O184  1  0.50121384  0.83744049  0.88207945  1
  O  O185  1  0.00430306  0.33755376  0.12877272  1
  O  O186  1  0.65461070  0.65713898  0.87830767  1
  O  O187  1  0.00452551  0.32810625  0.61899241  1
  O  O188  1  0.52390294  0.51443807  0.87198106  1
  O  O189  1  0.17925991  0.50957232  0.37299989  1
  O  O190  1  0.68437715  -0.00437689  0.37590645  1
  O  O191  1  -0.00234770  0.66440996  0.13527170  1
  O  O192  1  0.65775822  0.34779419  0.12257106  1
  O  O193  1  0.18140915  0.49079200  0.62702312  1
  O  O194  1  0.16996000  0.83545915  0.87148907  1
  O  O195  1  0.52684324  0.49816725  0.12146134  1
  O  O196  1  0.84103162  0.82915979  0.87959498  1
  O  O197  1  0.49299278  0.83811331  0.37509669  1
  O  O198  1  0.84158529  0.50878026  0.12078084  1
  O  O199  1  0.66496146  0.33846603  0.87384860  1
  O  O200  1  0.83648454  0.17231114  0.37485814  1
  O  O201  1  0.15808854  0.51903376  0.12534241  1
  O  O202  1  0.65422222  0.33176102  0.62835264  1
  O  O203  1  0.17375703  0.84715866  0.37492541  1
  O  O204  1  0.01558781  -0.02880230  0.87819701  1
  O  O205  1  0.17218234  0.83749171  0.62023379  1
  O  O206  1  0.16636884  0.14413379  0.12757521  1
  O  O207  1  0.50399415  0.51578316  0.62939240  1
  O  O208  1  0.82222590  0.18683867  0.62351324  1
  O  O209  1  0.33074248  0.33028105  0.11871165  1
  O  O210  1  0.65249574  0.68989697  0.37280021  1
  O  O211  1  0.49187694  0.18104821  0.37862898  1
  O  O212  1  0.65115337  0.69731917  0.62893079  1
  O  O213  1  0.48886970  0.83179900  0.12542885  1
  O  O214  1  0.49725338  0.17173607  0.12927336  1
  O  O215  1  -0.00774864  0.65449699  0.60765091  1
