# generated using pymatgen
data_Sr24Ta24N11O13
_symmetry_space_group_name_H-M   'P 1'
_cell_length_a   17.23751784
_cell_length_b   16.72830269
_cell_length_c   15.44637459
_cell_angle_alpha   89.52354063
_cell_angle_beta   90.48346709
_cell_angle_gamma   89.45146917
_symmetry_Int_Tables_number   1
_chemical_formula_structural   Sr24Ta24N11O13
_chemical_formula_sum   'Sr72 Ta72 N33 O39'
_cell_volume   4453.51062719
_cell_formula_units_Z   3
loop_
 _symmetry_equiv_pos_site_id
 _symmetry_equiv_pos_as_xyz
  1  'x, y, z'
loop_
 _atom_site_type_symbol
 _atom_site_label
 _atom_site_symmetry_multiplicity
 _atom_site_fract_x
 _atom_site_fract_y
 _atom_site_fract_z
 _atom_site_occupancy
  Sr  Sr0  1  -0.02561402  0.17217437  0.08338561  1
  Sr  Sr1  1  0.01915656  0.14127578  0.63261087  1
  Sr  Sr2  1  0.01197857  0.48305909  0.18376557  1
  Sr  Sr3  1  0.00369096  0.50036718  0.61854409  1
  Sr  Sr4  1  -0.01467361  0.82097650  0.13416048  1
  Sr  Sr5  1  0.00118207  0.86122004  0.58180368  1
  Sr  Sr6  1  0.36198917  0.18428788  0.12138074  1
  Sr  Sr7  1  0.21008546  0.17212561  0.51463908  1
  Sr  Sr8  1  0.32539004  0.52886623  0.09249924  1
  Sr  Sr9  1  0.33398529  0.50190973  0.63850635  1
  Sr  Sr10  1  0.31298819  0.82246437  0.19610438  1
  Sr  Sr11  1  0.32381468  0.84581363  0.62699192  1
  Sr  Sr12  1  0.58417129  0.11583035  -0.02320947  1
  Sr  Sr13  1  0.68668515  0.12479303  0.58467095  1
  Sr  Sr14  1  0.66047568  0.49465187  0.12707446  1
  Sr  Sr15  1  0.66110895  0.51998460  0.62702880  1
  Sr  Sr16  1  0.64673794  0.83383506  0.13079868  1
  Sr  Sr17  1  0.73231064  0.82231549  0.74829974  1
  Sr  Sr18  1  0.22505556  0.03426783  0.19253975  1
  Sr  Sr19  1  0.16132056  -0.01674916  0.62693205  1
  Sr  Sr20  1  0.17126520  0.32664936  0.15224709  1
  Sr  Sr21  1  0.15988775  0.36398082  0.58559530  1
  Sr  Sr22  1  0.15246941  0.66596888  0.12349885  1
  Sr  Sr23  1  0.19062493  0.66610303  0.67604723  1
  Sr  Sr24  1  0.49312446  -0.00626848  0.09127740  1
  Sr  Sr25  1  0.52671889  0.00723460  0.64920725  1
  Sr  Sr26  1  0.50259627  0.34827349  0.18859564  1
  Sr  Sr27  1  0.56589733  0.33400059  0.62090687  1
  Sr  Sr28  1  0.51023807  0.67099456  0.14538034  1
  Sr  Sr29  1  0.47897369  0.65785719  0.57577912  1
  Sr  Sr30  1  0.84599018  -0.03732075  0.16378926  1
  Sr  Sr31  1  0.85325694  -0.00758118  0.63408487  1
  Sr  Sr32  1  0.83740774  0.32776672  0.11595118  1
  Sr  Sr33  1  0.91361281  0.31174120  0.65202594  1
  Sr  Sr34  1  0.83860914  0.66521159  0.08552537  1
  Sr  Sr35  1  0.84489116  0.65221138  0.64645645  1
  Sr  Sr36  1  -0.12928940  0.15011978  0.28201792  1
  Sr  Sr37  1  0.02865829  0.15971242  0.86684426  1
  Sr  Sr38  1  0.00099658  0.50076834  0.39139254  1
  Sr  Sr39  1  -0.00600820  0.49234175  0.83315072  1
  Sr  Sr40  1  -0.02472675  0.83986658  0.36965664  1
  Sr  Sr41  1  0.00758099  0.79906561  0.93981911  1
  Sr  Sr42  1  0.34124866  0.19302448  0.34560668  1
  Sr  Sr43  1  0.35622765  0.16201664  0.89434092  1
  Sr  Sr44  1  0.32677407  0.49896066  0.42106969  1
  Sr  Sr45  1  0.33665040  0.50359317  0.87501607  1
  Sr  Sr46  1  0.35942424  0.84479678  0.40897787  1
  Sr  Sr47  1  0.30737748  0.83773609  0.84579600  1
  Sr  Sr48  1  0.68412808  0.17536676  0.35724867  1
  Sr  Sr49  1  0.58262328  0.18050811  0.77019973  1
  Sr  Sr50  1  0.65135761  0.53396876  0.39542447  1
  Sr  Sr51  1  0.66053960  0.49899129  0.88070357  1
  Sr  Sr52  1  0.67158096  0.84794578  0.35235366  1
  Sr  Sr53  1  0.60839735  0.84105759  0.90662508  1
  Sr  Sr54  1  0.19984619  -0.01170846  0.40403016  1
  Sr  Sr55  1  0.19370350  -0.00042690  0.85946302  1
  Sr  Sr56  1  0.16468372  0.35143191  0.37624852  1
  Sr  Sr57  1  0.19602873  0.31260618  0.94261621  1
  Sr  Sr58  1  0.14240763  0.68755312  0.33047611  1
  Sr  Sr59  1  0.17139413  0.66468493  0.89436232  1
  Sr  Sr60  1  0.56056143  0.01250867  0.40521879  1
  Sr  Sr61  1  0.46614790  -0.01780204  0.85550956  1
  Sr  Sr62  1  0.55900792  0.33291617  0.38014148  1
  Sr  Sr63  1  0.47531338  0.34924685  0.81605395  1
  Sr  Sr64  1  0.50656740  0.68418863  0.36808636  1
  Sr  Sr65  1  0.48528792  0.64516871  0.93320440  1
  Sr  Sr66  1  0.81468710  -0.02086514  0.39231121  1
  Sr  Sr67  1  0.89472597  0.01165558  0.93583302  1
  Sr  Sr68  1  0.76707897  0.37301066  0.31236211  1
  Sr  Sr69  1  0.88438414  0.30980107  0.89017948  1
  Sr  Sr70  1  0.84321586  0.65284461  0.43125282  1
  Sr  Sr71  1  0.84239854  0.65397912  0.86580938  1
  Ta  Ta72  1  0.16620562  0.13413717  0.02772514  1
  Ta  Ta73  1  0.01930777  0.20994997  0.42514272  1
  Ta  Ta74  1  0.13452866  0.49359671  0.01246169  1
  Ta  Ta75  1  0.16636357  0.56384623  0.49828500  1
  Ta  Ta76  1  0.18395158  0.84846642  0.02102716  1
  Ta  Ta77  1  0.16276108  0.78735346  0.50194536  1
  Ta  Ta78  1  0.51109791  0.27546957  0.00894169  1
  Ta  Ta79  1  0.48674813  0.18059548  0.49370840  1
  Ta  Ta80  1  0.49792186  0.45481627  0.00845702  1
  Ta  Ta81  1  0.48669633  0.47108991  0.50411615  1
  Ta  Ta82  1  0.43867229  0.82756455  0.02005370  1
  Ta  Ta83  1  0.53643857  0.84077657  0.51733149  1
  Ta  Ta84  1  0.76461450  0.16598769  -0.08355835  1
  Ta  Ta85  1  0.86594913  0.17352189  0.49949904  1
  Ta  Ta86  1  0.87594958  0.49177135  0.00537032  1
  Ta  Ta87  1  0.82354052  0.46021613  0.51511716  1
  Ta  Ta88  1  0.79932083  0.83241616  -0.01551997  1
  Ta  Ta89  1  0.80709635  0.82005556  0.53082787  1
  Ta  Ta90  1  0.10790950  0.15748366  0.28050529  1
  Ta  Ta91  1  0.20126279  0.18213553  0.76140571  1
  Ta  Ta92  1  0.20622779  0.51081326  0.26038225  1
  Ta  Ta93  1  0.17687070  0.47855331  0.76494485  1
  Ta  Ta94  1  0.13184191  0.87480555  0.24667601  1
  Ta  Ta95  1  0.11377100  0.82629973  0.76806474  1
  Ta  Ta96  1  0.51828716  0.14093080  0.24504812  1
  Ta  Ta97  1  0.40590715  0.20658381  0.65031999  1
  Ta  Ta98  1  0.45533777  0.51112417  0.25991432  1
  Ta  Ta99  1  0.49784918  0.53695013  0.75363606  1
  Ta  Ta100  1  0.49352388  0.87316795  0.26139692  1
  Ta  Ta101  1  0.48541029  0.79828287  0.74826242  1
  Ta  Ta102  1  0.76194525  0.13823558  0.08861790  1
  Ta  Ta103  1  0.81873956  0.15873882  0.74275929  1
  Ta  Ta104  1  0.82364816  0.55897629  0.25332067  1
  Ta  Ta105  1  0.81415460  0.45716129  0.74521570  1
  Ta  Ta106  1  0.82512662  0.76683237  0.25651251  1
  Ta  Ta107  1  0.91799054  0.82900271  0.76445115  1
  Ta  Ta108  1  0.02829918  0.00985953  0.21981738  1
  Ta  Ta109  1  0.01492588  -0.04116065  0.77965184  1
  Ta  Ta110  1  -0.00389925  0.29795271  0.26067616  1
  Ta  Ta111  1  0.09616039  0.33250934  0.78150112  1
  Ta  Ta112  1  -0.04066766  0.66056011  0.25384702  1
  Ta  Ta113  1  0.01394224  0.68666264  0.75918896  1
  Ta  Ta114  1  0.40071576  0.01140769  0.27131294  1
  Ta  Ta115  1  0.32710433  0.08076032  0.68786743  1
  Ta  Ta116  1  0.33522632  0.38844795  0.25780997  1
  Ta  Ta117  1  0.28717735  0.32524768  0.75497899  1
  Ta  Ta118  1  0.32893833  0.63681530  0.27545554  1
  Ta  Ta119  1  0.37753296  0.67070458  0.75142644  1
  Ta  Ta120  1  0.65762372  0.04182254  0.19405213  1
  Ta  Ta121  1  0.70873553  0.02048323  0.79438875  1
  Ta  Ta122  1  0.64018903  0.23717087  0.14040688  1
  Ta  Ta123  1  0.72927793  0.30936006  0.75877413  1
  Ta  Ta124  1  0.69981699  0.67073672  0.25059065  1
  Ta  Ta125  1  0.58916614  0.67641424  0.75459440  1
  Ta  Ta126  1  0.07674966  -0.00656548  0.03628361  1
  Ta  Ta127  1  0.00438997  0.05118928  0.40176675  1
  Ta  Ta128  1  0.01679392  0.37710793  0.01331657  1
  Ta  Ta129  1  -0.08551234  0.32757044  0.43092923  1
  Ta  Ta130  1  0.00134390  0.60145610  0.00789903  1
  Ta  Ta131  1  0.03490171  0.67430390  0.50671805  1
  Ta  Ta132  1  0.31449919  -0.05137273  0.02823686  1
  Ta  Ta133  1  0.37648049  0.05444746  0.51289809  1
  Ta  Ta134  1  0.36687307  0.35081142  0.00594023  1
  Ta  Ta135  1  0.37233812  0.32431241  0.51525047  1
  Ta  Ta136  1  0.32171133  0.72266536  0.01513688  1
  Ta  Ta137  1  0.29350083  0.67600141  0.49748470  1
  Ta  Ta138  1  0.71322669  -0.00877115  -0.01558481  1
  Ta  Ta139  1  0.67933765  -0.09439582  0.56810241  1
  Ta  Ta140  1  0.66654003  0.31007883  -0.04024888  1
  Ta  Ta141  1  0.75423379  0.31862982  0.54165715  1
  Ta  Ta142  1  0.67712228  0.68002244  0.00072603  1
  Ta  Ta143  1  0.66489882  0.72742163  0.52346750  1
  N  N144  1  0.15675447  0.82930060  0.88989977  1
  N  N145  1  0.33564721  0.67230323  0.63067836  1
  N  N146  1  -0.02207632  -0.00126759  0.09696319  1
  N  N147  1  -0.08038515  0.37105784  0.30533316  1
  N  N148  1  -0.00535931  0.66847678  0.38750160  1
  N  N149  1  0.83582072  0.20047118  0.01561834  1
  N  N150  1  0.33193809  0.33523377  0.87319654  1
  N  N151  1  0.51597854  0.84526951  0.38944133  1
  N  N152  1  0.52659008  0.17886385  0.36347849  1
  N  N153  1  0.66050198  0.66934672  0.12426419  1
  N  N154  1  0.15185810  0.81351782  0.14559056  1
  N  N155  1  0.69787239  0.27019523  0.64555184  1
  N  N156  1  0.69016910  -0.02604226  0.68240716  1
  N  N157  1  0.50083705  0.50709206  0.37919922  1
  N  N158  1  0.63244405  -0.00909002  0.88657078  1
  N  N159  1  0.48929224  0.83289667  0.13653286  1
  N  N160  1  0.17382413  0.49929645  0.13046108  1
  N  N161  1  0.49229384  0.50262205  0.12740819  1
  N  N162  1  -0.00256326  0.65136632  0.13331188  1
  N  N163  1  -0.06139366  0.00766217  0.30432365  1
  N  N164  1  0.00296870  0.64661053  0.88028565  1
  N  N165  1  0.00392587  0.32613076  0.12848294  1
  N  N166  1  0.52415988  0.20506263  0.12590390  1
  N  N167  1  0.85323321  0.49479211  0.63508602  1
  N  N168  1  0.86065616  0.81980890  0.64719661  1
  N  N169  1  0.50138587  0.49569577  0.88102797  1
  N  N170  1  0.52135070  0.17964915  0.61828496  1
  N  N171  1  0.35149998  0.68602501  0.38753933  1
  N  N172  1  0.86595527  0.14921376  0.62632931  1
  N  N173  1  0.50545221  0.49933773  0.62746327  1
  N  N174  1  0.85289529  0.81334305  0.87786718  1
  N  N175  1  0.03785005  0.32654327  0.89020142  1
  N  N176  1  0.16038810  0.51523044  0.38208653  1
  O  O177  1  0.66321036  0.69208803  0.39355999  1
  O  O178  1  0.03880727  0.36557810  0.67669003  1
  O  O179  1  0.34773484  0.03371957  0.38855832  1
  O  O180  1  0.20514865  0.13345479  0.34430601  1
  O  O181  1  0.14573998  0.84008440  0.37851365  1
  O  O182  1  0.33500740  0.68582263  0.88687791  1
  O  O183  1  0.33557831  0.34282651  0.38366841  1
  O  O184  1  0.63395233  -0.02422169  0.08433592  1
  O  O185  1  0.32926738  0.34293706  0.13675677  1
  O  O186  1  0.69019512  0.01331594  0.31024300  1
  O  O187  1  0.47156379  0.84249580  0.62661767  1
  O  O188  1  0.63060734  0.32351351  0.82954209  1
  O  O189  1  0.69737048  0.34748494  0.07385886  1
  O  O190  1  0.62731576  0.67642017  0.88313287  1
  O  O191  1  0.15576197  0.16741715  0.15048075  1
  O  O192  1  0.15393655  0.82562918  0.62666433  1
  O  O193  1  0.49362534  0.21385079  0.89898904  1
  O  O194  1  0.83089183  0.81558994  0.11633615  1
  O  O195  1  0.84565001  0.48135264  0.87619549  1
  O  O196  1  0.33415320  0.00068114  0.91824476  1
  O  O197  1  0.88546906  0.15196012  0.84789808  1
  O  O198  1  0.04095959  -0.00075918  0.90105714  1
  O  O199  1  0.82504346  0.80497090  0.38524716  1
  O  O200  1  0.78363610  0.10895088  0.45263898  1
  O  O201  1  0.32101236  0.67906503  0.14135481  1
  O  O202  1  0.65445836  0.29595274  0.25091767  1
  O  O203  1  0.17523112  0.51068111  0.63496432  1
  O  O204  1  0.81027605  0.51267240  0.37693353  1
  O  O205  1  0.37708858  -0.01259936  0.62278132  1
  O  O206  1  0.83499520  0.50999251  0.12804458  1
  O  O207  1  0.35573924  0.00065399  0.14525744  1
  O  O208  1  0.15908827  0.13154790  0.65826141  1
  O  O209  1  0.46502377  0.83064552  0.87787701  1
  O  O210  1  -0.00633363  0.65105842  0.63206205  1
  O  O211  1  0.30536579  0.35420894  0.61542372  1
  O  O212  1  0.18922790  0.50435342  0.89026935  1
  O  O213  1  0.01388128  -0.00336299  0.65744798  1
  O  O214  1  0.63837020  0.67317864  0.63283201  1
  O  O215  1  0.18313710  0.15146901  0.89668841  1
