# generated using pymatgen
data_Sr24Ta24N11O13
_symmetry_space_group_name_H-M   'P 1'
_cell_length_a   16.79303563
_cell_length_b   16.78192080
_cell_length_c   15.71755056
_cell_angle_alpha   90.29298420
_cell_angle_beta   89.78337014
_cell_angle_gamma   90.04964169
_symmetry_Int_Tables_number   1
_chemical_formula_structural   Sr24Ta24N11O13
_chemical_formula_sum   'Sr72 Ta72 N33 O39'
_cell_volume   4429.41941146
_cell_formula_units_Z   3
loop_
 _symmetry_equiv_pos_site_id
 _symmetry_equiv_pos_as_xyz
  1  'x, y, z'
loop_
 _atom_site_type_symbol
 _atom_site_label
 _atom_site_symmetry_multiplicity
 _atom_site_fract_x
 _atom_site_fract_y
 _atom_site_fract_z
 _atom_site_occupancy
  Sr  Sr0  1  -0.00972099  0.16573596  0.13476178  1
  Sr  Sr1  1  0.01982502  0.16825321  0.57677347  1
  Sr  Sr2  1  -0.00519391  0.50222019  0.16653312  1
  Sr  Sr3  1  -0.01380987  0.50191803  0.62165658  1
  Sr  Sr4  1  -0.00637372  0.80858119  0.06568878  1
  Sr  Sr5  1  -0.00259947  0.83969089  0.62970103  1
  Sr  Sr6  1  0.33721228  0.17002623  0.11940556  1
  Sr  Sr7  1  0.31886021  0.16027032  0.67103564  1
  Sr  Sr8  1  0.31959222  0.49963428  0.14330516  1
  Sr  Sr9  1  0.33450073  0.49242581  0.60963896  1
  Sr  Sr10  1  0.31902148  0.82358195  0.11363223  1
  Sr  Sr11  1  0.31840392  0.85017043  0.63887447  1
  Sr  Sr12  1  0.67496147  0.13942161  0.08152519  1
  Sr  Sr13  1  0.68366101  0.16625292  0.63994061  1
  Sr  Sr14  1  0.65968304  0.50442961  0.10021922  1
  Sr  Sr15  1  0.67533946  0.49392768  0.66255504  1
  Sr  Sr16  1  0.67650298  0.84150298  0.17264725  1
  Sr  Sr17  1  0.65567681  0.82294845  0.61266950  1
  Sr  Sr18  1  0.17461468  0.01106388  0.17104284  1
  Sr  Sr19  1  0.15497482  -0.00756799  0.61240873  1
  Sr  Sr20  1  0.16424132  0.30813756  0.07957998  1
  Sr  Sr21  1  0.17939686  0.33879959  0.63855172  1
  Sr  Sr22  1  0.16987150  0.67063947  0.12212956  1
  Sr  Sr23  1  0.16635189  0.66064456  0.62600984  1
  Sr  Sr24  1  0.50802510  -0.00135687  0.13021954  1
  Sr  Sr25  1  0.51996673  0.00206461  0.57883379  1
  Sr  Sr26  1  0.49902872  0.35150111  0.14940047  1
  Sr  Sr27  1  0.50247683  0.32661456  0.59406738  1
  Sr  Sr28  1  0.51108959  0.67937211  0.10995316  1
  Sr  Sr29  1  0.49440030  0.66477755  0.63098829  1
  Sr  Sr30  1  0.84300957  0.00904349  0.11758327  1
  Sr  Sr31  1  0.81620877  -0.01609296  0.68814660  1
  Sr  Sr32  1  0.84181644  0.34608721  0.15895324  1
  Sr  Sr33  1  0.83024711  0.32467968  0.62182402  1
  Sr  Sr34  1  0.82724526  0.67576811  0.12027130  1
  Sr  Sr35  1  0.85092323  0.67717120  0.57702805  1
  Sr  Sr36  1  -0.01393141  0.15797200  0.36133320  1
  Sr  Sr37  1  0.00872199  0.18366493  0.91962004  1
  Sr  Sr38  1  -0.02087326  0.50320037  0.37495049  1
  Sr  Sr39  1  -0.00173366  0.47854133  0.83398785  1
  Sr  Sr40  1  -0.00962135  0.83131000  0.40706198  1
  Sr  Sr41  1  -0.00660779  0.85996634  0.85803643  1
  Sr  Sr42  1  0.33941698  0.15444074  0.33397342  1
  Sr  Sr43  1  0.33459480  0.17385358  0.88320299  1
  Sr  Sr44  1  0.33690575  0.50166304  0.38432531  1
  Sr  Sr45  1  0.32194335  0.49675333  0.86592235  1
  Sr  Sr46  1  0.29384753  0.83480119  0.35018769  1
  Sr  Sr47  1  0.33988843  0.82682583  0.88227858  1
  Sr  Sr48  1  0.64866120  0.17128828  0.43039885  1
  Sr  Sr49  1  0.68642758  0.15523276  0.86292613  1
  Sr  Sr50  1  0.65970972  0.45474238  0.32466759  1
  Sr  Sr51  1  0.66269385  0.51905801  0.88661949  1
  Sr  Sr52  1  0.66076069  0.82977286  0.38508245  1
  Sr  Sr53  1  0.67294412  0.84228764  0.83240627  1
  Sr  Sr54  1  0.14364847  -0.00666114  0.38855018  1
  Sr  Sr55  1  0.19878639  -0.00925513  0.82171182  1
  Sr  Sr56  1  0.16598967  0.33020337  0.41754179  1
  Sr  Sr57  1  0.18208255  0.32814470  0.86666357  1
  Sr  Sr58  1  0.17738505  0.64819806  0.33822962  1
  Sr  Sr59  1  0.16252049  0.67908845  0.90484655  1
  Sr  Sr60  1  0.51566478  -0.00315639  0.37257279  1
  Sr  Sr61  1  0.49383532  0.02065215  0.92055327  1
  Sr  Sr62  1  0.48442298  0.33713052  0.36785322  1
  Sr  Sr63  1  0.51221454  0.34910310  0.89929450  1
  Sr  Sr64  1  0.50488490  0.67253375  0.39856822  1
  Sr  Sr65  1  0.50419774  0.67543742  0.85898475  1
  Sr  Sr66  1  0.82624228  -0.00584054  0.34252347  1
  Sr  Sr67  1  0.85174688  0.02763813  0.90190268  1
  Sr  Sr68  1  0.83916010  0.32534177  0.37945156  1
  Sr  Sr69  1  0.82108348  0.35268471  0.84509357  1
  Sr  Sr70  1  0.83028578  0.68402653  0.37234259  1
  Sr  Sr71  1  0.84426619  0.67190433  0.91189901  1
  Ta  Ta72  1  0.17653282  0.11219490  -0.00805557  1
  Ta  Ta73  1  0.22019657  0.15802051  0.50322015  1
  Ta  Ta74  1  0.13396128  0.49271600  0.00243696  1
  Ta  Ta75  1  0.14506416  0.51377670  0.49616070  1
  Ta  Ta76  1  0.16663256  0.88660155  0.00061112  1
  Ta  Ta77  1  0.16314605  0.79680128  0.49156224  1
  Ta  Ta78  1  0.50661255  0.20176251  0.00617330  1
  Ta  Ta79  1  0.44261559  0.16344883  0.49811281  1
  Ta  Ta80  1  0.46888499  0.50997545  0.00521590  1
  Ta  Ta81  1  0.54806236  0.49818268  0.49145151  1
  Ta  Ta82  1  0.54096538  0.83929245  0.00055175  1
  Ta  Ta83  1  0.44656601  0.83524174  0.48637878  1
  Ta  Ta84  1  0.83329126  0.22254727  0.00282362  1
  Ta  Ta85  1  0.83452920  0.13036033  0.50515504  1
  Ta  Ta86  1  0.86199887  0.49092099  -0.00225903  1
  Ta  Ta87  1  0.79021236  0.49781300  0.49250983  1
  Ta  Ta88  1  0.79576001  0.84630636  -0.00297459  1
  Ta  Ta89  1  0.82620327  0.87326544  0.50931937  1
  Ta  Ta90  1  0.16454442  0.20559211  0.25415423  1
  Ta  Ta91  1  0.13114854  0.16464961  0.75058231  1
  Ta  Ta92  1  0.16254242  0.44478132  0.25508575  1
  Ta  Ta93  1  0.16996103  0.52388956  0.74611202  1
  Ta  Ta94  1  0.11084007  0.83171731  0.23930842  1
  Ta  Ta95  1  0.16067838  0.80181613  0.75580838  1
  Ta  Ta96  1  0.53142355  0.16442860  0.25724033  1
  Ta  Ta97  1  0.50574572  0.17059845  0.74827837  1
  Ta  Ta98  1  0.49952189  0.54037747  0.25004868  1
  Ta  Ta99  1  0.49640190  0.47423902  0.74698990  1
  Ta  Ta100  1  0.47235765  0.82854935  0.25625392  1
  Ta  Ta101  1  0.49563607  0.86759628  0.74371578  1
  Ta  Ta102  1  0.79752660  0.16744635  0.25226328  1
  Ta  Ta103  1  0.88101224  0.17176059  0.75041182  1
  Ta  Ta104  1  0.81032012  0.53137406  0.25096046  1
  Ta  Ta105  1  0.83810596  0.57017319  0.74667547  1
  Ta  Ta106  1  0.88035932  0.83387194  0.23695930  1
  Ta  Ta107  1  0.83793261  0.77450252  0.74491357  1
  Ta  Ta108  1  -0.00384893  -0.04523011  0.24337826  1
  Ta  Ta109  1  0.00324690  0.05535171  0.75058098  1
  Ta  Ta110  1  0.04074003  0.32652437  0.25163403  1
  Ta  Ta111  1  0.00714560  0.28473661  0.74885879  1
  Ta  Ta112  1  -0.00799188  0.69512448  0.24090625  1
  Ta  Ta113  1  -0.00470121  0.66909612  0.74671959  1
  Ta  Ta114  1  0.35814751  -0.02234071  0.24825088  1
  Ta  Ta115  1  0.40335016  0.00259614  0.74688454  1
  Ta  Ta116  1  0.28765845  0.32945774  0.24858483  1
  Ta  Ta117  1  0.37828495  0.33660968  0.75224474  1
  Ta  Ta118  1  0.36899171  0.67245208  0.24856112  1
  Ta  Ta119  1  0.30653342  0.66461639  0.75410968  1
  Ta  Ta120  1  0.66516396  0.05749984  0.25557584  1
  Ta  Ta121  1  0.60482039  0.00396521  0.74836622  1
  Ta  Ta122  1  0.66692859  0.26538860  0.25066887  1
  Ta  Ta123  1  0.62358129  0.32576550  0.74746740  1
  Ta  Ta124  1  0.66218709  0.64482166  0.24644946  1
  Ta  Ta125  1  0.70084597  0.66780802  0.75155311  1
  Ta  Ta126  1  0.04720403  0.00381231  0.00074755  1
  Ta  Ta127  1  -0.05948541  -0.00140572  0.50845685  1
  Ta  Ta128  1  -0.01755875  0.36909102  0.00710604  1
  Ta  Ta129  1  0.00167391  0.34917814  0.49744674  1
  Ta  Ta130  1  0.00351750  0.60209562  0.00246469  1
  Ta  Ta131  1  0.03650039  0.66149117  0.49444829  1
  Ta  Ta132  1  0.30134394  -0.00144431  -0.00110293  1
  Ta  Ta133  1  0.33840046  0.01591863  0.50492717  1
  Ta  Ta134  1  0.35567922  0.34836070  0.00369680  1
  Ta  Ta135  1  0.33253544  0.29181636  0.50637539  1
  Ta  Ta136  1  0.34868874  0.64279047  0.00277164  1
  Ta  Ta137  1  0.32027545  0.69342525  0.49400095  1
  Ta  Ta138  1  0.66602570  -0.04699800  -0.00064766  1
  Ta  Ta139  1  0.71347042  -0.00144253  0.51440117  1
  Ta  Ta140  1  0.67594969  0.31428132  0.00283925  1
  Ta  Ta141  1  0.67131182  0.36669015  0.50353263  1
  Ta  Ta142  1  0.66548445  0.71813383  -0.00212006  1
  Ta  Ta143  1  0.66984037  0.61707791  0.49451201  1
  N  N144  1  0.34077548  0.32244072  0.62927786  1
  N  N145  1  0.84453253  0.18290907  0.88398884  1
  N  N146  1  0.32893826  0.66892118  0.12767415  1
  N  N147  1  0.67379710  0.67887801  0.87729660  1
  N  N148  1  0.16614303  0.48818713  0.37467077  1
  N  N149  1  0.49191138  0.16673749  0.38110317  1
  N  N150  1  0.84025584  0.16718414  0.63144832  1
  N  N151  1  0.82304641  0.49951195  0.36866761  1
  N  N152  1  -0.00137784  0.65726782  0.12203722  1
  N  N153  1  0.83464642  0.17436698  0.12014632  1
  N  N154  1  0.15583907  0.83964374  0.11861968  1
  N  N155  1  0.66755968  0.67487053  0.12760802  1
  N  N156  1  0.50815245  0.49841143  0.37308090  1
  N  N157  1  0.17153034  0.15945964  0.61669366  1
  N  N158  1  0.33079557  0.66833191  0.87640218  1
  N  N159  1  0.35322601  0.00564014  0.63166456  1
  N  N160  1  0.00541613  0.66737106  0.62148676  1
  N  N161  1  0.32563819  0.32907201  0.12491982  1
  N  N162  1  0.50564812  0.83527725  0.38043753  1
  N  N163  1  0.82802200  0.82632523  0.63467300  1
  N  N164  1  0.82930002  0.16129449  0.37825932  1
  N  N165  1  0.66501891  -0.00250519  0.64056609  1
  N  N166  1  0.33037471  0.66591373  0.37475246  1
  N  N167  1  0.66192347  0.33330731  0.62896347  1
  N  N168  1  0.00236278  0.33759606  0.12454585  1
  N  N169  1  0.50033837  0.50653657  0.12439727  1
  N  N170  1  0.16591552  0.49776013  0.62713529  1
  N  N171  1  0.34006587  0.33214200  0.87362708  1
  N  N172  1  0.17346133  0.15451288  0.87123881  1
  N  N173  1  0.16457949  0.83761196  0.87294601  1
  N  N174  1  0.83534548  0.83683547  0.11822728  1
  N  N175  1  -0.00309261  0.32934775  0.37790059  1
  N  N176  1  0.14472959  0.82193279  0.37269908  1
  O  O177  1  0.33478870  0.67021824  0.62690947  1
  O  O178  1  0.49521737  0.18578147  0.13013495  1
  O  O179  1  0.83249397  0.82126085  0.86935535  1
  O  O180  1  0.49052497  0.16784257  0.62197398  1
  O  O181  1  0.00430477  0.32400151  0.62644241  1
  O  O182  1  0.50761012  0.49113889  0.62122947  1
  O  O183  1  0.51427393  0.84283992  0.87560993  1
  O  O184  1  0.67016633  0.65218434  0.61837194  1
  O  O185  1  -0.01862198  -0.01250997  0.38301080  1
  O  O186  1  -0.00746142  0.67023584  0.37466036  1
  O  O187  1  0.32827582  0.31978574  0.37107110  1
  O  O188  1  0.83476593  0.50264713  0.12316102  1
  O  O189  1  0.34939297  0.00214593  0.87600835  1
  O  O190  1  0.64273740  -0.00520146  0.87558711  1
  O  O191  1  0.66714246  0.30679305  0.12858919  1
  O  O192  1  0.18041699  0.16651304  0.37481250  1
  O  O193  1  0.34586888  -0.00200165  0.36998338  1
  O  O194  1  0.50064398  0.50325132  0.87128750  1
  O  O195  1  0.47904234  0.84400488  0.60998812  1
  O  O196  1  0.15429405  0.48285864  0.12541741  1
  O  O197  1  0.66725996  0.31453130  0.38366849  1
  O  O198  1  0.83776539  0.83905120  0.37607050  1
  O  O199  1  0.00641672  0.00379920  0.12358110  1
  O  O200  1  0.66903640  0.67373564  0.38061957  1
  O  O201  1  0.00240929  0.33064965  0.87170744  1
  O  O202  1  0.15296784  0.49468600  0.87436346  1
  O  O203  1  0.50679994  0.17979501  0.88227040  1
  O  O204  1  0.15975015  0.82496148  0.62599910  1
  O  O205  1  0.51748116  0.83989840  0.13355657  1
  O  O206  1  0.67509522  0.01997578  0.37906935  1
  O  O207  1  -0.00700024  0.01221285  0.62634630  1
  O  O208  1  0.00394993  0.63963001  0.88183576  1
  O  O209  1  0.17751653  0.16025791  0.13067217  1
  O  O210  1  0.83093686  0.52851020  0.62465586  1
  O  O211  1  0.34598131  -0.00929518  0.12064584  1
  O  O212  1  0.84762989  0.51575163  0.86755706  1
  O  O213  1  0.66696591  0.32099177  0.87160042  1
  O  O214  1  0.00449944  0.01563499  0.87655700  1
  O  O215  1  0.66300904  -0.00025598  0.13653710  1
