# generated using pymatgen
data_Sr24Ta24N11O13
_symmetry_space_group_name_H-M   'P 1'
_cell_length_a   16.89809843
_cell_length_b   16.69707749
_cell_length_c   15.71992661
_cell_angle_alpha   89.93720635
_cell_angle_beta   89.90980496
_cell_angle_gamma   89.96670920
_symmetry_Int_Tables_number   1
_chemical_formula_structural   Sr24Ta24N11O13
_chemical_formula_sum   'Sr72 Ta72 N33 O39'
_cell_volume   4435.35044996
_cell_formula_units_Z   3
loop_
 _symmetry_equiv_pos_site_id
 _symmetry_equiv_pos_as_xyz
  1  'x, y, z'
loop_
 _atom_site_type_symbol
 _atom_site_label
 _atom_site_symmetry_multiplicity
 _atom_site_fract_x
 _atom_site_fract_y
 _atom_site_fract_z
 _atom_site_occupancy
  Sr  Sr0  1  -0.00025511  0.16840305  0.15849244  1
  Sr  Sr1  1  -0.02749817  0.16931083  0.62362599  1
  Sr  Sr2  1  -0.00849296  0.49669334  0.11574718  1
  Sr  Sr3  1  -0.02721352  0.51312546  0.65241678  1
  Sr  Sr4  1  -0.01123122  0.84038309  0.12343879  1
  Sr  Sr5  1  0.00722282  0.83341900  0.58943560  1
  Sr  Sr6  1  0.29905673  0.16182434  0.10032866  1
  Sr  Sr7  1  0.32588764  0.15622821  0.59936134  1
  Sr  Sr8  1  0.32657764  0.48561040  0.15526119  1
  Sr  Sr9  1  0.32646606  0.50526349  0.61604498  1
  Sr  Sr10  1  0.34121698  0.83135079  0.11366987  1
  Sr  Sr11  1  0.31665526  0.84155403  0.67009991  1
  Sr  Sr12  1  0.66971314  0.15968680  0.11514580  1
  Sr  Sr13  1  0.63241477  0.18030696  0.66179618  1
  Sr  Sr14  1  0.65237903  0.51232921  0.09479176  1
  Sr  Sr15  1  0.65554002  0.49320495  0.61503172  1
  Sr  Sr16  1  0.66601829  0.82818431  0.15842605  1
  Sr  Sr17  1  0.66754358  0.85247787  0.61572160  1
  Sr  Sr18  1  0.16836538  -0.01645327  0.12150601  1
  Sr  Sr19  1  0.17331476  0.00676455  0.64421883  1
  Sr  Sr20  1  0.17886902  0.34353604  0.10746458  1
  Sr  Sr21  1  0.20298539  0.32941234  0.60252898  1
  Sr  Sr22  1  0.19524881  0.65115114  0.16067849  1
  Sr  Sr23  1  0.15499879  0.67197765  0.61271043  1
  Sr  Sr24  1  0.52013453  -0.01197607  0.15203566  1
  Sr  Sr25  1  0.50072537  -0.00432275  0.62211679  1
  Sr  Sr26  1  0.52936463  0.32870061  0.11372148  1
  Sr  Sr27  1  0.50859577  0.34303052  0.66321499  1
  Sr  Sr28  1  0.50124535  0.66871833  0.10349351  1
  Sr  Sr29  1  0.51308478  0.66447023  0.59451315  1
  Sr  Sr30  1  0.83336857  0.00873630  0.08914635  1
  Sr  Sr31  1  0.83857595  -0.00171819  0.62342167  1
  Sr  Sr32  1  0.85942665  0.32508537  0.15608436  1
  Sr  Sr33  1  0.83886923  0.34273672  0.60646292  1
  Sr  Sr34  1  0.84399285  0.66951948  0.11620639  1
  Sr  Sr35  1  0.82077937  0.67297280  0.67047642  1
  Sr  Sr36  1  -0.01793670  0.17369353  0.37810955  1
  Sr  Sr37  1  -0.00318958  0.15553777  0.83446905  1
  Sr  Sr38  1  -0.03214471  0.50025615  0.36337440  1
  Sr  Sr39  1  0.00054840  0.49869153  0.87965966  1
  Sr  Sr40  1  -0.00554453  0.83755685  0.37770601  1
  Sr  Sr41  1  -0.00608822  0.84087881  0.91694829  1
  Sr  Sr42  1  0.32113598  0.15500647  0.39986890  1
  Sr  Sr43  1  0.30754933  0.16436082  0.89868738  1
  Sr  Sr44  1  0.32234130  0.50278724  0.38349219  1
  Sr  Sr45  1  0.32407235  0.48503005  0.84633435  1
  Sr  Sr46  1  0.32238255  0.84591463  0.33352360  1
  Sr  Sr47  1  0.33845627  0.83376537  0.88390217  1
  Sr  Sr48  1  0.64749101  0.17838903  0.33377084  1
  Sr  Sr49  1  0.65178536  0.16287407  0.89454051  1
  Sr  Sr50  1  0.65950759  0.49616211  0.39989876  1
  Sr  Sr51  1  0.64477285  0.50200353  0.88934547  1
  Sr  Sr52  1  0.65342729  0.83899345  0.38613139  1
  Sr  Sr53  1  0.67911819  0.83743902  0.83306754  1
  Sr  Sr54  1  0.16150925  0.00567084  0.35046543  1
  Sr  Sr55  1  0.18164395  -0.01142326  0.88754896  1
  Sr  Sr56  1  0.19718906  0.33574166  0.39245688  1
  Sr  Sr57  1  0.18255158  0.33638531  0.89781779  1
  Sr  Sr58  1  0.17533457  0.65694071  0.38937982  1
  Sr  Sr59  1  0.18801870  0.65522589  0.82902366  1
  Sr  Sr60  1  0.50307381  -0.00231254  0.37642922  1
  Sr  Sr61  1  0.51613795  -0.01520951  0.84792730  1
  Sr  Sr62  1  0.50748126  0.33614591  0.33859230  1
  Sr  Sr63  1  0.51515545  0.33236932  0.87450677  1
  Sr  Sr64  1  0.50992907  0.66083330  0.39766181  1
  Sr  Sr65  1  0.49993571  0.66915366  0.90430379  1
  Sr  Sr66  1  0.83768113  -0.01250280  0.41776195  1
  Sr  Sr67  1  0.83741230  0.00475901  0.87698505  1
  Sr  Sr68  1  0.83129964  0.33024981  0.38182920  1
  Sr  Sr69  1  0.87441165  0.33199061  0.84071484  1
  Sr  Sr70  1  0.83100813  0.68592910  0.33082150  1
  Sr  Sr71  1  0.83609966  0.66296461  0.88443707  1
  Ta  Ta72  1  0.11769056  0.16271994  -0.00613128  1
  Ta  Ta73  1  0.13358723  0.16080492  0.50375206  1
  Ta  Ta74  1  0.17420466  0.53170823  -0.00618699  1
  Ta  Ta75  1  0.11401115  0.48859962  0.50405582  1
  Ta  Ta76  1  0.17089542  0.77588398  -0.00533053  1
  Ta  Ta77  1  0.19377618  0.84825351  0.50478701  1
  Ta  Ta78  1  0.47858587  0.15111314  0.00545574  1
  Ta  Ta79  1  0.51389987  0.19105883  0.49758844  1
  Ta  Ta80  1  0.45264304  0.49200734  -0.00438392  1
  Ta  Ta81  1  0.49249151  0.46352592  0.50014046  1
  Ta  Ta82  1  0.53108442  0.84667205  -0.00085173  1
  Ta  Ta83  1  0.45368666  0.83668975  0.49721127  1
  Ta  Ta84  1  0.86164252  0.18944816  -0.00144513  1
  Ta  Ta85  1  0.77301338  0.17264333  0.50521923  1
  Ta  Ta86  1  0.82477064  0.46672513  -0.00340377  1
  Ta  Ta87  1  0.82665436  0.55933261  0.50011981  1
  Ta  Ta88  1  0.79631212  0.83466077  -0.00127511  1
  Ta  Ta89  1  0.83227387  0.78751108  0.50815899  1
  Ta  Ta90  1  0.17485622  0.19245081  0.25614632  1
  Ta  Ta91  1  0.17754645  0.18870765  0.74816727  1
  Ta  Ta92  1  0.13656209  0.48496862  0.25961956  1
  Ta  Ta93  1  0.15097991  0.46918761  0.74519056  1
  Ta  Ta94  1  0.14382422  0.81305073  0.24938668  1
  Ta  Ta95  1  0.12661907  0.83428698  0.75524378  1
  Ta  Ta96  1  0.45420837  0.16310297  0.24111394  1
  Ta  Ta97  1  0.45304172  0.16054070  0.75467060  1
  Ta  Ta98  1  0.51051577  0.52182613  0.24694485  1
  Ta  Ta99  1  0.49729023  0.53746150  0.75353242  1
  Ta  Ta100  1  0.49612582  0.79975091  0.25166693  1
  Ta  Ta101  1  0.50066181  0.79394896  0.75014474  1
  Ta  Ta102  1  0.82747658  0.12189364  0.25713385  1
  Ta  Ta103  1  0.79962377  0.17076037  0.74613709  1
  Ta  Ta104  1  0.78760908  0.50123462  0.24618638  1
  Ta  Ta105  1  0.79235402  0.49199875  0.75344895  1
  Ta  Ta106  1  0.83146411  0.87765456  0.24557473  1
  Ta  Ta107  1  0.87445391  0.84147381  0.75306784  1
  Ta  Ta108  1  -0.03717076  -0.00011247  0.25164253  1
  Ta  Ta109  1  0.00346139  -0.03601776  0.75187852  1
  Ta  Ta110  1  0.04677957  0.34128686  0.25448717  1
  Ta  Ta111  1  0.05320013  0.33130245  0.74505413  1
  Ta  Ta112  1  0.02648403  0.67025662  0.25158311  1
  Ta  Ta113  1  0.00235019  0.70838147  0.75091767  1
  Ta  Ta114  1  0.34314490  0.03293081  0.24041113  1
  Ta  Ta115  1  0.34376851  0.03104037  0.75623075  1
  Ta  Ta116  1  0.33614895  0.29194047  0.25311035  1
  Ta  Ta117  1  0.33468737  0.29783592  0.74886122  1
  Ta  Ta118  1  0.37382307  0.66315239  0.25408992  1
  Ta  Ta119  1  0.37650471  0.66459354  0.74554168  1
  Ta  Ta120  1  0.70851730  0.00227594  0.24949063  1
  Ta  Ta121  1  0.69032331  0.02303888  0.74901837  1
  Ta  Ta122  1  0.68351604  0.36805297  0.24215692  1
  Ta  Ta123  1  0.70085537  0.34250323  0.76292870  1
  Ta  Ta124  1  0.64783109  0.64378132  0.25252046  1
  Ta  Ta125  1  0.63647064  0.65416979  0.75478920  1
  Ta  Ta126  1  0.00451258  0.03792542  0.00539124  1
  Ta  Ta127  1  0.02851405  0.01275238  0.49681293  1
  Ta  Ta128  1  0.00023222  0.30294700  -0.00608124  1
  Ta  Ta129  1  0.02859153  0.33839974  0.50812546  1
  Ta  Ta130  1  0.05061555  0.66200146  -0.00351897  1
  Ta  Ta131  1  -0.03593252  0.65593258  0.50625383  1
  Ta  Ta132  1  0.38182593  0.00279666  0.00101617  1
  Ta  Ta133  1  0.32535281  -0.03680679  0.50519333  1
  Ta  Ta134  1  0.36337056  0.34034536  -0.00173703  1
  Ta  Ta135  1  0.38733948  0.33271376  0.50030615  1
  Ta  Ta136  1  0.31857990  0.63957455  0.00357105  1
  Ta  Ta137  1  0.33476691  0.71682590  0.49490971  1
  Ta  Ta138  1  0.66071003  -0.03354098  -0.00128182  1
  Ta  Ta139  1  0.65919987  0.05362887  0.50356571  1
  Ta  Ta140  1  0.72912708  0.33192656  -0.01082846  1
  Ta  Ta141  1  0.63941608  0.30581281  0.50178098  1
  Ta  Ta142  1  0.67307709  0.71193348  -0.00514168  1
  Ta  Ta143  1  0.70285650  0.67193368  0.49808890  1
  N  N144  1  0.33784415  -0.00566655  0.12247816  1
  N  N145  1  -0.00207721  0.00786864  0.12673668  1
  N  N146  1  0.35366064  0.32865983  0.62646717  1
  N  N147  1  0.50570418  0.82673318  0.86929288  1
  N  N148  1  0.66763193  0.66738732  0.37154661  1
  N  N149  1  0.16468953  0.16957758  0.37556539  1
  N  N150  1  0.02165837  0.32696095  0.87331193  1
  N  N151  1  0.14983851  0.50169146  0.38459265  1
  N  N152  1  0.17058203  0.16676617  0.62262922  1
  N  N153  1  0.33536927  0.67406813  0.37796560  1
  N  N154  1  0.34445425  -0.00690667  0.87626582  1
  N  N155  1  0.49453953  0.83490547  0.37634787  1
  N  N156  1  0.81729792  0.18154213  0.62243373  1
  N  N157  1  0.66552929  0.67078068  0.87559583  1
  N  N158  1  0.48714478  0.50322337  0.87549876  1
  N  N159  1  0.50411354  0.82781315  0.12545499  1
  N  N160  1  0.34973108  0.32359315  0.37415364  1
  N  N161  1  0.16531875  0.83488345  0.62455858  1
  N  N162  1  0.67459615  -0.00079985  0.12654507  1
  N  N163  1  0.34214213  0.65643945  0.12459625  1
  N  N164  1  0.65887669  0.01266201  0.62305782  1
  N  N165  1  0.67130349  0.00200581  0.87461493  1
  N  N166  1  0.16757471  0.81881554  0.87610464  1
  N  N167  1  0.83103944  0.84134039  0.12654377  1
  N  N168  1  0.34372336  0.32821222  0.87810703  1
  N  N169  1  0.83646793  0.83089631  0.62299301  1
  N  N170  1  0.15347674  0.16113813  0.87532651  1
  N  N171  1  0.33149132  -0.00479839  0.62563116  1
  N  N172  1  0.00128335  0.00071777  0.37850724  1
  N  N173  1  0.16436694  0.49826970  0.87125782  1
  N  N174  1  0.83706899  0.83591335  0.87276271  1
  N  N175  1  -0.00773871  0.67137280  0.62880911  1
  N  N176  1  0.66812864  0.32674133  0.88270266  1
  O  O177  1  0.15694192  0.50007662  0.12070776  1
  O  O178  1  0.68810937  0.33906833  0.11737821  1
  O  O179  1  0.66383341  0.66016186  0.62454547  1
  O  O180  1  0.50353581  0.49237435  0.36936174  1
  O  O181  1  0.02344408  0.66154275  0.87086091  1
  O  O182  1  0.49736146  0.49414418  0.62786258  1
  O  O183  1  0.34372993  0.65919178  0.86923732  1
  O  O184  1  0.84514301  0.17521558  0.87274092  1
  O  O185  1  0.33034707  -0.00042181  0.36703735  1
  O  O186  1  0.66497950  0.34043769  0.36721321  1
  O  O187  1  0.82479418  0.49751856  0.87707495  1
  O  O188  1  0.02277098  0.33343278  0.12570944  1
  O  O189  1  0.33206577  0.32922979  0.12862872  1
  O  O190  1  0.83777411  0.83402360  0.38204536  1
  O  O191  1  0.81935000  0.49454924  0.12243096  1
  O  O192  1  0.35677546  0.66952297  0.61771565  1
  O  O193  1  0.49644212  0.82798226  0.62064014  1
  O  O194  1  0.15947170  0.83155868  0.37326695  1
  O  O195  1  0.00027671  -0.00524844  0.87702132  1
  O  O196  1  0.66298843  0.66937503  0.11896273  1
  O  O197  1  0.66104617  0.33417114  0.62851945  1
  O  O198  1  0.84439291  0.16908617  0.12632182  1
  O  O199  1  -0.00642301  0.32672540  0.63000447  1
  O  O200  1  0.49592460  0.17598086  0.36956212  1
  O  O201  1  0.02358838  0.33077729  0.38029746  1
  O  O202  1  0.81123996  0.52348049  0.37039259  1
  O  O203  1  0.51195586  0.16430723  0.12899580  1
  O  O204  1  -0.00083190  0.66367331  0.37414514  1
  O  O205  1  0.15134022  0.16910099  0.12684231  1
  O  O206  1  0.02757325  0.65872650  0.12613436  1
  O  O207  1  0.81826471  0.16540350  0.37836547  1
  O  O208  1  0.48705299  0.17205360  0.62260783  1
  O  O209  1  0.65788522  0.02235957  0.37549805  1
  O  O210  1  0.48552211  0.16391266  0.88170623  1
  O  O211  1  0.13444891  0.52094345  0.62947494  1
  O  O212  1  0.16250255  0.81431652  0.12394936  1
  O  O213  1  0.00605146  -0.01059060  0.62754681  1
  O  O214  1  0.80845901  0.51590745  0.62841746  1
  O  O215  1  0.49624813  0.50799769  0.11999565  1
