# generated using pymatgen
data_Sr24Ta24N11O13
_symmetry_space_group_name_H-M   'P 1'
_cell_length_a   16.64873989
_cell_length_b   17.24446510
_cell_length_c   15.49947393
_cell_angle_alpha   89.21075195
_cell_angle_beta   90.38705962
_cell_angle_gamma   89.73556651
_symmetry_Int_Tables_number   1
_chemical_formula_structural   Sr24Ta24N11O13
_chemical_formula_sum   'Sr72 Ta72 N33 O39'
_cell_volume   4449.30445194
_cell_formula_units_Z   3
loop_
 _symmetry_equiv_pos_site_id
 _symmetry_equiv_pos_as_xyz
  1  'x, y, z'
loop_
 _atom_site_type_symbol
 _atom_site_label
 _atom_site_symmetry_multiplicity
 _atom_site_fract_x
 _atom_site_fract_y
 _atom_site_fract_z
 _atom_site_occupancy
  Sr  Sr0  1  -0.01185751  0.12163801  0.14569377  1
  Sr  Sr1  1  -0.02903858  0.18012042  0.62447578  1
  Sr  Sr2  1  0.01061736  0.45515653  0.17886604  1
  Sr  Sr3  1  -0.02613454  0.49373198  0.59846780  1
  Sr  Sr4  1  0.00477840  0.85564646  0.12406336  1
  Sr  Sr5  1  0.01594504  0.72403491  0.69473392  1
  Sr  Sr6  1  0.33892749  0.15236122  0.12983367  1
  Sr  Sr7  1  0.34132444  0.15644483  0.63889670  1
  Sr  Sr8  1  0.33348745  0.50085371  0.07922758  1
  Sr  Sr9  1  0.34307712  0.49276619  0.63762957  1
  Sr  Sr10  1  0.35435819  0.83443456  0.17345655  1
  Sr  Sr11  1  0.33341215  0.82199118  0.61502757  1
  Sr  Sr12  1  0.69355767  0.15521845  0.11859613  1
  Sr  Sr13  1  0.65077226  0.19553429  0.55882544  1
  Sr  Sr14  1  0.68617589  0.45278941  0.14025478  1
  Sr  Sr15  1  0.67855575  0.48310609  0.65725230  1
  Sr  Sr16  1  0.64537970  0.81015301  0.03944139  1
  Sr  Sr17  1  0.67290090  0.80835787  0.61901533  1
  Sr  Sr18  1  0.15179499  0.00997324  0.09141017  1
  Sr  Sr19  1  0.14495703  0.06160710  0.65448258  1
  Sr  Sr20  1  0.16837381  0.32258887  0.14104899  1
  Sr  Sr21  1  0.15086747  0.37359660  0.60402327  1
  Sr  Sr22  1  0.16633602  0.69770810  0.12948394  1
  Sr  Sr23  1  0.19300452  0.64303364  0.67776935  1
  Sr  Sr24  1  0.51925760  0.01326010  0.09489279  1
  Sr  Sr25  1  0.50611999  -0.03765010  0.67362404  1
  Sr  Sr26  1  0.49429086  0.33782621  0.15050439  1
  Sr  Sr27  1  0.49476796  0.33743031  0.61030823  1
  Sr  Sr28  1  0.50328145  0.66183621  0.13685303  1
  Sr  Sr29  1  0.49107828  0.66925235  0.57667959  1
  Sr  Sr30  1  0.83948515  -0.00071572  0.14464076  1
  Sr  Sr31  1  0.80377525  0.03346037  0.57403296  1
  Sr  Sr32  1  0.84104349  0.31771898  0.10646555  1
  Sr  Sr33  1  0.83724675  0.35776859  0.63613159  1
  Sr  Sr34  1  0.84012888  0.72005434  0.09030393  1
  Sr  Sr35  1  0.82232778  0.63281193  0.64363392  1
  Sr  Sr36  1  0.01347720  0.12653038  0.41636182  1
  Sr  Sr37  1  -0.00014457  0.14963224  0.83010295  1
  Sr  Sr38  1  -0.01211168  0.51200194  0.38352808  1
  Sr  Sr39  1  -0.00614624  0.42574687  0.97092122  1
  Sr  Sr40  1  -0.00522786  0.82730222  0.35156318  1
  Sr  Sr41  1  0.02072928  0.82270133  0.90168733  1
  Sr  Sr42  1  0.33555824  0.17137900  0.35387309  1
  Sr  Sr43  1  0.33691407  0.14741802  0.87102443  1
  Sr  Sr44  1  0.34553006  0.49378337  0.42447771  1
  Sr  Sr45  1  0.31072131  0.51141584  0.86774216  1
  Sr  Sr46  1  0.33453087  0.82032350  0.38462732  1
  Sr  Sr47  1  0.33665667  0.82806825  0.83632405  1
  Sr  Sr48  1  0.69238860  0.11683611  0.36552263  1
  Sr  Sr49  1  0.66831734  0.17755133  0.90115912  1
  Sr  Sr50  1  0.63862849  0.52550593  0.31098208  1
  Sr  Sr51  1  0.70154134  0.47794414  0.86670484  1
  Sr  Sr52  1  0.69515972  0.84321516  0.40917023  1
  Sr  Sr53  1  0.65912532  0.87343851  0.83181013  1
  Sr  Sr54  1  0.20780143  -0.01769287  0.46584304  1
  Sr  Sr55  1  0.14839374  0.00877538  0.87693783  1
  Sr  Sr56  1  0.15719176  0.36471524  0.37091207  1
  Sr  Sr57  1  0.16561299  0.36524555  0.90923593  1
  Sr  Sr58  1  0.16128784  0.68380082  0.34130016  1
  Sr  Sr59  1  0.18386403  0.69026300  0.87857210  1
  Sr  Sr60  1  0.47174075  -0.00803014  0.30959163  1
  Sr  Sr61  1  0.50707354  0.02422068  0.88070964  1
  Sr  Sr62  1  0.50154765  0.33247266  0.38101057  1
  Sr  Sr63  1  0.48453649  0.35720639  0.84510307  1
  Sr  Sr64  1  0.50425849  0.68520799  0.36434174  1
  Sr  Sr65  1  0.50949256  0.66291497  0.92270025  1
  Sr  Sr66  1  0.87194064  -0.01514880  0.36905185  1
  Sr  Sr67  1  0.82812246  0.01408958  0.79361619  1
  Sr  Sr68  1  0.83651906  0.39097012  0.32105504  1
  Sr  Sr69  1  0.83690097  0.31607311  0.87739724  1
  Sr  Sr70  1  0.83933870  0.69037199  0.39482982  1
  Sr  Sr71  1  0.82286022  0.67529573  0.86996382  1
  Ta  Ta72  1  0.17046864  0.18790482  -0.00047912  1
  Ta  Ta73  1  0.17824825  0.21077162  0.50018581  1
  Ta  Ta74  1  0.13822618  0.54163805  0.01333264  1
  Ta  Ta75  1  0.15717286  0.55183416  0.49719852  1
  Ta  Ta76  1  0.21796202  0.84523365  0.00033189  1
  Ta  Ta77  1  0.14548469  0.79759946  0.52373603  1
  Ta  Ta78  1  0.49529299  0.21031058  -0.00519824  1
  Ta  Ta79  1  0.48237234  0.13776044  0.49591783  1
  Ta  Ta80  1  0.53265282  0.48221036  0.00932838  1
  Ta  Ta81  1  0.55970205  0.50513248  0.49511305  1
  Ta  Ta82  1  0.45014984  0.84123728  -0.00017486  1
  Ta  Ta83  1  0.50605724  0.85865025  0.48297334  1
  Ta  Ta84  1  0.85297548  0.13174204  -0.03834898  1
  Ta  Ta85  1  0.82787638  0.23509891  0.47351299  1
  Ta  Ta86  1  0.84243003  0.52385140  0.03174529  1
  Ta  Ta87  1  0.76624096  0.51148283  0.46417769  1
  Ta  Ta88  1  0.82665569  0.88539421  -0.02984259  1
  Ta  Ta89  1  0.90726483  0.83413269  0.55283700  1
  Ta  Ta90  1  0.15765849  0.14677286  0.25350999  1
  Ta  Ta91  1  0.17026367  0.23193850  0.75977265  1
  Ta  Ta92  1  0.21885953  0.51355553  0.25804108  1
  Ta  Ta93  1  0.09762551  0.48866444  0.76284157  1
  Ta  Ta94  1  0.17347903  0.86721975  0.25357066  1
  Ta  Ta95  1  0.16259341  0.86551302  0.73803519  1
  Ta  Ta96  1  0.53238791  0.17173602  0.24340475  1
  Ta  Ta97  1  0.52710180  0.18073375  0.74212002  1
  Ta  Ta98  1  0.44463860  0.50079081  0.24952747  1
  Ta  Ta99  1  0.50817785  0.54320081  0.75341000  1
  Ta  Ta100  1  0.56218299  0.83686051  0.23524270  1
  Ta  Ta101  1  0.50785641  0.77317462  0.75002517  1
  Ta  Ta102  1  0.84810617  0.20212941  0.29224350  1
  Ta  Ta103  1  0.78295684  0.18682709  0.72465814  1
  Ta  Ta104  1  0.83144471  0.56560310  0.22200054  1
  Ta  Ta105  1  0.90617431  0.49338772  0.80665196  1
  Ta  Ta106  1  0.75026019  0.84533643  0.21270339  1
  Ta  Ta107  1  0.85430810  0.83760381  0.73418104  1
  Ta  Ta108  1  0.09331224  -0.00390800  0.29523668  1
  Ta  Ta109  1  -0.00688355  -0.06159657  0.72085812  1
  Ta  Ta110  1  -0.00233180  0.27893089  0.26526906  1
  Ta  Ta111  1  0.01415426  0.34163413  0.75941956  1
  Ta  Ta112  1  -0.01885395  0.65164349  0.23413709  1
  Ta  Ta113  1  0.02253841  0.59336924  0.87285907  1
  Ta  Ta114  1  0.27026623  0.00094860  0.25990283  1
  Ta  Ta115  1  0.31461101  -0.01519116  0.74144282  1
  Ta  Ta116  1  0.33019720  0.37532963  0.24992981  1
  Ta  Ta117  1  0.30250450  0.32349223  0.75597613  1
  Ta  Ta118  1  0.33757936  0.63088130  0.26087608  1
  Ta  Ta119  1  0.38512127  0.65949772  0.74881125  1
  Ta  Ta120  1  0.65816568  -0.02743747  0.23369300  1
  Ta  Ta121  1  0.65494558  0.07325252  0.73014425  1
  Ta  Ta122  1  0.67423049  0.28825850  0.26477413  1
  Ta  Ta123  1  0.65578637  0.29381482  0.73860162  1
  Ta  Ta124  1  0.68748217  0.70208044  0.24403745  1
  Ta  Ta125  1  0.63086384  0.65725982  0.76078642  1
  Ta  Ta126  1  -0.05644248  0.00062053  -0.04316487  1
  Ta  Ta127  1  0.02667405  -0.05952515  0.53471687  1
  Ta  Ta128  1  0.00833332  0.25179573  0.00580589  1
  Ta  Ta129  1  -0.01300046  0.31721076  0.47743086  1
  Ta  Ta130  1  -0.00690585  0.62303932  0.04571303  1
  Ta  Ta131  1  0.02569424  0.67957948  0.48948278  1
  Ta  Ta132  1  0.32996606  -0.03185571  0.00374096  1
  Ta  Ta133  1  0.40394458  -0.00871929  0.49875540  1
  Ta  Ta134  1  0.34106314  0.30977029  0.00409379  1
  Ta  Ta135  1  0.31520604  0.30747055  0.50097464  1
  Ta  Ta136  1  0.33562182  0.70520786  0.00838860  1
  Ta  Ta137  1  0.29193440  0.65945814  0.50252578  1
  Ta  Ta138  1  0.71662008  0.01066173  -0.02766367  1
  Ta  Ta139  1  0.58754611  0.00223671  0.49031519  1
  Ta  Ta140  1  0.62831646  0.33336100  -0.00127678  1
  Ta  Ta141  1  0.68400558  0.37311923  0.46961001  1
  Ta  Ta142  1  0.68153158  0.60843845  0.01121712  1
  Ta  Ta143  1  0.66793815  0.63368669  0.48986424  1
  N  N144  1  0.34096150  0.66414174  0.38679453  1
  N  N145  1  0.49254433  0.18184614  0.61174412  1
  N  N146  1  0.32755006  0.33765422  0.12339586  1
  N  N147  1  0.85087450  0.46732879  0.91756621  1
  N  N148  1  0.17199614  0.78820223  0.65062863  1
  N  N149  1  0.80054986  0.85828242  0.09040790  1
  N  N150  1  0.17421982  0.16451796  0.12584684  1
  N  N151  1  0.34258236  0.65539329  0.62454798  1
  N  N152  1  0.17603460  0.84910402  0.12470845  1
  N  N153  1  -0.00545886  -0.01650178  0.83632949  1
  N  N154  1  0.81514881  0.19747503  0.58980994  1
  N  N155  1  0.51384906  0.16489149  0.12116391  1
  N  N156  1  0.00679162  0.71145462  0.13107005  1
  N  N157  1  0.65913076  0.37256226  0.34205084  1
  N  N158  1  0.51371565  0.83721752  0.35586658  1
  N  N159  1  -0.00450825  0.33682274  0.60363581  1
  N  N160  1  0.49684083  0.17827999  0.87248595  1
  N  N161  1  0.48967481  0.49983823  0.12340650  1
  N  N162  1  0.00135805  0.30033485  0.87910068  1
  N  N163  1  0.13154945  0.52198201  0.88208537  1
  N  N164  1  0.00183368  0.36349634  0.34954805  1
  N  N165  1  -0.00140076  0.28918836  0.12704460  1
  N  N166  1  0.03996077  -0.02346544  0.41628216  1
  N  N167  1  0.84849120  0.46726175  0.14485186  1
  N  N168  1  0.17636147  0.84657876  0.87140142  1
  N  N169  1  0.81235521  0.53453126  0.34095498  1
  N  N170  1  0.66947257  0.63753954  0.88862289  1
  N  N171  1  0.50532398  0.83323727  0.11187297  1
  N  N172  1  0.83753039  0.16788150  0.83661291  1
  N  N173  1  -0.00076861  0.67473791  0.36511689  1
  N  N174  1  0.66760242  0.02558837  0.85570679  1
  N  N175  1  0.66888769  0.68161974  0.36992865  1
  N  N176  1  0.16788287  0.51743685  0.37778553  1
  O  O177  1  0.51330952  0.81599191  0.62402486  1
  O  O178  1  0.33938740  0.68308565  0.13606704  1
  O  O179  1  0.33118763  0.31849770  0.63132843  1
  O  O180  1  0.49406586  0.81351585  0.87339993  1
  O  O181  1  0.67020548  0.65944619  0.63349272  1
  O  O182  1  -0.03180931  0.68770110  0.93621557  1
  O  O183  1  0.32795329  0.32764489  0.37163484  1
  O  O184  1  0.34212474  0.67709242  0.88093089  1
  O  O185  1  0.17791415  0.18868843  0.37670332  1
  O  O186  1  0.82093143  0.49437531  0.71882638  1
  O  O187  1  0.64027315  0.02904252  0.60694991  1
  O  O188  1  0.66083730  0.31058569  0.12672646  1
  O  O189  1  0.82197510  0.77743282  0.62589784  1
  O  O190  1  0.65508359  0.67005827  0.11402830  1
  O  O191  1  0.12433922  0.51600178  0.63277432  1
  O  O192  1  0.85422453  0.84822677  0.44057421  1
  O  O193  1  0.65896562  0.33830598  0.61336343  1
  O  O194  1  0.33271738  -0.00333356  0.37695735  1
  O  O195  1  0.15615565  0.20915613  0.62786365  1
  O  O196  1  0.50034258  0.49621097  0.37934456  1
  O  O197  1  0.62914508  -0.01301838  0.36717197  1
  O  O198  1  0.00200489  0.02866602  0.62027285  1
  O  O199  1  0.64266665  0.33114287  0.86717079  1
  O  O200  1  0.48921578  0.17592404  0.36747627  1
  O  O201  1  0.32264776  0.35844256  0.87914573  1
  O  O202  1  0.32425650  -0.01102859  0.86848273  1
  O  O203  1  0.82981397  0.12981908  0.20250043  1
  O  O204  1  0.50175248  0.51387079  0.88170119  1
  O  O205  1  0.35169816  -0.01714985  0.61821416  1
  O  O206  1  0.00603072  -0.00732767  0.06094017  1
  O  O207  1  0.17391391  0.16346598  0.86587529  1
  O  O208  1  0.52452697  0.51915847  0.62214268  1
  O  O209  1  0.67723568  0.00857891  0.10016586  1
  O  O210  1  0.80982766  0.82891195  0.84923768  1
  O  O211  1  -0.04658082  0.63494060  0.57449908  1
  O  O212  1  0.17644346  0.82552119  0.39565119  1
  O  O213  1  0.84641467  0.13132199  0.40303320  1
  O  O214  1  0.30981066  -0.00560258  0.13076515  1
  O  O215  1  0.17650075  0.52187966  0.13470123  1
