# generated using pymatgen
data_Sr24Ta24N11O13
_symmetry_space_group_name_H-M   'P 1'
_cell_length_a   16.66958021
_cell_length_b   16.84092762
_cell_length_c   15.67412053
_cell_angle_alpha   89.99287711
_cell_angle_beta   89.88189421
_cell_angle_gamma   89.43082979
_symmetry_Int_Tables_number   1
_chemical_formula_structural   Sr24Ta24N11O13
_chemical_formula_sum   'Sr72 Ta72 N33 O39'
_cell_volume   4399.98808547
_cell_formula_units_Z   3
loop_
 _symmetry_equiv_pos_site_id
 _symmetry_equiv_pos_as_xyz
  1  'x, y, z'
loop_
 _atom_site_type_symbol
 _atom_site_label
 _atom_site_symmetry_multiplicity
 _atom_site_fract_x
 _atom_site_fract_y
 _atom_site_fract_z
 _atom_site_occupancy
  Sr  Sr0  1  0.00890282  0.19441672  0.12984570  1
  Sr  Sr1  1  -0.00023193  0.16731551  0.66724373  1
  Sr  Sr2  1  0.00052555  0.50348238  0.08854697  1
  Sr  Sr3  1  0.00352903  0.51050451  0.62150123  1
  Sr  Sr4  1  -0.00328587  0.82531939  0.13412491  1
  Sr  Sr5  1  0.00208614  0.87515969  0.58712868  1
  Sr  Sr6  1  0.33387580  0.17636023  0.13768381  1
  Sr  Sr7  1  0.33799798  0.18875141  0.60249206  1
  Sr  Sr8  1  0.31506046  0.51437119  0.16957170  1
  Sr  Sr9  1  0.35389649  0.50744277  0.62473521  1
  Sr  Sr10  1  0.34723773  0.83711049  0.08778289  1
  Sr  Sr11  1  0.32162773  0.84553357  0.63863368  1
  Sr  Sr12  1  0.66406558  0.16565798  0.11688659  1
  Sr  Sr13  1  0.67547918  0.17548457  0.58247673  1
  Sr  Sr14  1  0.66540213  0.50269828  0.11546910  1
  Sr  Sr15  1  0.66727728  0.47082808  0.67770171  1
  Sr  Sr16  1  0.65608154  0.84535692  0.17067797  1
  Sr  Sr17  1  0.67283079  0.83090632  0.61491339  1
  Sr  Sr18  1  0.17112763  -0.03856147  0.09769730  1
  Sr  Sr19  1  0.17353505  0.00032460  0.62865073  1
  Sr  Sr20  1  0.17306659  0.33113701  0.13253223  1
  Sr  Sr21  1  0.15674835  0.32643651  0.59965645  1
  Sr  Sr22  1  0.16373007  0.66286899  0.15445484  1
  Sr  Sr23  1  0.16547338  0.65137235  0.64238010  1
  Sr  Sr24  1  0.49429004  -0.00615939  0.13574490  1
  Sr  Sr25  1  0.49709154  -0.01476655  0.65962852  1
  Sr  Sr26  1  0.50820138  0.31632950  0.07546631  1
  Sr  Sr27  1  0.49379496  0.33767269  0.63333593  1
  Sr  Sr28  1  0.50145621  0.66159560  0.13600058  1
  Sr  Sr29  1  0.48994692  0.68064930  0.57516429  1
  Sr  Sr30  1  0.83948069  -0.02174976  0.12881248  1
  Sr  Sr31  1  0.82097620  -0.00641203  0.61305288  1
  Sr  Sr32  1  0.81908801  0.32831501  0.16877892  1
  Sr  Sr33  1  0.83718471  0.32655971  0.62056940  1
  Sr  Sr34  1  0.84479100  0.64992695  0.08596137  1
  Sr  Sr35  1  0.82301233  0.66398487  0.63771958  1
  Sr  Sr36  1  0.00009923  0.18614252  0.33429929  1
  Sr  Sr37  1  0.00613045  0.17500273  0.86968764  1
  Sr  Sr38  1  -0.01229222  0.49530887  0.41866125  1
  Sr  Sr39  1  0.00668521  0.51928197  0.87176405  1
  Sr  Sr40  1  0.00867668  0.83704782  0.35465087  1
  Sr  Sr41  1  -0.01625917  0.85200801  0.92341680  1
  Sr  Sr42  1  0.32979673  0.16776645  0.37131747  1
  Sr  Sr43  1  0.34555702  0.20654875  0.89598526  1
  Sr  Sr44  1  0.36149773  0.51429139  0.37565880  1
  Sr  Sr45  1  0.33081497  0.51087385  0.84440257  1
  Sr  Sr46  1  0.33110912  0.83768193  0.41204601  1
  Sr  Sr47  1  0.33265185  0.84107231  0.86896685  1
  Sr  Sr48  1  0.67016117  0.18058322  0.38115779  1
  Sr  Sr49  1  0.65850210  0.15580002  0.91055322  1
  Sr  Sr50  1  0.67410375  0.49553713  0.33296398  1
  Sr  Sr51  1  0.65406957  0.51834730  0.89540153  1
  Sr  Sr52  1  0.66351724  0.82905072  0.38300694  1
  Sr  Sr53  1  0.67788372  0.85670326  0.82705496  1
  Sr  Sr54  1  0.17217530  -0.01979496  0.40883228  1
  Sr  Sr55  1  0.16614320  -0.01150120  0.86839544  1
  Sr  Sr56  1  0.17586691  0.32414762  0.35687792  1
  Sr  Sr57  1  0.15102991  0.32827688  0.91141772  1
  Sr  Sr58  1  0.15628646  0.65694758  0.36178790  1
  Sr  Sr59  1  0.18048222  0.65910899  0.84319900  1
  Sr  Sr60  1  0.49600380  0.00600320  0.34124527  1
  Sr  Sr61  1  0.49613559  -0.01521253  0.86632029  1
  Sr  Sr62  1  0.49603234  0.31552003  0.41548313  1
  Sr  Sr63  1  0.49649657  0.35922553  0.85761864  1
  Sr  Sr64  1  0.51041435  0.66667249  0.36460024  1
  Sr  Sr65  1  0.48643430  0.67583859  0.91549533  1
  Sr  Sr66  1  0.83428500  -0.02083024  0.37952738  1
  Sr  Sr67  1  0.83226994  0.00503269  0.88769999  1
  Sr  Sr68  1  0.82898252  0.33261807  0.37817687  1
  Sr  Sr69  1  0.83466967  0.32540168  0.83776530  1
  Sr  Sr70  1  0.83856822  0.65057860  0.40370723  1
  Sr  Sr71  1  0.82520589  0.66973093  0.86617172  1
  Ta  Ta72  1  0.17292650  0.13905630  0.00342870  1
  Ta  Ta73  1  0.12903119  0.16158379  0.49670285  1
  Ta  Ta74  1  0.18644246  0.52047373  0.00145322  1
  Ta  Ta75  1  0.19227724  0.49941645  0.49570134  1
  Ta  Ta76  1  0.16727671  0.78597446  -0.00422807  1
  Ta  Ta77  1  0.15897446  0.79357128  0.50528217  1
  Ta  Ta78  1  0.48657258  0.12734100  0.00360127  1
  Ta  Ta79  1  0.50100296  0.12529713  0.50064746  1
  Ta  Ta80  1  0.45512347  0.50468854  0.00321764  1
  Ta  Ta81  1  0.54718403  0.49810521  0.50575351  1
  Ta  Ta82  1  0.54705100  0.83924325  -0.00490510  1
  Ta  Ta83  1  0.49854244  0.87276452  0.50032141  1
  Ta  Ta84  1  0.84519216  0.18993171  0.00038017  1
  Ta  Ta85  1  0.87928646  0.16211448  0.49887555  1
  Ta  Ta86  1  0.82854927  0.45307684  -0.00053984  1
  Ta  Ta87  1  0.78799167  0.49084096  0.50142919  1
  Ta  Ta88  1  0.78823876  0.83126311  -0.00032556  1
  Ta  Ta89  1  0.85071681  0.81247869  0.50275400  1
  Ta  Ta90  1  0.16644586  0.10325757  0.24609655  1
  Ta  Ta91  1  0.19360836  0.18060811  0.75131300  1
  Ta  Ta92  1  0.11103401  0.49430284  0.25350983  1
  Ta  Ta93  1  0.16256724  0.45541624  0.74865980  1
  Ta  Ta94  1  0.20081938  0.83724156  0.25795575  1
  Ta  Ta95  1  0.11578365  0.83216295  0.74619310  1
  Ta  Ta96  1  0.50725975  0.19161674  0.25124814  1
  Ta  Ta97  1  0.51886743  0.16439839  0.74161723  1
  Ta  Ta98  1  0.50329454  0.45175657  0.24337996  1
  Ta  Ta99  1  0.50416084  0.55466479  0.74980291  1
  Ta  Ta100  1  0.45835384  0.83176646  0.25784222  1
  Ta  Ta101  1  0.50237906  0.79240787  0.74702266  1
  Ta  Ta102  1  0.82300013  0.13995148  0.24969085  1
  Ta  Ta103  1  0.79599007  0.15747479  0.74849380  1
  Ta  Ta104  1  0.86123234  0.51494167  0.25338171  1
  Ta  Ta105  1  0.85384741  0.49228153  0.74916681  1
  Ta  Ta106  1  0.83188897  0.77961978  0.24406677  1
  Ta  Ta107  1  0.87473703  0.83789208  0.75148156  1
  Ta  Ta108  1  0.02355302  0.01357326  0.23690326  1
  Ta  Ta109  1  -0.00581647  -0.02263509  0.76006579  1
  Ta  Ta110  1  -0.00318777  0.38005510  0.24786700  1
  Ta  Ta111  1  0.01730556  0.35676900  0.74645232  1
  Ta  Ta112  1  -0.02144440  0.63798980  0.25605337  1
  Ta  Ta113  1  -0.00516535  0.71650659  0.74549071  1
  Ta  Ta114  1  0.31126059  -0.01975557  0.25412571  1
  Ta  Ta115  1  0.32781855  0.05680879  0.75066082  1
  Ta  Ta116  1  0.37998199  0.33881303  0.24469814  1
  Ta  Ta117  1  0.29112629  0.33472012  0.75380902  1
  Ta  Ta118  1  0.33439448  0.70983337  0.25616400  1
  Ta  Ta119  1  0.37361596  0.67749417  0.74199152  1
  Ta  Ta120  1  0.67825442  0.02883247  0.25637677  1
  Ta  Ta121  1  0.66626122  0.05082979  0.74060607  1
  Ta  Ta122  1  0.62530217  0.32757231  0.24546906  1
  Ta  Ta123  1  0.66352502  0.26945598  0.75101261  1
  Ta  Ta124  1  0.70721948  0.66611759  0.24621372  1
  Ta  Ta125  1  0.62122464  0.67012559  0.74829018  1
  Ta  Ta126  1  0.00784055  0.03980806  0.01082163  1
  Ta  Ta127  1  0.00008944  0.05208172  0.49569981  1
  Ta  Ta128  1  -0.05150322  0.33218647  0.00359700  1
  Ta  Ta129  1  -0.00280202  0.28922047  0.50081747  1
  Ta  Ta130  1  0.04228915  0.67494792  -0.00406230  1
  Ta  Ta131  1  0.00570849  0.69577374  0.50235004  1
  Ta  Ta132  1  0.33319659  0.02968871  0.00049937  1
  Ta  Ta133  1  0.36572461  0.00839021  0.50347293  1
  Ta  Ta134  1  0.32704288  0.38865596  0.00552710  1
  Ta  Ta135  1  0.31730550  0.36393922  0.49178062  1
  Ta  Ta136  1  0.30766257  0.64634452  0.00938670  1
  Ta  Ta137  1  0.29933689  0.66353729  0.49852428  1
  Ta  Ta138  1  0.65727360  -0.02761394  0.00719199  1
  Ta  Ta139  1  0.63080026  -0.00040627  0.49786175  1
  Ta  Ta140  1  0.71237742  0.33087418  0.00084664  1
  Ta  Ta141  1  0.66646058  0.37095991  0.49526105  1
  Ta  Ta142  1  0.66577247  0.71655299  -0.00084652  1
  Ta  Ta143  1  0.66908250  0.61373603  0.50471411  1
  N  N144  1  0.66240831  0.33852066  0.37178460  1
  N  N145  1  0.00281394  -0.02170365  0.11533676  1
  N  N146  1  0.33269182  0.67319248  0.62577144  1
  N  N147  1  0.50056445  0.17656605  0.61889494  1
  N  N148  1  0.33138494  0.00076968  0.11966420  1
  N  N149  1  0.33888786  0.34216390  0.37235527  1
  N  N150  1  0.83494557  0.83364545  0.62316904  1
  N  N151  1  0.32934593  0.67028375  0.12859262  1
  N  N152  1  0.33145619  0.00314631  0.37795703  1
  N  N153  1  0.66984956  -0.00995635  0.37304089  1
  N  N154  1  0.49908277  0.83265384  0.61873676  1
  N  N155  1  -0.00159786  0.32845167  0.62494331  1
  N  N156  1  0.66334566  -0.00522231  0.12831285  1
  N  N157  1  0.66465844  0.00460732  0.62592722  1
  N  N158  1  0.50239756  0.15914169  0.12175949  1
  N  N159  1  0.83094238  0.49401762  0.37700034  1
  N  N160  1  0.83102981  0.81823102  0.12352322  1
  N  N161  1  -0.01257662  0.34659505  0.12478412  1
  N  N162  1  0.66763721  0.32950867  0.11838391  1
  N  N163  1  0.33526229  0.34414483  0.12212691  1
  N  N164  1  -0.00438234  0.00641628  0.88259803  1
  N  N165  1  0.50167738  0.83357707  0.37149975  1
  N  N166  1  0.16654870  0.82632627  0.37680088  1
  N  N167  1  0.16025340  0.83306757  0.63098650  1
  N  N168  1  0.33251132  0.01990487  0.63349448  1
  N  N169  1  0.50909689  0.83231651  0.87521374  1
  N  N170  1  0.33736627  0.66894840  0.37693280  1
  N  N171  1  0.51335200  0.50806844  0.62570008  1
  N  N172  1  -0.00183744  0.66387470  0.37981163  1
  N  N173  1  0.82968959  0.83623945  0.87345393  1
  N  N174  1  0.49899905  0.16463609  0.37651489  1
  N  N175  1  0.31990479  0.35358135  0.87360858  1
  N  N176  1  0.49106010  0.51782451  0.88493215  1
  O  O177  1  0.33360354  0.66971381  0.87045882  1
  O  O178  1  0.01846501  0.67508698  0.86975042  1
  O  O179  1  -0.00944202  0.66324998  0.63075323  1
  O  O180  1  0.00988570  0.66160851  0.12074205  1
  O  O181  1  0.83757545  0.15222104  0.37662073  1
  O  O182  1  0.65969056  0.00673442  0.86752598  1
  O  O183  1  -0.00864322  0.33178072  0.87358860  1
  O  O184  1  0.68228476  0.64850695  0.37168472  1
  O  O185  1  0.17234890  0.16805896  0.88145588  1
  O  O186  1  0.83394398  0.16670348  0.12927262  1
  O  O187  1  0.17546841  0.14927143  0.13264254  1
  O  O188  1  0.84127544  0.17025272  0.87264458  1
  O  O189  1  0.16935250  0.81206839  0.86858290  1
  O  O190  1  0.00214775  0.02397354  0.36612838  1
  O  O191  1  0.32900328  0.34389172  0.62390812  1
  O  O192  1  0.32921151  -0.00141429  0.86379575  1
  O  O193  1  0.17838457  0.49499586  0.62569055  1
  O  O194  1  0.84248032  0.48910206  0.87318429  1
  O  O195  1  -0.00825203  0.33447701  0.37963154  1
  O  O196  1  0.66242628  0.32173014  0.63027539  1
  O  O197  1  0.15810117  0.17051733  0.62161782  1
  O  O198  1  0.50868962  0.50341255  0.12345533  1
  O  O199  1  -0.00205976  0.01907749  0.63482245  1
  O  O200  1  0.15745086  0.50850828  0.12800858  1
  O  O201  1  0.83820684  0.48943374  0.62349344  1
  O  O202  1  0.50169959  0.15533634  0.87971221  1
  O  O203  1  0.15832488  0.49691062  0.37475499  1
  O  O204  1  0.66319763  0.65965020  0.62441735  1
  O  O205  1  0.17043583  0.50503577  0.87169369  1
  O  O206  1  0.51541106  0.49018536  0.36704264  1
  O  O207  1  0.66198964  0.67452870  0.87463396  1
  O  O208  1  0.83267554  0.49401010  0.12614639  1
  O  O209  1  0.17529914  0.81240108  0.12379280  1
  O  O210  1  0.67744138  0.30608785  0.87359141  1
  O  O211  1  0.84154023  0.16452333  0.62751723  1
  O  O212  1  0.68046712  0.66715617  0.11960591  1
  O  O213  1  0.50074026  0.83565057  0.13147693  1
  O  O214  1  0.84360850  0.81814085  0.36782675  1
  O  O215  1  0.15472129  0.15007855  0.36993443  1
