# generated using pymatgen
data_Sr24Ta24N11O13
_symmetry_space_group_name_H-M   'P 1'
_cell_length_a   16.87937070
_cell_length_b   16.83197335
_cell_length_c   15.68200764
_cell_angle_alpha   90.41304708
_cell_angle_beta   89.84284204
_cell_angle_gamma   89.98851269
_symmetry_Int_Tables_number   1
_chemical_formula_structural   Sr24Ta24N11O13
_chemical_formula_sum   'Sr72 Ta72 N33 O39'
_cell_volume   4455.33144099
_cell_formula_units_Z   3
loop_
 _symmetry_equiv_pos_site_id
 _symmetry_equiv_pos_as_xyz
  1  'x, y, z'
loop_
 _atom_site_type_symbol
 _atom_site_label
 _atom_site_symmetry_multiplicity
 _atom_site_fract_x
 _atom_site_fract_y
 _atom_site_fract_z
 _atom_site_occupancy
  Sr  Sr0  1  -0.01506794  0.14946018  0.09371210  1
  Sr  Sr1  1  0.00165095  0.16136119  0.65633537  1
  Sr  Sr2  1  0.00484080  0.49786521  0.13091720  1
  Sr  Sr3  1  -0.00577823  0.46787921  0.58470495  1
  Sr  Sr4  1  -0.03115995  0.82895666  0.15759079  1
  Sr  Sr5  1  -0.00746049  0.82114247  0.60535270  1
  Sr  Sr6  1  0.32598741  0.18332331  0.14082917  1
  Sr  Sr7  1  0.32397173  0.15178425  0.57139317  1
  Sr  Sr8  1  0.35394145  0.50426150  0.08315997  1
  Sr  Sr9  1  0.32866211  0.48787718  0.63947392  1
  Sr  Sr10  1  0.30388897  0.84149943  0.12301065  1
  Sr  Sr11  1  0.32135110  0.84238582  0.66737894  1
  Sr  Sr12  1  0.65608580  0.15856287  0.13291083  1
  Sr  Sr13  1  0.65382785  0.15291600  0.61788551  1
  Sr  Sr14  1  0.65799845  0.48928051  0.16563245  1
  Sr  Sr15  1  0.67423592  0.49717109  0.62090644  1
  Sr  Sr16  1  0.65472173  0.82246542  0.09858912  1
  Sr  Sr17  1  0.64389755  0.83076334  0.63578851  1
  Sr  Sr18  1  0.18414881  0.02325198  0.10533187  1
  Sr  Sr19  1  0.17670614  0.00669428  0.62827116  1
  Sr  Sr20  1  0.16704036  0.33988597  0.16947190  1
  Sr  Sr21  1  0.17710071  0.33394205  0.61053205  1
  Sr  Sr22  1  0.16585025  0.65860366  0.12425946  1
  Sr  Sr23  1  0.17213304  0.68036585  0.64808887  1
  Sr  Sr24  1  0.53288447  -0.00874780  0.08624793  1
  Sr  Sr25  1  0.50618649  -0.00625990  0.63369547  1
  Sr  Sr26  1  0.49822188  0.32650597  0.11734536  1
  Sr  Sr27  1  0.51176824  0.34217773  0.66588708  1
  Sr  Sr28  1  0.50729338  0.66890833  0.13941599  1
  Sr  Sr29  1  0.50542245  0.65323167  0.58180892  1
  Sr  Sr30  1  0.84169023  0.01590894  0.14925864  1
  Sr  Sr31  1  0.85874123  0.02048601  0.60166237  1
  Sr  Sr32  1  0.85158525  0.35091219  0.11584359  1
  Sr  Sr33  1  0.82774876  0.34910799  0.61779887  1
  Sr  Sr34  1  0.83539536  0.67776581  0.09921452  1
  Sr  Sr35  1  0.82749082  0.68517054  0.65795458  1
  Sr  Sr36  1  -0.02614951  0.14054807  0.37079111  1
  Sr  Sr37  1  0.00814673  0.17167618  0.87072854  1
  Sr  Sr38  1  0.01867645  0.47928789  0.35847769  1
  Sr  Sr39  1  -0.01685150  0.50536462  0.92203118  1
  Sr  Sr40  1  -0.00928537  0.83982941  0.38448790  1
  Sr  Sr41  1  -0.02161675  0.80448611  0.84395234  1
  Sr  Sr42  1  0.32789407  0.18657333  0.35814201  1
  Sr  Sr43  1  0.32070849  0.16936128  0.90445439  1
  Sr  Sr44  1  0.33852523  0.51472321  0.42355022  1
  Sr  Sr45  1  0.33872673  0.48878790  0.86554434  1
  Sr  Sr46  1  0.32601251  0.81853532  0.33339247  1
  Sr  Sr47  1  0.30157726  0.84467583  0.87511477  1
  Sr  Sr48  1  0.66589597  0.15182727  0.37660959  1
  Sr  Sr49  1  0.63742905  0.16023545  0.87620435  1
  Sr  Sr50  1  0.66557638  0.49715371  0.38095836  1
  Sr  Sr51  1  0.67763715  0.48272434  0.83434479  1
  Sr  Sr52  1  0.63123473  0.82591889  0.38804472  1
  Sr  Sr53  1  0.66228373  0.83322072  0.87423523  1
  Sr  Sr54  1  0.20114840  0.01221790  0.36428785  1
  Sr  Sr55  1  0.16605132  0.01834500  0.88322134  1
  Sr  Sr56  1  0.18214227  0.34221227  0.39160020  1
  Sr  Sr57  1  0.16936932  0.33349984  0.83401126  1
  Sr  Sr58  1  0.16183708  0.68319330  0.35834817  1
  Sr  Sr59  1  0.17511435  0.65179601  0.87744128  1
  Sr  Sr60  1  0.50774296  0.00601773  0.41885177  1
  Sr  Sr61  1  0.51801170  -0.01243334  0.85327095  1
  Sr  Sr62  1  0.51306131  0.32091505  0.33612114  1
  Sr  Sr63  1  0.49806878  0.32905931  0.88339651  1
  Sr  Sr64  1  0.50971927  0.65681541  0.36950355  1
  Sr  Sr65  1  0.50932121  0.66483366  0.91180592  1
  Sr  Sr66  1  0.83074798  0.00300231  0.36469626  1
  Sr  Sr67  1  0.86021907  0.02746734  0.88026064  1
  Sr  Sr68  1  0.83579501  0.36620103  0.38816389  1
  Sr  Sr69  1  0.84808569  0.33820730  0.88442528  1
  Sr  Sr70  1  0.85198499  0.69156909  0.38179502  1
  Sr  Sr71  1  0.82451239  0.66563569  0.87409112  1
  Ta  Ta72  1  0.16546070  0.22029944  0.00427524  1
  Ta  Ta73  1  0.13021112  0.16448567  0.49176429  1
  Ta  Ta74  1  0.16919472  0.46103497  0.00017801  1
  Ta  Ta75  1  0.15792025  0.53869574  0.50227253  1
  Ta  Ta76  1  0.12288216  0.82503770  0.00108519  1
  Ta  Ta77  1  0.18942543  0.84417662  0.49381343  1
  Ta  Ta78  1  0.47678115  0.14481743  -0.00397943  1
  Ta  Ta79  1  0.49949363  0.20632207  0.50388104  1
  Ta  Ta80  1  0.54674033  0.49527743  0.00267041  1
  Ta  Ta81  1  0.50767189  0.45661632  0.49893604  1
  Ta  Ta82  1  0.45781009  0.83338954  -0.00866894  1
  Ta  Ta83  1  0.45115146  0.82778951  0.50758082  1
  Ta  Ta84  1  0.79909446  0.17930934  0.00223018  1
  Ta  Ta85  1  0.83204474  0.19404853  0.49662314  1
  Ta  Ta86  1  0.78938796  0.50144231  0.00066805  1
  Ta  Ta87  1  0.83938268  0.54954981  0.50774340  1
  Ta  Ta88  1  0.83857380  0.86460697  0.00024050  1
  Ta  Ta89  1  0.79605601  0.84090711  0.49632292  1
  Ta  Ta90  1  0.12472817  0.16794514  0.25731741  1
  Ta  Ta91  1  0.20500354  0.16560868  0.73779217  1
  Ta  Ta92  1  0.21608655  0.50988548  0.25691961  1
  Ta  Ta93  1  0.11138779  0.49635575  0.74836570  1
  Ta  Ta94  1  0.14031768  0.86028703  0.24746494  1
  Ta  Ta95  1  0.13446215  0.85323337  0.74980625  1
  Ta  Ta96  1  0.49685071  0.10982374  0.25221720  1
  Ta  Ta97  1  0.45289904  0.16372594  0.74295708  1
  Ta  Ta98  1  0.46646308  0.49790489  0.25416797  1
  Ta  Ta99  1  0.50049455  0.53621805  0.74539286  1
  Ta  Ta100  1  0.49651735  0.87624959  0.24612619  1
  Ta  Ta101  1  0.48991904  0.78791457  0.75449079  1
  Ta  Ta102  1  0.82951250  0.20418487  0.25187805  1
  Ta  Ta103  1  0.80972352  0.17515513  0.74810413  1
  Ta  Ta104  1  0.83595739  0.53899647  0.24621790  1
  Ta  Ta105  1  0.87122428  0.49993878  0.75265234  1
  Ta  Ta106  1  0.78378129  0.82792229  0.25667855  1
  Ta  Ta107  1  0.83086399  0.87932724  0.74369190  1
  Ta  Ta108  1  0.03818412  0.00048367  0.23769618  1
  Ta  Ta109  1  0.00870083  -0.02662839  0.75641884  1
  Ta  Ta110  1  -0.00717712  0.29245054  0.25167354  1
  Ta  Ta111  1  -0.00364714  0.36626329  0.75430860  1
  Ta  Ta112  1  -0.01667043  0.65274540  0.24576724  1
  Ta  Ta113  1  0.00272618  0.62023559  0.75271212  1
  Ta  Ta114  1  0.37892951  -0.00309202  0.24754996  1
  Ta  Ta115  1  0.33464384  0.04484802  0.74754894  1
  Ta  Ta116  1  0.33869400  0.38873695  0.25884614  1
  Ta  Ta117  1  0.33693059  0.28555488  0.73754317  1
  Ta  Ta118  1  0.33581842  0.62242752  0.25207490  1
  Ta  Ta119  1  0.37993032  0.66387893  0.75137301  1
  Ta  Ta120  1  0.64992614  -0.02236422  0.25063175  1
  Ta  Ta121  1  0.70877505  0.00327862  0.74966268  1
  Ta  Ta122  1  0.69743106  0.31662282  0.25431408  1
  Ta  Ta123  1  0.69054899  0.30348332  0.75097248  1
  Ta  Ta124  1  0.69856767  0.67263402  0.25284633  1
  Ta  Ta125  1  0.62283078  0.65953689  0.74778318  1
  Ta  Ta126  1  0.00337772  -0.05250023  -0.00248356  1
  Ta  Ta127  1  0.03812082  0.00819842  0.49740356  1
  Ta  Ta128  1  0.04514954  0.33154369  -0.00117099  1
  Ta  Ta129  1  -0.00437804  0.28634271  0.50227041  1
  Ta  Ta130  1  0.00848652  0.69599873  -0.00127731  1
  Ta  Ta131  1  0.01005951  0.63927503  0.50421374  1
  Ta  Ta132  1  0.36507914  -0.00091488  -0.00454226  1
  Ta  Ta133  1  0.33085776  -0.05571160  0.50097182  1
  Ta  Ta134  1  0.29009409  0.33507932  0.00030384  1
  Ta  Ta135  1  0.38065234  0.33254380  0.49987005  1
  Ta  Ta136  1  0.34416075  0.68707181  0.00107566  1
  Ta  Ta137  1  0.31993015  0.70557646  0.50426422  1
  Ta  Ta138  1  0.70984510  0.00343091  -0.00257784  1
  Ta  Ta139  1  0.68933718  -0.02017711  0.50531883  1
  Ta  Ta140  1  0.67639705  0.34650954  -0.00156341  1
  Ta  Ta141  1  0.64279207  0.32227039  0.50249780  1
  Ta  Ta142  1  0.66882332  0.61732838  -0.00042208  1
  Ta  Ta143  1  0.70046185  0.67280006  0.50722045  1
  N  N144  1  0.83001521  0.50986562  0.12696284  1
  N  N145  1  0.66386945  0.33024563  0.87697406  1
  N  N146  1  0.17296328  0.17659651  0.36917592  1
  N  N147  1  0.82234827  0.16179161  0.37426386  1
  N  N148  1  -0.00145829  0.65497472  0.87585292  1
  N  N149  1  0.16875934  0.17036155  0.61830180  1
  N  N150  1  0.49960416  0.49867247  0.62630779  1
  N  N151  1  0.67958893  -0.00345605  0.12631404  1
  N  N152  1  0.66357581  -0.00118354  0.63243330  1
  N  N153  1  0.82898365  0.84406900  0.36947449  1
  N  N154  1  0.01068604  -0.00221194  0.11369883  1
  N  N155  1  0.49462406  0.16204489  0.61747689  1
  N  N156  1  0.82991926  0.50439365  0.87517264  1
  N  N157  1  0.00805642  0.33599156  0.87651310  1
  N  N158  1  -0.00096473  0.66094736  0.12354318  1
  N  N159  1  0.01135532  -0.00004678  0.87927993  1
  N  N160  1  0.50575637  0.49496625  0.37586079  1
  N  N161  1  0.48446958  0.16345485  0.87577543  1
  N  N162  1  0.50644716  0.49521770  0.12045151  1
  N  N163  1  0.33597239  0.33022742  0.62256750  1
  N  N164  1  0.82741823  0.17518391  0.12057589  1
  N  N165  1  0.67292007  0.33419842  0.37518175  1
  N  N166  1  0.34021512  0.34399019  0.37512406  1
  N  N167  1  0.16471555  0.84052318  0.37037638  1
  N  N168  1  0.48451402  0.82485334  0.62736893  1
  N  N169  1  0.83644435  0.51208443  0.62584926  1
  N  N170  1  0.66899153  0.33005438  0.62964727  1
  N  N171  1  0.66367719  0.66847415  0.62597605  1
  N  N172  1  0.17755200  0.51311503  0.38256004  1
  N  N173  1  0.67341871  -0.00300911  0.87729006  1
  N  N174  1  0.66644357  -0.00575726  0.38049394  1
  N  N175  1  0.50285749  0.83253330  0.87743469  1
  N  N176  1  0.82950579  0.17124643  0.62704496  1
  O  O177  1  0.15544247  0.49739831  0.62511865  1
  O  O178  1  0.66456226  0.64182827  0.86839960  1
  O  O179  1  0.00488400  0.31810039  0.12715276  1
  O  O180  1  -0.00156690  0.31576338  0.62948315  1
  O  O181  1  0.15510743  0.48617726  0.87407667  1
  O  O182  1  0.32683456  0.68766161  0.63306560  1
  O  O183  1  0.33235668  -0.00538752  0.62367599  1
  O  O184  1  0.34346319  0.66806683  0.12699830  1
  O  O185  1  0.31854903  0.32767392  0.87166305  1
  O  O186  1  0.33944903  0.00137369  0.86798340  1
  O  O187  1  0.16654173  0.18317275  0.13316201  1
  O  O188  1  0.01179113  0.66831571  0.62813558  1
  O  O189  1  0.00696794  0.65009945  0.37856447  1
  O  O190  1  0.32420339  0.67288071  0.38014638  1
  O  O191  1  0.49894974  0.49515872  0.88058254  1
  O  O192  1  0.17945461  0.48898019  0.12498039  1
  O  O193  1  0.49732512  0.14713871  0.13043629  1
  O  O194  1  0.81591059  0.84434685  0.12504012  1
  O  O195  1  -0.00740307  0.31225870  0.37794068  1
  O  O196  1  0.16616764  0.17892096  0.86595395  1
  O  O197  1  0.02419599  -0.00677269  0.37437657  1
  O  O198  1  0.84085280  0.85216545  0.61732451  1
  O  O199  1  0.83622276  0.51934091  0.38198530  1
  O  O200  1  0.14884594  0.81807967  0.12800357  1
  O  O201  1  0.15197633  0.83850500  0.62307786  1
  O  O202  1  0.67322885  0.66713198  0.37696380  1
  O  O203  1  0.34771523  -0.00189894  0.11980538  1
  O  O204  1  0.34203531  0.66006320  0.87795068  1
  O  O205  1  0.31845739  0.34479849  0.12709289  1
  O  O206  1  0.83265614  0.86014528  0.86742192  1
  O  O207  1  0.35187278  -0.01967066  0.37974982  1
  O  O208  1  0.14448838  0.82963696  0.87196493  1
  O  O209  1  0.48252687  0.85055442  0.37129570  1
  O  O210  1  0.49860853  0.84539697  0.11983397  1
  O  O211  1  0.65819129  0.33202484  0.13486580  1
  O  O212  1  0.85069068  0.18052451  0.88244349  1
  O  O213  1  0.01785891  0.00102079  0.62327726  1
  O  O214  1  0.49845884  0.15528054  0.37490764  1
  O  O215  1  0.67665881  0.65473557  0.12878454  1
