# generated using pymatgen
data_Sr24Ta24N11O13
_symmetry_space_group_name_H-M   'P 1'
_cell_length_a   18.20179690
_cell_length_b   16.61941128
_cell_length_c   14.68650403
_cell_angle_alpha   90.12764110
_cell_angle_beta   92.21423458
_cell_angle_gamma   88.73950324
_symmetry_Int_Tables_number   1
_chemical_formula_structural   Sr24Ta24N11O13
_chemical_formula_sum   'Sr72 Ta72 N33 O39'
_cell_volume   4438.31805921
_cell_formula_units_Z   3
loop_
 _symmetry_equiv_pos_site_id
 _symmetry_equiv_pos_as_xyz
  1  'x, y, z'
loop_
 _atom_site_type_symbol
 _atom_site_label
 _atom_site_symmetry_multiplicity
 _atom_site_fract_x
 _atom_site_fract_y
 _atom_site_fract_z
 _atom_site_occupancy
  Sr  Sr0  1  -0.01069429  0.16058007  0.10242718  1
  Sr  Sr1  1  -0.06069190  0.13894395  0.57249134  1
  Sr  Sr2  1  -0.04699997  0.50270325  0.08218564  1
  Sr  Sr3  1  -0.00472186  0.48459314  0.65621583  1
  Sr  Sr4  1  -0.01989664  0.81845894  0.13387432  1
  Sr  Sr5  1  -0.00422539  0.82467981  0.59951281  1
  Sr  Sr6  1  0.33155469  0.15736911  0.15730703  1
  Sr  Sr7  1  0.33904175  0.17150802  0.61615429  1
  Sr  Sr8  1  0.32762073  0.50354324  0.13292699  1
  Sr  Sr9  1  0.30300319  0.50299313  0.58757322  1
  Sr  Sr10  1  0.27534749  0.83002644  0.08858741  1
  Sr  Sr11  1  0.31679706  0.82158690  0.64842192  1
  Sr  Sr12  1  0.61589060  0.17364460  0.07455690  1
  Sr  Sr13  1  0.64748868  0.15755180  0.64027979  1
  Sr  Sr14  1  0.66552136  0.48458288  0.15444961  1
  Sr  Sr15  1  0.62954846  0.48555370  0.60080277  1
  Sr  Sr16  1  0.66714614  0.82827981  0.10787981  1
  Sr  Sr17  1  0.61216723  0.83011576  0.60322882  1
  Sr  Sr18  1  0.17595586  0.02697266  0.10055906  1
  Sr  Sr19  1  0.21168961  0.01371603  0.64647057  1
  Sr  Sr20  1  0.23198470  0.33572437  0.21487366  1
  Sr  Sr21  1  0.19450703  0.33068838  0.63623932  1
  Sr  Sr22  1  0.16055923  0.65146820  0.13471421  1
  Sr  Sr23  1  0.18350464  0.68182700  0.61491517  1
  Sr  Sr24  1  0.51936144  0.01460891  0.15190766  1
  Sr  Sr25  1  0.50319701  0.02774866  0.60899877  1
  Sr  Sr26  1  0.51035290  0.35606904  0.10509581  1
  Sr  Sr27  1  0.51713023  0.31969078  0.64530347  1
  Sr  Sr28  1  0.55335888  0.67805607  0.15822923  1
  Sr  Sr29  1  0.49884676  0.66516458  0.63292644  1
  Sr  Sr30  1  0.88324777  -0.00126171  0.15032394  1
  Sr  Sr31  1  0.84998914  -0.00762418  0.64816570  1
  Sr  Sr32  1  0.83573766  0.34108518  0.14444697  1
  Sr  Sr33  1  0.81913187  0.34959660  0.59413465  1
  Sr  Sr34  1  0.84158798  0.68155294  0.09709306  1
  Sr  Sr35  1  0.89153861  0.66890438  0.67218788  1
  Sr  Sr36  1  -0.04555848  0.15551999  0.34488851  1
  Sr  Sr37  1  0.02575645  0.15782241  0.87700482  1
  Sr  Sr38  1  -0.02829495  0.46861213  0.39383617  1
  Sr  Sr39  1  0.01484312  0.49299192  0.87860062  1
  Sr  Sr40  1  -0.00913072  0.83515573  0.37246737  1
  Sr  Sr41  1  -0.05460199  0.83408273  0.81934187  1
  Sr  Sr42  1  0.33655197  0.15294195  0.38219680  1
  Sr  Sr43  1  0.28390870  0.18535422  0.85346330  1
  Sr  Sr44  1  0.27694346  0.51561073  0.34981743  1
  Sr  Sr45  1  0.33339013  0.49540563  0.91833852  1
  Sr  Sr46  1  0.29380504  0.82165135  0.35373726  1
  Sr  Sr47  1  0.32690296  0.82233918  0.87027549  1
  Sr  Sr48  1  0.62993382  0.11879019  0.36557672  1
  Sr  Sr49  1  0.66467379  0.16181301  0.85966087  1
  Sr  Sr50  1  0.68713938  0.50800228  0.38407213  1
  Sr  Sr51  1  0.61816627  0.49488543  0.84349825  1
  Sr  Sr52  1  0.64808894  0.84391974  0.36193061  1
  Sr  Sr53  1  0.65431548  0.80929916  0.88208542  1
  Sr  Sr54  1  0.20602261  0.01286239  0.35242104  1
  Sr  Sr55  1  0.17719658  0.01430426  0.87391499  1
  Sr  Sr56  1  0.18880697  0.33124193  0.41627789  1
  Sr  Sr57  1  0.13863866  0.32773752  0.84984454  1
  Sr  Sr58  1  0.15365783  0.67282631  0.36815334  1
  Sr  Sr59  1  0.21421303  0.66087953  0.92446014  1
  Sr  Sr60  1  0.49055720  -0.00726433  0.37972356  1
  Sr  Sr61  1  0.55697086  -0.01001945  0.92276465  1
  Sr  Sr62  1  0.55323843  0.38913585  0.35724802  1
  Sr  Sr63  1  0.50392218  0.32416304  0.88223307  1
  Sr  Sr64  1  0.54660411  0.68299496  0.39699103  1
  Sr  Sr65  1  0.50915469  0.68332684  0.85977816  1
  Sr  Sr66  1  0.85872811  -0.00949882  0.39648535  1
  Sr  Sr67  1  0.85637298  0.03287682  0.86718624  1
  Sr  Sr68  1  0.83389980  0.32372993  0.37120301  1
  Sr  Sr69  1  0.88888875  0.32445416  0.91013695  1
  Sr  Sr70  1  0.86984677  0.68711843  0.39797956  1
  Sr  Sr71  1  0.83534032  0.66567750  0.88135921  1
  Ta  Ta72  1  0.17010877  0.24078478  0.05410263  1
  Ta  Ta73  1  0.13039205  0.15466964  0.48287155  1
  Ta  Ta74  1  0.17149888  0.44032561  0.03283924  1
  Ta  Ta75  1  0.12493906  0.50285739  0.49906011  1
  Ta  Ta76  1  0.10567767  0.82628197  -0.03940217  1
  Ta  Ta77  1  0.16005500  0.87402230  0.50667811  1
  Ta  Ta78  1  0.44054432  0.16259477  -0.00312275  1
  Ta  Ta79  1  0.49522951  0.23368835  0.44502611  1
  Ta  Ta80  1  0.50359701  0.53974235  0.01739965  1
  Ta  Ta81  1  0.45222582  0.51234273  0.47110807  1
  Ta  Ta82  1  0.46506466  0.83702568  0.02246834  1
  Ta  Ta83  1  0.44237412  0.82636587  0.49801313  1
  Ta  Ta84  1  0.79569109  0.16674070  0.02574928  1
  Ta  Ta85  1  0.77250931  0.15956982  0.49172423  1
  Ta  Ta86  1  0.78133394  0.48771709  -0.02492440  1
  Ta  Ta87  1  0.82519390  0.54154441  0.52949469  1
  Ta  Ta88  1  0.82514098  0.86701411  -0.01144282  1
  Ta  Ta89  1  0.79805026  0.82958475  0.52248482  1
  Ta  Ta90  1  0.12650923  0.17861677  0.26455181  1
  Ta  Ta91  1  0.10096015  0.16903670  0.67547605  1
  Ta  Ta92  1  0.10186834  0.47491042  0.23295247  1
  Ta  Ta93  1  0.19201515  0.51802233  0.76670849  1
  Ta  Ta94  1  0.13729386  0.85159782  0.23632651  1
  Ta  Ta95  1  0.13089529  0.84050086  0.76068915  1
  Ta  Ta96  1  0.50055287  0.21190764  0.25101538  1
  Ta  Ta97  1  0.47301593  0.13527088  0.80617513  1
  Ta  Ta98  1  0.46270381  0.53320993  0.27209198  1
  Ta  Ta99  1  0.44687252  0.49852092  0.74752323  1
  Ta  Ta100  1  0.45145638  0.82904404  0.23162801  1
  Ta  Ta101  1  0.48475367  0.87157700  0.75943377  1
  Ta  Ta102  1  0.77357411  0.15252980  0.22744840  1
  Ta  Ta103  1  0.82770510  0.20532563  0.74742737  1
  Ta  Ta104  1  0.83578936  0.53864624  0.25090161  1
  Ta  Ta105  1  0.79439157  0.48519949  0.77489133  1
  Ta  Ta106  1  0.80888413  0.83296518  0.25490694  1
  Ta  Ta107  1  0.77488849  0.82069229  0.72472280  1
  Ta  Ta108  1  0.04831138  0.00048341  0.25257220  1
  Ta  Ta109  1  0.03602112  -0.00100795  0.70976068  1
  Ta  Ta110  1  0.03519138  0.31696441  0.26396858  1
  Ta  Ta111  1  -0.02025657  0.28669104  0.70411121  1
  Ta  Ta112  1  -0.00923486  0.62650582  0.23753185  1
  Ta  Ta113  1  0.06485023  0.67268317  0.78042722  1
  Ta  Ta114  1  0.35345611  -0.03544969  0.22630302  1
  Ta  Ta115  1  0.37578035  0.00157753  0.76722361  1
  Ta  Ta116  1  0.40043014  0.35104442  0.27801208  1
  Ta  Ta117  1  0.34877384  0.36876255  0.75061566  1
  Ta  Ta118  1  0.37065367  0.67971392  0.22436222  1
  Ta  Ta119  1  0.33683189  0.62776602  0.75932359  1
  Ta  Ta120  1  0.71658623  -0.00351189  0.22789471  1
  Ta  Ta121  1  0.68306438  -0.02937266  0.74349612  1
  Ta  Ta122  1  0.67050153  0.28678700  0.24906273  1
  Ta  Ta123  1  0.70722689  0.33946062  0.75209114  1
  Ta  Ta124  1  0.72526617  0.67091451  0.25444727  1
  Ta  Ta125  1  0.70058316  0.64993959  0.73070814  1
  Ta  Ta126  1  0.01141495  -0.03720276  -0.01747190  1
  Ta  Ta127  1  0.05555178  0.00307116  0.49101406  1
  Ta  Ta128  1  0.06322257  0.34729115  0.08189254  1
  Ta  Ta129  1  0.03264201  0.29409708  0.51482047  1
  Ta  Ta130  1  0.01691232  0.68349342  -0.02693206  1
  Ta  Ta131  1  0.02332480  0.63352762  0.51435205  1
  Ta  Ta132  1  0.37203246  0.00121841  -0.00954991  1
  Ta  Ta133  1  0.34115443  -0.03570787  0.50021832  1
  Ta  Ta134  1  0.31983779  0.31812481  0.02125291  1
  Ta  Ta135  1  0.38088871  0.34701281  0.47564953  1
  Ta  Ta136  1  0.39134190  0.67390614  0.02553119  1
  Ta  Ta137  1  0.35844424  0.67159056  0.48049843  1
  Ta  Ta138  1  0.72820890  0.01251984  0.02312951  1
  Ta  Ta139  1  0.70347920  -0.01167437  0.51544883  1
  Ta  Ta140  1  0.69848680  0.34083083  -0.01207835  1
  Ta  Ta141  1  0.66504637  0.29247991  0.48328106  1
  Ta  Ta142  1  0.67191776  0.62392417  -0.00736452  1
  Ta  Ta143  1  0.72124610  0.67106289  0.53212376  1
  N  N144  1  0.19351349  0.17292598  0.16585504  1
  N  N145  1  0.03287897  0.65766710  0.64431082  1
  N  N146  1  -0.00397830  -0.00066056  0.36618019  1
  N  N147  1  0.66921358  0.33151621  0.11273928  1
  N  N148  1  0.85983182  0.82842360  0.64593191  1
  N  N149  1  0.80824176  0.82198290  0.86613451  1
  N  N150  1  0.16988957  0.83982277  0.63847272  1
  N  N151  1  0.69151417  0.34498385  0.36567802  1
  N  N152  1  0.80614092  0.16418883  0.62665749  1
  N  N153  1  0.19179487  0.17036250  0.59383445  1
  N  N154  1  0.01859114  -0.00059980  0.10863844  1
  N  N155  1  0.31624653  -0.00318630  0.09787832  1
  N  N156  1  0.69022110  0.66246384  0.12235304  1
  N  N157  1  0.83381794  0.83731384  0.39769947  1
  N  N158  1  0.48005206  0.14298822  0.35484037  1
  N  N159  1  0.64312844  -0.00153450  0.62251613  1
  N  N160  1  0.35335427  0.66218060  0.88531910  1
  N  N161  1  0.13574819  0.48744582  0.36803229  1
  N  N162  1  0.53285666  0.15920153  0.92115535  1
  N  N163  1  0.34419599  -0.00902897  0.36216527  1
  N  N164  1  0.49589408  0.83675678  0.89737554  1
  N  N165  1  -0.02752493  0.66108061  0.84545425  1
  N  N166  1  0.47378520  0.82594583  0.63498592  1
  N  N167  1  0.35166184  0.00790593  0.63042379  1
  N  N168  1  0.48009284  0.17323860  0.12339300  1
  N  N169  1  -0.01690095  -0.01285284  0.59302459  1
  N  N170  1  0.83666769  0.83562725  0.12520080  1
  N  N171  1  0.66782730  0.65524477  0.85454470  1
  N  N172  1  0.30705739  0.66916365  0.11089409  1
  N  N173  1  0.67174238  0.33004557  0.62548099  1
  N  N174  1  -0.00313506  0.65805578  0.10812123  1
  N  N175  1  0.52963017  0.53756583  0.38550958  1
  N  N176  1  0.36005714  0.34548059  0.14256534  1
  O  O177  1  0.69286142  0.00881018  0.87735581  1
  O  O178  1  0.83530543  0.53322267  0.39512061  1
  O  O179  1  0.48613746  0.83047383  0.36643190  1
  O  O180  1  0.81844110  0.16254781  0.36752935  1
  O  O181  1  0.53369794  0.85322434  0.13602106  1
  O  O182  1  0.17100589  0.47411242  0.89407413  1
  O  O183  1  0.63995703  0.31973760  0.86323476  1
  O  O184  1  0.68858758  0.66737852  0.38471732  1
  O  O185  1  0.15128205  0.83219969  0.37253902  1
  O  O186  1  0.81549741  0.18023373  0.88869965  1
  O  O187  1  0.48029683  0.51098673  0.88743874  1
  O  O188  1  0.35617844  0.34991255  0.61306716  1
  O  O189  1  0.63358651  0.64550395  0.60857447  1
  O  O190  1  0.31546492  0.67145677  0.35247003  1
  O  O191  1  0.33479723  0.34298632  0.87987631  1
  O  O192  1  0.31026579  0.35822388  0.35881036  1
  O  O193  1  -0.03203080  0.30846103  0.15316150  1
  O  O194  1  0.81724797  0.50211003  0.11926607  1
  O  O195  1  0.13495795  0.82452593  0.10565070  1
  O  O196  1  0.70026472  -0.01343679  0.36561737  1
  O  O197  1  -0.01979180  0.31145902  0.39204018  1
  O  O198  1  0.34930682  0.65952772  0.61624906  1
  O  O199  1  0.51575440  0.17193259  0.69726776  1
  O  O200  1  0.46177773  0.50711176  0.61253575  1
  O  O201  1  0.64805688  -0.01130678  0.11098589  1
  O  O202  1  0.19678411  0.49718084  0.17129452  1
  O  O203  1  -0.04668266  0.35055163  0.58211182  1
  O  O204  1  0.00055811  0.00838196  0.84908093  1
  O  O205  1  0.86839495  0.47924334  0.89146124  1
  O  O206  1  0.84813625  0.50199634  0.66047665  1
  O  O207  1  0.15179939  0.17593127  0.79724575  1
  O  O208  1  0.19211111  0.85681573  0.88534578  1
  O  O209  1  0.00939210  0.65911972  0.36946875  1
  O  O210  1  0.52417634  0.52040968  0.15095793  1
  O  O211  1  0.16711907  0.48988821  0.63765816  1
  O  O212  1  0.30745561  -0.02018297  0.87180339  1
  O  O213  1  0.20118045  0.17656394  0.37618369  1
  O  O214  1  0.00018924  0.35404902  0.81192182  1
  O  O215  1  0.85895291  0.17552931  0.14574886  1
