# generated using pymatgen
data_Sr24Ta24N11O13
_symmetry_space_group_name_H-M   'P 1'
_cell_length_a   16.73822963
_cell_length_b   16.93391643
_cell_length_c   15.67334900
_cell_angle_alpha   89.99646918
_cell_angle_beta   89.92958655
_cell_angle_gamma   89.91598067
_symmetry_Int_Tables_number   1
_chemical_formula_structural   Sr24Ta24N11O13
_chemical_formula_sum   'Sr72 Ta72 N33 O39'
_cell_volume   4442.50517665
_cell_formula_units_Z   3
loop_
 _symmetry_equiv_pos_site_id
 _symmetry_equiv_pos_as_xyz
  1  'x, y, z'
loop_
 _atom_site_type_symbol
 _atom_site_label
 _atom_site_symmetry_multiplicity
 _atom_site_fract_x
 _atom_site_fract_y
 _atom_site_fract_z
 _atom_site_occupancy
  Sr  Sr0  1  -0.01867141  0.15897285  0.16682635  1
  Sr  Sr1  1  0.01733665  0.15303043  0.61022227  1
  Sr  Sr2  1  0.00949089  0.45493263  0.10294044  1
  Sr  Sr3  1  -0.00712699  0.48405229  0.61493206  1
  Sr  Sr4  1  -0.01125047  0.81666142  0.10141224  1
  Sr  Sr5  1  0.00808548  0.81085366  0.65676869  1
  Sr  Sr6  1  0.33373630  0.17084100  0.11800308  1
  Sr  Sr7  1  0.33273629  0.12806716  0.66163851  1
  Sr  Sr8  1  0.32691979  0.49614062  0.13252779  1
  Sr  Sr9  1  0.34060744  0.49891576  0.62795331  1
  Sr  Sr10  1  0.32732457  0.82384603  0.12770547  1
  Sr  Sr11  1  0.33728027  0.84537097  0.57953981  1
  Sr  Sr12  1  0.67090113  0.15326193  0.07555014  1
  Sr  Sr13  1  0.66087813  0.17784313  0.63480969  1
  Sr  Sr14  1  0.66755085  0.50630921  0.13684115  1
  Sr  Sr15  1  0.69515070  0.50644386  0.59396095  1
  Sr  Sr16  1  0.66271044  0.84886493  0.16399750  1
  Sr  Sr17  1  0.67179007  0.81577451  0.62985158  1
  Sr  Sr18  1  0.14960075  0.03983868  0.15408522  1
  Sr  Sr19  1  0.15987401  -0.00519787  0.61461333  1
  Sr  Sr20  1  0.18035633  0.33493581  0.09299653  1
  Sr  Sr21  1  0.17540742  0.35425750  0.60887238  1
  Sr  Sr22  1  0.16315259  0.68390550  0.12752099  1
  Sr  Sr23  1  0.16716421  0.66852831  0.66514309  1
  Sr  Sr24  1  0.49025286  0.01522136  0.11703728  1
  Sr  Sr25  1  0.51304333  0.00414742  0.63999640  1
  Sr  Sr26  1  0.48522655  0.34844631  0.17876072  1
  Sr  Sr27  1  0.51488001  0.34079469  0.61460480  1
  Sr  Sr28  1  0.49313391  0.65662641  0.07976204  1
  Sr  Sr29  1  0.48446418  0.67476562  0.63460213  1
  Sr  Sr30  1  0.83227444  0.00767014  0.12177386  1
  Sr  Sr31  1  0.83366117  0.03061233  0.57847114  1
  Sr  Sr32  1  0.82064639  0.33265120  0.11149878  1
  Sr  Sr33  1  0.84531908  0.32118972  0.67538941  1
  Sr  Sr34  1  0.81208119  0.68453698  0.15601323  1
  Sr  Sr35  1  0.83938702  0.67141426  0.61983950  1
  Sr  Sr36  1  0.01454853  0.15740769  0.38515245  1
  Sr  Sr37  1  0.00163344  0.16139615  0.83351226  1
  Sr  Sr38  1  0.01000078  0.48304995  0.39833455  1
  Sr  Sr39  1  -0.00555463  0.46708731  0.88882025  1
  Sr  Sr40  1  0.00253078  0.79201316  0.35339756  1
  Sr  Sr41  1  -0.00855180  0.84357263  0.88037948  1
  Sr  Sr42  1  0.35522517  0.16410319  0.33285191  1
  Sr  Sr43  1  0.32893116  0.15927996  0.88536681  1
  Sr  Sr44  1  0.33793881  0.48559408  0.39118766  1
  Sr  Sr45  1  0.33112401  0.49720841  0.85399922  1
  Sr  Sr46  1  0.32168660  0.83080082  0.36876597  1
  Sr  Sr47  1  0.34802044  0.83636605  0.92566521  1
  Sr  Sr48  1  0.65473276  0.15592755  0.42023838  1
  Sr  Sr49  1  0.66460408  0.17505359  0.86502041  1
  Sr  Sr50  1  0.68529630  0.48718081  0.35582922  1
  Sr  Sr51  1  0.67450210  0.51919674  0.92465179  1
  Sr  Sr52  1  0.68269640  0.82555237  0.36841988  1
  Sr  Sr53  1  0.65335311  0.82379508  0.83331539  1
  Sr  Sr54  1  0.16044644  0.00825629  0.38901384  1
  Sr  Sr55  1  0.15009981  0.01862217  0.83001853  1
  Sr  Sr56  1  0.16416059  0.34202041  0.41160999  1
  Sr  Sr57  1  0.18717783  0.34155892  0.88810345  1
  Sr  Sr58  1  0.17229809  0.66696790  0.33472465  1
  Sr  Sr59  1  0.14913409  0.69289875  0.88195400  1
  Sr  Sr60  1  0.49931527  -0.00584077  0.35651921  1
  Sr  Sr61  1  0.49011177  0.00817360  0.88071005  1
  Sr  Sr62  1  0.50799763  0.33292179  0.38886215  1
  Sr  Sr63  1  0.49823251  0.34642777  0.84138373  1
  Sr  Sr64  1  0.46641370  0.67539741  0.41368414  1
  Sr  Sr65  1  0.49795807  0.66887396  0.86871942  1
  Sr  Sr66  1  0.83318074  0.02050286  0.37011560  1
  Sr  Sr67  1  0.83661530  0.00067767  0.91030406  1
  Sr  Sr68  1  0.85159548  0.32501173  0.32601796  1
  Sr  Sr69  1  0.82743570  0.34159543  0.89122978  1
  Sr  Sr70  1  0.83902992  0.64657745  0.39172475  1
  Sr  Sr71  1  0.83395279  0.68758238  0.86508179  1
  Ta  Ta72  1  0.14500661  0.15447143  -0.01241724  1
  Ta  Ta73  1  0.21866695  0.16836412  0.49986710  1
  Ta  Ta74  1  0.16835782  0.53148088  -0.00280802  1
  Ta  Ta75  1  0.17291938  0.54472274  0.50746723  1
  Ta  Ta76  1  0.15806110  0.88991199  0.00413510  1
  Ta  Ta77  1  0.14994444  0.80477419  0.50259922  1
  Ta  Ta78  1  0.49922725  0.22236623  0.00814822  1
  Ta  Ta79  1  0.46613476  0.15513275  0.49853138  1
  Ta  Ta80  1  0.49293880  0.46442991  0.00680745  1
  Ta  Ta81  1  0.52876123  0.51677205  0.49583229  1
  Ta  Ta82  1  0.54101494  0.83692076  -0.00184832  1
  Ta  Ta83  1  0.52673216  0.84448843  0.50278583  1
  Ta  Ta84  1  0.87608678  0.16886065  -0.00339476  1
  Ta  Ta85  1  0.82847813  0.22237092  0.49721923  1
  Ta  Ta86  1  0.85082808  0.54020327  0.01238645  1
  Ta  Ta87  1  0.84121638  0.43247922  0.49388228  1
  Ta  Ta88  1  0.78443704  0.83344400  0.00194616  1
  Ta  Ta89  1  0.84689339  0.84811127  0.50165344  1
  Ta  Ta90  1  0.17538154  0.20930382  0.25983114  1
  Ta  Ta91  1  0.17683681  0.20712152  0.73895037  1
  Ta  Ta92  1  0.15492149  0.47808903  0.24661570  1
  Ta  Ta93  1  0.13882319  0.49576900  0.75381129  1
  Ta  Ta94  1  0.15744653  0.86939326  0.23762762  1
  Ta  Ta95  1  0.19860849  0.84385844  0.75156766  1
  Ta  Ta96  1  0.54865749  0.16956753  0.24781856  1
  Ta  Ta97  1  0.48602910  0.18366998  0.74646630  1
  Ta  Ta98  1  0.49340101  0.54503799  0.24902939  1
  Ta  Ta99  1  0.54645951  0.50906696  0.75308485  1
  Ta  Ta100  1  0.48915061  0.79549430  0.24772657  1
  Ta  Ta101  1  0.46257264  0.83992337  0.75177065  1
  Ta  Ta102  1  0.77226809  0.16804085  0.24890976  1
  Ta  Ta103  1  0.82962352  0.12049819  0.74807448  1
  Ta  Ta104  1  0.87126374  0.50326419  0.24863116  1
  Ta  Ta105  1  0.82301399  0.51035042  0.76233848  1
  Ta  Ta106  1  0.85242266  0.86088493  0.24642706  1
  Ta  Ta107  1  0.82903177  0.88681621  0.74525323  1
  Ta  Ta108  1  -0.00329105  -0.03691385  0.24889199  1
  Ta  Ta109  1  -0.04276317  -0.00689355  0.73963634  1
  Ta  Ta110  1  0.04293926  0.33187834  0.25565187  1
  Ta  Ta111  1  0.03711181  0.33118061  0.74810536  1
  Ta  Ta112  1  -0.00253897  0.60912587  0.24722190  1
  Ta  Ta113  1  -0.00604334  0.61880190  0.75409354  1
  Ta  Ta114  1  0.30959941  -0.01373523  0.24375156  1
  Ta  Ta115  1  0.32969211  -0.05216211  0.75708568  1
  Ta  Ta116  1  0.29663823  0.33612160  0.25907719  1
  Ta  Ta117  1  0.33380172  0.30671044  0.73201398  1
  Ta  Ta118  1  0.36512121  0.66220358  0.24322119  1
  Ta  Ta119  1  0.32837604  0.73670656  0.75384654  1
  Ta  Ta120  1  0.66903362  0.03483751  0.24610260  1
  Ta  Ta121  1  0.70608011  0.00414462  0.74681476  1
  Ta  Ta122  1  0.66575705  0.29438699  0.25207211  1
  Ta  Ta123  1  0.67353828  0.39800254  0.75909033  1
  Ta  Ta124  1  0.61076228  0.67098964  0.24601775  1
  Ta  Ta125  1  0.66993281  0.62315197  0.75576446  1
  Ta  Ta126  1  0.01815100  0.02683144  -0.00782503  1
  Ta  Ta127  1  -0.00648737  -0.06321557  0.50319653  1
  Ta  Ta128  1  0.00500789  0.27539695  -0.00630562  1
  Ta  Ta129  1  -0.03225273  0.31664128  0.50299666  1
  Ta  Ta130  1  -0.00779933  0.63087188  0.01039995  1
  Ta  Ta131  1  0.03964889  0.66038264  0.49853377  1
  Ta  Ta132  1  0.27534154  0.00390780  -0.00599635  1
  Ta  Ta133  1  0.34189303  0.03161014  0.49386383  1
  Ta  Ta134  1  0.37234477  0.33999395  0.00744800  1
  Ta  Ta135  1  0.34199918  0.28781535  0.50593611  1
  Ta  Ta136  1  0.31159496  0.64569637  -0.00349151  1
  Ta  Ta137  1  0.28103681  0.67117689  0.50316533  1
  Ta  Ta138  1  0.66096097  -0.03818855  -0.00147401  1
  Ta  Ta139  1  0.65937227  -0.03137348  0.49269840  1
  Ta  Ta140  1  0.61754931  0.34241788  0.00960633  1
  Ta  Ta141  1  0.70448061  0.33456581  0.49688738  1
  Ta  Ta142  1  0.67272487  0.70739897  0.00281823  1
  Ta  Ta143  1  0.64116495  0.66492394  0.49589056  1
  N  N144  1  0.83250748  0.51206036  0.88894090  1
  N  N145  1  0.34807192  0.34627213  0.61576606  1
  N  N146  1  0.32006530  -0.00487270  0.87498270  1
  N  N147  1  0.01019043  0.64063459  0.37641476  1
  N  N148  1  0.16867601  0.17185098  0.86794203  1
  N  N149  1  0.50582774  0.16472382  0.37932034  1
  N  N150  1  0.82387646  0.84120709  0.12857912  1
  N  N151  1  0.33587715  0.33459540  0.12836703  1
  N  N152  1  0.33093027  0.66579059  0.12083626  1
  N  N153  1  0.66608088  0.66801544  0.87103049  1
  N  N154  1  0.00104718  -0.01721096  0.62086397  1
  N  N155  1  0.50012361  0.50189342  0.13038270  1
  N  N156  1  0.67126393  0.32956522  0.37307722  1
  N  N157  1  0.15555815  0.83648161  0.11538349  1
  N  N158  1  0.66307893  0.00246431  0.11705066  1
  N  N159  1  0.17344238  0.16840307  0.37658566  1
  N  N160  1  0.65358824  0.67623410  0.12698187  1
  N  N161  1  0.00526852  0.31983139  0.62450034  1
  N  N162  1  0.17294163  0.16483683  0.62036200  1
  N  N163  1  0.17137652  0.49451885  0.87891938  1
  N  N164  1  -0.00536105  0.00169273  0.87320514  1
  N  N165  1  0.84739750  0.47808708  0.36808178  1
  N  N166  1  0.50117441  0.83522148  0.62213725  1
  N  N167  1  0.16677843  0.83142650  0.62167981  1
  N  N168  1  0.33626123  0.32892974  0.37772680  1
  N  N169  1  0.50590433  0.17693935  0.12918187  1
  N  N170  1  0.00885017  0.31761431  0.37290137  1
  N  N171  1  0.17376217  0.50772479  0.62926341  1
  N  N172  1  0.50505826  0.16585180  0.62731074  1
  N  N173  1  0.00437077  0.31616446  0.87524061  1
  N  N174  1  0.50137123  0.83466605  0.88104410  1
  N  N175  1  0.66983864  -0.00548383  0.37345536  1
  N  N176  1  0.16506581  0.49342011  0.12502028  1
  O  O177  1  0.66102967  0.35845173  0.88254701  1
  O  O178  1  0.68075425  0.00444234  0.87386796  1
  O  O179  1  -0.00374501  0.64526715  0.62654010  1
  O  O180  1  0.82924687  0.83037473  0.62698307  1
  O  O181  1  0.17440267  0.18150666  0.12623387  1
  O  O182  1  0.31326534  0.01202224  0.12200450  1
  O  O183  1  0.14915232  0.84694911  0.87781386  1
  O  O184  1  0.49294177  0.81754587  0.12211435  1
  O  O185  1  0.50453676  0.18942362  0.87866960  1
  O  O186  1  0.00472605  -0.02911453  0.37810081  1
  O  O187  1  0.32090245  0.67273858  0.37287209  1
  O  O188  1  0.68110445  0.00473786  0.61812155  1
  O  O189  1  0.00615686  0.66526901  0.13528728  1
  O  O190  1  0.48810142  0.82274892  0.37425092  1
  O  O191  1  0.51352068  0.50030272  0.88300235  1
  O  O192  1  0.83834506  0.83860291  0.37660994  1
  O  O193  1  0.34563738  0.34125542  0.86111744  1
  O  O194  1  0.32331449  0.68869711  0.87760339  1
  O  O195  1  0.50440901  0.50412989  0.37365733  1
  O  O196  1  0.82480447  0.84946887  0.87208811  1
  O  O197  1  0.17177130  0.50347603  0.38298108  1
  O  O198  1  0.83577307  0.15465390  0.87352790  1
  O  O199  1  0.82524260  0.17187005  0.11694941  1
  O  O200  1  0.66329877  0.66117631  0.62302049  1
  O  O201  1  0.82356778  0.17353633  0.62903794  1
  O  O202  1  -0.00422370  0.63448741  0.87784730  1
  O  O203  1  0.52765897  0.50825510  0.62055733  1
  O  O204  1  0.82837190  0.48272164  0.12268551  1
  O  O205  1  0.83998283  0.47364390  0.62117046  1
  O  O206  1  0.68088416  0.35498359  0.63895023  1
  O  O207  1  0.31967571  0.69592683  0.62664169  1
  O  O208  1  0.32295763  -0.00985187  0.37212521  1
  O  O209  1  0.81021953  0.17725155  0.37702786  1
  O  O210  1  0.16211541  0.82818744  0.36126087  1
  O  O211  1  0.65486197  0.67239847  0.37230473  1
  O  O212  1  0.33320465  -0.01236372  0.61755743  1
  O  O213  1  -0.00403487  0.00187330  0.12666794  1
  O  O214  1  0.66532733  0.34873931  0.12714732  1
  O  O215  1  0.01512741  0.30648029  0.12583581  1
