# generated using pymatgen
data_Sr24Ta24N11O13
_symmetry_space_group_name_H-M   'P 1'
_cell_length_a   16.54094044
_cell_length_b   17.43551871
_cell_length_c   15.33996277
_cell_angle_alpha   90.78522492
_cell_angle_beta   90.30748266
_cell_angle_gamma   90.38080191
_symmetry_Int_Tables_number   1
_chemical_formula_structural   Sr24Ta24N11O13
_chemical_formula_sum   'Sr72 Ta72 N33 O39'
_cell_volume   4423.46431483
_cell_formula_units_Z   3
loop_
 _symmetry_equiv_pos_site_id
 _symmetry_equiv_pos_as_xyz
  1  'x, y, z'
loop_
 _atom_site_type_symbol
 _atom_site_label
 _atom_site_symmetry_multiplicity
 _atom_site_fract_x
 _atom_site_fract_y
 _atom_site_fract_z
 _atom_site_occupancy
  Sr  Sr0  1  -0.00310201  0.13810586  0.08814741  1
  Sr  Sr1  1  -0.00269550  0.16646462  0.62819627  1
  Sr  Sr2  1  0.00615865  0.45998135  0.10969682  1
  Sr  Sr3  1  0.00197518  0.46968619  0.65773630  1
  Sr  Sr4  1  0.01709759  0.84831314  0.16503414  1
  Sr  Sr5  1  -0.00214339  0.78723597  0.60860720  1
  Sr  Sr6  1  0.33082968  0.17200860  0.11539776  1
  Sr  Sr7  1  0.33440264  0.13736432  0.65709460  1
  Sr  Sr8  1  0.33169378  0.52741837  0.17678102  1
  Sr  Sr9  1  0.32239065  0.49374437  0.60605437  1
  Sr  Sr10  1  0.32714968  0.81210875  0.07075307  1
  Sr  Sr11  1  0.34476541  0.82260642  0.62821145  1
  Sr  Sr12  1  0.67713982  0.16242754  0.14398849  1
  Sr  Sr13  1  0.65181906  0.15396554  0.61322972  1
  Sr  Sr14  1  0.66693578  0.45803611  0.10449113  1
  Sr  Sr15  1  0.66831678  0.48807610  0.62225710  1
  Sr  Sr16  1  0.67534947  0.84705228  0.12392914  1
  Sr  Sr17  1  0.67955974  0.80033558  0.62281542  1
  Sr  Sr18  1  0.17469862  0.02096961  0.11842527  1
  Sr  Sr19  1  0.15342450  0.03850925  0.63878010  1
  Sr  Sr20  1  0.17734831  0.35426295  0.15321508  1
  Sr  Sr21  1  0.15534528  0.34466322  0.61319184  1
  Sr  Sr22  1  0.16284627  0.67551269  0.11480839  1
  Sr  Sr23  1  0.18406578  0.67874175  0.61046506  1
  Sr  Sr24  1  0.50968629  0.02967678  0.17619760  1
  Sr  Sr25  1  0.50003132  0.00051454  0.61286614  1
  Sr  Sr26  1  0.49791373  0.32169461  0.08397771  1
  Sr  Sr27  1  0.50481264  0.35211313  0.63545596  1
  Sr  Sr28  1  0.50713880  0.66888982  0.10822683  1
  Sr  Sr29  1  0.50390924  0.68381596  0.66062162  1
  Sr  Sr30  1  0.82622976  0.01627130  0.09329254  1
  Sr  Sr31  1  0.82785896  0.03842560  0.64423804  1
  Sr  Sr32  1  0.82706754  0.33114968  0.12579454  1
  Sr  Sr33  1  0.82673786  0.36413909  0.66576356  1
  Sr  Sr34  1  0.84438347  0.72747374  0.17754325  1
  Sr  Sr35  1  0.82582119  0.66862445  0.60815202  1
  Sr  Sr36  1  0.01500283  0.15828713  0.41821081  1
  Sr  Sr37  1  0.00002367  0.12266071  0.85897060  1
  Sr  Sr38  1  -0.01024311  0.45126109  0.34132266  1
  Sr  Sr39  1  0.01003260  0.51008193  0.90399017  1
  Sr  Sr40  1  0.00418467  0.80862313  0.37447462  1
  Sr  Sr41  1  0.00437443  0.80920119  0.84359320  1
  Sr  Sr42  1  0.32408259  0.13472676  0.32793585  1
  Sr  Sr43  1  0.33552023  0.15677199  0.88974321  1
  Sr  Sr44  1  0.32699699  0.49831576  0.38539778  1
  Sr  Sr45  1  0.32620076  0.47271018  0.82873682  1
  Sr  Sr46  1  0.34399844  0.83924729  0.41067421  1
  Sr  Sr47  1  0.33888554  0.82695655  0.86430376  1
  Sr  Sr48  1  0.65211341  0.16007283  0.38271946  1
  Sr  Sr49  1  0.66884925  0.12047923  0.84946722  1
  Sr  Sr50  1  0.67585382  0.49104395  0.37867166  1
  Sr  Sr51  1  0.65012243  0.49810853  0.89165924  1
  Sr  Sr52  1  0.66545504  0.79975099  0.33815051  1
  Sr  Sr53  1  0.67774242  0.82101393  0.90093098  1
  Sr  Sr54  1  0.15338853  0.00827964  0.35509886  1
  Sr  Sr55  1  0.17404840  0.01677478  0.88798205  1
  Sr  Sr56  1  0.16216782  0.32998003  0.38201872  1
  Sr  Sr57  1  0.15581335  0.37187824  0.86103739  1
  Sr  Sr58  1  0.18343373  0.68846845  0.38982804  1
  Sr  Sr59  1  0.17070951  0.68968185  0.87974756  1
  Sr  Sr60  1  0.49412281  0.00031773  0.38715269  1
  Sr  Sr61  1  0.49284241  0.01416947  0.84219858  1
  Sr  Sr62  1  0.50634288  0.34924773  0.42555476  1
  Sr  Sr63  1  0.49210294  0.34663795  0.87204947  1
  Sr  Sr64  1  0.50567503  0.64715467  0.32142889  1
  Sr  Sr65  1  0.50852275  0.69161188  0.89099873  1
  Sr  Sr66  1  0.84071812  0.04546454  0.42104056  1
  Sr  Sr67  1  0.83311232  -0.00378725  0.87925175  1
  Sr  Sr68  1  0.81884246  0.33928725  0.34308806  1
  Sr  Sr69  1  0.83106630  0.39229071  0.90220734  1
  Sr  Sr70  1  0.82064083  0.66942676  0.38834393  1
  Sr  Sr71  1  0.82980891  0.69504619  0.86581889  1
  Ta  Ta72  1  0.15931713  0.22255987  -0.00388243  1
  Ta  Ta73  1  0.20965800  0.17180415  0.49777848  1
  Ta  Ta74  1  0.21639018  0.50502675  0.00373978  1
  Ta  Ta75  1  0.13072110  0.51375327  0.49102320  1
  Ta  Ta76  1  0.13606121  0.85108651  -0.00861874  1
  Ta  Ta77  1  0.16653450  0.88349830  0.51357915  1
  Ta  Ta78  1  0.52135981  0.14202266  0.00595759  1
  Ta  Ta79  1  0.45202112  0.17204569  0.49543098  1
  Ta  Ta80  1  0.43271628  0.49639259  0.00273001  1
  Ta  Ta81  1  0.50276814  0.54189501  0.49524474  1
  Ta  Ta82  1  0.50272189  0.88569549  0.00971225  1
  Ta  Ta83  1  0.52213229  0.79947028  0.48960675  1
  Ta  Ta84  1  0.82759102  0.20029792  -0.02860679  1
  Ta  Ta85  1  0.82632193  0.21909610  0.51190688  1
  Ta  Ta86  1  0.84123944  0.56839672  0.03434585  1
  Ta  Ta87  1  0.85939557  0.48851745  0.49750657  1
  Ta  Ta88  1  0.87248583  0.83891428  0.00680032  1
  Ta  Ta89  1  0.83116421  0.86380654  0.47907670  1
  Ta  Ta90  1  0.13239477  0.17809910  0.24560473  1
  Ta  Ta91  1  0.16752438  0.20665186  0.75159261  1
  Ta  Ta92  1  0.14239432  0.53711283  0.25165303  1
  Ta  Ta93  1  0.16010158  0.54620267  0.75496239  1
  Ta  Ta94  1  0.21046090  0.83992153  0.24842537  1
  Ta  Ta95  1  0.16685060  0.87312260  0.74016987  1
  Ta  Ta96  1  0.49528775  0.21588756  0.25909680  1
  Ta  Ta97  1  0.49831250  0.19623448  0.74549669  1
  Ta  Ta98  1  0.50741969  0.44963648  0.25176212  1
  Ta  Ta99  1  0.49678077  0.52661757  0.75301792  1
  Ta  Ta100  1  0.46577489  0.83637995  0.22938145  1
  Ta  Ta101  1  0.52429700  0.85230510  0.75708750  1
  Ta  Ta102  1  0.85796126  0.15942406  0.24997501  1
  Ta  Ta103  1  0.82882423  0.21381057  0.77807803  1
  Ta  Ta104  1  0.83790568  0.53162764  0.22334008  1
  Ta  Ta105  1  0.83765789  0.54211700  0.76028836  1
  Ta  Ta106  1  0.84047669  0.89928206  0.26851777  1
  Ta  Ta107  1  0.83363532  0.85742473  0.74293608  1
  Ta  Ta108  1  -0.02853290  0.02434503  0.26039885  1
  Ta  Ta109  1  -0.00198100  -0.04298849  0.72910471  1
  Ta  Ta110  1  -0.00496831  0.27427104  0.25070429  1
  Ta  Ta111  1  -0.00626419  0.30065586  0.77172310  1
  Ta  Ta112  1  -0.00253325  0.62388466  0.24993301  1
  Ta  Ta113  1  -0.00341533  0.63328800  0.75092927  1
  Ta  Ta114  1  0.33651109  -0.05042435  0.23304084  1
  Ta  Ta115  1  0.31609787  -0.02494968  0.75167205  1
  Ta  Ta116  1  0.36852739  0.33279007  0.26043823  1
  Ta  Ta117  1  0.32793699  0.29792750  0.73787730  1
  Ta  Ta118  1  0.32952480  0.71588274  0.24998539  1
  Ta  Ta119  1  0.33594137  0.63928915  0.75261848  1
  Ta  Ta120  1  0.70597706  -0.00353892  0.26173822  1
  Ta  Ta121  1  0.67095249  -0.05082684  0.74786901  1
  Ta  Ta122  1  0.62122051  0.32712071  0.25338333  1
  Ta  Ta123  1  0.66396001  0.29477535  0.76721521  1
  Ta  Ta124  1  0.69079069  0.62011228  0.21697057  1
  Ta  Ta125  1  0.67128640  0.63549520  0.75296888  1
  Ta  Ta126  1  0.00577960  -0.04511848  -0.01149678  1
  Ta  Ta127  1  0.00290162  -0.03668642  0.51069057  1
  Ta  Ta128  1  -0.00606331  0.29634118  -0.02387498  1
  Ta  Ta129  1  -0.03860614  0.33381519  0.50755841  1
  Ta  Ta130  1  -0.02130140  0.68996576  0.01303254  1
  Ta  Ta131  1  -0.00514316  0.60141899  0.48906330  1
  Ta  Ta132  1  0.37166306  -0.00508528  0.00991731  1
  Ta  Ta133  1  0.30708251  0.01114576  0.50368361  1
  Ta  Ta134  1  0.31610761  0.35638198  0.00038966  1
  Ta  Ta135  1  0.33193824  0.29203233  0.51173130  1
  Ta  Ta136  1  0.33585292  0.62762145  -0.01402050  1
  Ta  Ta137  1  0.38546820  0.66515026  0.49670584  1
  Ta  Ta138  1  0.62865459  0.00180844  0.00987892  1
  Ta  Ta139  1  0.67693667  -0.05299898  0.48560005  1
  Ta  Ta140  1  0.67238061  0.27690185  -0.02720878  1
  Ta  Ta141  1  0.69820238  0.32039711  0.51276497  1
  Ta  Ta142  1  0.69979212  0.64983265  0.02705419  1
  Ta  Ta143  1  0.62413372  0.65575143  0.49643250  1
  N  N144  1  0.33748329  -0.00228021  0.88090442  1
  N  N145  1  0.49444612  0.16616660  0.62273459  1
  N  N146  1  -0.01023110  0.32342557  0.63439999  1
  N  N147  1  0.34510650  0.66482979  0.62178102  1
  N  N148  1  0.49026623  0.15822235  0.36898163  1
  N  N149  1  0.34400035  0.67596861  0.36788705  1
  N  N150  1  0.00083828  -0.02357146  0.86136660  1
  N  N151  1  0.17230417  0.51265893  0.13079036  1
  N  N152  1  0.66231712  0.65004435  0.62695958  1
  N  N153  1  0.67149670  0.00598870  0.14040292  1
  N  N154  1  0.83841376  0.13436352  0.86407524  1
  N  N155  1  0.49915431  0.49738936  0.36874186  1
  N  N156  1  0.84072437  0.81626582  0.35707268  1
  N  N157  1  0.84210309  0.47558451  0.10822533  1
  N  N158  1  -0.01653134  0.01997565  0.61896521  1
  N  N159  1  0.66689440  0.32124454  0.64034787  1
  N  N160  1  0.34517615  0.68109069  0.87537956  1
  N  N161  1  0.50422496  0.81550418  0.11136595  1
  N  N162  1  0.16690726  0.84285165  0.86498066  1
  N  N163  1  0.84057715  0.84157380  0.86867617  1
  N  N164  1  0.34207253  -0.00983737  0.62157877  1
  N  N165  1  -0.00271654  0.00615306  0.38421307  1
  N  N166  1  0.50125434  0.17273526  0.12643961  1
  N  N167  1  0.50543553  0.84310830  0.88012130  1
  N  N168  1  0.16452484  0.18646035  0.62660634  1
  N  N169  1  0.84669049  0.86542638  0.13039129  1
  N  N170  1  -0.01039003  0.36740787  0.87639434  1
  N  N171  1  0.33244608  0.34623542  0.62527825  1
  N  N172  1  0.17088223  0.16876524  0.37317658  1
  N  N173  1  -0.00946944  0.30814257  0.37529714  1
  N  N174  1  0.17058226  0.52119943  0.88052620  1
  N  N175  1  0.16785959  0.18641427  0.11463575  1
  N  N176  1  0.33473700  0.01908272  0.13464649  1
  O  O177  1  0.65657787  0.30850485  0.10854674  1
  O  O178  1  0.00057684  -0.00461735  0.13113500  1
  O  O179  1  0.83359452  0.18689032  0.37536979  1
  O  O180  1  0.49201322  0.16059473  0.87376741  1
  O  O181  1  0.33878664  0.33879158  0.13424581  1
  O  O182  1  0.14808725  0.47606222  0.36666134  1
  O  O183  1  0.50783728  0.81693940  0.35969709  1
  O  O184  1  -0.00973604  0.66353094  0.88655869  1
  O  O185  1  0.67587870  0.64905484  0.89489292  1
  O  O186  1  0.33801079  -0.01264663  0.36915333  1
  O  O187  1  0.15558813  0.52629446  0.61677043  1
  O  O188  1  0.66826019  -0.02254928  0.88039847  1
  O  O189  1  0.48721977  0.49933918  0.87971876  1
  O  O190  1  0.66097986  0.70620303  0.13773441  1
  O  O191  1  0.84083183  0.16788275  0.11687066  1
  O  O192  1  0.83796838  0.82192202  0.60304968  1
  O  O193  1  0.84396958  0.53850515  0.89317653  1
  O  O194  1  0.66090358  0.32849922  0.38421332  1
  O  O195  1  0.18501112  0.85601435  0.38152649  1
  O  O196  1  0.51796169  0.82656236  0.61746585  1
  O  O197  1  0.63777605  -0.04658476  0.36142534  1
  O  O198  1  0.00413184  0.69698844  0.13973583  1
  O  O199  1  0.84105599  0.51221882  0.62679130  1
  O  O200  1  -0.01854477  0.31238445  0.11185305  1
  O  O201  1  0.64799237  0.35782347  0.88331299  1
  O  O202  1  -0.02163351  0.65764904  0.37374705  1
  O  O203  1  0.34669362  0.34364385  0.38755867  1
  O  O204  1  0.83862865  0.48907944  0.36520040  1
  O  O205  1  0.17302742  0.81833534  0.61889380  1
  O  O206  1  0.66635425  0.63970649  0.35210686  1
  O  O207  1  0.47584612  0.48194126  0.12401233  1
  O  O208  1  -0.00779418  0.63604499  0.61960001  1
  O  O209  1  0.17715652  0.16640479  0.88305941  1
  O  O210  1  0.50121528  0.50870968  0.62623185  1
  O  O211  1  0.32985100  0.33282807  0.87088632  1
  O  O212  1  0.82914661  0.19523826  0.64286760  1
  O  O213  1  0.33174494  0.67122622  0.12115680  1
  O  O214  1  0.67214352  -0.04256728  0.61216305  1
  O  O215  1  0.17431730  0.83501579  0.11667469  1
