# generated using pymatgen
data_Sr24Ta24N11O13
_symmetry_space_group_name_H-M   'P 1'
_cell_length_a   16.70758652
_cell_length_b   16.88788001
_cell_length_c   15.73333177
_cell_angle_alpha   89.88754064
_cell_angle_beta   89.70006148
_cell_angle_gamma   90.11927067
_symmetry_Int_Tables_number   1
_chemical_formula_structural   Sr24Ta24N11O13
_chemical_formula_sum   'Sr72 Ta72 N33 O39'
_cell_volume   4439.17040455
_cell_formula_units_Z   3
loop_
 _symmetry_equiv_pos_site_id
 _symmetry_equiv_pos_as_xyz
  1  'x, y, z'
loop_
 _atom_site_type_symbol
 _atom_site_label
 _atom_site_symmetry_multiplicity
 _atom_site_fract_x
 _atom_site_fract_y
 _atom_site_fract_z
 _atom_site_occupancy
  Sr  Sr0  1  0.00889767  0.20763269  0.09056474  1
  Sr  Sr1  1  0.00035399  0.16236867  0.63094440  1
  Sr  Sr2  1  -0.00593389  0.50492132  0.14930436  1
  Sr  Sr3  1  0.00084087  0.53458436  0.63072908  1
  Sr  Sr4  1  -0.00659797  0.83952398  0.12317934  1
  Sr  Sr5  1  0.00512312  0.85297999  0.61960800  1
  Sr  Sr6  1  0.32531788  0.16727827  0.13893296  1
  Sr  Sr7  1  0.34804149  0.18236542  0.57437916  1
  Sr  Sr8  1  0.32933172  0.51327624  0.11783318  1
  Sr  Sr9  1  0.33775976  0.50969991  0.66328697  1
  Sr  Sr10  1  0.34799680  0.84605521  0.09913818  1
  Sr  Sr11  1  0.33605565  0.85942099  0.62462039  1
  Sr  Sr12  1  0.67373965  0.15579788  0.11623023  1
  Sr  Sr13  1  0.65284490  0.17944414  0.67324494  1
  Sr  Sr14  1  0.66232203  0.51817131  0.11533698  1
  Sr  Sr15  1  0.66498893  0.49734159  0.58983779  1
  Sr  Sr16  1  0.65942849  0.83269449  0.16625393  1
  Sr  Sr17  1  0.67055718  0.84656603  0.62154908  1
  Sr  Sr18  1  0.16001604  -0.03092178  0.12089363  1
  Sr  Sr19  1  0.14976973  -0.00114791  0.66526817  1
  Sr  Sr20  1  0.18293417  0.32248404  0.10608840  1
  Sr  Sr21  1  0.16690223  0.29866701  0.60641720  1
  Sr  Sr22  1  0.15940521  0.63682631  0.16196351  1
  Sr  Sr23  1  0.18077185  0.66039148  0.60661118  1
  Sr  Sr24  1  0.48867712  0.00630435  0.08277487  1
  Sr  Sr25  1  0.51731282  -0.00682625  0.63781295  1
  Sr  Sr26  1  0.50044502  0.30508095  0.16806237  1
  Sr  Sr27  1  0.49853547  0.33657763  0.61837106  1
  Sr  Sr28  1  0.49225025  0.66636611  0.12365620  1
  Sr  Sr29  1  0.50961763  0.65246676  0.63500194  1
  Sr  Sr30  1  0.82183092  -0.00644081  0.14036280  1
  Sr  Sr31  1  0.84761834  -0.00557466  0.57950728  1
  Sr  Sr32  1  0.82083233  0.32940462  0.12522202  1
  Sr  Sr33  1  0.83678201  0.31894098  0.63947187  1
  Sr  Sr34  1  0.84601690  0.65277857  0.08991830  1
  Sr  Sr35  1  0.82971773  0.65943890  0.63717427  1
  Sr  Sr36  1  -0.01566737  0.18341129  0.41613276  1
  Sr  Sr37  1  0.00952499  0.18228898  0.85568026  1
  Sr  Sr38  1  0.00296583  0.51129445  0.36652226  1
  Sr  Sr39  1  -0.00964887  0.52192808  0.84883946  1
  Sr  Sr40  1  0.00652104  0.85154633  0.35595784  1
  Sr  Sr41  1  -0.01338425  0.84026418  0.90589708  1
  Sr  Sr42  1  0.32379345  0.16666885  0.36117163  1
  Sr  Sr43  1  0.33339800  0.17669422  0.90532039  1
  Sr  Sr44  1  0.32351995  0.53213769  0.35409717  1
  Sr  Sr45  1  0.33059569  0.49011471  0.87964588  1
  Sr  Sr46  1  0.33657983  0.84210865  0.39689074  1
  Sr  Sr47  1  0.33963484  0.85695504  0.87826446  1
  Sr  Sr48  1  0.67782374  0.18083127  0.33006610  1
  Sr  Sr49  1  0.67367493  0.15918588  0.88817771  1
  Sr  Sr50  1  0.65948106  0.50901330  0.39019415  1
  Sr  Sr51  1  0.67250761  0.51056778  0.90948363  1
  Sr  Sr52  1  0.66484653  0.85225224  0.38183676  1
  Sr  Sr53  1  0.66578172  0.82447741  0.83289810  1
  Sr  Sr54  1  0.17573369  -0.00203328  0.32362646  1
  Sr  Sr55  1  0.15032551  -0.02766159  0.87382867  1
  Sr  Sr56  1  0.16916030  0.30876248  0.39111984  1
  Sr  Sr57  1  0.16929216  0.31846089  0.89356108  1
  Sr  Sr58  1  0.15858723  0.65925681  0.38546035  1
  Sr  Sr59  1  0.17076162  0.63101749  0.84248483  1
  Sr  Sr60  1  0.48239799  -0.01008603  0.42264674  1
  Sr  Sr61  1  0.51113588  0.00094211  0.86364508  1
  Sr  Sr62  1  0.49817660  0.32392549  0.38918881  1
  Sr  Sr63  1  0.49939722  0.32444743  0.83693327  1
  Sr  Sr64  1  0.51776493  0.66765780  0.34507907  1
  Sr  Sr65  1  0.48806098  0.64371647  0.89540363  1
  Sr  Sr66  1  0.83543268  -0.00617720  0.36487754  1
  Sr  Sr67  1  0.83132565  -0.01077226  0.91222561  1
  Sr  Sr68  1  0.83486603  0.33311029  0.36369983  1
  Sr  Sr69  1  0.83295578  0.31793215  0.87124043  1
  Sr  Sr70  1  0.83369416  0.63978838  0.40373116  1
  Sr  Sr71  1  0.84032283  0.66936821  0.86884137  1
  Ta  Ta72  1  0.16240075  0.12969434  0.00049134  1
  Ta  Ta73  1  0.16097627  0.11865689  0.49068610  1
  Ta  Ta74  1  0.14209623  0.50049207  -0.00030420  1
  Ta  Ta75  1  0.16754696  0.47620744  0.49966070  1
  Ta  Ta76  1  0.16968535  0.78553272  0.00079068  1
  Ta  Ta77  1  0.16383532  0.87990024  0.49675404  1
  Ta  Ta78  1  0.49982003  0.20090462  0.00361678  1
  Ta  Ta79  1  0.54847224  0.16524115  0.50205009  1
  Ta  Ta80  1  0.49862165  0.44688091  -0.00162294  1
  Ta  Ta81  1  0.46548453  0.51052162  0.50610327  1
  Ta  Ta82  1  0.54159705  0.82744897  0.00224526  1
  Ta  Ta83  1  0.50432068  0.79649944  0.50280131  1
  Ta  Ta84  1  0.85886259  0.15070811  0.00212554  1
  Ta  Ta85  1  0.78761807  0.17079667  0.50046241  1
  Ta  Ta86  1  0.85648597  0.48001484  -0.00329097  1
  Ta  Ta87  1  0.85241933  0.47106469  0.50443160  1
  Ta  Ta88  1  0.78405402  0.82438181  0.00031142  1
  Ta  Ta89  1  0.83980346  0.80662648  0.49845568  1
  Ta  Ta90  1  0.11766594  0.17250425  0.25160877  1
  Ta  Ta91  1  0.21644143  0.16593196  0.74887867  1
  Ta  Ta92  1  0.16895379  0.45164418  0.25163752  1
  Ta  Ta93  1  0.16124373  0.45001565  0.74701497  1
  Ta  Ta94  1  0.19317656  0.81048819  0.25030199  1
  Ta  Ta95  1  0.17026695  0.80534002  0.74827965  1
  Ta  Ta96  1  0.49820147  0.12301898  0.25096118  1
  Ta  Ta97  1  0.45064732  0.16143733  0.74090915  1
  Ta  Ta98  1  0.50173657  0.47827626  0.25066426  1
  Ta  Ta99  1  0.53750431  0.49828242  0.75316641  1
  Ta  Ta100  1  0.48329568  0.85681114  0.25376865  1
  Ta  Ta101  1  0.48752130  0.80294007  0.74625233  1
  Ta  Ta102  1  0.87829744  0.17084681  0.24214592  1
  Ta  Ta103  1  0.83533915  0.12504683  0.75367535  1
  Ta  Ta104  1  0.81100851  0.50928285  0.25072472  1
  Ta  Ta105  1  0.79700498  0.49221346  0.74983351  1
  Ta  Ta106  1  0.83401076  0.78813864  0.25042049  1
  Ta  Ta107  1  0.84918749  0.85826872  0.75496369  1
  Ta  Ta108  1  -0.00300032  0.05133688  0.24783689  1
  Ta  Ta109  1  -0.05072301  -0.00045002  0.75394471  1
  Ta  Ta110  1  0.01495047  0.32296272  0.25703671  1
  Ta  Ta111  1  0.01775006  0.35463383  0.74608386  1
  Ta  Ta112  1  -0.03179502  0.68053398  0.24968879  1
  Ta  Ta113  1  0.01347707  0.71408446  0.75641786  1
  Ta  Ta114  1  0.36741386  -0.00683344  0.25098342  1
  Ta  Ta115  1  0.33177779  0.04060161  0.74640883  1
  Ta  Ta116  1  0.32911449  0.36040676  0.25698837  1
  Ta  Ta117  1  0.31644887  0.30905577  0.74310198  1
  Ta  Ta118  1  0.33096085  0.71292200  0.24410774  1
  Ta  Ta119  1  0.34018060  0.69992116  0.75135735  1
  Ta  Ta120  1  0.60465331  0.00214922  0.25304570  1
  Ta  Ta121  1  0.72338924  -0.00001448  0.74354733  1
  Ta  Ta122  1  0.66095744  0.37191234  0.25713145  1
  Ta  Ta123  1  0.66938055  0.37392502  0.74835413  1
  Ta  Ta124  1  0.70987949  0.66423026  0.25461256  1
  Ta  Ta125  1  0.66183365  0.63368135  0.74781312  1
  Ta  Ta126  1  0.00116557  0.03559492  0.00366602  1
  Ta  Ta127  1  0.04295600  0.00291888  0.48675959  1
  Ta  Ta128  1  -0.00292430  0.37878052  -0.00818471  1
  Ta  Ta129  1  0.00207278  0.37047255  0.50538977  1
  Ta  Ta130  1  0.03763586  0.66003673  0.00196577  1
  Ta  Ta131  1  -0.01255357  0.69997303  0.49498436  1
  Ta  Ta132  1  0.30459805  0.01965309  0.00392310  1
  Ta  Ta133  1  0.28054878  0.00601889  0.49430762  1
  Ta  Ta134  1  0.37608055  0.33478511  0.00355408  1
  Ta  Ta135  1  0.32551027  0.38875685  0.50662366  1
  Ta  Ta136  1  0.29103001  0.67648014  0.00323214  1
  Ta  Ta137  1  0.36963220  0.66780580  0.49971453  1
  Ta  Ta138  1  0.66393928  -0.04416880  0.00023771  1
  Ta  Ta139  1  0.66998895  0.04814953  0.50245755  1
  Ta  Ta140  1  0.62967705  0.33095587  0.00178738  1
  Ta  Ta141  1  0.67630602  0.30253620  0.50308395  1
  Ta  Ta142  1  0.66457029  0.70344343  0.00133101  1
  Ta  Ta143  1  0.66392721  0.69197829  0.50116790  1
  N  N144  1  0.66210913  0.33893043  0.37509268  1
  N  N145  1  0.00393535  0.68138492  0.87586186  1
  N  N146  1  0.50680066  0.83389120  0.62828365  1
  N  N147  1  0.67399689  0.66936537  0.37469739  1
  N  N148  1  0.82982016  0.49636759  0.12233276  1
  N  N149  1  0.50620064  0.83303381  0.12095202  1
  N  N150  1  0.00196901  0.66936532  0.12429467  1
  N  N151  1  0.16431894  0.49161446  0.37717172  1
  N  N152  1  0.00098128  0.01035823  0.36800978  1
  N  N153  1  0.49828686  0.15958117  0.12028779  1
  N  N154  1  0.16868027  0.47888003  0.87000561  1
  N  N155  1  0.33146970  0.34008325  0.62198057  1
  N  N156  1  0.83310973  0.15918200  0.87621469  1
  N  N157  1  0.82938996  0.50116106  0.87493408  1
  N  N158  1  0.50112725  0.16585365  0.62610848  1
  N  N159  1  0.66531535  0.33570345  0.62872698  1
  N  N160  1  0.50340094  0.48614357  0.87656880  1
  N  N161  1  0.50157395  0.83146813  0.37756367  1
  N  N162  1  0.32788132  0.00544287  0.36981353  1
  N  N163  1  0.83152574  0.16773287  0.12863197  1
  N  N164  1  0.32685033  0.00474168  0.12361206  1
  N  N165  1  0.16019110  0.15670790  0.36599814  1
  N  N166  1  0.00393730  0.67674555  0.37584991  1
  N  N167  1  0.00309604  0.33765747  0.38043584  1
  N  N168  1  0.16451193  0.48164068  0.12464500  1
  N  N169  1  0.67207145  0.66151746  0.62860592  1
  N  N170  1  0.33144976  0.67558752  0.12382363  1
  N  N171  1  0.83269364  0.48935800  0.37718677  1
  N  N172  1  0.68182657  0.00805546  0.62517438  1
  N  N173  1  0.00233529  0.34052765  0.86711367  1
  N  N174  1  0.49618757  0.49730591  0.62507057  1
  N  N175  1  0.82688694  0.83204916  0.87657449  1
  N  N176  1  0.83157100  0.49931977  0.62553333  1
  O  O177  1  -0.00325761  0.00518726  0.62784748  1
  O  O178  1  0.00258530  0.69347363  0.62846038  1
  O  O179  1  0.50597464  0.83004906  0.87060237  1
  O  O180  1  0.83682498  0.16330545  0.61810789  1
  O  O181  1  0.82866621  0.81265110  0.12185780  1
  O  O182  1  0.83135189  0.82108611  0.37061784  1
  O  O183  1  0.33519901  0.35176111  0.38254980  1
  O  O184  1  0.34555270  0.34085664  0.13336684  1
  O  O185  1  0.16415989  0.80904419  0.12863271  1
  O  O186  1  0.64878036  0.00781284  0.37376131  1
  O  O187  1  0.64699729  -0.01667959  0.12774426  1
  O  O188  1  0.15972589  0.15987592  0.12479550  1
  O  O189  1  0.00644892  0.31223485  0.61722644  1
  O  O190  1  0.33221864  0.01634521  0.87415628  1
  O  O191  1  0.00168757  0.00101275  0.12430675  1
  O  O192  1  0.31924970  0.01562403  0.62117371  1
  O  O193  1  0.34018843  0.67416043  0.62680686  1
  O  O194  1  0.17680388  0.83118717  0.37762366  1
  O  O195  1  0.16332906  0.50955280  0.63398743  1
  O  O196  1  0.66524782  0.67258158  0.87682177  1
  O  O197  1  0.16952676  0.83993805  0.62446223  1
  O  O198  1  0.17459344  0.15315035  0.87368088  1
  O  O199  1  -0.00529340  0.01410767  0.87438860  1
  O  O200  1  0.51269254  0.16516981  0.37697790  1
  O  O201  1  0.00328028  0.35147266  0.11982608  1
  O  O202  1  0.48440281  0.17304773  0.86945569  1
  O  O203  1  0.35553757  0.68113026  0.37373202  1
  O  O204  1  0.67778976  -0.02199969  0.87328030  1
  O  O205  1  0.49136399  0.49682991  0.37442189  1
  O  O206  1  0.34571886  0.33040360  0.87225323  1
  O  O207  1  0.16502736  0.14987126  0.63251931  1
  O  O208  1  0.66695724  0.67898818  0.13112587  1
  O  O209  1  0.65548082  0.33165928  0.87718182  1
  O  O210  1  0.17482912  0.81280118  0.87252514  1
  O  O211  1  0.65332698  0.33896187  0.12657215  1
  O  O212  1  0.82953467  0.17091042  0.37423401  1
  O  O213  1  0.33186072  0.68585366  0.87889830  1
  O  O214  1  0.84144671  0.83143158  0.62149791  1
  O  O215  1  0.50042884  0.48876619  0.12570376  1
