# generated using pymatgen
data_Sr24Ta24N11O13
_symmetry_space_group_name_H-M   'P 1'
_cell_length_a   16.78399634
_cell_length_b   16.79629768
_cell_length_c   15.69903084
_cell_angle_alpha   90.24551579
_cell_angle_beta   89.77361338
_cell_angle_gamma   90.13373243
_symmetry_Int_Tables_number   1
_chemical_formula_structural   Sr24Ta24N11O13
_chemical_formula_sum   'Sr72 Ta72 N33 O39'
_cell_volume   4425.61100587
_cell_formula_units_Z   3
loop_
 _symmetry_equiv_pos_site_id
 _symmetry_equiv_pos_as_xyz
  1  'x, y, z'
loop_
 _atom_site_type_symbol
 _atom_site_label
 _atom_site_symmetry_multiplicity
 _atom_site_fract_x
 _atom_site_fract_y
 _atom_site_fract_z
 _atom_site_occupancy
  Sr  Sr0  1  0.01823171  0.17035775  0.08531749  1
  Sr  Sr1  1  -0.01969599  0.15112130  0.64508120  1
  Sr  Sr2  1  0.00612858  0.48495624  0.14480095  1
  Sr  Sr3  1  -0.01551971  0.49490110  0.64090947  1
  Sr  Sr4  1  0.00491023  0.84098813  0.13716732  1
  Sr  Sr5  1  0.01045191  0.81676488  0.57260756  1
  Sr  Sr6  1  0.32757152  0.18051392  0.18174764  1
  Sr  Sr7  1  0.33248124  0.15064078  0.61461749  1
  Sr  Sr8  1  0.32585021  0.49432312  0.07926117  1
  Sr  Sr9  1  0.33695401  0.51143428  0.63044394  1
  Sr  Sr10  1  0.34178924  0.83925718  0.10979378  1
  Sr  Sr11  1  0.30072752  0.82947430  0.66626801  1
  Sr  Sr12  1  0.69754216  0.14423830  0.12323502  1
  Sr  Sr13  1  0.65821805  0.15629773  0.59286549  1
  Sr  Sr14  1  0.66278134  0.50023757  0.12594128  1
  Sr  Sr15  1  0.66804377  0.46127664  0.63344776  1
  Sr  Sr16  1  0.66794506  0.82642211  0.15099859  1
  Sr  Sr17  1  0.65285496  0.83014398  0.62165668  1
  Sr  Sr18  1  0.17642166  0.02359269  0.14426556  1
  Sr  Sr19  1  0.16031439  0.00372971  0.61944425  1
  Sr  Sr20  1  0.16383308  0.34002899  0.12787783  1
  Sr  Sr21  1  0.20684813  0.35178383  0.57670734  1
  Sr  Sr22  1  0.17702939  0.68814652  0.12056626  1
  Sr  Sr23  1  0.17045046  0.65978827  0.63493156  1
  Sr  Sr24  1  0.49401999  0.00499741  0.10291264  1
  Sr  Sr25  1  0.51077953  -0.00008113  0.60657721  1
  Sr  Sr26  1  0.50728045  0.34771299  0.10843358  1
  Sr  Sr27  1  0.48843045  0.34085304  0.67330984  1
  Sr  Sr28  1  0.51158195  0.68323181  0.16644995  1
  Sr  Sr29  1  0.50693938  0.66579172  0.60435231  1
  Sr  Sr30  1  0.85250575  0.00457199  0.11412432  1
  Sr  Sr31  1  0.82509017  -0.01571572  0.67533040  1
  Sr  Sr32  1  0.83153732  0.35304114  0.16565816  1
  Sr  Sr33  1  0.82231476  0.30663010  0.60505837  1
  Sr  Sr34  1  0.82970059  0.66380193  0.08618842  1
  Sr  Sr35  1  0.82513041  0.69457264  0.62948485  1
  Sr  Sr36  1  -0.01764187  0.16881104  0.41045934  1
  Sr  Sr37  1  0.00399625  0.17308093  0.86516420  1
  Sr  Sr38  1  -0.00402066  0.48103048  0.35322821  1
  Sr  Sr39  1  -0.00395213  0.49303736  0.85343661  1
  Sr  Sr40  1  0.00726281  0.84253531  0.36176449  1
  Sr  Sr41  1  0.00692113  0.80633117  0.92518437  1
  Sr  Sr42  1  0.31375221  0.16267556  0.39076751  1
  Sr  Sr43  1  0.33375762  0.16969487  0.83500455  1
  Sr  Sr44  1  0.32282330  0.50771907  0.42287812  1
  Sr  Sr45  1  0.32821267  0.50261987  0.86953462  1
  Sr  Sr46  1  0.33446205  0.79826482  0.33067120  1
  Sr  Sr47  1  0.33224574  0.83692968  0.88766080  1
  Sr  Sr48  1  0.68619220  0.15635836  0.37769473  1
  Sr  Sr49  1  0.63895477  0.16165039  0.92147264  1
  Sr  Sr50  1  0.65416456  0.47518796  0.35116199  1
  Sr  Sr51  1  0.66762614  0.48045349  0.88691806  1
  Sr  Sr52  1  0.64959958  0.82716215  0.38640339  1
  Sr  Sr53  1  0.67366607  0.83117550  0.84121464  1
  Sr  Sr54  1  0.15514660  0.01383162  0.39411700  1
  Sr  Sr55  1  0.17876930  0.02660688  0.84479955  1
  Sr  Sr56  1  0.17429037  0.34045827  0.36422377  1
  Sr  Sr57  1  0.15035998  0.33527675  0.91102479  1
  Sr  Sr58  1  0.15330936  0.67663733  0.36271733  1
  Sr  Sr59  1  0.18623702  0.67208141  0.86912536  1
  Sr  Sr60  1  0.49869726  0.01614899  0.40164300  1
  Sr  Sr61  1  0.50246121  -0.00334778  0.89423516  1
  Sr  Sr62  1  0.49058936  0.32915407  0.33278960  1
  Sr  Sr63  1  0.50559794  0.34155732  0.88794532  1
  Sr  Sr64  1  0.50177055  0.66022981  0.38146165  1
  Sr  Sr65  1  0.51713612  0.68995006  0.85508185  1
  Sr  Sr66  1  0.82366987  -0.00911938  0.32643920  1
  Sr  Sr67  1  0.84814407  0.01689087  0.88932471  1
  Sr  Sr68  1  0.83086922  0.33185754  0.38803810  1
  Sr  Sr69  1  0.84573173  0.34280136  0.82298462  1
  Sr  Sr70  1  0.83370082  0.70671044  0.41730368  1
  Sr  Sr71  1  0.83095274  0.67559465  0.87763074  1
  Ta  Ta72  1  0.21626369  0.16714128  0.01032966  1
  Ta  Ta73  1  0.13856273  0.19233369  0.51200754  1
  Ta  Ta74  1  0.13892250  0.52110176  -0.00427330  1
  Ta  Ta75  1  0.12678493  0.50833869  0.50111491  1
  Ta  Ta76  1  0.17081634  0.88398586  -0.00020327  1
  Ta  Ta77  1  0.20045973  0.83438513  0.49500825  1
  Ta  Ta78  1  0.43327819  0.17289038  0.00526234  1
  Ta  Ta79  1  0.49046894  0.20517358  0.49820224  1
  Ta  Ta80  1  0.50469705  0.54955739  0.00401885  1
  Ta  Ta81  1  0.50967387  0.47278530  0.49876681  1
  Ta  Ta82  1  0.52622499  0.81867888  0.00439807  1
  Ta  Ta83  1  0.45090588  0.83263648  0.49495776  1
  Ta  Ta84  1  0.84402512  0.21206096  -0.00404625  1
  Ta  Ta85  1  0.82999541  0.09631699  0.50938718  1
  Ta  Ta86  1  0.84871505  0.47557794  -0.00448687  1
  Ta  Ta87  1  0.83100724  0.52540765  0.49397828  1
  Ta  Ta88  1  0.81111072  0.84627115  -0.00040847  1
  Ta  Ta89  1  0.83701985  0.89042025  0.50195928  1
  Ta  Ta90  1  0.12671528  0.17726605  0.25894993  1
  Ta  Ta91  1  0.16522668  0.21606092  0.73361817  1
  Ta  Ta92  1  0.19806693  0.50897830  0.24475104  1
  Ta  Ta93  1  0.16638002  0.46392602  0.74548584  1
  Ta  Ta94  1  0.18225173  0.86922672  0.24983344  1
  Ta  Ta95  1  0.10992717  0.83265070  0.74598693  1
  Ta  Ta96  1  0.52817317  0.15119623  0.24419353  1
  Ta  Ta97  1  0.51837575  0.15003160  0.75257192  1
  Ta  Ta98  1  0.46122629  0.50509342  0.24889310  1
  Ta  Ta99  1  0.50820187  0.52821913  0.75183386  1
  Ta  Ta100  1  0.49519838  0.87563478  0.25345379  1
  Ta  Ta101  1  0.48048211  0.85047672  0.75071624  1
  Ta  Ta102  1  0.87429118  0.17177092  0.24249557  1
  Ta  Ta103  1  0.78579341  0.15975954  0.75236342  1
  Ta  Ta104  1  0.83029385  0.54525215  0.25539371  1
  Ta  Ta105  1  0.81450111  0.53047152  0.75191521  1
  Ta  Ta106  1  0.83581612  0.79757814  0.24348050  1
  Ta  Ta107  1  0.90927179  0.83049905  0.75555504  1
  Ta  Ta108  1  0.00755238  0.03761009  0.25066615  1
  Ta  Ta109  1  0.00686669  -0.03409374  0.74932040  1
  Ta  Ta110  1  0.00055266  0.29159485  0.25619701  1
  Ta  Ta111  1  0.04872905  0.33026928  0.72926085  1
  Ta  Ta112  1  -0.04670454  0.66280463  0.25503103  1
  Ta  Ta113  1  -0.00432796  0.68499038  0.74813065  1
  Ta  Ta114  1  0.34467564  -0.01591544  0.25457160  1
  Ta  Ta115  1  0.36907749  -0.00793944  0.74761960  1
  Ta  Ta116  1  0.33068649  0.39753122  0.25020954  1
  Ta  Ta117  1  0.28755638  0.33964604  0.75040602  1
  Ta  Ta118  1  0.33169115  0.61371781  0.25283344  1
  Ta  Ta119  1  0.36742106  0.66934211  0.75079094  1
  Ta  Ta120  1  0.63062703  0.00047777  0.25617582  1
  Ta  Ta121  1  0.64990056  0.03180427  0.75138383  1
  Ta  Ta122  1  0.65569259  0.29357155  0.24253190  1
  Ta  Ta123  1  0.66096509  0.27938458  0.75323367  1
  Ta  Ta124  1  0.71237627  0.66085099  0.25338734  1
  Ta  Ta125  1  0.66880619  0.62701786  0.75134421  1
  Ta  Ta126  1  0.03407089  -0.00692186  -0.00127645  1
  Ta  Ta127  1  -0.03354135  -0.00212234  0.50023677  1
  Ta  Ta128  1  -0.04622129  0.34365843  -0.00226361  1
  Ta  Ta129  1  0.02319211  0.34026791  0.50593994  1
  Ta  Ta130  1  0.00746596  0.62653471  0.00349225  1
  Ta  Ta131  1  -0.00604160  0.62562118  0.49210368  1
  Ta  Ta132  1  0.31866858  0.03094823  0.00606778  1
  Ta  Ta133  1  0.32763960  -0.05216505  0.49435861  1
  Ta  Ta134  1  0.33060619  0.29792826  0.00334936  1
  Ta  Ta135  1  0.38977719  0.33251499  0.49931725  1
  Ta  Ta136  1  0.37968348  0.67009042  0.00001348  1
  Ta  Ta137  1  0.32614926  0.69869553  0.50139202  1
  Ta  Ta138  1  0.67603034  -0.04118810  0.00199184  1
  Ta  Ta139  1  0.70154151  -0.01297091  0.50323577  1
  Ta  Ta140  1  0.72456978  0.32782157  -0.00782829  1
  Ta  Ta141  1  0.60931805  0.32308148  0.50314950  1
  Ta  Ta142  1  0.64335463  0.67596326  0.00687813  1
  Ta  Ta143  1  0.67565844  0.61595257  0.49643286  1
  N  N144  1  0.17818513  0.15899164  0.62477036  1
  N  N145  1  -0.00049971  0.33017038  0.38459400  1
  N  N146  1  0.17414433  0.85022566  0.12159691  1
  N  N147  1  0.50066859  0.50100007  0.63279237  1
  N  N148  1  0.00026775  -0.00594899  0.62711874  1
  N  N149  1  0.15277614  0.83128156  0.62765725  1
  N  N150  1  0.67576142  0.32171947  0.87802325  1
  N  N151  1  0.33809586  0.01091131  0.13455044  1
  N  N152  1  0.16892410  0.50407585  0.12062516  1
  N  N153  1  0.32991583  0.65275740  0.37697858  1
  N  N154  1  0.34373311  0.67453650  0.88048670  1
  N  N155  1  0.50220417  0.84175405  0.12631102  1
  N  N156  1  0.66299632  -0.00876241  0.63550006  1
  N  N157  1  0.83639484  0.50827321  0.87430613  1
  N  N158  1  0.83763183  0.83119219  0.12149767  1
  N  N159  1  0.50345338  0.84317267  0.87185322  1
  N  N160  1  0.49268519  0.83430310  0.37664529  1
  N  N161  1  0.16373756  0.50381211  0.61902654  1
  N  N162  1  0.64639953  0.31107490  0.62452760  1
  N  N163  1  0.16441702  0.49903812  0.87072017  1
  N  N164  1  -0.00463789  0.00309464  0.36982997  1
  N  N165  1  0.17597208  0.17954188  0.12884870  1
  N  N166  1  0.33410775  0.67148006  0.62720403  1
  N  N167  1  0.84894551  0.17593644  0.11896953  1
  N  N168  1  0.15824277  0.17588659  0.38303640  1
  N  N169  1  0.66013392  -0.00480595  0.37481646  1
  N  N170  1  0.50096153  0.50943185  0.12075355  1
  N  N171  1  0.49500184  0.49892968  0.37637526  1
  N  N172  1  -0.00952276  0.67158453  0.37802338  1
  N  N173  1  0.16485853  0.83611169  0.37409116  1
  N  N174  1  0.67203858  0.66288017  0.12824061  1
  N  N175  1  0.82127475  0.14261386  0.63329165  1
  N  N176  1  0.00830561  0.00733141  0.11896259  1
  O  O177  1  -0.02693874  0.33350855  0.63017683  1
  O  O178  1  0.83932382  0.84668895  0.36659118  1
  O  O179  1  0.66865997  0.63319919  0.61893263  1
  O  O180  1  0.86200239  0.84319524  0.62165581  1
  O  O181  1  0.86145900  0.83313329  0.88030379  1
  O  O182  1  0.34485391  0.35547543  0.37602539  1
  O  O183  1  0.64507524  0.31276022  0.36829092  1
  O  O184  1  0.50031600  0.84159176  0.61435251  1
  O  O185  1  0.67231924  0.65784334  0.87708027  1
  O  O186  1  0.48483241  0.16210703  0.87768160  1
  O  O187  1  0.66863616  -0.01462786  0.12633146  1
  O  O188  1  0.00407154  0.02035348  0.87516154  1
  O  O189  1  0.50515624  0.49672529  0.88379091  1
  O  O190  1  0.33800229  0.65848230  0.12233884  1
  O  O191  1  0.32898621  0.34636672  0.13195821  1
  O  O192  1  0.31401523  0.32546508  0.87402600  1
  O  O193  1  0.83508958  0.48746579  0.37262483  1
  O  O194  1  0.18091787  0.18022133  0.86598257  1
  O  O195  1  0.83208463  0.52688102  0.61951735  1
  O  O196  1  0.49698525  0.16310454  0.62730136  1
  O  O197  1  -0.00122287  0.65508182  0.87266628  1
  O  O198  1  0.00212803  0.33275580  0.85944609  1
  O  O199  1  0.34831246  -0.01060652  0.62127492  1
  O  O200  1  0.34522457  0.00995363  0.87124997  1
  O  O201  1  0.84638772  0.16979724  0.86631127  1
  O  O202  1  0.34415660  0.33653052  0.63188281  1
  O  O203  1  0.66134646  -0.01568707  0.87607169  1
  O  O204  1  -0.01308250  0.33316291  0.12445654  1
  O  O205  1  0.68122528  0.30837646  0.12033411  1
  O  O206  1  0.15714095  0.50323461  0.37089536  1
  O  O207  1  0.33489238  0.00982427  0.38668424  1
  O  O208  1  -0.01015852  0.66401264  0.62051646  1
  O  O209  1  0.15596764  0.84075234  0.87788078  1
  O  O210  1  0.49777769  0.16957539  0.36664877  1
  O  O211  1  0.66433120  0.64231691  0.37206597  1
  O  O212  1  0.47727538  0.16246250  0.12874301  1
  O  O213  1  0.83326831  0.50830425  0.12910294  1
  O  O214  1  -0.01054742  0.64150455  0.12750286  1
  O  O215  1  0.83603324  0.14171562  0.36762927  1
