# generated using pymatgen
data_Sr24Ta24N11O13
_symmetry_space_group_name_H-M   'P 1'
_cell_length_a   16.72731444
_cell_length_b   16.79553211
_cell_length_c   15.65647032
_cell_angle_alpha   89.66991378
_cell_angle_beta   90.01008914
_cell_angle_gamma   89.80049672
_symmetry_Int_Tables_number   1
_chemical_formula_structural   Sr24Ta24N11O13
_chemical_formula_sum   'Sr72 Ta72 N33 O39'
_cell_volume   4398.49395439
_cell_formula_units_Z   3
loop_
 _symmetry_equiv_pos_site_id
 _symmetry_equiv_pos_as_xyz
  1  'x, y, z'
loop_
 _atom_site_type_symbol
 _atom_site_label
 _atom_site_symmetry_multiplicity
 _atom_site_fract_x
 _atom_site_fract_y
 _atom_site_fract_z
 _atom_site_occupancy
  Sr  Sr0  1  0.00644021  0.14822583  0.13928198  1
  Sr  Sr1  1  0.00527136  0.17569599  0.58199019  1
  Sr  Sr2  1  0.00529057  0.49833901  0.12272935  1
  Sr  Sr3  1  0.01567767  0.46321868  0.66781532  1
  Sr  Sr4  1  0.00557744  0.81602445  0.08995928  1
  Sr  Sr5  1  -0.02035566  0.83851222  0.64276107  1
  Sr  Sr6  1  0.35502203  0.15202795  0.08045729  1
  Sr  Sr7  1  0.34186940  0.16096965  0.64269848  1
  Sr  Sr8  1  0.34787858  0.48125482  0.12882466  1
  Sr  Sr9  1  0.32344011  0.49510243  0.60318937  1
  Sr  Sr10  1  0.31645373  0.83406254  0.16489464  1
  Sr  Sr11  1  0.33869790  0.82871186  0.62056250  1
  Sr  Sr12  1  0.66577086  0.16922139  0.15720576  1
  Sr  Sr13  1  0.67421233  0.15741224  0.62941498  1
  Sr  Sr14  1  0.67829579  0.47885946  0.12511115  1
  Sr  Sr15  1  0.67173270  0.50850143  0.62526078  1
  Sr  Sr16  1  0.67016668  0.82833241  0.13947710  1
  Sr  Sr17  1  0.66086160  0.83621912  0.58411059  1
  Sr  Sr18  1  0.17457658  -0.00182117  0.13465642  1
  Sr  Sr19  1  0.13129983  0.01822695  0.59359296  1
  Sr  Sr20  1  0.16156855  0.34501140  0.16975738  1
  Sr  Sr21  1  0.18005114  0.33495413  0.62290650  1
  Sr  Sr22  1  0.15830390  0.65899931  0.09780823  1
  Sr  Sr23  1  0.15970067  0.68516790  0.62048193  1
  Sr  Sr24  1  0.49697836  0.00473546  0.08650874  1
  Sr  Sr25  1  0.49366421  0.00523402  0.63221382  1
  Sr  Sr26  1  0.50512630  0.33132987  0.13219450  1
  Sr  Sr27  1  0.49396724  0.37299520  0.58375504  1
  Sr  Sr28  1  0.49208836  0.67820050  0.11373497  1
  Sr  Sr29  1  0.49160681  0.66770659  0.66296609  1
  Sr  Sr30  1  0.82776549  -0.01671426  0.11680523  1
  Sr  Sr31  1  0.83262462  0.00085660  0.66365804  1
  Sr  Sr32  1  0.85763598  0.33823426  0.07430099  1
  Sr  Sr33  1  0.81902425  0.33237293  0.63747763  1
  Sr  Sr34  1  0.83338070  0.63869532  0.17391768  1
  Sr  Sr35  1  0.81818833  0.67486142  0.61029746  1
  Sr  Sr36  1  0.00981828  0.16062431  0.36604524  1
  Sr  Sr37  1  -0.01236831  0.15881786  0.91811072  1
  Sr  Sr38  1  0.00912494  0.50069899  0.33629201  1
  Sr  Sr39  1  0.00744263  0.48150022  0.88557388  1
  Sr  Sr40  1  -0.00028224  0.80480490  0.42493664  1
  Sr  Sr41  1  -0.01307288  0.82776508  0.86528732  1
  Sr  Sr42  1  0.35868015  0.14655093  0.39305204  1
  Sr  Sr43  1  0.33187657  0.16580639  0.86620197  1
  Sr  Sr44  1  0.33601761  0.48173481  0.37707098  1
  Sr  Sr45  1  0.34138020  0.51896679  0.90362975  1
  Sr  Sr46  1  0.32906918  0.83691347  0.37491403  1
  Sr  Sr47  1  0.34964589  0.83111695  0.82222674  1
  Sr  Sr48  1  0.66658540  0.16356368  0.37107779  1
  Sr  Sr49  1  0.68054667  0.16392165  0.83111285  1
  Sr  Sr50  1  0.68281768  0.49023234  0.39623666  1
  Sr  Sr51  1  0.67243086  0.50739890  0.85281117  1
  Sr  Sr52  1  0.66897427  0.83225680  0.36428619  1
  Sr  Sr53  1  0.65310327  0.84108156  0.92479595  1
  Sr  Sr54  1  0.15403864  0.00531522  0.36227327  1
  Sr  Sr55  1  0.16205056  0.02521962  0.90795058  1
  Sr  Sr56  1  0.17021129  0.33938205  0.37729128  1
  Sr  Sr57  1  0.17929361  0.34192469  0.83315148  1
  Sr  Sr58  1  0.17993247  0.67442080  0.39793111  1
  Sr  Sr59  1  0.15515427  0.67790981  0.88153747  1
  Sr  Sr60  1  0.50508989  0.00136842  0.42292704  1
  Sr  Sr61  1  0.48357067  0.01903657  0.85719018  1
  Sr  Sr62  1  0.50853408  0.34097876  0.35418041  1
  Sr  Sr63  1  0.47766913  0.34550700  0.91554028  1
  Sr  Sr64  1  0.49009531  0.70082231  0.33163175  1
  Sr  Sr65  1  0.50101592  0.67026673  0.88014809  1
  Sr  Sr66  1  0.82250062  0.01636359  0.32738388  1
  Sr  Sr67  1  0.83330974  -0.01712020  0.88599667  1
  Sr  Sr68  1  0.83587213  0.31512482  0.42282637  1
  Sr  Sr69  1  0.83485746  0.34141385  0.86273901  1
  Sr  Sr70  1  0.81892085  0.66533246  0.38978673  1
  Sr  Sr71  1  0.82450271  0.67274394  0.84439960  1
  Ta  Ta72  1  0.17202743  0.20859250  -0.00118647  1
  Ta  Ta73  1  0.20251274  0.17140180  0.49729249  1
  Ta  Ta74  1  0.17295189  0.46498296  0.00242118  1
  Ta  Ta75  1  0.13421313  0.50209548  0.50208839  1
  Ta  Ta76  1  0.18844658  0.84573643  -0.00385570  1
  Ta  Ta77  1  0.17521276  0.86020127  0.50306703  1
  Ta  Ta78  1  0.54920822  0.17582754  -0.00970182  1
  Ta  Ta79  1  0.51092115  0.19545902  0.50594037  1
  Ta  Ta80  1  0.53454119  0.51273394  0.00151001  1
  Ta  Ta81  1  0.49751727  0.55092052  0.49741917  1
  Ta  Ta82  1  0.45706612  0.83895481  -0.00110050  1
  Ta  Ta83  1  0.49248509  0.80327920  0.49767244  1
  Ta  Ta84  1  0.78751745  0.16379441  -0.00211981  1
  Ta  Ta85  1  0.83069710  0.12711803  0.50205716  1
  Ta  Ta86  1  0.83048786  0.53462956  0.00318118  1
  Ta  Ta87  1  0.88016451  0.49376825  0.50453823  1
  Ta  Ta88  1  0.82800449  0.77175273  0.00788273  1
  Ta  Ta89  1  0.82832669  0.88105165  0.49791948  1
  Ta  Ta90  1  0.22120593  0.16356824  0.24200589  1
  Ta  Ta91  1  0.14135563  0.15427850  0.75371889  1
  Ta  Ta92  1  0.18457424  0.53398918  0.25085262  1
  Ta  Ta93  1  0.18303947  0.52975921  0.75368429  1
  Ta  Ta94  1  0.12326308  0.82009953  0.25293868  1
  Ta  Ta95  1  0.15704615  0.88099699  0.75057827  1
  Ta  Ta96  1  0.48500649  0.14181989  0.24113597  1
  Ta  Ta97  1  0.50331811  0.22159182  0.75100390  1
  Ta  Ta98  1  0.51432317  0.52321029  0.25108287  1
  Ta  Ta99  1  0.48595799  0.48301659  0.75079319  1
  Ta  Ta100  1  0.49325970  0.88776865  0.25370443  1
  Ta  Ta101  1  0.54999780  0.83917546  0.75046522  1
  Ta  Ta102  1  0.83750093  0.22015151  0.24642403  1
  Ta  Ta103  1  0.87875405  0.16682946  0.74637446  1
  Ta  Ta104  1  0.83704553  0.44242915  0.24986330  1
  Ta  Ta105  1  0.85366646  0.51678092  0.74417706  1
  Ta  Ta106  1  0.87451609  0.82020087  0.25630812  1
  Ta  Ta107  1  0.76837737  0.83506629  0.75215165  1
  Ta  Ta108  1  -0.00472037  -0.06148761  0.26046410  1
  Ta  Ta109  1  0.01214481  0.02970962  0.74799587  1
  Ta  Ta110  1  -0.03353331  0.32704188  0.25378210  1
  Ta  Ta111  1  0.00459682  0.27918346  0.75719877  1
  Ta  Ta112  1  0.01533071  0.69060134  0.24997292  1
  Ta  Ta113  1  -0.00484613  0.63635955  0.75040775  1
  Ta  Ta114  1  0.35657897  0.01484023  0.24944065  1
  Ta  Ta115  1  0.27740583  -0.00121100  0.74285996  1
  Ta  Ta116  1  0.33861367  0.28431345  0.24569471  1
  Ta  Ta117  1  0.36943983  0.34353801  0.74321643  1
  Ta  Ta118  1  0.31929881  0.64603893  0.24556279  1
  Ta  Ta119  1  0.31500442  0.64433178  0.75128484  1
  Ta  Ta120  1  0.61906215  0.00071681  0.25301930  1
  Ta  Ta121  1  0.66107760  -0.03363761  0.74583108  1
  Ta  Ta122  1  0.70921797  0.33246352  0.25724764  1
  Ta  Ta123  1  0.61582444  0.34046726  0.74502269  1
  Ta  Ta124  1  0.64896420  0.63797852  0.25465264  1
  Ta  Ta125  1  0.66095892  0.70600849  0.74823241  1
  Ta  Ta126  1  0.00424151  -0.01775718  0.00799874  1
  Ta  Ta127  1  -0.04750787  -0.00604614  0.49492163  1
  Ta  Ta128  1  0.05304408  0.32522377  -0.00091121  1
  Ta  Ta129  1  0.00813910  0.36748686  0.49667092  1
  Ta  Ta130  1  -0.04639488  0.65336722  0.00380377  1
  Ta  Ta131  1  -0.00039335  0.60730638  0.50449775  1
  Ta  Ta132  1  0.32645979  -0.05425741  -0.01491694  1
  Ta  Ta133  1  0.30110787  -0.00607483  0.51264731  1
  Ta  Ta134  1  0.29074919  0.32967786  0.00559277  1
  Ta  Ta135  1  0.33849121  0.30015926  0.49389692  1
  Ta  Ta136  1  0.32735208  0.72812809  -0.00778634  1
  Ta  Ta137  1  0.37083517  0.66737788  0.49231509  1
  Ta  Ta138  1  0.66932985  0.04176838  -0.00255808  1
  Ta  Ta139  1  0.70266982  0.00449732  0.49750229  1
  Ta  Ta140  1  0.66819450  0.30420096  -0.00783345  1
  Ta  Ta141  1  0.65105708  0.31055256  0.50610236  1
  Ta  Ta142  1  0.68672623  0.65157970  0.00085120  1
  Ta  Ta143  1  0.61902751  0.66805124  0.49716669  1
  N  N144  1  0.66488380  0.67179829  0.88043853  1
  N  N145  1  0.34456378  0.32347444  0.36866754  1
  N  N146  1  0.16711301  0.50125032  0.62877447  1
  N  N147  1  0.32863829  0.68146505  0.87069940  1
  N  N148  1  0.83853892  0.48777144  0.12556152  1
  N  N149  1  0.50445664  0.17869106  0.87078778  1
  N  N150  1  0.83429939  0.49513660  0.62499215  1
  N  N151  1  -0.00459537  -0.01085766  0.37505677  1
  N  N152  1  0.16706351  0.50010501  0.12816096  1
  N  N153  1  0.65650713  0.67448820  0.62218811  1
  N  N154  1  -0.00511382  0.65878605  0.12954338  1
  N  N155  1  0.01070121  0.32151595  0.87399913  1
  N  N156  1  0.34059428  0.32363373  0.11898446  1
  N  N157  1  0.16937997  0.17565122  0.87442787  1
  N  N158  1  0.66379886  0.00116815  0.62258306  1
  N  N159  1  0.49599175  0.51948900  0.62650874  1
  N  N160  1  0.84292936  0.16054478  0.62370998  1
  N  N161  1  0.66248720  0.34647054  0.63155284  1
  N  N162  1  0.66265570  0.67173032  0.37278273  1
  N  N163  1  0.33909093  0.33465569  0.62286326  1
  N  N164  1  0.50814637  0.16515623  0.12120857  1
  N  N165  1  0.16836725  0.50515267  0.37560953  1
  N  N166  1  0.32275059  -0.00720067  0.86719650  1
  N  N167  1  0.33744706  -0.00312371  0.63068496  1
  N  N168  1  0.50554580  0.50040945  0.12712395  1
  N  N169  1  0.49355172  0.85016389  0.38133354  1
  N  N170  1  0.67888899  0.33190791  0.38207725  1
  N  N171  1  0.50227423  0.50859302  0.87890542  1
  N  N172  1  0.33637453  0.66831711  0.36737988  1
  N  N173  1  0.65959003  0.00510366  0.37126344  1
  N  N174  1  0.16833722  0.50341486  0.88022469  1
  N  N175  1  0.00415883  0.32814954  0.37970070  1
  N  N176  1  -0.01315130  0.00421670  0.62953853  1
  O  O177  1  0.67795542  0.32292437  0.11893606  1
  O  O178  1  0.00357518  0.65355409  0.38075272  1
  O  O179  1  0.50233613  0.83669054  0.87075853  1
  O  O180  1  0.50393655  0.84048054  0.62484420  1
  O  O181  1  0.17384353  0.17214571  0.62120941  1
  O  O182  1  0.00212825  0.65052482  0.62648676  1
  O  O183  1  0.65866994  0.01715955  0.12495180  1
  O  O184  1  0.81513128  0.84482284  0.62435844  1
  O  O185  1  0.01269690  0.32092946  0.62287352  1
  O  O186  1  -0.00484454  0.65450291  0.87717685  1
  O  O187  1  0.50969459  0.17551988  0.37681728  1
  O  O188  1  0.83571782  0.16895837  0.36695811  1
  O  O189  1  0.67305593  0.33013361  0.86685260  1
  O  O190  1  0.19731503  0.15980055  0.36771016  1
  O  O191  1  0.83194302  0.50138407  0.87676069  1
  O  O192  1  0.16779410  0.83863799  0.37525128  1
  O  O193  1  0.19583499  0.15008296  0.11766154  1
  O  O194  1  0.67123923  0.01274881  0.87169178  1
  O  O195  1  0.33625030  -0.00889683  0.12209985  1
  O  O196  1  0.14109302  0.85898494  0.62302150  1
  O  O197  1  0.83215527  0.16509472  0.87516001  1
  O  O198  1  0.84619411  0.82307162  0.38148661  1
  O  O199  1  0.33487212  0.66766201  0.62324935  1
  O  O200  1  0.80673844  0.82228795  0.88911821  1
  O  O201  1  0.84201367  0.47990758  0.37683409  1
  O  O202  1  0.82598447  0.18507603  0.11798025  1
  O  O203  1  0.32757815  0.68751151  0.11704427  1
  O  O204  1  0.00999477  0.32762808  0.12494042  1
  O  O205  1  0.16439538  0.83677367  0.12861886  1
  O  O206  1  0.47207849  0.84958164  0.13210927  1
  O  O207  1  0.49759147  0.49647568  0.37757665  1
  O  O208  1  -0.00787127  -0.01502390  0.13369914  1
  O  O209  1  -0.00359789  -0.00099077  0.88274407  1
  O  O210  1  0.33566693  -0.00073016  0.37838018  1
  O  O211  1  0.65215896  0.67709881  0.13124127  1
  O  O212  1  0.50209130  0.16556304  0.62937451  1
  O  O213  1  0.33096171  0.32964781  0.87138756  1
  O  O214  1  0.84477912  0.81011832  0.13150136  1
  O  O215  1  0.15826015  0.84989301  0.87038955  1
