# generated using pymatgen
data_Sr24Ta24N11O13
_symmetry_space_group_name_H-M   'P 1'
_cell_length_a   16.79524371
_cell_length_b   16.75175346
_cell_length_c   15.77518481
_cell_angle_alpha   89.97238930
_cell_angle_beta   89.80481270
_cell_angle_gamma   89.76373273
_symmetry_Int_Tables_number   1
_chemical_formula_structural   Sr24Ta24N11O13
_chemical_formula_sum   'Sr72 Ta72 N33 O39'
_cell_volume   4438.28083263
_cell_formula_units_Z   3
loop_
 _symmetry_equiv_pos_site_id
 _symmetry_equiv_pos_as_xyz
  1  'x, y, z'
loop_
 _atom_site_type_symbol
 _atom_site_label
 _atom_site_symmetry_multiplicity
 _atom_site_fract_x
 _atom_site_fract_y
 _atom_site_fract_z
 _atom_site_occupancy
  Sr  Sr0  1  0.03541775  0.18077624  0.10137817  1
  Sr  Sr1  1  -0.00471289  0.17259268  0.62875029  1
  Sr  Sr2  1  0.01338656  0.50658129  0.12745895  1
  Sr  Sr3  1  0.00235428  0.51722963  0.59949334  1
  Sr  Sr4  1  0.00296745  0.84634506  0.14652228  1
  Sr  Sr5  1  0.02162162  0.84061905  0.62216121  1
  Sr  Sr6  1  0.34149244  0.16958973  0.15379957  1
  Sr  Sr7  1  0.34360480  0.16326339  0.61724333  1
  Sr  Sr8  1  0.34721106  0.49458291  0.09638113  1
  Sr  Sr9  1  0.33456140  0.51020626  0.61596777  1
  Sr  Sr10  1  0.34162446  0.83254661  0.11681541  1
  Sr  Sr11  1  0.33568391  0.83139096  0.65914091  1
  Sr  Sr12  1  0.66631406  0.16263141  0.13115205  1
  Sr  Sr13  1  0.67972638  0.17579513  0.58125519  1
  Sr  Sr14  1  0.67363183  0.50582664  0.14690742  1
  Sr  Sr15  1  0.66821304  0.48023929  0.66013812  1
  Sr  Sr16  1  0.68113380  0.81877681  0.07521419  1
  Sr  Sr17  1  0.66231599  0.84123234  0.63631194  1
  Sr  Sr18  1  0.16202582  -0.00531904  0.10267887  1
  Sr  Sr19  1  0.15935530  0.00973368  0.58836604  1
  Sr  Sr20  1  0.15935602  0.35349847  0.11443835  1
  Sr  Sr21  1  0.15868194  0.30923579  0.66697870  1
  Sr  Sr22  1  0.14621084  0.68175626  0.17063458  1
  Sr  Sr23  1  0.17028432  0.65793792  0.62023376  1
  Sr  Sr24  1  0.49167748  0.01094087  0.16332346  1
  Sr  Sr25  1  0.50541771  -0.00522622  0.61864111  1
  Sr  Sr26  1  0.49471956  0.32848340  0.08800055  1
  Sr  Sr27  1  0.48633512  0.33687722  0.63396597  1
  Sr  Sr28  1  0.49268051  0.66380205  0.13516951  1
  Sr  Sr29  1  0.49431036  0.66457803  0.59196300  1
  Sr  Sr30  1  0.81349044  -0.00365735  0.11814987  1
  Sr  Sr31  1  0.84758574  -0.00744442  0.66402155  1
  Sr  Sr32  1  0.80339402  0.32466263  0.15231291  1
  Sr  Sr33  1  0.84816272  0.32789149  0.61561403  1
  Sr  Sr34  1  0.82776297  0.65447721  0.10389772  1
  Sr  Sr35  1  0.80309007  0.66423689  0.62800289  1
  Sr  Sr36  1  0.00904354  0.17492066  0.39482165  1
  Sr  Sr37  1  -0.00107833  0.17976969  0.85777850  1
  Sr  Sr38  1  0.01129055  0.50033464  0.37763640  1
  Sr  Sr39  1  0.00449897  0.51287091  0.90212668  1
  Sr  Sr40  1  0.01242776  0.84442511  0.36696347  1
  Sr  Sr41  1  0.01379369  0.84307442  0.86479526  1
  Sr  Sr42  1  0.33774776  0.15290220  0.38355247  1
  Sr  Sr43  1  0.35711577  0.17356683  0.83582741  1
  Sr  Sr44  1  0.34654976  0.50674279  0.40515480  1
  Sr  Sr45  1  0.32978772  0.50173624  0.88555559  1
  Sr  Sr46  1  0.35500159  0.82038574  0.33137762  1
  Sr  Sr47  1  0.33196864  0.84092471  0.88336993  1
  Sr  Sr48  1  0.68017968  0.14817012  0.35454936  1
  Sr  Sr49  1  0.66880054  0.17513982  0.92050107  1
  Sr  Sr50  1  0.66978043  0.50471927  0.34089647  1
  Sr  Sr51  1  0.68115736  0.49339266  0.85680632  1
  Sr  Sr52  1  0.65647691  0.81047588  0.42222994  1
  Sr  Sr53  1  0.67153179  0.83495300  0.86425387  1
  Sr  Sr54  1  0.15739088  0.00488742  0.39528855  1
  Sr  Sr55  1  0.16585171  -0.00161422  0.90601769  1
  Sr  Sr56  1  0.16509629  0.32373115  0.33303667  1
  Sr  Sr57  1  0.15273503  0.33631139  0.89215637  1
  Sr  Sr58  1  0.16093374  0.65537064  0.38902731  1
  Sr  Sr59  1  0.16204487  0.68089544  0.83313964  1
  Sr  Sr60  1  0.50392773  0.00024256  0.37782972  1
  Sr  Sr61  1  0.48805146  -0.00547811  0.83674937  1
  Sr  Sr62  1  0.47527428  0.33285179  0.40741855  1
  Sr  Sr63  1  0.49607445  0.33570633  0.86708302  1
  Sr  Sr64  1  0.49955355  0.65519812  0.36508899  1
  Sr  Sr65  1  0.47425077  0.68273955  0.92224231  1
  Sr  Sr66  1  0.84189024  -0.01437894  0.33277719  1
  Sr  Sr67  1  0.81735377  -0.00287503  0.88077820  1
  Sr  Sr68  1  0.82497039  0.32152043  0.38555570  1
  Sr  Sr69  1  0.82968088  0.32795238  0.85355303  1
  Sr  Sr70  1  0.81473842  0.66156250  0.38626900  1
  Sr  Sr71  1  0.81602868  0.65829599  0.88747455  1
  Ta  Ta72  1  0.21848223  0.16729685  -0.00409582  1
  Ta  Ta73  1  0.17237408  0.20279520  0.50194430  1
  Ta  Ta74  1  0.16977167  0.55734934  0.00778215  1
  Ta  Ta75  1  0.17169401  0.45384226  0.50147408  1
  Ta  Ta76  1  0.16262198  0.80089826  0.00082961  1
  Ta  Ta77  1  0.20708211  0.83004658  0.49701523  1
  Ta  Ta78  1  0.48401717  0.14065193  -0.00093573  1
  Ta  Ta79  1  0.51500616  0.16977303  0.49313190  1
  Ta  Ta80  1  0.53852585  0.50283315  0.00378922  1
  Ta  Ta81  1  0.53955490  0.49437952  0.49718295  1
  Ta  Ta82  1  0.50285549  0.87675993  0.00021202  1
  Ta  Ta83  1  0.46337212  0.83306066  0.50419189  1
  Ta  Ta84  1  0.85719904  0.17277585  -0.00063779  1
  Ta  Ta85  1  0.83978922  0.11547374  0.48996062  1
  Ta  Ta86  1  0.82354609  0.46834944  0.00085675  1
  Ta  Ta87  1  0.79335655  0.49619591  0.50079856  1
  Ta  Ta88  1  0.87429487  0.83254331  -0.00113943  1
  Ta  Ta89  1  0.84852181  0.85139542  0.50063432  1
  Ta  Ta90  1  0.16674725  0.13545880  0.25453900  1
  Ta  Ta91  1  0.17598047  0.12426479  0.74540812  1
  Ta  Ta92  1  0.20982838  0.50199801  0.25217339  1
  Ta  Ta93  1  0.16030523  0.48703017  0.74701944  1
  Ta  Ta94  1  0.18069546  0.86773628  0.24656858  1
  Ta  Ta95  1  0.17311695  0.88201411  0.75300984  1
  Ta  Ta96  1  0.50335350  0.20675982  0.24931951  1
  Ta  Ta97  1  0.55127354  0.16799720  0.75171953  1
  Ta  Ta98  1  0.48423568  0.46860006  0.24888857  1
  Ta  Ta99  1  0.49166226  0.53610705  0.75623002  1
  Ta  Ta100  1  0.54211128  0.82838675  0.24079457  1
  Ta  Ta101  1  0.50041385  0.79317514  0.75426794  1
  Ta  Ta102  1  0.88191204  0.16608515  0.24670053  1
  Ta  Ta103  1  0.78941490  0.16317055  0.75330060  1
  Ta  Ta104  1  0.86037617  0.49915398  0.25774593  1
  Ta  Ta105  1  0.86818703  0.50474785  0.75323637  1
  Ta  Ta106  1  0.81231630  0.80938245  0.24149775  1
  Ta  Ta107  1  0.85641939  0.80973437  0.75783877  1
  Ta  Ta108  1  0.01850713  0.03191359  0.25172395  1
  Ta  Ta109  1  0.03621678  0.00566688  0.74389588  1
  Ta  Ta110  1  -0.02345820  0.33101388  0.24682467  1
  Ta  Ta111  1  0.00004205  0.38087401  0.74909068  1
  Ta  Ta112  1  -0.04448122  0.66562800  0.24866930  1
  Ta  Ta113  1  -0.03239803  0.66377835  0.75320412  1
  Ta  Ta114  1  0.29803217  -0.00354548  0.25360529  1
  Ta  Ta115  1  0.29525460  0.00196381  0.74403038  1
  Ta  Ta116  1  0.34888576  0.35212499  0.24915843  1
  Ta  Ta117  1  0.31477863  0.36110253  0.74960381  1
  Ta  Ta118  1  0.32421284  0.63369247  0.25224775  1
  Ta  Ta119  1  0.36357969  0.66104472  0.74801001  1
  Ta  Ta120  1  0.66699155  -0.07233775  0.24833221  1
  Ta  Ta121  1  0.66722435  0.04482725  0.74983092  1
  Ta  Ta122  1  0.61548404  0.33147271  0.24831528  1
  Ta  Ta123  1  0.66825461  0.28874520  0.74901693  1
  Ta  Ta124  1  0.66988125  0.71020249  0.24340441  1
  Ta  Ta125  1  0.61502420  0.66173510  0.75451536  1
  Ta  Ta126  1  -0.02303877  0.00862742  -0.00319627  1
  Ta  Ta127  1  -0.03707807  -0.00077699  0.49762517  1
  Ta  Ta128  1  -0.04792889  0.33749977  0.00883123  1
  Ta  Ta129  1  0.04544383  0.33952086  0.50495673  1
  Ta  Ta130  1  0.01828825  0.69087872  0.00661649  1
  Ta  Ta131  1  -0.03144236  0.69623741  0.49965620  1
  Ta  Ta132  1  0.35268170  0.02458400  -0.00100124  1
  Ta  Ta133  1  0.33372514  -0.04890286  0.49283580  1
  Ta  Ta134  1  0.32500314  0.29692778  -0.00745045  1
  Ta  Ta135  1  0.28806732  0.33055291  0.50729274  1
  Ta  Ta136  1  0.28336545  0.67300758  0.00400335  1
  Ta  Ta137  1  0.32908782  0.70672892  0.49793735  1
  Ta  Ta138  1  0.62081478  -0.00224959  0.00306774  1
  Ta  Ta139  1  0.71576162  -0.00826421  0.49804870  1
  Ta  Ta140  1  0.67333708  0.36400815  0.00382991  1
  Ta  Ta141  1  0.65647083  0.36480632  0.49621363  1
  Ta  Ta142  1  0.64969884  0.63258091  0.00374248  1
  Ta  Ta143  1  0.66046243  0.61007479  0.50152790  1
  N  N144  1  0.50590279  0.15973304  0.37285223  1
  N  N145  1  0.83723267  0.49610306  0.87559212  1
  N  N146  1  0.32801041  0.32883289  0.62843983  1
  N  N147  1  0.49689406  0.83580669  0.87249008  1
  N  N148  1  0.83227609  0.49138277  0.37862000  1
  N  N149  1  -0.00564603  0.67454857  0.13098516  1
  N  N150  1  0.17744935  0.48952040  0.37382458  1
  N  N151  1  0.50124713  0.17044908  0.12523978  1
  N  N152  1  0.00513804  0.34849724  0.62878090  1
  N  N153  1  0.51079399  0.16632191  0.87454070  1
  N  N154  1  0.83154133  0.16551121  0.88024988  1
  N  N155  1  0.50584486  0.49538662  0.37589942  1
  N  N156  1  0.65260214  0.33530327  0.12275628  1
  N  N157  1  0.17283652  0.16534958  0.37373772  1
  N  N158  1  0.17036807  0.15991378  0.62320057  1
  N  N159  1  0.17273469  0.51280983  0.12482368  1
  N  N160  1  0.33344658  0.66993825  0.62696325  1
  N  N161  1  0.00009290  0.33906918  0.12371234  1
  N  N162  1  0.16734438  0.83982210  0.12626690  1
  N  N163  1  0.16891956  0.49959285  0.62634162  1
  N  N164  1  0.83311267  0.82946167  0.87641017  1
  N  N165  1  0.50449698  0.49852445  0.12478554  1
  N  N166  1  0.84202716  0.15127728  0.36125142  1
  N  N167  1  0.83505898  0.82681411  0.11997425  1
  N  N168  1  0.33416822  -0.00848867  0.37249441  1
  N  N169  1  0.50358361  0.83560575  0.11904847  1
  N  N170  1  0.17087129  0.84078605  0.87401581  1
  N  N171  1  0.00052216  0.00411958  0.37178020  1
  N  N172  1  0.33290510  0.66440064  0.37189617  1
  N  N173  1  0.49868046  0.83121315  0.62475959  1
  N  N174  1  0.66442973  0.66557357  0.12615693  1
  N  N175  1  0.33177018  0.32907096  0.87285827  1
  N  N176  1  0.00426387  0.00382699  0.62377351  1
  O  O177  1  0.64476907  0.66542436  0.87671653  1
  O  O178  1  0.50452386  0.82764782  0.37959266  1
  O  O179  1  -0.00337037  0.01278948  0.87208141  1
  O  O180  1  0.82683097  0.15892004  0.13105224  1
  O  O181  1  -0.02198450  0.68805982  0.37517215  1
  O  O182  1  0.33079898  0.00858805  0.87457052  1
  O  O183  1  0.32749627  0.66868358  0.12693017  1
  O  O184  1  0.31943540  -0.00649112  0.61507868  1
  O  O185  1  0.18120079  0.83946883  0.62505729  1
  O  O186  1  0.32220574  0.67034430  0.87169813  1
  O  O187  1  0.66303218  0.33151213  0.61990203  1
  O  O188  1  -0.00095752  0.01118315  0.11940082  1
  O  O189  1  0.51697058  0.16949275  0.62425204  1
  O  O190  1  0.16592556  0.51870758  0.88194037  1
  O  O191  1  0.64651694  0.64416184  0.63077072  1
  O  O192  1  0.66361330  0.66204880  0.37091622  1
  O  O193  1  0.82626639  0.14800838  0.62862918  1
  O  O194  1  0.19464359  0.15733508  0.87256509  1
  O  O195  1  0.48975281  0.51535024  0.88173800  1
  O  O196  1  0.64609307  0.01828055  0.88036837  1
  O  O197  1  0.65226647  -0.01772117  0.12744759  1
  O  O198  1  0.65800541  0.34985406  0.37082190  1
  O  O199  1  0.33604219  0.33241973  0.12359550  1
  O  O200  1  0.32584430  0.33866735  0.37352795  1
  O  O201  1  0.18952419  0.15671266  0.12144691  1
  O  O202  1  0.00970001  0.33915138  0.37581813  1
  O  O203  1  0.83263721  0.83176447  0.37774302  1
  O  O204  1  0.83186254  0.49213578  0.13139046  1
  O  O205  1  0.66962257  0.32886440  0.87489684  1
  O  O206  1  -0.00775833  0.35054107  0.88442471  1
  O  O207  1  0.84300832  0.83686051  0.63162399  1
  O  O208  1  0.69015046  0.01252472  0.61993741  1
  O  O209  1  -0.00123894  0.66866824  0.87402366  1
  O  O210  1  0.33686147  0.01052444  0.12507831  1
  O  O211  1  0.82727762  0.49656053  0.62670660  1
  O  O212  1  -0.03273151  0.67429606  0.62139793  1
  O  O213  1  0.50708873  0.50763987  0.63279119  1
  O  O214  1  0.17817950  0.83114942  0.37357642  1
  O  O215  1  0.69079730  -0.03828887  0.37736024  1
