# generated using pymatgen
data_HfZrTaTiMo
_symmetry_space_group_name_H-M   'P 1'
_cell_length_a   15.21671593
_cell_length_b   15.21217972
_cell_length_c   16.85776389
_cell_angle_alpha   90.00461352
_cell_angle_beta   89.98717914
_cell_angle_gamma   89.86968708
_symmetry_Int_Tables_number   1
_chemical_formula_structural   HfZrTaTiMo
_chemical_formula_sum   'Hf40 Zr40 Ta40 Ti40 Mo40'
_cell_volume   3902.21516362
_cell_formula_units_Z   40
loop_
 _symmetry_equiv_pos_site_id
 _symmetry_equiv_pos_as_xyz
  1  'x, y, z'
loop_
 _atom_site_type_symbol
 _atom_site_label
 _atom_site_symmetry_multiplicity
 _atom_site_fract_x
 _atom_site_fract_y
 _atom_site_fract_z
 _atom_site_occupancy
  Hf  Hf0  1  0.69786954  0.29594289  0.62252499  1
  Hf  Hf1  1  0.31113450  0.09453125  0.64279275  1
  Hf  Hf2  1  0.29069685  0.50022577  0.62397584  1
  Hf  Hf3  1  0.79119963  0.18647328  0.49794377  1
  Hf  Hf4  1  0.59648739  0.39674481  0.76214456  1
  Hf  Hf5  1  0.00815766  0.60489061  0.23710749  1
  Hf  Hf6  1  0.49337106  0.50752243  0.88038383  1
  Hf  Hf7  1  0.18149188  0.60476523  0.00208482  1
  Hf  Hf8  1  0.61163903  0.19734521  0.76728932  1
  Hf  Hf9  1  0.60700924  0.62462388  -0.00270310  1
  Hf  Hf10  1  0.18355784  0.60236216  0.74566707  1
  Hf  Hf11  1  0.51395322  0.87774404  0.11169308  1
  Hf  Hf12  1  0.00835246  0.20219225  -0.00987017  1
  Hf  Hf13  1  0.29943999  0.49551166  0.37795447  1
  Hf  Hf14  1  0.10025085  0.29868624  0.38639369  1
  Hf  Hf15  1  -0.00229774  0.40390889  0.01122657  1
  Hf  Hf16  1  0.21772965  0.19368254  0.51181277  1
  Hf  Hf17  1  0.28694729  0.69801289  0.14145546  1
  Hf  Hf18  1  0.20888712  0.02778162  0.24730979  1
  Hf  Hf19  1  0.39821006  -0.01541486  -0.01524387  1
  Hf  Hf20  1  0.70851695  0.50681648  0.12916814  1
  Hf  Hf21  1  0.48464397  0.29568573  0.10305657  1
  Hf  Hf22  1  0.30228678  0.30337816  0.87862552  1
  Hf  Hf23  1  0.29719848  0.91046502  0.12213697  1
  Hf  Hf24  1  0.69125079  0.49412603  0.61741056  1
  Hf  Hf25  1  0.70213607  0.50685288  0.37965979  1
  Hf  Hf26  1  0.49722405  0.71689007  0.63268161  1
  Hf  Hf27  1  0.59545957  0.02202072  0.50844047  1
  Hf  Hf28  1  0.60345884  -0.00149133  0.24240764  1
  Hf  Hf29  1  0.50243244  0.50520363  0.11992189  1
  Hf  Hf30  1  0.38782878  0.60907765  0.74847846  1
  Hf  Hf31  1  0.41692429  -0.00926232  0.76942955  1
  Hf  Hf32  1  -0.00575952  0.78855720  0.00641978  1
  Hf  Hf33  1  0.40425525  0.38750931  0.24716375  1
  Hf  Hf34  1  0.80378900  0.79617594  0.51518513  1
  Hf  Hf35  1  0.07874322  0.49632335  0.87641693  1
  Hf  Hf36  1  0.29980021  0.48853415  0.12025328  1
  Hf  Hf37  1  0.41589571  0.20631788  0.75498927  1
  Hf  Hf38  1  0.11937268  0.28935880  0.12616605  1
  Hf  Hf39  1  0.79866233  0.19745739  0.25515133  1
  Zr  Zr40  1  0.10075372  0.09154245  0.11748330  1
  Zr  Zr41  1  0.78016534  0.79985028  -0.00503780  1
  Zr  Zr42  1  0.59907392  0.60433545  0.75231507  1
  Zr  Zr43  1  0.50693851  0.90950162  0.37591659  1
  Zr  Zr44  1  0.50490512  0.49970669  0.37698768  1
  Zr  Zr45  1  0.20194085  0.39524054  0.25643031  1
  Zr  Zr46  1  0.19619577  0.80187400  0.48956720  1
  Zr  Zr47  1  0.50259720  0.28982731  0.37452919  1
  Zr  Zr48  1  0.70342060  0.29527678  0.13099402  1
  Zr  Zr49  1  0.29943769  0.91712326  0.36924836  1
  Zr  Zr50  1  0.39986885  0.60222802  0.50792429  1
  Zr  Zr51  1  0.29422175  0.69378249  0.36539933  1
  Zr  Zr52  1  0.17646643  0.80775207  0.24965754  1
  Zr  Zr53  1  0.90136685  0.09316190  0.38160317  1
  Zr  Zr54  1  0.00560401  0.19264493  0.25311674  1
  Zr  Zr55  1  0.89010076  0.49062472  0.60794989  1
  Zr  Zr56  1  0.90691190  0.89481001  0.38217780  1
  Zr  Zr57  1  0.70720705  0.90447571  0.38143861  1
  Zr  Zr58  1  0.11300328  0.89009187  0.63643367  1
  Zr  Zr59  1  0.90485848  0.29004698  0.61721527  1
  Zr  Zr60  1  0.62394077  0.19632160  -0.01004664  1
  Zr  Zr61  1  0.29142499  0.50400792  0.87702722  1
  Zr  Zr62  1  0.11021857  0.09748216  0.38756670  1
  Zr  Zr63  1  0.80723698  0.61309670  0.24338964  1
  Zr  Zr64  1  0.68790325  0.89959005  0.63465228  1
  Zr  Zr65  1  0.39226882  0.62288995  0.00086547  1
  Zr  Zr66  1  0.90985999  0.09809315  0.84765783  1
  Zr  Zr67  1  0.88767530  0.89438949  0.86135787  1
  Zr  Zr68  1  0.61078853  0.40900824  -0.00870787  1
  Zr  Zr69  1  -0.00820630  0.40053197  0.24677969  1
  Zr  Zr70  1  0.22000701  -0.01921629  0.76319834  1
  Zr  Zr71  1  -0.02585763  0.79997484  0.23350115  1
  Zr  Zr72  1  0.09806995  0.10483774  0.64755617  1
  Zr  Zr73  1  0.41301432  0.80009328  0.25017394  1
  Zr  Zr74  1  -0.01429611  0.59552602  0.73408129  1
  Zr  Zr75  1  0.10840555  0.30641221  0.63038393  1
  Zr  Zr76  1  0.80817976  0.39401271  -0.00627250  1
  Zr  Zr77  1  0.50317619  0.09127161  0.10423534  1
  Zr  Zr78  1  0.69748972  0.30544635  0.37559092  1
  Zr  Zr79  1  0.09315900  0.89367335  0.86677689  1
  Ta  Ta80  1  0.59728720  0.61604353  0.24719335  1
  Ta  Ta81  1  -0.00999746  0.00086359  -0.00681810  1
  Ta  Ta82  1  0.47914092  0.72746922  0.86543295  1
  Ta  Ta83  1  0.80760842  -0.00588210  0.24581996  1
  Ta  Ta84  1  0.29676400  0.11976959  0.09846353  1
  Ta  Ta85  1  0.90395677  0.50209780  0.38631812  1
  Ta  Ta86  1  0.81592873  0.18733210  -0.00774415  1
  Ta  Ta87  1  0.19484130  0.39197557  -0.00177019  1
  Ta  Ta88  1  -0.00011635  0.00427245  0.51998580  1
  Ta  Ta89  1  0.39516359  0.00943106  0.50655581  1
  Ta  Ta90  1  0.72003317  0.51595500  0.87443362  1
  Ta  Ta91  1  0.49678737  0.30327153  0.89159543  1
  Ta  Ta92  1  0.88963894  0.67773943  0.87704256  1
  Ta  Ta93  1  0.42421564  0.19655553  0.52057364  1
  Ta  Ta94  1  0.40083635  0.80974728  0.49854940  1
  Ta  Ta95  1  0.31472485  0.30521574  0.63750923  1
  Ta  Ta96  1  0.79740973  0.78601592  0.74365287  1
  Ta  Ta97  1  0.89599389  0.69684738  0.38010918  1
  Ta  Ta98  1  0.08447143  0.70063661  0.37762419  1
  Ta  Ta99  1  0.10530677  0.10484771  0.85639554  1
  Ta  Ta100  1  0.89677701  0.09979288  0.64262413  1
  Ta  Ta101  1  0.89853454  0.09469971  0.12229560  1
  Ta  Ta102  1  0.50737247  0.70328606  0.37920822  1
  Ta  Ta103  1  0.90395540  0.90145298  0.64145351  1
  Ta  Ta104  1  0.20636063  0.79968391  -0.00219565  1
  Ta  Ta105  1  0.80065877  0.39830151  0.75818412  1
  Ta  Ta106  1  0.08927039  0.69725594  0.87511606  1
  Ta  Ta107  1  0.62617549  -0.01877953  -0.01371481  1
  Ta  Ta108  1  0.69762991  0.69609681  0.62783605  1
  Ta  Ta109  1  0.20531906  0.40111779  0.49964505  1
  Ta  Ta110  1  0.68350028  0.10275181  0.36850212  1
  Ta  Ta111  1  0.50919914  0.09844286  0.88995490  1
  Ta  Ta112  1  0.29015000  0.71945321  0.62483315  1
  Ta  Ta113  1  0.58649141  0.19674892  0.23961774  1
  Ta  Ta114  1  0.30531583  0.28157280  0.38204411  1
  Ta  Ta115  1  0.69831643  0.70718234  0.37773996  1
  Ta  Ta116  1  0.38319752  0.19237498  0.24019470  1
  Ta  Ta117  1  0.19353506  0.00040577  -0.01739236  1
  Ta  Ta118  1  -0.00200021  0.60769450  0.50483308  1
  Ta  Ta119  1  0.90168614  0.30460677  0.39558593  1
  Ti  Ti120  1  0.68854765  0.71587642  0.86019849  1
  Ti  Ti121  1  -0.00143231  0.80157088  0.50910919  1
  Ti  Ti122  1  0.20488105  -0.00449207  0.51005581  1
  Ti  Ti123  1  0.48810719  0.10472410  0.37091366  1
  Ti  Ti124  1  -0.00237717  0.40397941  0.74277098  1
  Ti  Ti125  1  0.59719941  0.60712104  0.50445362  1
  Ti  Ti126  1  0.60195320  0.40232602  0.24521325  1
  Ti  Ti127  1  0.01027491  0.40757713  0.50177193  1
  Ti  Ti128  1  0.59684839  0.80151365  0.50339414  1
  Ti  Ti129  1  0.71194705  0.08993744  0.12021007  1
  Ti  Ti130  1  0.70683944  0.89398368  0.12783793  1
  Ti  Ti131  1  0.80264131  -0.00315051  0.51609112  1
  Ti  Ti132  1  0.40290990  0.59585065  0.24948910  1
  Ti  Ti133  1  0.70251038  0.10095126  0.64015809  1
  Ti  Ti134  1  0.80684437  0.59960700  0.01059765  1
  Ti  Ti135  1  0.89074634  0.90661154  0.11532171  1
  Ti  Ti136  1  0.18972319  0.59875323  0.50323527  1
  Ti  Ti137  1  0.90018655  0.29197498  0.12604464  1
  Ti  Ti138  1  0.49060674  0.48490082  0.63117145  1
  Ti  Ti139  1  0.79743741  0.60403580  0.50233569  1
  Ti  Ti140  1  0.09947548  0.51016068  0.37615381  1
  Ti  Ti141  1  0.10648918  0.50293135  0.12946595  1
  Ti  Ti142  1  0.09644119  0.89971243  0.11239282  1
  Ti  Ti143  1  -0.01297800  0.59725604  0.02055664  1
  Ti  Ti144  1  0.39890293  0.38878155  0.50551763  1
  Ti  Ti145  1  0.79951260  0.59507327  0.74281901  1
  Ti  Ti146  1  0.20331802  0.40029819  0.75078583  1
  Ti  Ti147  1  0.09572189  0.69617970  0.61965514  1
  Ti  Ti148  1  -0.00140051  0.78389526  0.74590372  1
  Ti  Ti149  1  0.09194003  0.90650299  0.38075154  1
  Ti  Ti150  1  0.00305064  -0.00634616  0.24432179  1
  Ti  Ti151  1  0.40510198  0.01008074  0.23834419  1
  Ti  Ti152  1  0.80533798  0.40361167  0.25490984  1
  Ti  Ti153  1  0.48812216  0.91190621  0.62784079  1
  Ti  Ti154  1  0.30086166  0.10680681  0.87854318  1
  Ti  Ti155  1  0.58966205  0.38953872  0.50470299  1
  Ti  Ti156  1  0.90548983  0.30405987  0.86455486  1
  Ti  Ti157  1  0.72151806  0.08637882  0.86817982  1
  Ti  Ti158  1  0.60510254  -0.00394462  0.76416074  1
  Ti  Ti159  1  0.10334116  0.29634991  0.85998499  1
  Mo  Mo160  1  0.21019478  0.20524080  0.75796173  1
  Mo  Mo161  1  0.51203010  0.89597392  0.88124662  1
  Mo  Mo162  1  0.38513794  0.81206455  0.74634363  1
  Mo  Mo163  1  0.10003261  0.49854719  0.61447205  1
  Mo  Mo164  1  0.31685869  0.10473491  0.38173901  1
  Mo  Mo165  1  0.29910638  0.29694178  0.10780281  1
  Mo  Mo166  1  0.30841761  0.87762813  0.88223591  1
  Mo  Mo167  1  0.39409175  0.79564307  0.00609469  1
  Mo  Mo168  1  0.00276352  0.21382283  0.75642270  1
  Mo  Mo169  1  0.09673415  0.70457239  0.11765192  1
  Mo  Mo170  1  0.78882308  0.80554502  0.24806703  1
  Mo  Mo171  1  0.31068882  0.89709118  0.62104772  1
  Mo  Mo172  1  0.79859097  0.20800632  0.75352316  1
  Mo  Mo173  1  0.89603984  0.70411798  0.62100225  1
  Mo  Mo174  1  0.61287354  0.79718872  0.25281832  1
  Mo  Mo175  1  0.89983875  0.49091295  0.12970386  1
  Mo  Mo176  1  0.70187233  0.89619648  0.85620270  1
  Mo  Mo177  1  0.19560383  0.19576903  -0.01956676  1
  Mo  Mo178  1  0.39549612  0.40518145  0.00167075  1
  Mo  Mo179  1  0.59221061  0.79801379  -0.01090562  1
  Mo  Mo180  1  0.50018208  0.69518804  0.13082485  1
  Mo  Mo181  1  0.21146942  0.20293694  0.25211722  1
  Mo  Mo182  1  0.59955247  0.19691626  0.50397114  1
  Mo  Mo183  1  0.50551700  0.30584478  0.62895852  1
  Mo  Mo184  1  0.19793719  0.78282152  0.75362395  1
  Mo  Mo185  1  0.68632692  0.71465644  0.12879517  1
  Mo  Mo186  1  0.51429501  0.09795733  0.63729800  1
  Mo  Mo187  1  0.00356403  -0.00530847  0.73893744  1
  Mo  Mo188  1  0.79776461  0.40227853  0.49332076  1
  Mo  Mo189  1  0.88357068  0.69916650  0.11656592  1
  Mo  Mo190  1  0.71455166  0.29839936  0.87132685  1
  Mo  Mo191  1  0.79390311  -0.00089652  0.73809330  1
  Mo  Mo192  1  0.28405261  0.70731002  0.87043966  1
  Mo  Mo193  1  0.80476327  0.00364475  -0.00140093  1
  Mo  Mo194  1  0.58837752  0.80807633  0.74804952  1
  Mo  Mo195  1  0.40148739  0.19491716  -0.01642377  1
  Mo  Mo196  1  0.40162120  0.40543992  0.74774111  1
  Mo  Mo197  1  0.89795882  0.49964830  0.87154577  1
  Mo  Mo198  1  0.00059164  0.19400963  0.50205701  1
  Mo  Mo199  1  0.19455738  0.59769831  0.25519288  1
