# generated using pymatgen
data_HfZrTaTiMo
_symmetry_space_group_name_H-M   'P 1'
_cell_length_a   15.21691624
_cell_length_b   15.21189207
_cell_length_c   16.86859476
_cell_angle_alpha   90.02974973
_cell_angle_beta   89.96983343
_cell_angle_gamma   89.92803781
_symmetry_Int_Tables_number   1
_chemical_formula_structural   HfZrTaTiMo
_chemical_formula_sum   'Hf40 Zr40 Ta40 Ti40 Mo40'
_cell_volume   3904.70590404
_cell_formula_units_Z   40
loop_
 _symmetry_equiv_pos_site_id
 _symmetry_equiv_pos_as_xyz
  1  'x, y, z'
loop_
 _atom_site_type_symbol
 _atom_site_label
 _atom_site_symmetry_multiplicity
 _atom_site_fract_x
 _atom_site_fract_y
 _atom_site_fract_z
 _atom_site_occupancy
  Hf  Hf0  1  0.40438253  0.40806869  0.49263610  1
  Hf  Hf1  1  0.30012094  0.09566267  0.11830751  1
  Hf  Hf2  1  0.31098795  0.70433170  0.64790842  1
  Hf  Hf3  1  0.49940613  0.51624552  0.62759370  1
  Hf  Hf4  1  0.69908806  0.49858123  0.63800299  1
  Hf  Hf5  1  0.70279564  0.89853349  0.38214222  1
  Hf  Hf6  1  0.62627266  0.60819269  -0.00374171  1
  Hf  Hf7  1  0.50556108  0.28922285  0.37959922  1
  Hf  Hf8  1  0.49674432  0.50701033  0.88531744  1
  Hf  Hf9  1  0.38884258  0.41430534  0.75049927  1
  Hf  Hf10  1  0.11864524  0.69558388  0.86162656  1
  Hf  Hf11  1  0.50053029  0.29858079  0.61729859  1
  Hf  Hf12  1  0.70821243  0.30526610  0.36272491  1
  Hf  Hf13  1  0.07966318  0.08462035  0.87407573  1
  Hf  Hf14  1  0.79466925  0.60122891  0.49748210  1
  Hf  Hf15  1  0.19312750  0.19636504  -0.01030520  1
  Hf  Hf16  1  -0.00229294  0.79138747  0.25338806  1
  Hf  Hf17  1  0.19421972  -0.01527232  -0.01149467  1
  Hf  Hf18  1  0.78622084  0.19304129  0.49173541  1
  Hf  Hf19  1  0.89246756  0.69617445  0.12208416  1
  Hf  Hf20  1  0.90330071  0.49799766  0.63736370  1
  Hf  Hf21  1  0.88682616  0.28743735  0.87801388  1
  Hf  Hf22  1  0.67822630  0.09782544  0.35906278  1
  Hf  Hf23  1  0.09702663  0.49235032  0.12550013  1
  Hf  Hf24  1  0.88765646  0.27473346  0.62838165  1
  Hf  Hf25  1  0.50495939  0.69149258  0.35993004  1
  Hf  Hf26  1  0.00399901  0.59938993  -0.00674442  1
  Hf  Hf27  1  0.30401087  0.90559471  0.64355391  1
  Hf  Hf28  1  0.49161737  0.31040364  0.11821014  1
  Hf  Hf29  1  0.40546689  0.62772017  0.49928526  1
  Hf  Hf30  1  0.90399641  0.30688920  0.12802525  1
  Hf  Hf31  1  0.39805963  0.80364002  0.24127278  1
  Hf  Hf32  1  0.19904475  0.38306246  0.26133249  1
  Hf  Hf33  1  0.09898585  0.29253760  0.12301384  1
  Hf  Hf34  1  -0.01720564  0.17939241  0.75052521  1
  Hf  Hf35  1  0.29597167  0.28451775  0.39340549  1
  Hf  Hf36  1  0.11814563  0.48700199  0.86854218  1
  Hf  Hf37  1  0.38606660  0.20188675  0.24916948  1
  Hf  Hf38  1  0.82057755  -0.00091647  0.50812656  1
  Hf  Hf39  1  0.80396117  0.02509062  0.74024606  1
  Zr  Zr40  1  -0.00187011  0.59843968  0.50278801  1
  Zr  Zr41  1  0.80306720  0.78963206  -0.01359645  1
  Zr  Zr42  1  0.28629364  0.30099856  0.61888114  1
  Zr  Zr43  1  0.39774695  0.19708339  -0.01351192  1
  Zr  Zr44  1  0.50361290  0.50595863  0.11887998  1
  Zr  Zr45  1  0.79416877  0.20584144  0.02225040  1
  Zr  Zr46  1  0.70785794  0.49487636  0.86717549  1
  Zr  Zr47  1  0.90912777  0.49084846  0.86389031  1
  Zr  Zr48  1  0.29885670  0.91532458  0.37878928  1
  Zr  Zr49  1  0.81505816  0.00395387  0.00017132  1
  Zr  Zr50  1  0.89521501  0.49003236  0.37275754  1
  Zr  Zr51  1  0.50473074  0.30697287  0.88473720  1
  Zr  Zr52  1  0.30593342  0.50007730  0.14134854  1
  Zr  Zr53  1  0.30379630  0.51343217  0.37639273  1
  Zr  Zr54  1  0.28402861  0.88457571  0.85432826  1
  Zr  Zr55  1  0.61014466  0.40541150  0.49311953  1
  Zr  Zr56  1  0.39311301  0.79904723  -0.01058201  1
  Zr  Zr57  1  0.10137483  0.09264105  0.13735369  1
  Zr  Zr58  1  0.00427049  0.38226458  0.51130165  1
  Zr  Zr59  1  0.50241955  0.91537470  0.11174840  1
  Zr  Zr60  1  0.49882416  0.90573077  0.38269745  1
  Zr  Zr61  1  0.70289839  0.88833939  0.11506842  1
  Zr  Zr62  1  0.59957569  0.01363258  0.51074726  1
  Zr  Zr63  1  0.28930227  0.51119032  0.61142665  1
  Zr  Zr64  1  0.81195846  0.81798452  0.75573326  1
  Zr  Zr65  1  0.21530057  0.80067858  0.51141754  1
  Zr  Zr66  1  0.10437043  0.69937197  0.38318296  1
  Zr  Zr67  1  0.51661959  0.70307350  0.12577215  1
  Zr  Zr68  1  0.80247027  0.39696806  0.50268132  1
  Zr  Zr69  1  0.28058773  0.31209589  0.86554194  1
  Zr  Zr70  1  0.19557951  0.60890132  0.24896659  1
  Zr  Zr71  1  -0.00291747  0.81125106  0.50594066  1
  Zr  Zr72  1  0.59737509  0.00961902  0.75758357  1
  Zr  Zr73  1  0.69644453  0.69875962  0.63587738  1
  Zr  Zr74  1  0.69639933  0.90085287  0.62413089  1
  Zr  Zr75  1  0.10134469  0.91326830  0.36770336  1
  Zr  Zr76  1  0.61190749  0.81102501  0.24932174  1
  Zr  Zr77  1  0.00650080  0.81218511  -0.00168258  1
  Zr  Zr78  1  0.10334224  0.89933486  0.13651434  1
  Zr  Zr79  1  0.80056962  0.19966811  0.24346843  1
  Ta  Ta80  1  0.29150544  0.30148307  0.12078425  1
  Ta  Ta81  1  0.70642273  0.51153378  0.13007784  1
  Ta  Ta82  1  0.70463184  0.12162931  0.87909212  1
  Ta  Ta83  1  0.09603907  0.28894277  0.38496898  1
  Ta  Ta84  1  0.59936927  0.80807480  0.77028425  1
  Ta  Ta85  1  0.91319479  0.70137116  0.86378896  1
  Ta  Ta86  1  0.40557826  0.20084137  0.75567395  1
  Ta  Ta87  1  0.30641664  0.71275184  0.37306873  1
  Ta  Ta88  1  0.37338822  0.41242508  -0.00354871  1
  Ta  Ta89  1  0.11138342  0.68558827  0.63070960  1
  Ta  Ta90  1  0.10504058  0.49190476  0.38536860  1
  Ta  Ta91  1  0.01382353  0.37861049  0.73818334  1
  Ta  Ta92  1  0.49251292  0.10391212  0.62798686  1
  Ta  Ta93  1  0.90337620  0.70344513  0.63209950  1
  Ta  Ta94  1  0.90089314  0.50444125  0.12822869  1
  Ta  Ta95  1  0.60387410  0.20574123  0.01293872  1
  Ta  Ta96  1  0.38103652  0.01132627  0.51357814  1
  Ta  Ta97  1  0.89973451  0.89853392  0.36982850  1
  Ta  Ta98  1  0.68627511  0.08963911  0.13333894  1
  Ta  Ta99  1  0.59822317  0.01412905  -0.01816204  1
  Ta  Ta100  1  0.79758084  -0.01032175  0.24725519  1
  Ta  Ta101  1  0.29437662  0.10265333  0.64626387  1
  Ta  Ta102  1  0.59423269  0.78742737  0.50020448  1
  Ta  Ta103  1  0.29029812  0.09941813  0.85182311  1
  Ta  Ta104  1  0.21416167  0.58838176  0.00163562  1
  Ta  Ta105  1  0.19388995  0.17680413  0.50768352  1
  Ta  Ta106  1  0.59473432  0.39902898  0.74850929  1
  Ta  Ta107  1  0.60002782  0.80796677  -0.02607810  1
  Ta  Ta108  1  0.70968483  0.69916506  0.86328584  1
  Ta  Ta109  1  0.80278661  0.79363326  0.49997290  1
  Ta  Ta110  1  0.60664194  0.20745500  0.74851474  1
  Ta  Ta111  1  0.40516687  0.00692834  0.24868605  1
  Ta  Ta112  1  0.79397540  0.41333000  0.00973687  1
  Ta  Ta113  1  0.60134379  0.40812073  0.25187185  1
  Ta  Ta114  1  -0.00760614  0.59481228  0.25798499  1
  Ta  Ta115  1  0.30085729  0.90410332  0.12144320  1
  Ta  Ta116  1  0.08359142  0.29455422  0.87844539  1
  Ta  Ta117  1  0.59004123  0.60871215  0.76232923  1
  Ta  Ta118  1  0.00467749  0.20165836  0.26205915  1
  Ta  Ta119  1  0.39849686  0.00285088  -0.02707573  1
  Ti  Ti120  1  0.41965834  0.79716942  0.76736687  1
  Ti  Ti121  1  0.80006200  0.40666395  0.24483305  1
  Ti  Ti122  1  0.80826363  0.60509934  0.75132481  1
  Ti  Ti123  1  0.71256270  0.91533389  0.87491355  1
  Ti  Ti124  1  0.09852816  0.90088495  0.62520041  1
  Ti  Ti125  1  -0.00766565  0.18057784  0.49347202  1
  Ti  Ti126  1  0.79369478  0.37986943  0.74552162  1
  Ti  Ti127  1  -0.00246573  0.39729649  0.25976825  1
  Ti  Ti128  1  0.59050848  0.20364846  0.23338356  1
  Ti  Ti129  1  0.70407399  0.69694647  0.37384550  1
  Ti  Ti130  1  0.40838744  0.00311236  0.76327195  1
  Ti  Ti131  1  0.17925170  0.20896557  0.74565108  1
  Ti  Ti132  1  -0.00155638  0.39391761  -0.00183106  1
  Ti  Ti133  1  0.18112041  -0.00101542  0.74792693  1
  Ti  Ti134  1  0.10198978  0.69381160  0.12343610  1
  Ti  Ti135  1  0.20586723  0.80541996  0.24746919  1
  Ti  Ti136  1  0.39740551  0.60924295  -0.00237504  1
  Ti  Ti137  1  0.49583745  0.10054269  0.11871061  1
  Ti  Ti138  1  0.30212231  0.69885600  0.12734583  1
  Ti  Ti139  1  0.90855859  0.09269517  0.13792268  1
  Ti  Ti140  1  0.47929835  0.10182784  0.38546599  1
  Ti  Ti141  1  0.90702512  0.90485198  0.13380066  1
  Ti  Ti142  1  0.90701880  0.09219060  0.36721478  1
  Ti  Ti143  1  0.30849503  0.67875716  0.85597312  1
  Ti  Ti144  1  0.50498996  0.71347648  0.63390348  1
  Ti  Ti145  1  0.01193783  0.59438692  0.74537398  1
  Ti  Ti146  1  0.00612095  0.79661324  0.73853065  1
  Ti  Ti147  1  -0.01109369  0.18174395  0.00024109  1
  Ti  Ti148  1  0.20249937  0.78396740  0.00291257  1
  Ti  Ti149  1  0.79742042  0.60229826  0.25809899  1
  Ti  Ti150  1  0.60072156  0.59592117  0.49082718  1
  Ti  Ti151  1  0.69470617  0.30820408  0.88284100  1
  Ti  Ti152  1  0.40623632  0.40544810  0.26316497  1
  Ti  Ti153  1  0.80387113  0.79041340  0.25307475  1
  Ti  Ti154  1  0.10978616  0.48553047  0.62386094  1
  Ti  Ti155  1  0.08615303  0.88842072  0.86305135  1
  Ti  Ti156  1  0.49532673  0.89809502  0.62520898  1
  Ti  Ti157  1  0.08957731  0.09533058  0.62383971  1
  Ti  Ti158  1  0.11707784  0.09694512  0.36634456  1
  Ti  Ti159  1  -0.01383525  -0.01699386  0.74014843  1
  Mo  Mo160  1  0.20028977  0.19933603  0.25457321  1
  Mo  Mo161  1  0.89055461  0.70547502  0.37303360  1
  Mo  Mo162  1  0.29798827  0.50757261  0.87545288  1
  Mo  Mo163  1  0.61111182  0.39778968  0.01046763  1
  Mo  Mo164  1  0.20292658  0.58815914  0.74606195  1
  Mo  Mo165  1  0.39919286  0.18877468  0.51033262  1
  Mo  Mo166  1  0.90661816  0.28818792  0.36985167  1
  Mo  Mo167  1  0.50220599  0.11039824  0.87115035  1
  Mo  Mo168  1  0.50010467  0.90677907  0.87779733  1
  Mo  Mo169  1  0.19059441  0.79907795  0.73959486  1
  Mo  Mo170  1  0.69087850  0.29786567  0.62685562  1
  Mo  Mo171  1  0.78723948  0.20381863  0.75383494  1
  Mo  Mo172  1  0.41294239  0.81012529  0.50860738  1
  Mo  Mo173  1  0.09558841  0.28149650  0.61795251  1
  Mo  Mo174  1  0.19202237  0.00343606  0.51572855  1
  Mo  Mo175  1  0.19148130  0.39866502  0.00510239  1
  Mo  Mo176  1  0.69405338  0.50893327  0.36189264  1
  Mo  Mo177  1  0.40903729  0.60445304  0.75256886  1
  Mo  Mo178  1  0.18994884  0.39476751  0.74262583  1
  Mo  Mo179  1  0.19895232  0.60286667  0.49948419  1
  Mo  Mo180  1  0.21873336  0.00408553  0.24807272  1
  Mo  Mo181  1  0.00023844  0.00161662  0.00481331  1
  Mo  Mo182  1  -0.01037556  0.00382863  0.25664092  1
  Mo  Mo183  1  0.81476598  0.59641967  -0.00725715  1
  Mo  Mo184  1  0.90353250  0.09249828  0.61716039  1
  Mo  Mo185  1  0.29820446  0.09737196  0.37987679  1
  Mo  Mo186  1  0.50390852  0.69989457  0.88039168  1
  Mo  Mo187  1  0.89056787  0.09308750  0.88063531  1
  Mo  Mo188  1  0.19245444  0.39522913  0.49116272  1
  Mo  Mo189  1  0.50440257  0.50034521  0.36721583  1
  Mo  Mo190  1  0.71207479  0.69274164  0.12755346  1
  Mo  Mo191  1  0.01597810  0.01123676  0.49663387  1
  Mo  Mo192  1  0.90771118  0.89505343  0.62103771  1
  Mo  Mo193  1  0.69756771  0.12387827  0.62393678  1
  Mo  Mo194  1  0.91382290  0.90924885  0.87004229  1
  Mo  Mo195  1  0.59305015  0.01132663  0.24642012  1
  Mo  Mo196  1  0.69132984  0.31190445  0.13482408  1
  Mo  Mo197  1  0.40285352  0.60553000  0.25076899  1
  Mo  Mo198  1  0.61285661  0.59711165  0.25087151  1
  Mo  Mo199  1  0.59361599  0.19824329  0.49894025  1
