# generated using pymatgen
data_HfZrTaTiMo
_symmetry_space_group_name_H-M   'P 1'
_cell_length_a   15.20904260
_cell_length_b   15.22236009
_cell_length_c   16.84577811
_cell_angle_alpha   90.07608551
_cell_angle_beta   89.99174577
_cell_angle_gamma   89.96293590
_symmetry_Int_Tables_number   1
_chemical_formula_structural   HfZrTaTiMo
_chemical_formula_sum   'Hf40 Zr40 Ta40 Ti40 Mo40'
_cell_volume   3900.08852764
_cell_formula_units_Z   40
loop_
 _symmetry_equiv_pos_site_id
 _symmetry_equiv_pos_as_xyz
  1  'x, y, z'
loop_
 _atom_site_type_symbol
 _atom_site_label
 _atom_site_symmetry_multiplicity
 _atom_site_fract_x
 _atom_site_fract_y
 _atom_site_fract_z
 _atom_site_occupancy
  Hf  Hf0  1  0.90512179  0.09491671  0.38347378  1
  Hf  Hf1  1  0.30206638  0.49809157  0.37340981  1
  Hf  Hf2  1  0.09995118  0.48959888  0.88519269  1
  Hf  Hf3  1  0.89529615  0.49174199  0.62548245  1
  Hf  Hf4  1  -0.01029956  0.78913260  0.01734043  1
  Hf  Hf5  1  0.89236203  0.08758483  0.61567275  1
  Hf  Hf6  1  0.80106939  0.20732497  0.49358209  1
  Hf  Hf7  1  0.90022590  0.28957400  0.64452232  1
  Hf  Hf8  1  0.28582236  0.50987428  0.62083517  1
  Hf  Hf9  1  0.21891111  0.59621573  0.00377600  1
  Hf  Hf10  1  -0.00256640  0.79941856  0.23901052  1
  Hf  Hf11  1  0.68929226  0.50959711  0.36269189  1
  Hf  Hf12  1  0.29601035  0.87623964  0.61858510  1
  Hf  Hf13  1  0.49827664  0.10639160  0.87112970  1
  Hf  Hf14  1  0.78860134  0.40039472  0.49626136  1
  Hf  Hf15  1  0.69927169  0.30984187  0.35906254  1
  Hf  Hf16  1  -0.00174070  -0.00166375  0.24905533  1
  Hf  Hf17  1  0.39367335  0.61775578  0.50450823  1
  Hf  Hf18  1  0.70422301  0.30910449  0.64512002  1
  Hf  Hf19  1  0.10130221  0.51295720  0.37645446  1
  Hf  Hf20  1  0.39511379  0.39511068  0.50819575  1
  Hf  Hf21  1  0.49256139  0.89537913  0.86503204  1
  Hf  Hf22  1  -0.01237346  -0.00988024  0.74051901  1
  Hf  Hf23  1  0.90425291  0.08955492  0.86995339  1
  Hf  Hf24  1  0.20236412  0.19714145  -0.00207172  1
  Hf  Hf25  1  0.11171250  0.90549725  0.12435782  1
  Hf  Hf26  1  0.29608274  0.30314851  0.87041370  1
  Hf  Hf27  1  0.39262961  -0.00675918  0.73318584  1
  Hf  Hf28  1  0.40410007  0.19568567  0.52191883  1
  Hf  Hf29  1  0.49835322  0.08532388  0.11720483  1
  Hf  Hf30  1  0.09915259  0.69750986  0.88720551  1
  Hf  Hf31  1  0.10575579  0.09176264  0.38237364  1
  Hf  Hf32  1  0.79655034  0.81131710  0.25554119  1
  Hf  Hf33  1  -0.00095213  0.60634110  0.50975392  1
  Hf  Hf34  1  0.01629310  0.60654383  0.23246417  1
  Hf  Hf35  1  0.51254301  0.30592563  0.64530414  1
  Hf  Hf36  1  0.69687954  0.71015444  0.37147718  1
  Hf  Hf37  1  -0.01317103  0.40268085  0.25284979  1
  Hf  Hf38  1  0.20510721  -0.00677010  -0.00845603  1
  Hf  Hf39  1  0.00200673  0.19815089  0.00242910  1
  Zr  Zr40  1  0.50008321  0.50869637  0.63012587  1
  Zr  Zr41  1  0.30292988  0.70226122  0.36596486  1
  Zr  Zr42  1  -0.00412259  0.00409252  0.00961821  1
  Zr  Zr43  1  0.31690457  0.09467488  0.38085660  1
  Zr  Zr44  1  0.49140462  0.29986090  0.12661829  1
  Zr  Zr45  1  0.70114738  0.30126583  0.13630163  1
  Zr  Zr46  1  0.49439978  0.89905750  0.39106712  1
  Zr  Zr47  1  0.79114175  0.60317191  0.50659226  1
  Zr  Zr48  1  0.09286624  0.89827891  0.88117558  1
  Zr  Zr49  1  0.21103179  0.59393308  0.76472924  1
  Zr  Zr50  1  0.70658120  0.09116953  0.12541454  1
  Zr  Zr51  1  -0.01798302  0.40650082  -0.00016628  1
  Zr  Zr52  1  0.70308234  0.52531480  0.88528971  1
  Zr  Zr53  1  0.18922840  -0.00670628  0.74583742  1
  Zr  Zr54  1  0.09576237  0.30124601  0.12583809  1
  Zr  Zr55  1  0.59908157  0.20885768  0.49586572  1
  Zr  Zr56  1  0.20540284  0.78969622  0.24157923  1
  Zr  Zr57  1  0.60473609  0.79018123  0.73594196  1
  Zr  Zr58  1  0.80396727  0.20355796  -0.00192388  1
  Zr  Zr59  1  0.09728292  0.29873083  0.63091008  1
  Zr  Zr60  1  -0.00546324  0.39058075  0.49182875  1
  Zr  Zr61  1  0.20615695  0.20390216  0.25783740  1
  Zr  Zr62  1  0.49108160  0.30669937  0.86433887  1
  Zr  Zr63  1  0.70189569  0.49878241  0.12574006  1
  Zr  Zr64  1  0.89972443  0.29968944  0.85875591  1
  Zr  Zr65  1  0.00798684  0.79325388  0.73377820  1
  Zr  Zr66  1  0.49855451  0.71883052  0.12697710  1
  Zr  Zr67  1  0.29993041  0.09859604  0.86874521  1
  Zr  Zr68  1  0.69042215  0.30383913  0.86060907  1
  Zr  Zr69  1  0.47872360  0.30498255  0.36765178  1
  Zr  Zr70  1  -0.00045159  0.59492684  0.74499783  1
  Zr  Zr71  1  0.19941018  0.41155064  0.24236214  1
  Zr  Zr72  1  0.59262972  0.18367866  0.25748952  1
  Zr  Zr73  1  0.78833429  -0.01195419  0.48856357  1
  Zr  Zr74  1  0.60401380  0.00612718  0.73815984  1
  Zr  Zr75  1  0.30093447  0.09290339  0.12716800  1
  Zr  Zr76  1  0.59478233  0.20359540  -0.00075836  1
  Zr  Zr77  1  0.81433499  0.60136080  0.24078898  1
  Zr  Zr78  1  0.78442343  0.79325506  -0.00219704  1
  Zr  Zr79  1  0.20987418  0.20749629  0.50523832  1
  Ta  Ta80  1  0.10522724  0.89245147  0.38033268  1
  Ta  Ta81  1  0.87863029  0.90893586  0.12729601  1
  Ta  Ta82  1  0.79635884  0.61968162  0.73734358  1
  Ta  Ta83  1  0.79194296  0.00029278  0.26428776  1
  Ta  Ta84  1  0.79227316  0.17309063  0.75040714  1
  Ta  Ta85  1  0.79973390  0.42717408  0.76081480  1
  Ta  Ta86  1  0.00796196  0.80662480  0.51284870  1
  Ta  Ta87  1  0.70046153  0.89489546  0.86620940  1
  Ta  Ta88  1  0.49224619  0.51149753  0.87261010  1
  Ta  Ta89  1  0.09971049  0.70371564  0.37944331  1
  Ta  Ta90  1  0.79379870  -0.00516549  -0.00370116  1
  Ta  Ta91  1  0.60671716  0.79787549  0.50964433  1
  Ta  Ta92  1  0.90996088  0.70029641  0.37855138  1
  Ta  Ta93  1  0.49376101  0.51157972  0.37060281  1
  Ta  Ta94  1  0.89389330  0.50202875  0.37448581  1
  Ta  Ta95  1  0.39443432  0.40639812  0.00204747  1
  Ta  Ta96  1  0.59335721  0.60619028  0.50114862  1
  Ta  Ta97  1  0.80998404  0.19873749  0.26184542  1
  Ta  Ta98  1  0.40782561  -0.01367521  0.25553282  1
  Ta  Ta99  1  0.32204611  0.89023041  0.12625675  1
  Ta  Ta100  1  0.39646646  -0.00048507  0.51871419  1
  Ta  Ta101  1  0.32359746  0.69876710  0.88055042  1
  Ta  Ta102  1  0.60580387  0.60006574  0.74977213  1
  Ta  Ta103  1  0.21735732  0.79315380  0.75884446  1
  Ta  Ta104  1  0.38822189  0.41688298  0.74938040  1
  Ta  Ta105  1  0.39072972  0.19715332  0.72812312  1
  Ta  Ta106  1  0.52124803  0.69836375  0.88303149  1
  Ta  Ta107  1  0.49996878  0.69827051  0.36707497  1
  Ta  Ta108  1  0.82652633  0.59836574  0.01457069  1
  Ta  Ta109  1  0.70182013  0.70892757  0.13289921  1
  Ta  Ta110  1  0.69872503  0.09113642  0.87592390  1
  Ta  Ta111  1  0.19760893  0.39717799  0.75057775  1
  Ta  Ta112  1  0.09421691  0.08925581  0.61280861  1
  Ta  Ta113  1  0.40594788  0.80310985  -0.00357318  1
  Ta  Ta114  1  0.58818374  0.41719838  0.00076100  1
  Ta  Ta115  1  0.80952332  0.80619030  0.73830702  1
  Ta  Ta116  1  0.12772214  0.69827058  0.61978701  1
  Ta  Ta117  1  0.68157787  0.89913406  0.12502351  1
  Ta  Ta118  1  -0.00139949  0.20207942  0.25728433  1
  Ta  Ta119  1  0.80809563  0.79414632  0.50992229  1
  Ti  Ti120  1  0.39089857  0.60169326  0.23262532  1
  Ti  Ti121  1  0.30206935  0.29690264  0.11815374  1
  Ti  Ti122  1  0.09873034  0.49725380  0.62206959  1
  Ti  Ti123  1  0.10238226  0.10299594  0.13667046  1
  Ti  Ti124  1  0.00366601  0.19958656  0.49543055  1
  Ti  Ti125  1  0.58953200  0.81202399  0.25472323  1
  Ti  Ti126  1  0.20529986  0.39819571  0.00212663  1
  Ti  Ti127  1  0.19562079  0.19286356  0.73860408  1
  Ti  Ti128  1  0.90717382  0.89212642  0.38230618  1
  Ti  Ti129  1  0.19935750  0.40094534  0.49776152  1
  Ti  Ti130  1  0.61104579  0.61643994  0.00885523  1
  Ti  Ti131  1  0.00209694  0.40229731  0.75689627  1
  Ti  Ti132  1  0.09703808  0.28165576  0.86246112  1
  Ti  Ti133  1  0.39495480  0.40841530  0.23701433  1
  Ti  Ti134  1  0.40701621  0.62166641  0.74730010  1
  Ti  Ti135  1  0.88924390  0.30496748  0.13254834  1
  Ti  Ti136  1  0.19887514  -0.01078394  0.50530976  1
  Ti  Ti137  1  0.21150157  0.78658240  0.49432510  1
  Ti  Ti138  1  0.21212035  -0.01035252  0.25982083  1
  Ti  Ti139  1  0.21324167  0.79602548  0.00375596  1
  Ti  Ti140  1  0.71098828  0.90540261  0.62560247  1
  Ti  Ti141  1  0.10465657  0.30258655  0.37459096  1
  Ti  Ti142  1  0.59771630  -0.01797006  -0.00715087  1
  Ti  Ti143  1  0.39792307  0.19301893  0.25283317  1
  Ti  Ti144  1  0.10277585  0.50514082  0.11291465  1
  Ti  Ti145  1  0.69070979  0.10830181  0.62203619  1
  Ti  Ti146  1  0.59327147  0.40972000  0.49386298  1
  Ti  Ti147  1  0.68899983  0.09371332  0.37853086  1
  Ti  Ti148  1  0.41323621  0.59556440  0.01076199  1
  Ti  Ti149  1  0.89831381  0.10447807  0.13443422  1
  Ti  Ti150  1  0.59936542  -0.00662499  0.26046480  1
  Ti  Ti151  1  0.79338170  0.40458423  -0.00665628  1
  Ti  Ti152  1  0.49987803  0.88993030  0.61815320  1
  Ti  Ti153  1  0.89462928  0.68814130  0.87450751  1
  Ti  Ti154  1  0.59031136  0.00753372  0.50793414  1
  Ti  Ti155  1  0.39906606  -0.00377705  -0.00695513  1
  Ti  Ti156  1  0.58582480  0.41134087  0.24420904  1
  Ti  Ti157  1  0.69002657  0.50173669  0.62996657  1
  Ti  Ti158  1  0.89347271  0.88819650  0.87656551  1
  Ti  Ti159  1  0.58880086  0.60443856  0.23949181  1
  Mo  Mo160  1  0.29775058  0.30751842  0.64007351  1
  Mo  Mo161  1  0.30443495  0.70013300  0.11931335  1
  Mo  Mo162  1  0.31188635  0.49745348  0.87841155  1
  Mo  Mo163  1  0.40239827  0.79388811  0.75466857  1
  Mo  Mo164  1  0.30656680  0.69901272  0.62854354  1
  Mo  Mo165  1  0.89448337  0.70378935  0.12797004  1
  Mo  Mo166  1  0.50238695  0.91036773  0.12330277  1
  Mo  Mo167  1  0.40351024  0.80532337  0.25269664  1
  Mo  Mo168  1  0.50399939  0.09574179  0.62837801  1
  Mo  Mo169  1  0.30032090  0.88653713  0.87707882  1
  Mo  Mo170  1  0.90167127  0.51349168  0.87099587  1
  Mo  Mo171  1  0.89848275  0.89764269  0.61568818  1
  Mo  Mo172  1  0.59801128  0.80384493  -0.00470907  1
  Mo  Mo173  1  0.50060648  0.50570263  0.12108932  1
  Mo  Mo174  1  0.09561765  0.10911974  0.86574231  1
  Mo  Mo175  1  0.90548115  0.29815514  0.37381521  1
  Mo  Mo176  1  0.40689533  0.80164102  0.49812655  1
  Mo  Mo177  1  0.29807412  0.30790420  0.37546570  1
  Mo  Mo178  1  0.39569024  0.20128839  0.00057903  1
  Mo  Mo179  1  0.49975409  0.70587803  0.62173907  1
  Mo  Mo180  1  0.90454787  0.70228233  0.62271448  1
  Mo  Mo181  1  0.71011668  0.70536922  0.87361822  1
  Mo  Mo182  1  0.19328006  0.59974165  0.49899568  1
  Mo  Mo183  1  0.00691134  0.60076418  0.01299832  1
  Mo  Mo184  1  0.00609552  -0.00668629  0.49937171  1
  Mo  Mo185  1  0.90337401  0.49027816  0.12472079  1
  Mo  Mo186  1  0.60023530  0.41778826  0.75955516  1
  Mo  Mo187  1  0.30832146  0.49266751  0.12233116  1
  Mo  Mo188  1  0.10512286  0.89537144  0.61441282  1
  Mo  Mo189  1  0.10777946  0.69979040  0.10919566  1
  Mo  Mo190  1  0.20520450  0.59954407  0.23109337  1
  Mo  Mo191  1  0.49998844  0.09393340  0.37952960  1
  Mo  Mo192  1  0.79571155  -0.01249151  0.75300125  1
  Mo  Mo193  1  0.29022988  0.09364075  0.62374553  1
  Mo  Mo194  1  0.29241920  0.90162574  0.38615270  1
  Mo  Mo195  1  0.00746324  0.18444940  0.74862343  1
  Mo  Mo196  1  0.60056533  0.19880362  0.75051032  1
  Mo  Mo197  1  0.69765961  0.69889534  0.62005950  1
  Mo  Mo198  1  0.80026447  0.39953485  0.25672477  1
  Mo  Mo199  1  0.69514744  0.89943672  0.38049916  1
