# generated using pymatgen
data_HfZrTaTiMo
_symmetry_space_group_name_H-M   'P 1'
_cell_length_a   15.21879930
_cell_length_b   15.21379933
_cell_length_c   16.86370705
_cell_angle_alpha   90.00619265
_cell_angle_beta   90.04793777
_cell_angle_gamma   90.03253746
_symmetry_Int_Tables_number   1
_chemical_formula_structural   HfZrTaTiMo
_chemical_formula_sum   'Hf40 Zr40 Ta40 Ti40 Mo40'
_cell_volume   3904.54918523
_cell_formula_units_Z   40
loop_
 _symmetry_equiv_pos_site_id
 _symmetry_equiv_pos_as_xyz
  1  'x, y, z'
loop_
 _atom_site_type_symbol
 _atom_site_label
 _atom_site_symmetry_multiplicity
 _atom_site_fract_x
 _atom_site_fract_y
 _atom_site_fract_z
 _atom_site_occupancy
  Hf  Hf0  1  0.20458774  0.40913857  0.51376335  1
  Hf  Hf1  1  0.50404015  0.30039521  0.86930256  1
  Hf  Hf2  1  0.80467531  -0.01478345  0.47846244  1
  Hf  Hf3  1  0.49212252  0.49585561  0.87443456  1
  Hf  Hf4  1  0.39393595  0.59797198  0.49554164  1
  Hf  Hf5  1  0.08883324  0.51122777  0.37757736  1
  Hf  Hf6  1  0.50848092  0.92158428  0.88815653  1
  Hf  Hf7  1  0.42085511  0.01978927  0.75595223  1
  Hf  Hf8  1  0.39508182  0.61102177  -0.00533601  1
  Hf  Hf9  1  0.00563398  0.17776423  0.25283958  1
  Hf  Hf10  1  0.02040729  0.39999418  0.73167851  1
  Hf  Hf11  1  0.01035335  0.79252541  0.23847786  1
  Hf  Hf12  1  0.19609788  0.20448908  0.50954064  1
  Hf  Hf13  1  0.91489863  0.89057838  0.88779587  1
  Hf  Hf14  1  0.59717808  0.19421634  0.24398497  1
  Hf  Hf15  1  0.20124169  0.21459779  0.73932419  1
  Hf  Hf16  1  0.19604975  0.00211987  0.51128104  1
  Hf  Hf17  1  0.38844644  0.59572506  0.25255316  1
  Hf  Hf18  1  0.09431897  0.10143888  0.85872375  1
  Hf  Hf19  1  0.79717737  0.79281828  0.25250598  1
  Hf  Hf20  1  0.08682311  0.49437009  0.12132575  1
  Hf  Hf21  1  0.90421500  0.90425416  0.12236312  1
  Hf  Hf22  1  0.40297962  0.80680233  0.48745475  1
  Hf  Hf23  1  -0.01164261  0.60416799  -0.00527618  1
  Hf  Hf24  1  0.59941650  0.17543758  0.75279493  1
  Hf  Hf25  1  -0.00216619  0.81306146  0.52232514  1
  Hf  Hf26  1  0.49342198  0.48798365  0.36718081  1
  Hf  Hf27  1  0.80668002  0.21532641  0.26089898  1
  Hf  Hf28  1  0.59625354  0.39598834  0.01391654  1
  Hf  Hf29  1  0.69651759  0.27725124  0.62075077  1
  Hf  Hf30  1  0.28658003  0.12593337  0.11640357  1
  Hf  Hf31  1  0.50741468  0.70774880  0.62263418  1
  Hf  Hf32  1  0.49731967  0.50132368  0.63601531  1
  Hf  Hf33  1  0.60263671  0.19537210  0.01339388  1
  Hf  Hf34  1  0.88593627  0.10161272  0.88457435  1
  Hf  Hf35  1  0.27842394  0.70664837  0.87233833  1
  Hf  Hf36  1  0.30526299  0.70810869  0.63345460  1
  Hf  Hf37  1  0.60202581  0.59336915  0.49079549  1
  Hf  Hf38  1  0.11670520  0.89532554  0.86112432  1
  Hf  Hf39  1  0.39746402  0.80166524  0.25864461  1
  Zr  Zr40  1  0.08535530  0.10459444  0.63203572  1
  Zr  Zr41  1  0.09838751  0.50480795  0.87889173  1
  Zr  Zr42  1  0.71127829  0.69412049  0.62667225  1
  Zr  Zr43  1  0.20234376  0.40462357  0.25041964  1
  Zr  Zr44  1  0.91339729  0.89245725  0.37118815  1
  Zr  Zr45  1  0.71487868  0.27584674  0.87639583  1
  Zr  Zr46  1  0.60782116  0.01711820  0.47562830  1
  Zr  Zr47  1  0.62487264  0.80323121  0.47870424  1
  Zr  Zr48  1  0.28477520  0.51610310  0.11415160  1
  Zr  Zr49  1  0.81251996  0.01018553  0.26285322  1
  Zr  Zr50  1  0.60012227  0.39274001  0.23750325  1
  Zr  Zr51  1  0.69409054  0.47676684  0.86304731  1
  Zr  Zr52  1  0.19358496  0.60639647  0.50947190  1
  Zr  Zr53  1  0.81997337  0.38089696  0.74840988  1
  Zr  Zr54  1  -0.01422819  0.38896375  0.25199605  1
  Zr  Zr55  1  -0.01954243  -0.00871365  0.74081330  1
  Zr  Zr56  1  0.69422268  0.48839343  0.64010630  1
  Zr  Zr57  1  0.39286589  0.82192488  0.76691961  1
  Zr  Zr58  1  0.10435427  0.91265537  0.37081216  1
  Zr  Zr59  1  0.50076534  0.89823092  0.12726479  1
  Zr  Zr60  1  0.70383182  0.88226212  0.89405382  1
  Zr  Zr61  1  0.87905188  0.49063328  0.12265062  1
  Zr  Zr62  1  0.71503035  0.09664113  0.12841890  1
  Zr  Zr63  1  0.01302555  0.19504553  -0.00361443  1
  Zr  Zr64  1  0.19398676  0.58524949  0.73398814  1
  Zr  Zr65  1  0.50474163  0.69727374  0.12833732  1
  Zr  Zr66  1  0.09637574  0.29469361  0.38107329  1
  Zr  Zr67  1  0.60809494  0.81390817  0.75028439  1
  Zr  Zr68  1  0.39228517  0.02124050  0.25391708  1
  Zr  Zr69  1  0.80261983  0.77048182  0.00677306  1
  Zr  Zr70  1  0.61105258  0.60584873  -0.00501985  1
  Zr  Zr71  1  0.82314129  0.79132953  0.75243344  1
  Zr  Zr72  1  0.20092289  0.80384188  0.50598196  1
  Zr  Zr73  1  -0.00184844  0.39964175  0.51451796  1
  Zr  Zr74  1  0.17552134  0.00559209  0.00493559  1
  Zr  Zr75  1  -0.01593721  0.60637433  0.73876464  1
  Zr  Zr76  1  0.29672068  0.91104555  0.12659304  1
  Zr  Zr77  1  0.50690073  0.91415287  0.61530669  1
  Zr  Zr78  1  0.40147731  0.61028432  0.76251584  1
  Zr  Zr79  1  0.30103628  0.10793470  0.88009627  1
  Ta  Ta80  1  0.78803027  0.18693256  0.48400280  1
  Ta  Ta81  1  0.08359080  0.71135740  0.86585548  1
  Ta  Ta82  1  0.30767267  0.30458815  0.37873389  1
  Ta  Ta83  1  0.78080140  -0.00628597  0.75311651  1
  Ta  Ta84  1  0.40213242  0.21919054  0.00333540  1
  Ta  Ta85  1  0.21728161  -0.00441276  0.74315525  1
  Ta  Ta86  1  0.29045882  0.49485318  0.88633900  1
  Ta  Ta87  1  0.90497047  0.29036386  0.11865105  1
  Ta  Ta88  1  0.79721591  0.59895944  0.49132709  1
  Ta  Ta89  1  0.19875725  0.39085821  0.00363030  1
  Ta  Ta90  1  0.90489367  0.69057502  0.38039741  1
  Ta  Ta91  1  0.01468769  0.80291415  0.01173579  1
  Ta  Ta92  1  0.60384102  0.60689020  0.76426908  1
  Ta  Ta93  1  0.60454967  -0.00574727  0.25956423  1
  Ta  Ta94  1  0.59899294  -0.00331010  0.01732943  1
  Ta  Ta95  1  0.31489791  0.10391649  0.62521587  1
  Ta  Ta96  1  0.87762219  0.08823709  0.61063796  1
  Ta  Ta97  1  0.79107805  0.39725844  0.50242076  1
  Ta  Ta98  1  0.29696221  0.91293857  0.36948377  1
  Ta  Ta99  1  0.40241962  0.20568959  0.50135784  1
  Ta  Ta100  1  0.50994487  0.11240590  0.61220099  1
  Ta  Ta101  1  0.40134976  0.21061550  0.74675595  1
  Ta  Ta102  1  0.49616599  0.29779756  0.37688623  1
  Ta  Ta103  1  0.80335015  0.17757846  0.74343231  1
  Ta  Ta104  1  0.69172913  0.29956132  0.37965499  1
  Ta  Ta105  1  0.71687083  0.90689806  0.61663462  1
  Ta  Ta106  1  0.70224729  0.49032798  0.36924413  1
  Ta  Ta107  1  0.10865969  0.69220139  0.12073204  1
  Ta  Ta108  1  0.89303684  0.49579929  0.37955634  1
  Ta  Ta109  1  0.10992489  0.30486834  0.87193724  1
  Ta  Ta110  1  0.50167509  0.69666424  0.36960198  1
  Ta  Ta111  1  0.50074288  0.30353913  0.63101401  1
  Ta  Ta112  1  0.20544707  0.20050574  0.25731756  1
  Ta  Ta113  1  0.18790493  0.61541103  0.25555396  1
  Ta  Ta114  1  0.20127633  0.79841580  0.00410375  1
  Ta  Ta115  1  -0.00585253  0.60862671  0.51688992  1
  Ta  Ta116  1  0.11213889  0.28509498  0.12423431  1
  Ta  Ta117  1  0.48279166  0.48758631  0.12644794  1
  Ta  Ta118  1  0.59431595  0.39253129  0.49984246  1
  Ta  Ta119  1  0.68551394  0.08056918  0.88606819  1
  Ti  Ti120  1  0.29812066  0.70874935  0.12112441  1
  Ti  Ti121  1  0.79691743  0.59301696  0.25908767  1
  Ti  Ti122  1  -0.00632199  0.59681977  0.24942813  1
  Ti  Ti123  1  0.89965754  0.68655914  0.12965759  1
  Ti  Ti124  1  0.29287575  0.49952303  0.37367871  1
  Ti  Ti125  1  0.90237500  0.27968809  0.61032646  1
  Ti  Ti126  1  -0.00376320  0.39339702  -0.00690193  1
  Ti  Ti127  1  0.80031765  -0.00138772  0.00585773  1
  Ti  Ti128  1  0.49793232  0.90612135  0.37017581  1
  Ti  Ti129  1  0.70113742  0.69237679  0.13306267  1
  Ti  Ti130  1  0.30264449  0.31102529  0.87638005  1
  Ti  Ti131  1  0.31322321  0.32002165  0.12443662  1
  Ti  Ti132  1  0.69537883  0.50491614  0.12992088  1
  Ti  Ti133  1  0.39916606  0.01359738  -0.00065635  1
  Ti  Ti134  1  0.49282785  0.11259498  0.37369893  1
  Ti  Ti135  1  0.30600546  0.30827268  0.62601520  1
  Ti  Ti136  1  0.91481922  0.09712111  0.11348235  1
  Ti  Ti137  1  0.18120508  0.01410209  0.24310541  1
  Ti  Ti138  1  0.69677127  0.88792376  0.12544709  1
  Ti  Ti139  1  0.51571774  0.71762218  0.88592996  1
  Ti  Ti140  1  0.89450523  0.29956746  0.38979344  1
  Ti  Ti141  1  0.80171360  0.57864213  -0.02636910  1
  Ti  Ti142  1  0.72060786  0.30763789  0.12135083  1
  Ti  Ti143  1  0.80195317  0.59386023  0.76990745  1
  Ti  Ti144  1  -0.01394063  0.20955489  0.75003983  1
  Ti  Ti145  1  0.49056444  0.10238931  0.12737840  1
  Ti  Ti146  1  0.38489265  0.40580820  0.74814577  1
  Ti  Ti147  1  0.28986182  0.10787472  0.37874711  1
  Ti  Ti148  1  0.30756383  0.90715374  0.62588903  1
  Ti  Ti149  1  0.88642256  0.50566419  0.62018635  1
  Ti  Ti150  1  0.20217962  0.80612892  0.24469132  1
  Ti  Ti151  1  0.29042917  0.70564749  0.37313852  1
  Ti  Ti152  1  0.39798139  0.22087264  0.24700321  1
  Ti  Ti153  1  0.60016063  0.59990168  0.25485545  1
  Ti  Ti154  1  0.39644609  0.00860342  0.49215034  1
  Ti  Ti155  1  0.40092083  0.40176289  0.50569546  1
  Ti  Ti156  1  0.60551310  0.79604798  0.26351317  1
  Ti  Ti157  1  0.39794159  0.81293202  -0.00801132  1
  Ti  Ti158  1  0.81228035  0.38250187  -0.01495751  1
  Ti  Ti159  1  0.09379360  0.70869349  0.37812756  1
  Mo  Mo160  1  0.88950055  0.69699077  0.61443129  1
  Mo  Mo161  1  0.00665371  0.79884645  0.73169271  1
  Mo  Mo162  1  0.20546051  0.21284911  -0.00620135  1
  Mo  Mo163  1  0.00536532  -0.00057433  0.24340200  1
  Mo  Mo164  1  0.59298352  0.20616113  0.49196177  1
  Mo  Mo165  1  0.10961124  0.90080765  0.64161646  1
  Mo  Mo166  1  0.90659358  0.69477797  0.87861312  1
  Mo  Mo167  1  0.10161448  0.89628708  0.13115656  1
  Mo  Mo168  1  0.69950035  0.89423639  0.36046901  1
  Mo  Mo169  1  0.91640757  0.10398350  0.38835916  1
  Mo  Mo170  1  0.69730646  0.08833420  0.61874329  1
  Mo  Mo171  1  0.39330325  0.39819123  0.25268536  1
  Mo  Mo172  1  0.69999366  0.10648536  0.36244169  1
  Mo  Mo173  1  0.09788646  0.50366239  0.62008386  1
  Mo  Mo174  1  0.09651912  0.70625920  0.63414583  1
  Mo  Mo175  1  0.09918384  0.09922382  0.12533250  1
  Mo  Mo176  1  0.90265073  0.48523724  0.87534271  1
  Mo  Mo177  1  0.70581928  0.68480216  0.36452339  1
  Mo  Mo178  1  0.80593058  0.19813787  0.00664747  1
  Mo  Mo179  1  0.70235175  0.69054025  0.87063245  1
  Mo  Mo180  1  0.10798207  0.09836765  0.38057511  1
  Mo  Mo181  1  0.30429072  0.90630289  0.88568127  1
  Mo  Mo182  1  0.58846254  0.38733425  0.74778655  1
  Mo  Mo183  1  0.59826460  0.79703047  0.00930141  1
  Mo  Mo184  1  -0.01082280  0.18986008  0.49780376  1
  Mo  Mo185  1  0.19973558  0.80403207  0.74055164  1
  Mo  Mo186  1  -0.00302183  -0.00769441  -0.00456969  1
  Mo  Mo187  1  0.89385937  0.90208784  0.62131280  1
  Mo  Mo188  1  0.00231446  0.00889741  0.50971765  1
  Mo  Mo189  1  0.79712195  0.40125804  0.25373229  1
  Mo  Mo190  1  0.21175166  0.39664255  0.74602449  1
  Mo  Mo191  1  0.09630873  0.29745659  0.62194783  1
  Mo  Mo192  1  0.49192308  0.29450615  0.12512150  1
  Mo  Mo193  1  0.50330974  0.10959367  0.89047291  1
  Mo  Mo194  1  0.60681774  -0.00213240  0.74885037  1
  Mo  Mo195  1  0.31018738  0.49675403  0.62469330  1
  Mo  Mo196  1  0.19008146  0.61032050  -0.00373876  1
  Mo  Mo197  1  0.91705425  0.29302402  0.87064692  1
  Mo  Mo198  1  0.80703918  0.78671951  0.49196881  1
  Mo  Mo199  1  0.39726155  0.40329046  -0.00212644  1
