# generated using pymatgen
data_HfZrTaTiMo
_symmetry_space_group_name_H-M   'P 1'
_cell_length_a   15.20742835
_cell_length_b   15.20858151
_cell_length_c   16.82864162
_cell_angle_alpha   90.00872001
_cell_angle_beta   89.95528748
_cell_angle_gamma   89.96398684
_symmetry_Int_Tables_number   1
_chemical_formula_structural   HfZrTaTiMo
_chemical_formula_sum   'Hf40 Zr40 Ta40 Ti40 Mo40'
_cell_volume   3892.18368105
_cell_formula_units_Z   40
loop_
 _symmetry_equiv_pos_site_id
 _symmetry_equiv_pos_as_xyz
  1  'x, y, z'
loop_
 _atom_site_type_symbol
 _atom_site_label
 _atom_site_symmetry_multiplicity
 _atom_site_fract_x
 _atom_site_fract_y
 _atom_site_fract_z
 _atom_site_occupancy
  Hf  Hf0  1  0.50531513  0.08048672  0.37205950  1
  Hf  Hf1  1  0.88685412  0.50608061  0.13533534  1
  Hf  Hf2  1  0.39193373  0.80021185  0.77769758  1
  Hf  Hf3  1  0.69822877  0.29296467  0.87048738  1
  Hf  Hf4  1  0.49560850  0.49495735  0.62720907  1
  Hf  Hf5  1  -0.00573741  0.60591339  0.26356451  1
  Hf  Hf6  1  0.11413764  0.92419303  0.37990640  1
  Hf  Hf7  1  0.39943059  0.40027693  0.02274128  1
  Hf  Hf8  1  0.20577922  0.20444654  0.01848994  1
  Hf  Hf9  1  0.40415957  0.59942280  0.48923851  1
  Hf  Hf10  1  0.20323375  0.81235130  0.25332318  1
  Hf  Hf11  1  0.89386668  0.09462208  0.12427811  1
  Hf  Hf12  1  0.51613444  0.69621896  0.87898043  1
  Hf  Hf13  1  0.10192151  0.51231459  0.87396591  1
  Hf  Hf14  1  0.71086335  0.09672157  0.38844263  1
  Hf  Hf15  1  0.79506724  0.62861256  0.00081485  1
  Hf  Hf16  1  0.21124997  -0.00238126  0.74709521  1
  Hf  Hf17  1  0.51423048  0.88711375  0.09812305  1
  Hf  Hf18  1  0.69352135  0.70436408  0.37866620  1
  Hf  Hf19  1  0.81796478  0.20366966  0.51335733  1
  Hf  Hf20  1  0.67737378  0.50492599  0.37467912  1
  Hf  Hf21  1  0.00452024  0.80736311  0.49451309  1
  Hf  Hf22  1  -0.00348242  0.19917348  -0.00386565  1
  Hf  Hf23  1  0.30840225  0.09902648  0.88309385  1
  Hf  Hf24  1  0.20547017  0.01355173  0.51380018  1
  Hf  Hf25  1  0.49249779  0.71171339  0.63737048  1
  Hf  Hf26  1  -0.00265896  0.80905252  0.26006183  1
  Hf  Hf27  1  0.10405390  0.70141420  0.12749037  1
  Hf  Hf28  1  0.72741833  0.30551763  0.35810628  1
  Hf  Hf29  1  0.19702094  0.60819873  0.75229427  1
  Hf  Hf30  1  0.60375567  0.60524960  0.51391613  1
  Hf  Hf31  1  0.69350820  0.10549042  0.62162082  1
  Hf  Hf32  1  0.19959902  0.60433232  0.48013169  1
  Hf  Hf33  1  0.68226307  0.90379219  0.38269651  1
  Hf  Hf34  1  0.21581019  0.39861079  0.74245232  1
  Hf  Hf35  1  0.67767680  0.50786246  0.11212367  1
  Hf  Hf36  1  0.41222521  -0.02519236  0.49451459  1
  Hf  Hf37  1  0.87367102  0.49172658  0.37617967  1
  Hf  Hf38  1  -0.01080058  0.39627716  0.26553617  1
  Hf  Hf39  1  0.10256117  0.10411369  0.87068266  1
  Zr  Zr40  1  0.49036157  0.29772659  0.62685880  1
  Zr  Zr41  1  -0.00149505  0.41486009  0.74267093  1
  Zr  Zr42  1  0.30396027  0.88687741  0.63102630  1
  Zr  Zr43  1  0.09989254  0.29937337  0.86598848  1
  Zr  Zr44  1  -0.00568302  0.39793932  -0.00076164  1
  Zr  Zr45  1  0.89256656  0.91718515  0.38557191  1
  Zr  Zr46  1  0.30323860  0.30323461  0.87912002  1
  Zr  Zr47  1  0.39223726  0.18690114  0.49184199  1
  Zr  Zr48  1  0.31094148  0.69899346  0.13370936  1
  Zr  Zr49  1  0.88312069  0.70348811  0.37571237  1
  Zr  Zr50  1  0.49299833  0.90954480  0.65073560  1
  Zr  Zr51  1  0.60175932  0.59610310  0.74701667  1
  Zr  Zr52  1  0.29913745  0.49553568  0.61606362  1
  Zr  Zr53  1  0.68790559  0.90103228  0.64122623  1
  Zr  Zr54  1  0.09047160  0.50620758  0.60786466  1
  Zr  Zr55  1  0.79339698  0.39194612  0.00065862  1
  Zr  Zr56  1  0.28496655  0.51112770  0.13448705  1
  Zr  Zr57  1  0.89176012  0.50852869  0.86947828  1
  Zr  Zr58  1  0.91206983  0.69751258  0.62997560  1
  Zr  Zr59  1  0.59122100  0.40516690  0.24258898  1
  Zr  Zr60  1  0.88685037  0.29473891  0.13572888  1
  Zr  Zr61  1  0.21653809  0.80305558  0.48742660  1
  Zr  Zr62  1  0.00169566  0.20147240  0.26369050  1
  Zr  Zr63  1  0.40285213  0.19742955  0.23370541  1
  Zr  Zr64  1  0.60218797  0.22450530  0.49272286  1
  Zr  Zr65  1  -0.00268657  -0.00389103  0.73613492  1
  Zr  Zr66  1  0.19369369  0.41087955  0.01133431  1
  Zr  Zr67  1  0.09611154  0.89918009  0.88239917  1
  Zr  Zr68  1  0.79013458  0.80086462  0.51667074  1
  Zr  Zr69  1  0.80175964  0.00123056  0.24939240  1
  Zr  Zr70  1  -0.01999019  -0.00665741  -0.00274243  1
  Zr  Zr71  1  0.69251559  0.50141812  0.87902758  1
  Zr  Zr72  1  0.60818065  0.18929697  0.24993606  1
  Zr  Zr73  1  0.40408673  0.19436204  0.75316806  1
  Zr  Zr74  1  0.19129362  0.38589198  0.25436459  1
  Zr  Zr75  1  0.00156680  0.60052791  0.00706291  1
  Zr  Zr76  1  0.39958348  -0.01072005  0.22927367  1
  Zr  Zr77  1  0.77063807  0.39856512  0.52099783  1
  Zr  Zr78  1  0.50317849  0.29614839  0.88674727  1
  Zr  Zr79  1  0.02107295  0.00696908  0.24439570  1
  Ta  Ta80  1  0.60303654  -0.01357636  0.23534894  1
  Ta  Ta81  1  -0.01303642  0.79023657  -0.00612199  1
  Ta  Ta82  1  0.79886673  0.00501681  0.74801772  1
  Ta  Ta83  1  0.40524722  0.19692087  0.02084162  1
  Ta  Ta84  1  0.19056702  0.60093505  0.27203378  1
  Ta  Ta85  1  0.31297936  0.69979989  0.35910301  1
  Ta  Ta86  1  0.69982727  0.09549531  0.11314528  1
  Ta  Ta87  1  0.50216329  0.70906107  0.37273379  1
  Ta  Ta88  1  0.50485014  0.09297551  0.62068189  1
  Ta  Ta89  1  0.69562459  0.90142877  0.86303210  1
  Ta  Ta90  1  -0.00010725  0.01511556  0.51983672  1
  Ta  Ta91  1  0.20009580  0.17809419  0.23346909  1
  Ta  Ta92  1  0.89558972  0.29523674  0.85474144  1
  Ta  Ta93  1  0.40345892  0.59703671  -0.00442234  1
  Ta  Ta94  1  0.29577016  0.89192221  0.10663452  1
  Ta  Ta95  1  0.01249170  0.20450492  0.51160880  1
  Ta  Ta96  1  0.00649535  0.78996915  0.75423764  1
  Ta  Ta97  1  0.19216092  0.00597212  0.01430787  1
  Ta  Ta98  1  0.30567577  0.50207477  0.87851554  1
  Ta  Ta99  1  0.19630553  0.79632697  0.76028131  1
  Ta  Ta100  1  0.39643444  0.38919729  0.48755371  1
  Ta  Ta101  1  0.11066278  0.70565154  0.62017796  1
  Ta  Ta102  1  0.49643904  0.48947437  0.87767426  1
  Ta  Ta103  1  0.79854595  0.59535659  0.51938488  1
  Ta  Ta104  1  0.89829582  0.30628186  0.63911308  1
  Ta  Ta105  1  0.60543429  0.79837191  0.23714816  1
  Ta  Ta106  1  0.58521903  0.61139237  0.24452702  1
  Ta  Ta107  1  0.72784605  0.70948059  0.85073167  1
  Ta  Ta108  1  0.30333108  0.48600893  0.36869626  1
  Ta  Ta109  1  0.09403375  0.29693700  0.12955802  1
  Ta  Ta110  1  0.39728527  0.39691814  0.24019348  1
  Ta  Ta111  1  0.89005740  0.71976748  0.13198357  1
  Ta  Ta112  1  0.57528525  0.81397137  0.50433197  1
  Ta  Ta113  1  0.39568347  0.78880048  -0.01057725  1
  Ta  Ta114  1  0.29114599  0.28137179  0.36661306  1
  Ta  Ta115  1  0.20121819  0.19810048  0.73082320  1
  Ta  Ta116  1  0.79723462  0.18675264  -0.01324727  1
  Ta  Ta117  1  -0.00493168  0.60349478  0.48474701  1
  Ta  Ta118  1  0.09291243  0.49063007  0.38592695  1
  Ta  Ta119  1  0.29379503  0.90017738  0.89567051  1
  Ti  Ti120  1  0.90747877  0.11073508  0.38253298  1
  Ti  Ti121  1  0.60124526  0.19437012  0.75071055  1
  Ti  Ti122  1  -0.01659816  0.39159905  0.49700528  1
  Ti  Ti123  1  0.59141579  0.01267587  0.76720863  1
  Ti  Ti124  1  0.80816412  -0.00072606  0.52273538  1
  Ti  Ti125  1  0.51626072  0.09306003  0.10926215  1
  Ti  Ti126  1  0.63072420  0.78935825  -0.00997536  1
  Ti  Ti127  1  0.19909709  0.38671270  0.49167100  1
  Ti  Ti128  1  0.39318670  0.59307599  0.75951255  1
  Ti  Ti129  1  0.50197346  0.90659521  0.88724259  1
  Ti  Ti130  1  0.71847824  0.89515743  0.11126164  1
  Ti  Ti131  1  0.20713989  0.20499551  0.51735520  1
  Ti  Ti132  1  0.32431721  0.89358936  0.36470197  1
  Ti  Ti133  1  0.10023264  0.89392955  0.62476630  1
  Ti  Ti134  1  0.51674753  0.68721266  0.10485935  1
  Ti  Ti135  1  0.20688799  0.62183347  -0.00910602  1
  Ti  Ti136  1  0.10391936  0.30379047  0.62324904  1
  Ti  Ti137  1  0.09201165  0.89744818  0.11538287  1
  Ti  Ti138  1  0.79637687  0.19949699  0.74363973  1
  Ti  Ti139  1  0.29494243  0.08307194  0.36405787  1
  Ti  Ti140  1  0.81203997  0.58371449  0.73077520  1
  Ti  Ti141  1  0.11458167  0.11894268  0.38471351  1
  Ti  Ti142  1  0.79151195  0.80761357  0.24711514  1
  Ti  Ti143  1  0.60097780  0.39377251  0.74627994  1
  Ti  Ti144  1  0.70372815  0.29064168  0.12811866  1
  Ti  Ti145  1  0.78977492  -0.00702043  -0.01667663  1
  Ti  Ti146  1  0.00099335  0.19510434  0.73454797  1
  Ti  Ti147  1  0.42041579  0.79335707  0.23697463  1
  Ti  Ti148  1  0.08957844  0.50106705  0.13848620  1
  Ti  Ti149  1  0.31906615  0.09544320  0.63237331  1
  Ti  Ti150  1  0.40112861  0.00005462  0.00511931  1
  Ti  Ti151  1  0.89309555  0.10131634  0.86295471  1
  Ti  Ti152  1  0.40699390  0.59019103  0.25540664  1
  Ti  Ti153  1  0.30172688  0.69648952  0.62625065  1
  Ti  Ti154  1  0.51794609  0.09986285  0.89835702  1
  Ti  Ti155  1  0.77803444  0.60895299  0.24114775  1
  Ti  Ti156  1  0.88650719  0.88335171  0.86265324  1
  Ti  Ti157  1  0.51738441  0.29999382  0.11653110  1
  Ti  Ti158  1  0.69887441  0.70529550  0.64510029  1
  Ti  Ti159  1  0.49632366  0.31279037  0.36952429  1
  Mo  Mo160  1  0.80913133  0.80860544  0.73964157  1
  Mo  Mo161  1  0.69428426  0.49899366  0.63342382  1
  Mo  Mo162  1  0.40538096  0.40863501  0.75663512  1
  Mo  Mo163  1  0.59933478  0.00265237  0.50422984  1
  Mo  Mo164  1  0.48925644  0.50366310  0.37338006  1
  Mo  Mo165  1  0.20660788  -0.00281022  0.23193693  1
  Mo  Mo166  1  0.00677181  0.60758708  0.74572219  1
  Mo  Mo167  1  0.10078024  0.70498220  0.37371969  1
  Mo  Mo168  1  0.69109903  0.30019328  0.64169150  1
  Mo  Mo169  1  0.70352181  0.09851042  0.86753092  1
  Mo  Mo170  1  0.40361706  0.00497704  0.77356858  1
  Mo  Mo171  1  0.89995490  0.49953466  0.61403280  1
  Mo  Mo172  1  0.30718630  0.08963848  0.11501998  1
  Mo  Mo173  1  0.29818576  0.69586699  0.87938961  1
  Mo  Mo174  1  0.90586900  0.29878702  0.38615099  1
  Mo  Mo175  1  0.50205817  0.88967325  0.36172311  1
  Mo  Mo176  1  0.90147626  0.89415130  0.12403039  1
  Mo  Mo177  1  0.90815367  0.69827582  0.85945795  1
  Mo  Mo178  1  0.29827368  0.29926228  0.61971121  1
  Mo  Mo179  1  0.09967004  0.70431769  0.87973366  1
  Mo  Mo180  1  0.60945653  -0.00426263  -0.00782197  1
  Mo  Mo181  1  0.90101252  0.10639468  0.63278262  1
  Mo  Mo182  1  0.19424972  0.80163842  0.00344380  1
  Mo  Mo183  1  0.81077436  0.81206653  -0.00857316  1
  Mo  Mo184  1  0.69692496  0.71116045  0.12438648  1
  Mo  Mo185  1  0.58014994  0.40771670  0.49541508  1
  Mo  Mo186  1  0.59937676  0.60287114  -0.01197726  1
  Mo  Mo187  1  0.59498758  0.39696227  0.00683254  1
  Mo  Mo188  1  0.80230912  0.19477685  0.25160612  1
  Mo  Mo189  1  0.48889674  0.51097796  0.12277036  1
  Mo  Mo190  1  0.10536918  0.29422377  0.39158093  1
  Mo  Mo191  1  0.30096613  0.29521259  0.13712889  1
  Mo  Mo192  1  0.61087394  0.19966604  0.00729150  1
  Mo  Mo193  1  0.09623656  0.10027604  0.11935751  1
  Mo  Mo194  1  0.79077755  0.39676649  0.73859127  1
  Mo  Mo195  1  0.90421119  0.90192844  0.62733009  1
  Mo  Mo196  1  0.40134817  0.78711119  0.49696738  1
  Mo  Mo197  1  0.79184420  0.40905452  0.24129310  1
  Mo  Mo198  1  0.10871531  0.10474388  0.62735531  1
  Mo  Mo199  1  0.60149034  0.80430361  0.76618063  1
