# generated using pymatgen
data_HfZrTaTiMo
_symmetry_space_group_name_H-M   'P 1'
_cell_length_a   15.20334444
_cell_length_b   15.20670358
_cell_length_c   16.83848545
_cell_angle_alpha   89.97648058
_cell_angle_beta   90.01940303
_cell_angle_gamma   90.05969110
_symmetry_Int_Tables_number   1
_chemical_formula_structural   HfZrTaTiMo
_chemical_formula_sum   'Hf40 Zr40 Ta40 Ti40 Mo40'
_cell_volume   3892.93313192
_cell_formula_units_Z   40
loop_
 _symmetry_equiv_pos_site_id
 _symmetry_equiv_pos_as_xyz
  1  'x, y, z'
loop_
 _atom_site_type_symbol
 _atom_site_label
 _atom_site_symmetry_multiplicity
 _atom_site_fract_x
 _atom_site_fract_y
 _atom_site_fract_z
 _atom_site_occupancy
  Hf  Hf0  1  0.89374685  0.10508990  0.87934134  1
  Hf  Hf1  1  0.89956788  0.50535397  0.61660102  1
  Hf  Hf2  1  0.29536646  0.50074574  0.87406189  1
  Hf  Hf3  1  -0.00169412  0.79876043  0.48907140  1
  Hf  Hf4  1  0.60568870  0.00149655  0.01218180  1
  Hf  Hf5  1  0.00005575  0.00816444  0.49949010  1
  Hf  Hf6  1  0.69946700  0.70071031  0.85961419  1
  Hf  Hf7  1  0.10855957  0.50121467  0.36287937  1
  Hf  Hf8  1  0.50046800  0.69077427  0.86533989  1
  Hf  Hf9  1  0.79448088  0.77306544  0.49683495  1
  Hf  Hf10  1  0.10297902  0.89449237  0.87192593  1
  Hf  Hf11  1  0.40043130  -0.00395336  -0.00780084  1
  Hf  Hf12  1  0.20128122  0.39943864  0.23352977  1
  Hf  Hf13  1  0.81611379  0.80077115  0.75292447  1
  Hf  Hf14  1  -0.00557025  0.59807401  0.75157827  1
  Hf  Hf15  1  0.40532493  0.80024674  0.25568610  1
  Hf  Hf16  1  0.00060008  0.20433134  0.24184908  1
  Hf  Hf17  1  -0.01000474  0.42871818  0.02355537  1
  Hf  Hf18  1  0.38866007  0.40011457  0.51170793  1
  Hf  Hf19  1  0.50222629  0.89567665  0.87065315  1
  Hf  Hf20  1  0.90131094  0.31986546  0.88442942  1
  Hf  Hf21  1  0.59708908  0.80279037  0.00208823  1
  Hf  Hf22  1  0.20277758  0.19662450  0.24018612  1
  Hf  Hf23  1  0.10325975  0.69961658  0.87748550  1
  Hf  Hf24  1  0.10323270  0.11160138  0.63640857  1
  Hf  Hf25  1  0.40156004  0.59162441  0.74099965  1
  Hf  Hf26  1  0.28512866  0.30228500  0.37853512  1
  Hf  Hf27  1  0.40773116  0.78609139  0.51106254  1
  Hf  Hf28  1  0.60020525  0.40281945  0.49735752  1
  Hf  Hf29  1  0.29722362  0.30175701  0.88185922  1
  Hf  Hf30  1  -0.00108193  0.21606930  0.49842381  1
  Hf  Hf31  1  0.70024820  0.30047942  0.86838392  1
  Hf  Hf32  1  0.90072151  0.68071231  0.89194224  1
  Hf  Hf33  1  0.50129794  0.69937022  0.12007649  1
  Hf  Hf34  1  0.39754624  -0.00548425  0.75075499  1
  Hf  Hf35  1  0.30434738  0.50402422  0.37597938  1
  Hf  Hf36  1  -0.00227726  0.20413017  0.00607232  1
  Hf  Hf37  1  0.10846310  0.11048658  0.37520634  1
  Hf  Hf38  1  0.50835197  0.89585748  0.39163758  1
  Hf  Hf39  1  0.62437776  0.60018905  0.00188257  1
  Zr  Zr40  1  0.10357078  0.90193393  0.37107133  1
  Zr  Zr41  1  0.60902220  0.77720614  0.25320857  1
  Zr  Zr42  1  0.88968914  0.90316970  0.36807356  1
  Zr  Zr43  1  0.89209071  0.89992242  0.61749884  1
  Zr  Zr44  1  -0.00615956  -0.00411415  0.75623854  1
  Zr  Zr45  1  0.59772319  -0.01311870  0.23920164  1
  Zr  Zr46  1  0.49626044  0.09275796  0.61279731  1
  Zr  Zr47  1  0.48975182  0.10649767  0.12329689  1
  Zr  Zr48  1  0.69878842  0.08452610  0.37781586  1
  Zr  Zr49  1  0.59366831  0.19691353  0.26394903  1
  Zr  Zr50  1  0.89807559  0.11234194  0.62504026  1
  Zr  Zr51  1  0.31667719  0.49569127  0.11662954  1
  Zr  Zr52  1  0.59867396  0.80160717  0.72334382  1
  Zr  Zr53  1  0.59691047  0.61885313  0.50810304  1
  Zr  Zr54  1  0.60016705  -0.00094812  0.74113778  1
  Zr  Zr55  1  0.80509410  0.39114329  0.48829366  1
  Zr  Zr56  1  0.00085782  0.61041822  0.49261682  1
  Zr  Zr57  1  0.26812978  0.48758505  0.63615535  1
  Zr  Zr58  1  0.00157386  0.00197210  0.24301693  1
  Zr  Zr59  1  0.51711963  0.49963310  0.13240653  1
  Zr  Zr60  1  0.09065632  0.49591373  0.88094423  1
  Zr  Zr61  1  0.71821840  0.50314024  0.85780699  1
  Zr  Zr62  1  0.40049431  0.00644112  0.25883092  1
  Zr  Zr63  1  0.09816411  0.88771131  0.63832862  1
  Zr  Zr64  1  0.18704831  0.59569174  0.01767033  1
  Zr  Zr65  1  0.50670883  0.29534383  0.62251546  1
  Zr  Zr66  1  0.10155318  0.11016764  0.87187960  1
  Zr  Zr67  1  0.90141489  0.89766961  0.11577318  1
  Zr  Zr68  1  0.00178918  0.60279046  0.22670430  1
  Zr  Zr69  1  0.69878459  0.49548210  0.63042034  1
  Zr  Zr70  1  0.69662771  0.31008834  0.14103470  1
  Zr  Zr71  1  0.79164107  0.00113763  0.75175054  1
  Zr  Zr72  1  0.61299936  0.40447906  -0.00237840  1
  Zr  Zr73  1  0.70073884  0.11266487  0.61054317  1
  Zr  Zr74  1  0.20451573  0.00773140  0.50688307  1
  Zr  Zr75  1  0.89984031  0.50786451  0.36462683  1
  Zr  Zr76  1  0.20008480  -0.00336754  -0.00044699  1
  Zr  Zr77  1  0.19714168  0.80078539  0.24015483  1
  Zr  Zr78  1  0.59108470  0.20555545  0.00368014  1
  Zr  Zr79  1  0.19607427  0.78753508  0.50058752  1
  Ta  Ta80  1  0.69616126  0.10163862  0.87630114  1
  Ta  Ta81  1  0.30347698  0.90240076  0.62402872  1
  Ta  Ta82  1  0.69799841  0.51370320  0.37365421  1
  Ta  Ta83  1  0.39583612  0.20636836  0.26145948  1
  Ta  Ta84  1  0.69909076  0.88336741  0.38263603  1
  Ta  Ta85  1  0.90614944  0.69972467  0.62950041  1
  Ta  Ta86  1  0.20677069  0.80199954  0.00929878  1
  Ta  Ta87  1  0.20961912  0.60570539  0.23599989  1
  Ta  Ta88  1  0.40468319  0.39861483  0.25577116  1
  Ta  Ta89  1  0.28972134  0.69626759  0.63269316  1
  Ta  Ta90  1  0.20512675  0.00001020  0.23919074  1
  Ta  Ta91  1  0.80316099  0.20538541  0.26135446  1
  Ta  Ta92  1  0.30327210  0.10243388  0.87214960  1
  Ta  Ta93  1  0.31123756  0.29234484  0.11229179  1
  Ta  Ta94  1  0.79583036  0.00207946  0.00347660  1
  Ta  Ta95  1  0.49261381  0.30741386  0.37955539  1
  Ta  Ta96  1  0.88730791  0.30623608  0.12453939  1
  Ta  Ta97  1  0.39599892  0.19641290  0.49085262  1
  Ta  Ta98  1  0.70646960  0.88364782  0.12523257  1
  Ta  Ta99  1  0.88741324  0.10586746  0.12243998  1
  Ta  Ta100  1  0.60325824  0.20060228  0.74992895  1
  Ta  Ta101  1  0.40014464  0.19684038  0.74981509  1
  Ta  Ta102  1  0.30055594  0.89690759  0.38018271  1
  Ta  Ta103  1  0.31386332  0.90132702  0.12451451  1
  Ta  Ta104  1  0.60103980  0.20378810  0.48142038  1
  Ta  Ta105  1  0.30218650  0.69419370  0.37637446  1
  Ta  Ta106  1  0.49624988  0.30179349  0.86341821  1
  Ta  Ta107  1  0.00161031  0.22035616  0.75278313  1
  Ta  Ta108  1  0.78902018  0.20388735  0.00599550  1
  Ta  Ta109  1  -0.00813184  0.79546443  0.24004171  1
  Ta  Ta110  1  0.49214476  0.30662594  0.13335009  1
  Ta  Ta111  1  0.90229535  0.88893845  0.89352665  1
  Ta  Ta112  1  0.41151943  0.39387202  -0.00609022  1
  Ta  Ta113  1  0.50069923  0.10761327  0.87455562  1
  Ta  Ta114  1  0.30949599  0.70173812  0.12021814  1
  Ta  Ta115  1  0.09911382  0.09565528  0.11771354  1
  Ta  Ta116  1  0.20496440  0.21688029  0.74860904  1
  Ta  Ta117  1  -0.00701440  0.39604372  0.23792423  1
  Ta  Ta118  1  0.39583258  0.79913417  0.73901268  1
  Ta  Ta119  1  0.01459504  0.40752666  0.50170786  1
  Ti  Ti120  1  0.19664486  0.59117105  0.50216976  1
  Ti  Ti121  1  0.39985097  -0.00152230  0.49719234  1
  Ti  Ti122  1  0.01199555  0.79292325  0.01609663  1
  Ti  Ti123  1  0.70675673  0.90281893  0.87995597  1
  Ti  Ti124  1  0.81381995  0.39974634  0.74379768  1
  Ti  Ti125  1  0.39741838  0.59558827  0.51662529  1
  Ti  Ti126  1  0.49821280  0.51290194  0.37785404  1
  Ti  Ti127  1  0.10514670  0.30310809  0.11371154  1
  Ti  Ti128  1  0.59345719  0.40086904  0.73991702  1
  Ti  Ti129  1  0.90252283  0.10480320  0.37269933  1
  Ti  Ti130  1  0.20565210  0.79814692  0.75182318  1
  Ti  Ti131  1  0.20091174  0.21733651  0.51146894  1
  Ti  Ti132  1  0.38909262  0.38778571  0.74003088  1
  Ti  Ti133  1  0.78291208  0.61418660  0.24758452  1
  Ti  Ti134  1  0.10378558  0.30839292  0.88409986  1
  Ti  Ti135  1  0.20516960  0.20076810  0.00193926  1
  Ti  Ti136  1  0.09258525  0.30839713  0.37160665  1
  Ti  Ti137  1  0.29996526  0.10799339  0.62757922  1
  Ti  Ti138  1  0.88168728  0.69486518  0.11709067  1
  Ti  Ti139  1  0.71240215  0.69023530  0.63597800  1
  Ti  Ti140  1  0.09959874  0.69705051  0.36242134  1
  Ti  Ti141  1  0.30084667  0.09694485  0.37789621  1
  Ti  Ti142  1  0.79092528  0.78656919  -0.00207784  1
  Ti  Ti143  1  0.20846802  0.00163672  0.75386415  1
  Ti  Ti144  1  0.89865681  0.30359855  0.62461305  1
  Ti  Ti145  1  0.40865815  0.59885126  -0.00853128  1
  Ti  Ti146  1  0.00729742  0.40172440  0.74422980  1
  Ti  Ti147  1  0.30124397  0.10356727  0.11934564  1
  Ti  Ti148  1  0.79487128  -0.00436126  0.49853830  1
  Ti  Ti149  1  0.79365326  -0.00158514  0.24162643  1
  Ti  Ti150  1  -0.00088956  -0.00127364  0.00176253  1
  Ti  Ti151  1  0.60356073  0.40803925  0.26691014  1
  Ti  Ti152  1  0.11093174  0.32139069  0.62764932  1
  Ti  Ti153  1  0.30017818  0.70609745  0.87273087  1
  Ti  Ti154  1  0.50570549  0.49445532  0.86606490  1
  Ti  Ti155  1  0.10202909  0.68803976  0.63752403  1
  Ti  Ti156  1  0.80123694  0.20779408  0.74897421  1
  Ti  Ti157  1  0.79878182  0.20658135  0.48145891  1
  Ti  Ti158  1  0.39507591  0.79954292  -0.00568796  1
  Ti  Ti159  1  0.40899318  0.60402177  0.25384090  1
  Mo  Mo160  1  0.48910666  0.68794109  0.38015605  1
  Mo  Mo161  1  0.10113647  0.70708047  0.12349554  1
  Mo  Mo162  1  0.49297461  0.49553411  0.62938578  1
  Mo  Mo163  1  0.70489779  0.69390986  0.12154417  1
  Mo  Mo164  1  0.00423228  0.79350739  0.75432598  1
  Mo  Mo165  1  0.29608642  0.28687811  0.62497803  1
  Mo  Mo166  1  0.18757956  0.40082067  0.49576100  1
  Mo  Mo167  1  0.49662103  0.69055307  0.63641016  1
  Mo  Mo168  1  0.20042419  0.39098979  0.01203746  1
  Mo  Mo169  1  0.70954463  0.29576478  0.63183025  1
  Mo  Mo170  1  0.80411697  0.60048267  0.74612910  1
  Mo  Mo171  1  0.79814762  0.39690518  0.26929991  1
  Mo  Mo172  1  0.59507203  0.59590395  0.25932528  1
  Mo  Mo173  1  0.79456399  0.40310441  0.00672814  1
  Mo  Mo174  1  0.18911920  0.39617225  0.75751403  1
  Mo  Mo175  1  0.60219507  0.80066719  0.51654007  1
  Mo  Mo176  1  0.71167910  0.09709523  0.13174728  1
  Mo  Mo177  1  0.49354849  0.89840631  0.60975866  1
  Mo  Mo178  1  0.19981632  0.60845646  0.75660401  1
  Mo  Mo179  1  0.39789493  0.20094222  -0.00797195  1
  Mo  Mo180  1  0.69875367  0.69649587  0.37704449  1
  Mo  Mo181  1  0.69838831  0.30472678  0.36651238  1
  Mo  Mo182  1  0.87835830  0.49623137  0.14651895  1
  Mo  Mo183  1  0.49263391  0.89130770  0.11955377  1
  Mo  Mo184  1  0.80034414  0.59658869  0.49408402  1
  Mo  Mo185  1  0.70852703  0.50460675  0.14533540  1
  Mo  Mo186  1  0.80320893  0.79865750  0.24895837  1
  Mo  Mo187  1  0.89229837  0.70560833  0.35684059  1
  Mo  Mo188  1  0.10518467  0.90423097  0.12052274  1
  Mo  Mo189  1  0.29999114  0.88821954  0.86868954  1
  Mo  Mo190  1  0.10309498  0.49622864  0.13555166  1
  Mo  Mo191  1  0.59606077  0.59429441  0.73878082  1
  Mo  Mo192  1  0.60320522  -0.00667175  0.50064817  1
  Mo  Mo193  1  0.69883916  0.89944809  0.60402916  1
  Mo  Mo194  1  0.49140613  0.10227515  0.38760617  1
  Mo  Mo195  1  0.09193290  0.50774475  0.62694045  1
  Mo  Mo196  1  0.90231413  0.49503402  0.87392266  1
  Mo  Mo197  1  0.81195885  0.57529868  0.01137308  1
  Mo  Mo198  1  0.90884618  0.29728415  0.36960929  1
  Mo  Mo199  1  -0.00782656  0.60824976  0.02307505  1
