# generated using pymatgen
data_HfZrTaTiMo
_symmetry_space_group_name_H-M   'P 1'
_cell_length_a   15.19287430
_cell_length_b   15.18256123
_cell_length_c   16.80631316
_cell_angle_alpha   89.97703192
_cell_angle_beta   90.05174340
_cell_angle_gamma   90.00149077
_symmetry_Int_Tables_number   1
_chemical_formula_structural   HfZrTaTiMo
_chemical_formula_sum   'Hf40 Zr40 Ta40 Ti40 Mo40'
_cell_volume   3876.65564732
_cell_formula_units_Z   40
loop_
 _symmetry_equiv_pos_site_id
 _symmetry_equiv_pos_as_xyz
  1  'x, y, z'
loop_
 _atom_site_type_symbol
 _atom_site_label
 _atom_site_symmetry_multiplicity
 _atom_site_fract_x
 _atom_site_fract_y
 _atom_site_fract_z
 _atom_site_occupancy
  Hf  Hf0  1  0.59013686  0.79768736  0.73541443  1
  Hf  Hf1  1  0.00639877  0.61527373  0.00631406  1
  Hf  Hf2  1  0.20151316  0.19418556  0.74966229  1
  Hf  Hf3  1  0.17716282  0.80259004  0.23000059  1
  Hf  Hf4  1  0.30420184  0.08996406  0.61177438  1
  Hf  Hf5  1  0.39035480  0.58838322  0.74386795  1
  Hf  Hf6  1  0.39369842  0.79304113  0.74729028  1
  Hf  Hf7  1  0.19990033  0.81275686  0.75797007  1
  Hf  Hf8  1  0.39596516  0.20927023  0.73763838  1
  Hf  Hf9  1  0.40457395  0.21304635  0.25752258  1
  Hf  Hf10  1  -0.00089561  0.19701584  0.74644442  1
  Hf  Hf11  1  0.70703352  0.30385252  0.12834407  1
  Hf  Hf12  1  0.01566683  0.17638570  -0.01792013  1
  Hf  Hf13  1  0.89783332  0.90551463  0.86014733  1
  Hf  Hf14  1  -0.00023598  0.60541340  0.24068869  1
  Hf  Hf15  1  0.30067217  0.09274935  0.12105221  1
  Hf  Hf16  1  0.28037771  0.70626209  0.37316284  1
  Hf  Hf17  1  0.17280704  0.80391058  0.01195095  1
  Hf  Hf18  1  0.49036016  0.90312844  0.11695556  1
  Hf  Hf19  1  0.30456648  0.90672405  0.89467617  1
  Hf  Hf20  1  0.81514493  0.00178379  -0.00315286  1
  Hf  Hf21  1  0.79052320  0.40537473  -0.00496000  1
  Hf  Hf22  1  0.69499738  0.90756925  0.62217305  1
  Hf  Hf23  1  0.90382955  0.31735655  0.38439558  1
  Hf  Hf24  1  0.40066691  -0.00285028  0.74693740  1
  Hf  Hf25  1  0.18945347  0.01787850  -0.00436046  1
  Hf  Hf26  1  0.91331720  0.90081244  0.63046733  1
  Hf  Hf27  1  0.79768156  0.61187022  0.24797581  1
  Hf  Hf28  1  0.50314388  0.89319187  0.88509353  1
  Hf  Hf29  1  0.39793090  0.40629051  0.25867096  1
  Hf  Hf30  1  0.79524803  0.59184059  0.74778246  1
  Hf  Hf31  1  -0.01378310  0.59238226  0.50184947  1
  Hf  Hf32  1  0.20373306  0.59769310  0.01034268  1
  Hf  Hf33  1  0.60847166  0.00142647  -0.00397249  1
  Hf  Hf34  1  0.71103227  0.89471246  0.13203045  1
  Hf  Hf35  1  0.10489155  0.09412585  0.61043865  1
  Hf  Hf36  1  0.69264025  0.29946031  0.62646659  1
  Hf  Hf37  1  0.79476914  0.79518377  0.74010075  1
  Hf  Hf38  1  0.71628354  0.10170696  0.85789040  1
  Hf  Hf39  1  0.80996464  0.39984490  0.25270198  1
  Zr  Zr40  1  0.59074496  0.39928923  0.25479461  1
  Zr  Zr41  1  0.49208277  0.69471700  0.88317724  1
  Zr  Zr42  1  0.80645656  -0.00036573  0.25827762  1
  Zr  Zr43  1  0.92497540  0.09714195  0.12956382  1
  Zr  Zr44  1  0.11555840  0.09100306  0.39325778  1
  Zr  Zr45  1  0.89586203  0.49850056  0.11834216  1
  Zr  Zr46  1  0.50539134  0.10737686  0.12676882  1
  Zr  Zr47  1  0.79944567  0.80093761  0.51061289  1
  Zr  Zr48  1  0.71086677  0.49790488  0.38591593  1
  Zr  Zr49  1  0.19936014  0.60923661  0.75420982  1
  Zr  Zr50  1  0.01704442  -0.00982371  0.25710186  1
  Zr  Zr51  1  0.39063594  0.80611128  0.25458293  1
  Zr  Zr52  1  0.60409369  0.20867112  -0.00135591  1
  Zr  Zr53  1  -0.00432277  0.20270447  0.51130868  1
  Zr  Zr54  1  0.09709511  0.70901309  0.62336701  1
  Zr  Zr55  1  0.00735954  0.21085502  0.25920725  1
  Zr  Zr56  1  0.40016745  0.60501180  0.25479265  1
  Zr  Zr57  1  0.09899272  0.47415769  0.12688560  1
  Zr  Zr58  1  0.81604734  0.20579995  -0.00595658  1
  Zr  Zr59  1  0.59341871  0.80141222  0.25755117  1
  Zr  Zr60  1  0.29046069  0.29968293  0.12233831  1
  Zr  Zr61  1  0.01985304  -0.00413436  0.75141645  1
  Zr  Zr62  1  0.61396455  0.20376960  0.25636130  1
  Zr  Zr63  1  0.49428345  0.30309978  0.87387380  1
  Zr  Zr64  1  0.59055747  0.60105781  0.25327409  1
  Zr  Zr65  1  0.48050410  0.48278969  0.61192113  1
  Zr  Zr66  1  0.59477856  0.59826820  0.73599347  1
  Zr  Zr67  1  0.39605837  0.00149646  0.26631408  1
  Zr  Zr68  1  0.69560997  0.69830423  0.87630167  1
  Zr  Zr69  1  0.50905295  0.10812209  0.38175227  1
  Zr  Zr70  1  0.08571450  0.49515410  0.36919475  1
  Zr  Zr71  1  0.11348528  0.30278934  0.39193558  1
  Zr  Zr72  1  0.68903739  0.69986573  0.38973267  1
  Zr  Zr73  1  0.09771157  0.31037029  0.87142019  1
  Zr  Zr74  1  0.69737269  0.31753961  0.86104288  1
  Zr  Zr75  1  0.22041428  0.40546947  0.74243291  1
  Zr  Zr76  1  0.59327636  0.19544172  0.74197203  1
  Zr  Zr77  1  0.71440204  0.10150973  0.13183182  1
  Zr  Zr78  1  0.79672853  0.61168064  -0.00070310  1
  Zr  Zr79  1  0.90387667  0.49108208  0.87691319  1
  Ta  Ta80  1  0.90277416  0.89371423  0.37941953  1
  Ta  Ta81  1  0.29251765  0.69812432  0.88937083  1
  Ta  Ta82  1  0.79957110  0.40151040  0.73751263  1
  Ta  Ta83  1  0.00122842  0.79475538  0.49792248  1
  Ta  Ta84  1  0.39779794  -0.00151555  0.48411076  1
  Ta  Ta85  1  0.30068923  0.29976178  0.88238126  1
  Ta  Ta86  1  0.89892236  0.69249367  0.63175377  1
  Ta  Ta87  1  0.80344667  0.00763421  0.49707017  1
  Ta  Ta88  1  0.60289279  -0.00122375  0.49662586  1
  Ta  Ta89  1  0.89588828  0.69746136  0.37500961  1
  Ta  Ta90  1  0.19100435  0.60022959  0.49971284  1
  Ta  Ta91  1  0.59661810  -0.00423554  0.74913250  1
  Ta  Ta92  1  -0.00053395  0.59665968  0.75149030  1
  Ta  Ta93  1  0.80813952  0.40399043  0.51413309  1
  Ta  Ta94  1  0.60923364  0.79523667  0.00563419  1
  Ta  Ta95  1  0.40437666  0.59208735  0.00946136  1
  Ta  Ta96  1  0.00153128  0.40369393  0.73670816  1
  Ta  Ta97  1  0.79627360  0.20083204  0.50600031  1
  Ta  Ta98  1  0.29860997  0.70923949  0.61174491  1
  Ta  Ta99  1  0.39306793  0.19436401  -0.00225609  1
  Ta  Ta100  1  0.50319829  0.49605899  0.87516273  1
  Ta  Ta101  1  0.10032788  0.50336600  0.62557248  1
  Ta  Ta102  1  0.70338477  0.70432722  0.12465151  1
  Ta  Ta103  1  0.38901311  0.80741915  0.48691800  1
  Ta  Ta104  1  0.89935718  0.10609924  0.37955410  1
  Ta  Ta105  1  0.19971878  0.59619710  0.23821801  1
  Ta  Ta106  1  0.68989269  0.50759816  0.12833474  1
  Ta  Ta107  1  0.90948397  0.70281285  0.86969747  1
  Ta  Ta108  1  0.38844428  0.38354074  0.48530653  1
  Ta  Ta109  1  -0.00270545  -0.00942624  0.49740863  1
  Ta  Ta110  1  0.59081173  0.41122098  0.01003939  1
  Ta  Ta111  1  0.49934667  0.50674721  0.39429238  1
  Ta  Ta112  1  0.69962943  0.90000898  0.86707603  1
  Ta  Ta113  1  0.11042187  0.88491521  0.38498339  1
  Ta  Ta114  1  0.20849729  0.18636804  0.25950464  1
  Ta  Ta115  1  0.49032614  0.09392638  0.87800180  1
  Ta  Ta116  1  0.40082902  0.40010489  0.00890507  1
  Ta  Ta117  1  0.70010456  0.90447086  0.37968686  1
  Ta  Ta118  1  0.38399367  0.59804153  0.49322208  1
  Ta  Ta119  1  0.59860674  0.39316883  0.49769712  1
  Ti  Ti120  1  0.19890544  0.39609066  -0.00393717  1
  Ti  Ti121  1  0.30293885  0.49827315  0.12941490  1
  Ti  Ti122  1  0.39329607  0.79417845  0.01069736  1
  Ti  Ti123  1  0.59729613  -0.00374739  0.25885770  1
  Ti  Ti124  1  -0.00424010  0.38595842  -0.00368440  1
  Ti  Ti125  1  0.70459715  0.29417677  0.38377294  1
  Ti  Ti126  1  0.91095336  0.30047983  0.12921090  1
  Ti  Ti127  1  0.59983210  0.20026105  0.50295821  1
  Ti  Ti128  1  0.22963144  0.21125439  0.50074962  1
  Ti  Ti129  1  0.00924011  0.79202401  0.75629364  1
  Ti  Ti130  1  0.12495979  0.90120485  0.60783488  1
  Ti  Ti131  1  0.00037567  0.40413753  0.52007517  1
  Ti  Ti132  1  0.60009031  0.59466111  0.00359925  1
  Ti  Ti133  1  0.69509369  0.50301191  0.61513957  1
  Ti  Ti134  1  0.20941122  0.00287033  0.76172405  1
  Ti  Ti135  1  0.89706543  0.29864024  0.62965737  1
  Ti  Ti136  1  0.19469775  0.38519116  0.25289235  1
  Ti  Ti137  1  0.50606042  0.09580955  0.61268903  1
  Ti  Ti138  1  0.00626245  -0.02155053  -0.00807833  1
  Ti  Ti139  1  0.70996041  0.10308670  0.37769494  1
  Ti  Ti140  1  0.30866503  0.49635910  0.88318175  1
  Ti  Ti141  1  0.29971783  0.70426641  0.12489360  1
  Ti  Ti142  1  0.10470511  0.50799481  0.87634981  1
  Ti  Ti143  1  0.08975445  0.69865883  0.37228814  1
  Ti  Ti144  1  0.50544495  0.69485764  0.11920696  1
  Ti  Ti145  1  0.80911177  0.80719741  -0.00351440  1
  Ti  Ti146  1  0.70398982  0.09794043  0.62955639  1
  Ti  Ti147  1  0.58823713  0.80163679  0.49932198  1
  Ti  Ti148  1  0.20706858  0.40947461  0.50973479  1
  Ti  Ti149  1  0.90581229  0.73235896  0.13037737  1
  Ti  Ti150  1  0.11384134  0.30181652  0.62137006  1
  Ti  Ti151  1  0.28508331  0.49607759  0.37295012  1
  Ti  Ti152  1  0.10031283  0.27561878  0.11848828  1
  Ti  Ti153  1  0.49538087  0.69649158  0.60429815  1
  Ti  Ti154  1  0.48522638  0.90253264  0.61237005  1
  Ti  Ti155  1  0.89100066  0.09547912  0.63009026  1
  Ti  Ti156  1  0.20652414  -0.00781026  0.24243953  1
  Ti  Ti157  1  0.89413210  0.29105192  0.85849238  1
  Ti  Ti158  1  0.58643211  0.40472286  0.73951451  1
  Ti  Ti159  1  0.79673127  0.59986972  0.51283704  1
  Mo  Mo160  1  0.59464864  0.59908456  0.51262642  1
  Mo  Mo161  1  0.30626637  0.30811128  0.61899803  1
  Mo  Mo162  1  0.11169068  0.10397720  0.13161237  1
  Mo  Mo163  1  0.20928505  -0.01119635  0.49614309  1
  Mo  Mo164  1  0.20295387  0.20822144  -0.00933009  1
  Mo  Mo165  1  0.80417009  0.80150149  0.25876711  1
  Mo  Mo166  1  0.10543728  0.09359365  0.86671495  1
  Mo  Mo167  1  0.07879966  0.90964087  0.12379104  1
  Mo  Mo168  1  0.30387373  0.89669146  0.62199086  1
  Mo  Mo169  1  0.39991119  0.40125839  0.75229879  1
  Mo  Mo170  1  0.50615500  0.89778966  0.38652978  1
  Mo  Mo171  1  0.89406809  0.50701588  0.37940306  1
  Mo  Mo172  1  0.50793829  0.30724381  0.38783428  1
  Mo  Mo173  1  0.80871298  0.20470640  0.26527598  1
  Mo  Mo174  1  0.09388068  0.69547492  0.12942972  1
  Mo  Mo175  1  0.69191740  0.69665962  0.61238219  1
  Mo  Mo176  1  0.19892420  0.79326214  0.49618160  1
  Mo  Mo177  1  0.80564362  0.20250063  0.73545201  1
  Mo  Mo178  1  0.29897115  0.30160230  0.37168671  1
  Mo  Mo179  1  0.30013870  0.10610433  0.38428031  1
  Mo  Mo180  1  0.49612132  0.30482362  0.11753078  1
  Mo  Mo181  1  0.90310587  0.90162729  0.12350713  1
  Mo  Mo182  1  0.40084728  -0.00022852  -0.00092034  1
  Mo  Mo183  1  0.29205470  0.50699586  0.61139148  1
  Mo  Mo184  1  0.30712173  0.10785333  0.87548402  1
  Mo  Mo185  1  0.10128460  0.89198787  0.87396234  1
  Mo  Mo186  1  0.68488942  0.49514105  0.87092543  1
  Mo  Mo187  1  0.28855486  0.90701479  0.37169977  1
  Mo  Mo188  1  -0.01254465  0.79933529  0.26007530  1
  Mo  Mo189  1  0.29636558  0.89917976  0.11094036  1
  Mo  Mo190  1  0.49522845  0.29260823  0.61086947  1
  Mo  Mo191  1  0.90344874  0.10036017  0.86206667  1
  Mo  Mo192  1  0.89814666  0.49742174  0.63089202  1
  Mo  Mo193  1  0.49091867  0.69785891  0.39710732  1
  Mo  Mo194  1  0.00600006  0.39658215  0.24620915  1
  Mo  Mo195  1  0.09729806  0.69756217  0.87394509  1
  Mo  Mo196  1  -0.01439137  0.80399435  -0.00615440  1
  Mo  Mo197  1  0.49576297  0.50234342  0.12287032  1
  Mo  Mo198  1  0.79617661  0.00107502  0.74306712  1
  Mo  Mo199  1  0.40944135  0.20100887  0.50392932  1
