# generated using pymatgen
data_HfZrTaTiMo
_symmetry_space_group_name_H-M   'P 1'
_cell_length_a   15.20253095
_cell_length_b   15.21647451
_cell_length_c   16.81584594
_cell_angle_alpha   90.00071141
_cell_angle_beta   90.02490391
_cell_angle_gamma   90.07677769
_symmetry_Int_Tables_number   1
_chemical_formula_structural   HfZrTaTiMo
_chemical_formula_sum   'Hf40 Zr40 Ta40 Ti40 Mo40'
_cell_volume   3889.98769919
_cell_formula_units_Z   40
loop_
 _symmetry_equiv_pos_site_id
 _symmetry_equiv_pos_as_xyz
  1  'x, y, z'
loop_
 _atom_site_type_symbol
 _atom_site_label
 _atom_site_symmetry_multiplicity
 _atom_site_fract_x
 _atom_site_fract_y
 _atom_site_fract_z
 _atom_site_occupancy
  Hf  Hf0  1  0.70592873  0.51010996  0.38700790  1
  Hf  Hf1  1  0.58194690  -0.01511825  0.50630721  1
  Hf  Hf2  1  0.90517083  0.90937964  0.89365146  1
  Hf  Hf3  1  0.50001749  0.49630010  0.37936712  1
  Hf  Hf4  1  0.32021924  0.71197029  0.12429941  1
  Hf  Hf5  1  0.89333417  0.27909877  0.61279906  1
  Hf  Hf6  1  0.29148042  0.90188115  0.86302671  1
  Hf  Hf7  1  0.59055878  0.39783721  0.51608598  1
  Hf  Hf8  1  0.90376841  0.10530407  0.89463526  1
  Hf  Hf9  1  0.50102547  0.09707259  0.63668846  1
  Hf  Hf10  1  0.79382466  0.21630023  0.24803061  1
  Hf  Hf11  1  0.59313780  0.78511169  0.00207813  1
  Hf  Hf12  1  -0.00284873  0.20126978  0.24318831  1
  Hf  Hf13  1  0.58491685  -0.00895300  -0.00583771  1
  Hf  Hf14  1  0.49634995  0.88600135  0.85903963  1
  Hf  Hf15  1  0.68308411  0.90211831  0.13564081  1
  Hf  Hf16  1  0.09343731  0.50927251  0.37238973  1
  Hf  Hf17  1  0.09738853  0.50373838  0.87825591  1
  Hf  Hf18  1  0.21806687  0.17889595  -0.01911600  1
  Hf  Hf19  1  0.40178932  0.40241335  -0.02062749  1
  Hf  Hf20  1  0.30068312  0.10938638  0.63568502  1
  Hf  Hf21  1  0.59227697  0.18913630  0.50165508  1
  Hf  Hf22  1  0.12675467  0.09907271  0.13135562  1
  Hf  Hf23  1  0.60011275  0.59064291  -0.00488092  1
  Hf  Hf24  1  0.78958207  0.42209976  0.00430716  1
  Hf  Hf25  1  0.89249653  0.51045391  0.87430983  1
  Hf  Hf26  1  0.08933737  0.10236557  0.62564242  1
  Hf  Hf27  1  0.62391906  0.79266772  0.51142136  1
  Hf  Hf28  1  0.10072440  0.30487953  0.37195800  1
  Hf  Hf29  1  0.68871792  0.30791856  0.11727205  1
  Hf  Hf30  1  0.09342732  0.70783530  0.36174794  1
  Hf  Hf31  1  0.70734189  0.89218522  0.87822484  1
  Hf  Hf32  1  0.90113174  0.30913904  0.11038838  1
  Hf  Hf33  1  0.40803287  0.19589594  -0.01533596  1
  Hf  Hf34  1  0.52406034  0.69762149  0.38507439  1
  Hf  Hf35  1  0.10952612  0.30640656  0.12818627  1
  Hf  Hf36  1  0.89233314  0.10105358  0.36848675  1
  Hf  Hf37  1  0.59935073  0.19742047  -0.00855796  1
  Hf  Hf38  1  0.71662144  0.09660171  0.62291786  1
  Hf  Hf39  1  0.18931300  0.80089488  0.51071336  1
  Zr  Zr40  1  0.10965188  0.30055353  0.63576337  1
  Zr  Zr41  1  -0.00503294  0.39945517  0.74493309  1
  Zr  Zr42  1  0.89831915  0.71649909  0.63545810  1
  Zr  Zr43  1  0.39901814  0.59130731  0.51905022  1
  Zr  Zr44  1  0.39146540  0.18506614  0.26072308  1
  Zr  Zr45  1  0.78685118  0.60904461  0.74452508  1
  Zr  Zr46  1  0.70237771  0.30095565  0.87620060  1
  Zr  Zr47  1  0.20791263  0.20991087  0.49104182  1
  Zr  Zr48  1  0.89824457  0.71558600  0.87681396  1
  Zr  Zr49  1  0.20724670  0.80815395  0.00315419  1
  Zr  Zr50  1  0.39355947  0.39417112  0.25573658  1
  Zr  Zr51  1  0.09937471  0.50135908  0.11467623  1
  Zr  Zr52  1  0.68920303  0.88531949  0.35110785  1
  Zr  Zr53  1  0.00476309  0.40510942  0.50573399  1
  Zr  Zr54  1  0.49263565  0.08584984  0.13204821  1
  Zr  Zr55  1  0.00103098  -0.00642642  0.49154920  1
  Zr  Zr56  1  0.78953988  -0.01099240  0.49142092  1
  Zr  Zr57  1  0.41126346  0.61144685  0.25272932  1
  Zr  Zr58  1  0.69209594  0.10600130  0.13360267  1
  Zr  Zr59  1  0.30252986  0.28829184  0.12012903  1
  Zr  Zr60  1  0.20604462  0.00300945  0.50095010  1
  Zr  Zr61  1  0.31023200  0.70815088  0.38636596  1
  Zr  Zr62  1  0.80128009  0.42852558  0.23932673  1
  Zr  Zr63  1  0.89250107  0.31724396  0.38604810  1
  Zr  Zr64  1  0.89535169  0.87903724  0.35746324  1
  Zr  Zr65  1  0.29688466  0.50563716  0.11631020  1
  Zr  Zr66  1  0.59697521  0.59499486  0.53744903  1
  Zr  Zr67  1  0.88762813  0.49680852  0.61683173  1
  Zr  Zr68  1  0.81162693  0.00805469  0.75450426  1
  Zr  Zr69  1  0.11179401  0.70065772  0.13004411  1
  Zr  Zr70  1  0.79485226  0.63191965  0.50300931  1
  Zr  Zr71  1  0.67904907  0.09583747  0.35381514  1
  Zr  Zr72  1  0.69795379  0.29862970  0.62357414  1
  Zr  Zr73  1  0.01568085  0.20093254  0.00546480  1
  Zr  Zr74  1  0.20166721  0.39434819  -0.01944691  1
  Zr  Zr75  1  0.60292992  0.39142322  0.25527984  1
  Zr  Zr76  1  0.90445582  0.30761661  0.88680413  1
  Zr  Zr77  1  0.50327831  0.49704648  0.12272669  1
  Zr  Zr78  1  0.39585899  0.37847960  0.50558495  1
  Zr  Zr79  1  0.19477770  0.79886152  0.73448048  1
  Ta  Ta80  1  0.78979770  0.39810328  0.74871063  1
  Ta  Ta81  1  0.00185607  0.81123596  0.75003961  1
  Ta  Ta82  1  0.10590992  0.08700297  0.86945431  1
  Ta  Ta83  1  0.80076014  0.80506484  0.02207170  1
  Ta  Ta84  1  0.37744629  -0.00176493  -0.00518585  1
  Ta  Ta85  1  0.30663248  0.29952513  0.64309753  1
  Ta  Ta86  1  0.30578180  0.69893344  0.86534862  1
  Ta  Ta87  1  0.19833453  0.59996298  0.75394633  1
  Ta  Ta88  1  0.29421824  0.49991528  0.37938552  1
  Ta  Ta89  1  -0.00429391  0.40909934  0.24810090  1
  Ta  Ta90  1  0.29082927  0.49214220  0.63615723  1
  Ta  Ta91  1  0.69966069  0.30118905  0.39118040  1
  Ta  Ta92  1  -0.00295596  0.60446752  0.00331987  1
  Ta  Ta93  1  0.10234403  0.70490164  0.88129170  1
  Ta  Ta94  1  0.10176320  0.51159468  0.63100455  1
  Ta  Ta95  1  0.90270062  0.91256094  0.62404122  1
  Ta  Ta96  1  0.79608014  0.61454873  0.00748213  1
  Ta  Ta97  1  0.10343715  0.89954254  0.35860994  1
  Ta  Ta98  1  0.19459328  0.60012888  0.50638989  1
  Ta  Ta99  1  0.01254644  -0.00326588  0.02168245  1
  Ta  Ta100  1  0.00459168  0.61442693  0.50421865  1
  Ta  Ta101  1  0.20007620  0.40376500  0.25577011  1
  Ta  Ta102  1  0.81106648  -0.00093075  0.23144471  1
  Ta  Ta103  1  0.39572769  0.59911120  0.74067254  1
  Ta  Ta104  1  0.20527681  0.40929440  0.50388380  1
  Ta  Ta105  1  0.70631623  0.09626637  0.88398876  1
  Ta  Ta106  1  0.22512578  0.81275461  0.25297558  1
  Ta  Ta107  1  -0.00913375  0.79912803  0.49761893  1
  Ta  Ta108  1  0.19300333  0.00009747  0.74071293  1
  Ta  Ta109  1  0.09396090  0.89831454  0.87916551  1
  Ta  Ta110  1  0.00232249  -0.00091372  0.23587394  1
  Ta  Ta111  1  0.40064899  0.60718496  -0.01643713  1
  Ta  Ta112  1  0.61787647  0.59662109  0.24694415  1
  Ta  Ta113  1  0.00346666  -0.00198075  0.74869420  1
  Ta  Ta114  1  0.41502086  0.80703368  0.52111010  1
  Ta  Ta115  1  0.60846473  0.00004966  0.75608698  1
  Ta  Ta116  1  0.20733191  0.60178806  0.25411422  1
  Ta  Ta117  1  0.38517519  -0.02188720  0.25304512  1
  Ta  Ta118  1  0.50297190  0.28249008  0.37532656  1
  Ta  Ta119  1  0.09962183  0.09676217  0.36550129  1
  Ti  Ti120  1  0.58362857  0.78380813  0.23923907  1
  Ti  Ti121  1  -0.00479321  0.18927257  0.75329227  1
  Ti  Ti122  1  0.39702770  0.18168653  0.49342816  1
  Ti  Ti123  1  0.50785930  0.30496286  0.85891606  1
  Ti  Ti124  1  0.68640653  0.50232133  0.86033860  1
  Ti  Ti125  1  0.49869824  0.50441700  0.85675710  1
  Ti  Ti126  1  0.80547824  0.20021043  0.75492410  1
  Ti  Ti127  1  0.48637504  0.07791008  0.37254100  1
  Ti  Ti128  1  0.00069862  0.80219517  0.01676948  1
  Ti  Ti129  1  0.69577426  0.69643699  0.12880853  1
  Ti  Ti130  1  0.50070026  0.09112549  0.86472764  1
  Ti  Ti131  1  0.60709441  0.19801050  0.75469243  1
  Ti  Ti132  1  0.40377063  0.80008883  -0.00882343  1
  Ti  Ti133  1  0.80379402  0.00944419  0.02326966  1
  Ti  Ti134  1  0.47769155  0.88160490  0.12731111  1
  Ti  Ti135  1  -0.00749015  0.59792316  0.23938745  1
  Ti  Ti136  1  -0.00316070  0.19185814  0.49172272  1
  Ti  Ti137  1  0.11427467  0.90053846  0.13866961  1
  Ti  Ti138  1  0.39853842  -0.00377799  0.75044320  1
  Ti  Ti139  1  0.80978244  0.62036461  0.24226786  1
  Ti  Ti140  1  0.20172011  0.40422025  0.75930483  1
  Ti  Ti141  1  0.50955881  0.88889866  0.64657816  1
  Ti  Ti142  1  0.30739907  0.90496918  0.39133339  1
  Ti  Ti143  1  0.29887624  0.29465243  0.85610577  1
  Ti  Ti144  1  0.40305887  0.39925336  0.75186815  1
  Ti  Ti145  1  0.40417565  0.19759785  0.76055600  1
  Ti  Ti146  1  0.49873837  0.28985434  0.12856886  1
  Ti  Ti147  1  0.59020778  0.40056513  -0.00709970  1
  Ti  Ti148  1  0.20903862  0.00707721  0.26054953  1
  Ti  Ti149  1  0.50375525  0.69550258  0.84990936  1
  Ti  Ti150  1  0.71234020  0.88783383  0.64078371  1
  Ti  Ti151  1  0.49153836  0.88835789  0.37623311  1
  Ti  Ti152  1  0.00567296  0.61051288  0.74893634  1
  Ti  Ti153  1  -0.01114039  0.79696032  0.23250796  1
  Ti  Ti154  1  0.20758483  0.20208342  0.26456761  1
  Ti  Ti155  1  0.29903363  0.69853157  0.62595536  1
  Ti  Ti156  1  0.30946420  0.90548917  0.62449988  1
  Ti  Ti157  1  0.89995492  0.51887662  0.38265872  1
  Ti  Ti158  1  0.69588577  0.69975299  0.86930915  1
  Ti  Ti159  1  0.09809389  0.29193404  0.86446051  1
  Mo  Mo160  1  0.79458843  0.19719559  0.00680931  1
  Mo  Mo161  1  0.58912138  0.19977646  0.25852579  1
  Mo  Mo162  1  0.57092117  -0.01817422  0.24829517  1
  Mo  Mo163  1  0.78986133  0.41117197  0.50068507  1
  Mo  Mo164  1  0.30002312  0.30434045  0.37747874  1
  Mo  Mo165  1  0.90263581  0.10297906  0.61986251  1
  Mo  Mo166  1  0.70061102  0.51137574  0.12409865  1
  Mo  Mo167  1  0.19434289  -0.00342053  -0.00531310  1
  Mo  Mo168  1  0.90430341  0.69964809  0.11746894  1
  Mo  Mo169  1  0.90434479  0.90172096  0.12186730  1
  Mo  Mo170  1  0.40540612  -0.00534027  0.50861287  1
  Mo  Mo171  1  0.30192500  0.09044368  0.12423635  1
  Mo  Mo172  1  0.39742469  0.79855009  0.73462244  1
  Mo  Mo173  1  0.09211524  0.89739836  0.62409204  1
  Mo  Mo174  1  0.40958123  0.80518804  0.25823971  1
  Mo  Mo175  1  0.19884139  0.19928272  0.76269827  1
  Mo  Mo176  1  0.00025210  0.40941984  -0.00619332  1
  Mo  Mo177  1  0.30513859  0.50508363  0.86024044  1
  Mo  Mo178  1  0.80705376  0.81275938  0.75917226  1
  Mo  Mo179  1  0.59322848  0.59439943  0.74059049  1
  Mo  Mo180  1  0.90294862  0.51124197  0.11790236  1
  Mo  Mo181  1  0.48997971  0.48386072  0.64562441  1
  Mo  Mo182  1  0.69685046  0.49696368  0.63556652  1
  Mo  Mo183  1  0.79660148  0.19707256  0.48694800  1
  Mo  Mo184  1  0.50477426  0.69762292  0.11819155  1
  Mo  Mo185  1  0.29755785  0.91254971  0.12545361  1
  Mo  Mo186  1  0.49565971  0.70448388  0.64264959  1
  Mo  Mo187  1  0.29900974  0.09067912  0.37940891  1
  Mo  Mo188  1  0.69848168  0.71255448  0.64160768  1
  Mo  Mo189  1  0.80860468  0.81022233  0.50030735  1
  Mo  Mo190  1  0.61125165  0.79492311  0.75094927  1
  Mo  Mo191  1  0.09660263  0.69703030  0.62542007  1
  Mo  Mo192  1  0.71613145  0.70865608  0.35618025  1
  Mo  Mo193  1  0.21094801  0.60911310  -0.01981729  1
  Mo  Mo194  1  0.30675002  0.09223103  0.85427994  1
  Mo  Mo195  1  0.59436017  0.39740786  0.74438859  1
  Mo  Mo196  1  0.79910028  0.79395943  0.22582651  1
  Mo  Mo197  1  0.90378225  0.10289043  0.12031753  1
  Mo  Mo198  1  0.90518554  0.69420812  0.36729408  1
  Mo  Mo199  1  0.48902602  0.28338217  0.64183669  1
