# generated using pymatgen
data_HfZrTaTiMo
_symmetry_space_group_name_H-M   'P 1'
_cell_length_a   15.21571517
_cell_length_b   15.21464797
_cell_length_c   16.83647586
_cell_angle_alpha   90.03879400
_cell_angle_beta   89.94918853
_cell_angle_gamma   90.01648233
_symmetry_Int_Tables_number   1
_chemical_formula_structural   HfZrTaTiMo
_chemical_formula_sum   'Hf40 Zr40 Ta40 Ti40 Mo40'
_cell_volume   3897.67103748
_cell_formula_units_Z   40
loop_
 _symmetry_equiv_pos_site_id
 _symmetry_equiv_pos_as_xyz
  1  'x, y, z'
loop_
 _atom_site_type_symbol
 _atom_site_label
 _atom_site_symmetry_multiplicity
 _atom_site_fract_x
 _atom_site_fract_y
 _atom_site_fract_z
 _atom_site_occupancy
  Hf  Hf0  1  0.50158052  0.90855913  0.63293030  1
  Hf  Hf1  1  0.60088871  -0.00566613  -0.00974849  1
  Hf  Hf2  1  0.61178745  0.20545784  0.22486688  1
  Hf  Hf3  1  0.59584894  0.80433933  0.25178204  1
  Hf  Hf4  1  0.72406252  0.11002263  0.36631800  1
  Hf  Hf5  1  0.38595154  0.80189881  0.51265252  1
  Hf  Hf6  1  0.39918348  0.19206974  0.23570781  1
  Hf  Hf7  1  0.60231618  0.60236376  0.24644672  1
  Hf  Hf8  1  0.38903293  0.60664486  0.23791176  1
  Hf  Hf9  1  0.30009034  0.88416108  0.11879257  1
  Hf  Hf10  1  0.09312316  0.12041629  0.87644101  1
  Hf  Hf11  1  0.79859506  0.60094383  0.26061363  1
  Hf  Hf12  1  0.58730983  0.57558032  0.49952213  1
  Hf  Hf13  1  0.61379561  0.22042991  0.49894228  1
  Hf  Hf14  1  0.50570573  0.30999473  0.35833333  1
  Hf  Hf15  1  0.30059172  0.10376908  0.63377671  1
  Hf  Hf16  1  0.29662989  0.49239960  0.62381014  1
  Hf  Hf17  1  0.39688399  0.00847011  0.50861099  1
  Hf  Hf18  1  0.41179106  0.40668270  0.49506775  1
  Hf  Hf19  1  0.01186867  0.39697336  0.75969251  1
  Hf  Hf20  1  0.91050338  0.27914771  0.36623935  1
  Hf  Hf21  1  0.39210337  0.61120985  0.00355548  1
  Hf  Hf22  1  0.79915750  0.60280570  0.49279616  1
  Hf  Hf23  1  0.79754277  0.38182306  0.49410541  1
  Hf  Hf24  1  0.48868431  0.71592819  0.12394371  1
  Hf  Hf25  1  0.50611053  0.10588295  0.37242453  1
  Hf  Hf26  1  0.80471580  0.79922520  0.25914408  1
  Hf  Hf27  1  -0.00552498  0.61225866  0.76650750  1
  Hf  Hf28  1  0.51135819  0.31579911  0.63309123  1
  Hf  Hf29  1  0.19653346  -0.00681260  0.76772008  1
  Hf  Hf30  1  0.49051254  0.69221651  0.63678751  1
  Hf  Hf31  1  0.41137606  0.20001702  0.00952296  1
  Hf  Hf32  1  0.28484262  0.48958145  0.12006051  1
  Hf  Hf33  1  0.89108044  0.89306210  0.11521018  1
  Hf  Hf34  1  0.69141722  0.47813448  0.62763174  1
  Hf  Hf35  1  0.48903571  0.70217762  0.37058119  1
  Hf  Hf36  1  0.40045694  0.39216583  0.76568700  1
  Hf  Hf37  1  0.28624281  0.70855996  0.36105910  1
  Hf  Hf38  1  0.00702712  0.21127517  0.50699289  1
  Hf  Hf39  1  0.80330575  0.00416100  0.74937824  1
  Zr  Zr40  1  0.09854468  0.50204941  0.61638514  1
  Zr  Zr41  1  0.08523092  0.69940541  0.36610994  1
  Zr  Zr42  1  0.59701300  0.79639742  0.50205786  1
  Zr  Zr43  1  0.18689441  0.79909786  0.50509594  1
  Zr  Zr44  1  0.60477028  0.00249045  0.24635300  1
  Zr  Zr45  1  0.38332083  0.58906841  0.75597494  1
  Zr  Zr46  1  0.79917026  0.61124273  -0.00526383  1
  Zr  Zr47  1  0.90928785  0.30303268  0.63164394  1
  Zr  Zr48  1  -0.01131433  0.00965024  -0.01306937  1
  Zr  Zr49  1  0.50408859  0.50127265  0.88797607  1
  Zr  Zr50  1  0.70706063  0.91019992  0.38554774  1
  Zr  Zr51  1  -0.01656931  0.59348998  0.24116531  1
  Zr  Zr52  1  0.09508247  0.11216249  0.37158682  1
  Zr  Zr53  1  0.38204330  0.81007567  0.74670475  1
  Zr  Zr54  1  0.69775786  0.69452396  0.63359459  1
  Zr  Zr55  1  0.19479161  0.01522686  0.23493706  1
  Zr  Zr56  1  0.28607241  0.70318775  0.88093236  1
  Zr  Zr57  1  0.60861875  0.38823543  0.01117405  1
  Zr  Zr58  1  0.29488739  0.90458505  0.36510744  1
  Zr  Zr59  1  -0.00316206  0.81851866  0.77192181  1
  Zr  Zr60  1  0.70582546  0.90021915  0.62618605  1
  Zr  Zr61  1  0.09539658  0.90530754  0.36725817  1
  Zr  Zr62  1  0.40474031  0.20559101  0.50120204  1
  Zr  Zr63  1  -0.00937203  0.59746809  0.00105183  1
  Zr  Zr64  1  0.21367892  0.21178767  0.76179251  1
  Zr  Zr65  1  0.28712285  0.29845487  0.36005650  1
  Zr  Zr66  1  0.38583619  0.60160454  0.49757195  1
  Zr  Zr67  1  0.71166083  0.50445359  0.11946528  1
  Zr  Zr68  1  0.49150527  0.49210309  0.12336757  1
  Zr  Zr69  1  -0.01703786  0.00766406  0.50929314  1
  Zr  Zr70  1  0.59645334  0.79486688  -0.00881416  1
  Zr  Zr71  1  0.89666486  0.50418964  0.62668399  1
  Zr  Zr72  1  0.73096926  0.29698839  0.87935214  1
  Zr  Zr73  1  0.49587854  0.90775044  0.38305236  1
  Zr  Zr74  1  0.68755849  0.69155189  0.86034034  1
  Zr  Zr75  1  0.08946911  0.90303875  0.63138060  1
  Zr  Zr76  1  0.88620986  0.48188104  0.87356883  1
  Zr  Zr77  1  0.18408096  0.59492971  0.23746545  1
  Zr  Zr78  1  0.72138701  0.08621876  0.11545011  1
  Zr  Zr79  1  -0.00734532  0.79759819  -0.02216475  1
  Ta  Ta80  1  0.31226851  0.09989958  0.88635731  1
  Ta  Ta81  1  0.80796108  0.17366602  0.51132454  1
  Ta  Ta82  1  0.29660614  0.49564992  0.36187663  1
  Ta  Ta83  1  0.80076867  0.80260446  0.76385412  1
  Ta  Ta84  1  0.40153726  0.01204478  0.75648896  1
  Ta  Ta85  1  0.20299261  0.19939710  0.50482195  1
  Ta  Ta86  1  0.61438157  0.02375236  0.50932146  1
  Ta  Ta87  1  0.01606022  0.18581938  0.22600662  1
  Ta  Ta88  1  0.20829620  0.20588745  0.00071558  1
  Ta  Ta89  1  0.11686957  0.30541069  0.62846109  1
  Ta  Ta90  1  0.81171593  0.39834606  0.24140507  1
  Ta  Ta91  1  0.60904527  0.39791669  0.23398050  1
  Ta  Ta92  1  0.58890726  0.58376257  0.74729799  1
  Ta  Ta93  1  0.49127790  0.70699141  0.86357075  1
  Ta  Ta94  1  0.39206113  0.38773735  -0.00495299  1
  Ta  Ta95  1  0.01172949  0.21515520  0.02092993  1
  Ta  Ta96  1  0.09839190  0.48376699  0.37673051  1
  Ta  Ta97  1  0.27322407  0.69459653  0.63175972  1
  Ta  Ta98  1  0.71160735  0.71144473  0.12241638  1
  Ta  Ta99  1  0.71042445  0.30268058  0.35857007  1
  Ta  Ta100  1  0.70866947  0.28700786  0.63815493  1
  Ta  Ta101  1  0.09189756  0.90820891  0.12179421  1
  Ta  Ta102  1  0.49388979  0.90578702  0.11778136  1
  Ta  Ta103  1  -0.01544481  0.79723644  0.50025521  1
  Ta  Ta104  1  0.09186782  0.71244490  0.12410311  1
  Ta  Ta105  1  0.20717830  0.40676092  0.76571127  1
  Ta  Ta106  1  0.90362788  0.48748039  0.37991774  1
  Ta  Ta107  1  0.19700071  0.00015904  -0.00571368  1
  Ta  Ta108  1  0.61412744  0.19206809  0.75921511  1
  Ta  Ta109  1  0.61300720  0.19888587  0.01112751  1
  Ta  Ta110  1  0.89719324  0.71154437  0.63205772  1
  Ta  Ta111  1  0.08311766  0.47777450  0.11534810  1
  Ta  Ta112  1  0.18504518  0.59597261  0.75803398  1
  Ta  Ta113  1  0.51280210  0.29010442  0.87990809  1
  Ta  Ta114  1  0.69760933  0.89357000  0.12116539  1
  Ta  Ta115  1  0.69569703  0.69831108  0.38225041  1
  Ta  Ta116  1  0.60120180  0.00120294  0.76159129  1
  Ta  Ta117  1  0.71671907  0.09600075  0.88693669  1
  Ta  Ta118  1  -0.00503083  0.60308814  0.49314056  1
  Ta  Ta119  1  0.29832133  0.10001343  0.37372979  1
  Ti  Ti120  1  0.79458436  0.58916705  0.75225641  1
  Ti  Ti121  1  0.80600629  0.80516261  0.49816237  1
  Ti  Ti122  1  0.50624304  0.09987356  0.88031076  1
  Ti  Ti123  1  0.90316290  0.91050997  0.37475887  1
  Ti  Ti124  1  0.82213825  0.00388744  0.24648305  1
  Ti  Ti125  1  0.51353120  0.10938954  0.63440651  1
  Ti  Ti126  1  0.69295121  0.48739796  0.37179819  1
  Ti  Ti127  1  0.19258062  0.59734736  0.49123449  1
  Ti  Ti128  1  0.92630500  0.28207735  0.87595344  1
  Ti  Ti129  1  0.00872754  0.38667562  0.24789880  1
  Ti  Ti130  1  0.69722083  0.49239332  0.87702274  1
  Ti  Ti131  1  0.18466140  0.79231276  0.76020730  1
  Ti  Ti132  1  0.29028077  0.49806183  0.89038569  1
  Ti  Ti133  1  0.30385644  0.30138139  0.62540036  1
  Ti  Ti134  1  0.30038682  0.30210948  0.13450108  1
  Ti  Ti135  1  0.18756424  0.60432316  0.00976864  1
  Ti  Ti136  1  0.28738479  0.90511176  0.63156743  1
  Ti  Ti137  1  0.79402767  0.81119122  -0.02406669  1
  Ti  Ti138  1  0.59889604  0.60335098  0.00504373  1
  Ti  Ti139  1  0.09686344  0.10964804  0.63795617  1
  Ti  Ti140  1  0.19550014  0.39142100  0.49242071  1
  Ti  Ti141  1  0.30450704  0.90250650  0.88862165  1
  Ti  Ti142  1  0.19437217  0.00943656  0.50471202  1
  Ti  Ti143  1  0.50128743  0.08983586  0.11759787  1
  Ti  Ti144  1  0.82329800  0.19436982  0.01486469  1
  Ti  Ti145  1  0.30165803  0.09039358  0.11149198  1
  Ti  Ti146  1  0.49296472  0.90031656  0.87014301  1
  Ti  Ti147  1  0.82841857  0.38886676  0.02301631  1
  Ti  Ti148  1  0.49559033  0.49733788  0.35638088  1
  Ti  Ti149  1  0.41463801  0.19959656  0.76092032  1
  Ti  Ti150  1  0.82067821  0.20330349  0.22610115  1
  Ti  Ti151  1  0.19070585  0.80050227  -0.00344504  1
  Ti  Ti152  1  0.81892870  0.19530602  0.74804054  1
  Ti  Ti153  1  0.08718039  0.69788601  0.62557403  1
  Ti  Ti154  1  -0.00512024  0.80425183  0.24490870  1
  Ti  Ti155  1  0.40239986  -0.00602521  0.24590995  1
  Ti  Ti156  1  0.19290169  0.38783464  -0.00740513  1
  Ti  Ti157  1  -0.00969370  0.01671387  0.76199494  1
  Ti  Ti158  1  0.60894903  0.39167832  0.76329512  1
  Ti  Ti159  1  0.10007557  0.50021956  0.88889323  1
  Mo  Mo160  1  0.01023211  0.20032534  0.74291841  1
  Mo  Mo161  1  0.92022757  0.30693344  0.13232311  1
  Mo  Mo162  1  0.90507168  0.09855495  0.63297423  1
  Mo  Mo163  1  0.28346659  0.70181188  0.11611290  1
  Mo  Mo164  1  0.68954307  0.90151861  0.86225883  1
  Mo  Mo165  1  0.88820068  0.69927104  0.86385547  1
  Mo  Mo166  1  0.69921462  0.10415411  0.63279049  1
  Mo  Mo167  1  0.79743413  -0.00624126  -0.00700080  1
  Mo  Mo168  1  0.39837401  0.40337781  0.24651027  1
  Mo  Mo169  1  0.71566168  0.29718522  0.12413323  1
  Mo  Mo170  1  0.31085325  0.29783429  0.88412625  1
  Mo  Mo171  1  0.10152680  0.69456326  0.88306361  1
  Mo  Mo172  1  0.12142337  0.30261959  0.12710269  1
  Mo  Mo173  1  0.20242705  0.20039526  0.23726756  1
  Mo  Mo174  1  0.59190656  0.80063101  0.75514231  1
  Mo  Mo175  1  0.60560594  0.39492402  0.49060405  1
  Mo  Mo176  1  0.40099347  -0.00095606  -0.00513679  1
  Mo  Mo177  1  0.10879722  0.30885262  0.87957106  1
  Mo  Mo178  1  0.88615972  0.91700490  0.87824322  1
  Mo  Mo179  1  0.91660102  0.09184060  0.12372526  1
  Mo  Mo180  1  0.90183070  0.09457423  0.36763545  1
  Mo  Mo181  1  0.39890957  0.80810598  -0.01048603  1
  Mo  Mo182  1  -0.00586763  -0.00420293  0.24144504  1
  Mo  Mo183  1  0.90311033  0.49864080  0.12732657  1
  Mo  Mo184  1  0.79681254  0.39178730  0.75443181  1
  Mo  Mo185  1  0.89267518  0.70736690  0.12429128  1
  Mo  Mo186  1  0.89351067  0.70429745  0.38248287  1
  Mo  Mo187  1  0.00538161  0.40305486  0.49309057  1
  Mo  Mo188  1  0.80299216  -0.00228942  0.50620611  1
  Mo  Mo189  1  0.00568979  0.39375372  -0.00633259  1
  Mo  Mo190  1  0.39387556  0.80658790  0.24506811  1
  Mo  Mo191  1  0.19334526  0.39844539  0.24753019  1
  Mo  Mo192  1  0.89716840  0.89173287  0.62828172  1
  Mo  Mo193  1  0.89310475  0.11863284  0.87746765  1
  Mo  Mo194  1  0.18721924  0.80054689  0.23301300  1
  Mo  Mo195  1  0.49884885  0.29770752  0.12717020  1
  Mo  Mo196  1  0.49910067  0.49213689  0.63298990  1
  Mo  Mo197  1  0.11106612  0.09769261  0.10942869  1
  Mo  Mo198  1  0.10820043  0.90666115  0.87895380  1
  Mo  Mo199  1  0.10027773  0.30118038  0.37248409  1
