# generated using pymatgen
data_HfZrTaTiMo
_symmetry_space_group_name_H-M   'P 1'
_cell_length_a   15.20720459
_cell_length_b   15.23227036
_cell_length_c   16.81338822
_cell_angle_alpha   90.05001052
_cell_angle_beta   89.94424478
_cell_angle_gamma   90.00511436
_symmetry_Int_Tables_number   1
_chemical_formula_structural   HfZrTaTiMo
_chemical_formula_sum   'Hf40 Zr40 Ta40 Ti40 Mo40'
_cell_volume   3894.65413760
_cell_formula_units_Z   40
loop_
 _symmetry_equiv_pos_site_id
 _symmetry_equiv_pos_as_xyz
  1  'x, y, z'
loop_
 _atom_site_type_symbol
 _atom_site_label
 _atom_site_symmetry_multiplicity
 _atom_site_fract_x
 _atom_site_fract_y
 _atom_site_fract_z
 _atom_site_occupancy
  Hf  Hf0  1  0.19693277  0.20064180  0.23797550  1
  Hf  Hf1  1  0.29693569  0.11490939  0.37759819  1
  Hf  Hf2  1  0.09686748  0.50824118  0.63576063  1
  Hf  Hf3  1  0.08798494  0.08290284  0.12447314  1
  Hf  Hf4  1  0.41650528  0.82506658  0.01464538  1
  Hf  Hf5  1  0.19802013  0.00098539  0.48833190  1
  Hf  Hf6  1  0.00715005  0.80103659  0.00864783  1
  Hf  Hf7  1  0.90349128  0.69298205  0.87752566  1
  Hf  Hf8  1  0.50073253  0.69786607  0.62096965  1
  Hf  Hf9  1  0.68753837  0.29320119  0.88166770  1
  Hf  Hf10  1  0.90094238  0.90267839  0.88317866  1
  Hf  Hf11  1  0.80164721  -0.00137625  0.49054800  1
  Hf  Hf12  1  0.90103779  0.69439138  0.36148342  1
  Hf  Hf13  1  0.90021653  0.89617670  0.61936176  1
  Hf  Hf14  1  0.01326268  0.79662409  0.49298021  1
  Hf  Hf15  1  0.78977163  0.40415763  0.75751703  1
  Hf  Hf16  1  0.59587615  0.20229390  0.25251912  1
  Hf  Hf17  1  0.00102516  0.59184919  0.48515987  1
  Hf  Hf18  1  0.09582916  0.51735945  0.85928755  1
  Hf  Hf19  1  -0.00595623  0.39191175  -0.01101397  1
  Hf  Hf20  1  0.20454793  -0.00541519  0.00108925  1
  Hf  Hf21  1  0.40297442  -0.00724028  0.50223013  1
  Hf  Hf22  1  0.39817091  0.20809652  0.24679871  1
  Hf  Hf23  1  0.30587675  0.50781099  0.87588132  1
  Hf  Hf24  1  0.09945056  0.49372387  0.13940550  1
  Hf  Hf25  1  0.78833093  0.20183692  0.49385018  1
  Hf  Hf26  1  0.30047650  0.30898361  0.10793682  1
  Hf  Hf27  1  0.21098990  0.78882073  0.00994830  1
  Hf  Hf28  1  0.20294257  0.60252436  0.49233376  1
  Hf  Hf29  1  0.89440543  0.29769232  0.37488976  1
  Hf  Hf30  1  0.59337907  0.59953997  0.48865592  1
  Hf  Hf31  1  0.48391819  0.29893087  0.89177768  1
  Hf  Hf32  1  0.70190830  0.69184715  0.12777803  1
  Hf  Hf33  1  0.10507578  0.68837397  0.15068022  1
  Hf  Hf34  1  0.00800294  0.60227887  0.00519909  1
  Hf  Hf35  1  0.59224595  0.79261835  0.75723290  1
  Hf  Hf36  1  0.89313827  0.29546796  0.62846859  1
  Hf  Hf37  1  0.00800687  0.78859985  0.74756651  1
  Hf  Hf38  1  -0.00728745  0.39944067  0.75620095  1
  Hf  Hf39  1  0.69901545  0.50757622  0.61990115  1
  Zr  Zr40  1  -0.01300301  0.17976459  0.00478616  1
  Zr  Zr41  1  0.20457714  0.39740691  0.75001639  1
  Zr  Zr42  1  0.89637408  0.68655212  0.61457201  1
  Zr  Zr43  1  0.79564428  0.00545596  0.24542821  1
  Zr  Zr44  1  0.60532582  -0.00322958  0.49516544  1
  Zr  Zr45  1  0.40448194  0.41544639  0.50306635  1
  Zr  Zr46  1  0.69848249  0.88631216  0.88894390  1
  Zr  Zr47  1  0.78603204  0.19231661  0.00521296  1
  Zr  Zr48  1  0.10270469  0.28957197  0.62761698  1
  Zr  Zr49  1  0.39424322  0.62393063  0.00533390  1
  Zr  Zr50  1  0.59001316  0.40809357  0.76238354  1
  Zr  Zr51  1  0.69993961  0.10259385  0.64850486  1
  Zr  Zr52  1  -0.00653980  0.19588107  0.24316827  1
  Zr  Zr53  1  0.20261548  0.40335973  0.49655979  1
  Zr  Zr54  1  0.18732524  0.41081193  -0.00377343  1
  Zr  Zr55  1  0.21037056  -0.00545811  0.75645193  1
  Zr  Zr56  1  0.30392523  0.89547846  0.87897335  1
  Zr  Zr57  1  0.68568534  0.71018069  0.36449997  1
  Zr  Zr58  1  0.50454589  0.10462078  0.63512685  1
  Zr  Zr59  1  -0.00358643  -0.00199767  0.75704925  1
  Zr  Zr60  1  0.33414569  0.90148599  0.35914174  1
  Zr  Zr61  1  0.89890621  0.10178667  0.63181610  1
  Zr  Zr62  1  0.22297447  0.80025005  0.48153121  1
  Zr  Zr63  1  0.29067664  0.29827543  0.88380595  1
  Zr  Zr64  1  0.79629159  0.78975597  0.75059128  1
  Zr  Zr65  1  0.10826483  0.89249879  0.13931955  1
  Zr  Zr66  1  0.69454092  0.89788860  0.63131467  1
  Zr  Zr67  1  0.12095171  0.89049952  0.62327859  1
  Zr  Zr68  1  -0.00057018  0.39752570  0.49321984  1
  Zr  Zr69  1  0.89412218  0.50386288  0.12301126  1
  Zr  Zr70  1  0.79248128  0.57926268  0.25823065  1
  Zr  Zr71  1  0.29777921  0.10572653  0.62375021  1
  Zr  Zr72  1  0.50373877  0.30134110  0.10771019  1
  Zr  Zr73  1  0.68731864  0.30036618  0.63157928  1
  Zr  Zr74  1  0.10140562  0.10066854  0.63003042  1
  Zr  Zr75  1  0.20347115  0.39268454  0.25311899  1
  Zr  Zr76  1  0.89553885  0.27920775  0.86711774  1
  Zr  Zr77  1  0.78860204  0.20534005  0.24263804  1
  Zr  Zr78  1  0.41468081  0.60860687  0.75998885  1
  Zr  Zr79  1  0.90984818  0.89581173  0.36237048  1
  Ta  Ta80  1  0.61437560  0.60339377  0.76240697  1
  Ta  Ta81  1  0.80098104  0.59475225  0.75620435  1
  Ta  Ta82  1  0.50285427  0.50539231  0.10893669  1
  Ta  Ta83  1  0.30370695  0.29992502  0.62550178  1
  Ta  Ta84  1  -0.01388632  0.40116919  0.25712956  1
  Ta  Ta85  1  0.67829154  0.09089585  0.12231766  1
  Ta  Ta86  1  0.90264408  0.09937686  0.37439066  1
  Ta  Ta87  1  0.21175758  0.80399943  0.25932849  1
  Ta  Ta88  1  0.00493701  -0.00284756  0.49118346  1
  Ta  Ta89  1  0.78920507  0.40696911  0.48672256  1
  Ta  Ta90  1  0.48905288  0.70872561  0.36386823  1
  Ta  Ta91  1  0.69344736  0.08660137  0.86146545  1
  Ta  Ta92  1  0.59008523  0.20410036  0.48899461  1
  Ta  Ta93  1  0.50510868  0.50440720  0.90099211  1
  Ta  Ta94  1  0.39996112  0.20868531  0.49773971  1
  Ta  Ta95  1  0.19185303  0.19609944  0.00382064  1
  Ta  Ta96  1  0.50344959  0.49986303  0.62655919  1
  Ta  Ta97  1  0.49703184  0.50753216  0.36608482  1
  Ta  Ta98  1  0.20724989  0.00369868  0.25502514  1
  Ta  Ta99  1  0.80555935  0.00277454  0.01008639  1
  Ta  Ta100  1  0.30913130  0.09623363  0.12018769  1
  Ta  Ta101  1  0.88953904  0.30846232  0.12340279  1
  Ta  Ta102  1  0.60073063  0.40493351  0.24967816  1
  Ta  Ta103  1  0.30782259  0.50744423  0.36152932  1
  Ta  Ta104  1  0.30033003  0.71568970  0.63006890  1
  Ta  Ta105  1  0.69432127  0.89365305  0.11788500  1
  Ta  Ta106  1  0.69946274  0.50652958  0.89891968  1
  Ta  Ta107  1  0.49405467  0.09558199  0.37224284  1
  Ta  Ta108  1  0.31208631  0.10226698  0.88163736  1
  Ta  Ta109  1  0.69438108  0.48735416  0.10736628  1
  Ta  Ta110  1  0.49270532  0.89267231  0.62526987  1
  Ta  Ta111  1  0.90870106  0.91061652  0.13060094  1
  Ta  Ta112  1  0.00644071  0.18987320  0.49149897  1
  Ta  Ta113  1  0.40212845  0.40268859  0.74679691  1
  Ta  Ta114  1  0.30261680  0.51100702  0.12881098  1
  Ta  Ta115  1  0.10258420  0.70072117  0.35395980  1
  Ta  Ta116  1  0.09890603  0.10522298  0.87520983  1
  Ta  Ta117  1  0.49543687  0.30064405  0.62720210  1
  Ta  Ta118  1  0.78620089  0.79926300  0.48984373  1
  Ta  Ta119  1  0.50210043  0.91636700  0.87413395  1
  Ti  Ti120  1  0.89198132  0.49946998  0.88161830  1
  Ti  Ti121  1  0.59458973  -0.00819012  0.25049077  1
  Ti  Ti122  1  0.58125675  0.17553265  -0.00514212  1
  Ti  Ti123  1  0.31042782  0.69499348  0.35764121  1
  Ti  Ti124  1  0.39515188  0.20572776  0.75293085  1
  Ti  Ti125  1  0.79177456  0.80705381  0.24604967  1
  Ti  Ti126  1  0.40922155  0.40798658  0.24302363  1
  Ti  Ti127  1  0.09497587  0.09478152  0.36670394  1
  Ti  Ti128  1  0.52357955  0.88966334  0.37093436  1
  Ti  Ti129  1  0.30369792  0.30949162  0.37839633  1
  Ti  Ti130  1  0.69780831  0.69892686  0.61535488  1
  Ti  Ti131  1  0.80513515  0.79624430  0.01324194  1
  Ti  Ti132  1  0.59826091  0.39668163  0.49149566  1
  Ti  Ti133  1  0.32001199  0.90850495  0.14268883  1
  Ti  Ti134  1  0.51170167  0.71759194  0.12955505  1
  Ti  Ti135  1  0.39402927  0.61050539  0.49605909  1
  Ti  Ti136  1  0.19961162  0.60414515  0.00312607  1
  Ti  Ti137  1  0.89446143  0.49816577  0.62201263  1
  Ti  Ti138  1  0.59416803  0.59417253  0.24611704  1
  Ti  Ti139  1  0.30574063  0.51607779  0.63466276  1
  Ti  Ti140  1  0.29556269  0.70309366  0.86524954  1
  Ti  Ti141  1  0.52028034  0.70813751  0.89470263  1
  Ti  Ti142  1  0.69441067  0.30430841  0.11176192  1
  Ti  Ti143  1  0.30465040  0.70832478  0.14263280  1
  Ti  Ti144  1  0.40720026  0.00178162  0.74828328  1
  Ti  Ti145  1  0.69287623  0.09823307  0.37036264  1
  Ti  Ti146  1  0.78437549  0.39417385  0.25830374  1
  Ti  Ti147  1  0.08807317  0.29988746  0.12246990  1
  Ti  Ti148  1  0.79527873  0.59418656  0.48209636  1
  Ti  Ti149  1  0.10529056  0.28946497  0.37670939  1
  Ti  Ti150  1  0.11020253  0.70435241  0.86801026  1
  Ti  Ti151  1  0.90696101  0.70666926  0.14531171  1
  Ti  Ti152  1  0.39595570  0.80952237  0.75280761  1
  Ti  Ti153  1  0.80246007  0.60394843  0.00275171  1
  Ti  Ti154  1  0.10022429  0.50173817  0.35786417  1
  Ti  Ti155  1  0.10760373  0.69342507  0.63064695  1
  Ti  Ti156  1  0.49713134  0.30639059  0.37364455  1
  Ti  Ti157  1  0.40753439  0.60328196  0.23802227  1
  Ti  Ti158  1  0.10364128  0.89484037  0.87843400  1
  Ti  Ti159  1  0.58959370  -0.00689429  0.00291442  1
  Mo  Mo160  1  0.68647900  0.49371497  0.37459341  1
  Mo  Mo161  1  0.19962394  0.20819206  0.49124057  1
  Mo  Mo162  1  0.59192030  -0.01095312  0.75502974  1
  Mo  Mo163  1  0.40954836  0.01601873  -0.00037625  1
  Mo  Mo164  1  0.00804084  0.19895948  0.76010933  1
  Mo  Mo165  1  0.20143667  0.61424197  0.74463467  1
  Mo  Mo166  1  0.80025108  0.39813678  -0.00281818  1
  Mo  Mo167  1  0.50118451  0.10287383  0.86358643  1
  Mo  Mo168  1  0.58577907  0.20031123  0.76337639  1
  Mo  Mo169  1  0.70717705  0.69026015  0.88869773  1
  Mo  Mo170  1  -0.00203928  0.79982124  0.24568087  1
  Mo  Mo171  1  0.60009135  0.39707654  -0.00285478  1
  Mo  Mo172  1  0.21392014  0.59779821  0.25686527  1
  Mo  Mo173  1  0.39386893  0.41253779  0.00712988  1
  Mo  Mo174  1  0.60200018  0.60894243  0.00885925  1
  Mo  Mo175  1  -0.00218683  -0.00776663  -0.00661889  1
  Mo  Mo176  1  0.00428197  0.00057485  0.25918418  1
  Mo  Mo177  1  0.39230752  0.19086829  0.00326901  1
  Mo  Mo178  1  0.51147214  0.91972891  0.13086191  1
  Mo  Mo179  1  -0.00057401  0.59147222  0.26014196  1
  Mo  Mo180  1  -0.01212689  0.59863322  0.74618357  1
  Mo  Mo181  1  0.41580064  0.80215733  0.23463573  1
  Mo  Mo182  1  0.31463219  0.89592480  0.62601992  1
  Mo  Mo183  1  0.40886282  0.01246833  0.25218212  1
  Mo  Mo184  1  0.49849070  0.09544018  0.12942800  1
  Mo  Mo185  1  0.79773733  -0.00517661  0.75882836  1
  Mo  Mo186  1  0.09759344  0.28845030  0.86880787  1
  Mo  Mo187  1  0.88944951  0.09383212  0.12669663  1
  Mo  Mo188  1  0.60373006  0.80305086  0.24274473  1
  Mo  Mo189  1  0.79708843  0.19370691  0.75876595  1
  Mo  Mo190  1  0.41548559  0.79293763  0.49555454  1
  Mo  Mo191  1  0.59617184  0.79947297  0.50045432  1
  Mo  Mo192  1  0.60474295  0.80191997  0.00390139  1
  Mo  Mo193  1  0.20505711  0.79481782  0.75231580  1
  Mo  Mo194  1  0.88576101  0.08828531  0.86676489  1
  Mo  Mo195  1  0.89602438  0.49299566  0.37299438  1
  Mo  Mo196  1  0.10903051  0.90332469  0.36041397  1
  Mo  Mo197  1  0.68629428  0.30132571  0.37700574  1
  Mo  Mo198  1  0.20394099  0.19670775  0.76216869  1
  Mo  Mo199  1  0.70170570  0.90243835  0.36950290  1
