# generated using pymatgen
data_HfZrTaTiMo
_symmetry_space_group_name_H-M   'P 1'
_cell_length_a   15.21342552
_cell_length_b   15.19887818
_cell_length_c   16.83427119
_cell_angle_alpha   90.05451760
_cell_angle_beta   89.95850471
_cell_angle_gamma   90.17236797
_symmetry_Int_Tables_number   1
_chemical_formula_structural   HfZrTaTiMo
_chemical_formula_sum   'Hf40 Zr40 Ta40 Ti40 Mo40'
_cell_volume   3892.51765505
_cell_formula_units_Z   40
loop_
 _symmetry_equiv_pos_site_id
 _symmetry_equiv_pos_as_xyz
  1  'x, y, z'
loop_
 _atom_site_type_symbol
 _atom_site_label
 _atom_site_symmetry_multiplicity
 _atom_site_fract_x
 _atom_site_fract_y
 _atom_site_fract_z
 _atom_site_occupancy
  Hf  Hf0  1  0.20388023  0.81112780  0.49965117  1
  Hf  Hf1  1  0.49213613  0.88981922  0.37417153  1
  Hf  Hf2  1  0.41006348  0.41925142  0.00725513  1
  Hf  Hf3  1  0.19275288  0.02014729  0.26343655  1
  Hf  Hf4  1  0.89570134  0.48730071  0.62237991  1
  Hf  Hf5  1  0.77692218  0.78764545  0.23662663  1
  Hf  Hf6  1  0.40976287  0.02579325  0.25862096  1
  Hf  Hf7  1  0.29607916  0.73729975  0.85910812  1
  Hf  Hf8  1  0.30857241  0.31500338  0.87525785  1
  Hf  Hf9  1  -0.00771135  0.58418924  0.25085356  1
  Hf  Hf10  1  0.81055068  -0.01356082  0.25475214  1
  Hf  Hf11  1  0.10021037  0.70293753  0.36188920  1
  Hf  Hf12  1  0.60392133  -0.00808828  0.74909826  1
  Hf  Hf13  1  0.00426258  0.19410361  -0.01114204  1
  Hf  Hf14  1  0.60837841  0.19271203  0.00524743  1
  Hf  Hf15  1  0.09172010  0.90958527  0.13990753  1
  Hf  Hf16  1  0.49724463  0.09934320  0.62225671  1
  Hf  Hf17  1  0.91357133  0.28681431  0.14539200  1
  Hf  Hf18  1  0.40945805  0.19771535  -0.00680769  1
  Hf  Hf19  1  0.01166761  0.79149426  0.73905877  1
  Hf  Hf20  1  0.00449696  0.59986661  0.00111441  1
  Hf  Hf21  1  0.89564789  0.90119745  0.60944656  1
  Hf  Hf22  1  0.20491286  0.41131132  0.75295054  1
  Hf  Hf23  1  0.59518726  0.39204467  0.49905512  1
  Hf  Hf24  1  0.70596923  0.08930692  0.13956647  1
  Hf  Hf25  1  0.90863823  0.68306050  0.62330066  1
  Hf  Hf26  1  0.31497590  0.11426657  0.12452476  1
  Hf  Hf27  1  0.59767270  -0.00495534  0.49699342  1
  Hf  Hf28  1  0.58962412  -0.00317131  0.00477925  1
  Hf  Hf29  1  0.51903299  0.30564907  0.86799917  1
  Hf  Hf30  1  0.68951876  0.67385028  0.87850906  1
  Hf  Hf31  1  0.69499859  0.87486139  0.37894166  1
  Hf  Hf32  1  0.22141847  0.21386383  0.27224577  1
  Hf  Hf33  1  -0.02168481  0.80182977  0.24622174  1
  Hf  Hf34  1  0.59163806  0.78572635  0.51516248  1
  Hf  Hf35  1  0.87905290  0.68541599  0.38408533  1
  Hf  Hf36  1  -0.00332681  0.40944543  0.76159966  1
  Hf  Hf37  1  0.38761037  -0.00603931  0.74117340  1
  Hf  Hf38  1  0.90466149  0.90038441  0.87533249  1
  Hf  Hf39  1  0.11614289  0.90283407  0.86571426  1
  Zr  Zr40  1  0.40260037  0.41118055  0.23831153  1
  Zr  Zr41  1  0.00936124  0.38744823  -0.01596476  1
  Zr  Zr42  1  0.60988451  0.19923134  0.48957750  1
  Zr  Zr43  1  0.59149225  0.17319224  0.26248545  1
  Zr  Zr44  1  0.80966253  0.20304900  0.48454260  1
  Zr  Zr45  1  0.19950799  0.00256781  0.00361429  1
  Zr  Zr46  1  0.00793459  0.19683612  0.75258844  1
  Zr  Zr47  1  0.08653374  0.91126134  0.37810211  1
  Zr  Zr48  1  0.19919774  0.41960006  0.25572633  1
  Zr  Zr49  1  0.70329524  0.68181208  0.64330930  1
  Zr  Zr50  1  0.39884143  0.20298083  0.74652667  1
  Zr  Zr51  1  0.21012737  0.63272985  0.00072166  1
  Zr  Zr52  1  0.29402276  0.31276161  0.11611603  1
  Zr  Zr53  1  0.01552553  0.80400599  0.00824042  1
  Zr  Zr54  1  0.47668642  0.89043372  0.87628850  1
  Zr  Zr55  1  0.80588923  0.19457011  0.00443099  1
  Zr  Zr56  1  0.87847098  0.29791177  0.86588873  1
  Zr  Zr57  1  0.60776005  0.39514936  0.01879082  1
  Zr  Zr58  1  0.89630410  0.69864281  0.88216868  1
  Zr  Zr59  1  0.78357852  0.59619044  0.23807817  1
  Zr  Zr60  1  0.57593204  0.78165880  0.00068067  1
  Zr  Zr61  1  0.59668157  0.59234089  0.51448236  1
  Zr  Zr62  1  0.89208128  0.89182051  0.40195208  1
  Zr  Zr63  1  0.30420328  0.70517882  0.36145902  1
  Zr  Zr64  1  0.69280219  0.51535594  0.37674261  1
  Zr  Zr65  1  -0.00077396  0.39132155  0.48664564  1
  Zr  Zr66  1  0.71513498  0.29391278  0.15325244  1
  Zr  Zr67  1  0.31590604  0.33262443  0.38948693  1
  Zr  Zr68  1  0.20582461  0.20936374  0.49370909  1
  Zr  Zr69  1  0.01565061  0.18684661  0.27511579  1
  Zr  Zr70  1  0.71349046  0.09509333  0.62152788  1
  Zr  Zr71  1  0.09917931  0.30779036  0.62901384  1
  Zr  Zr72  1  0.10657569  0.50315500  0.12215820  1
  Zr  Zr73  1  0.69615780  0.46898968  0.86180623  1
  Zr  Zr74  1  0.89640957  0.48627141  0.11434742  1
  Zr  Zr75  1  0.10522817  0.11535406  0.12459551  1
  Zr  Zr76  1  0.79861503  -0.00492948  -0.00098863  1
  Zr  Zr77  1  0.20209938  0.42565083  0.50599665  1
  Zr  Zr78  1  0.58819160  0.79113348  0.75069785  1
  Zr  Zr79  1  0.79587265  0.80626589  0.75237823  1
  Ta  Ta80  1  0.70335405  0.09875289  0.86681738  1
  Ta  Ta81  1  0.41468245  0.60854805  0.24844170  1
  Ta  Ta82  1  0.91075777  0.08847347  0.13629676  1
  Ta  Ta83  1  0.20383593  0.41732301  -0.01350304  1
  Ta  Ta84  1  0.29346771  0.90758307  0.14584257  1
  Ta  Ta85  1  0.89022278  0.69449681  0.11090217  1
  Ta  Ta86  1  0.29433462  0.71839303  0.63391522  1
  Ta  Ta87  1  0.49823438  0.28116878  0.14023909  1
  Ta  Ta88  1  0.90860355  0.09862656  0.61427037  1
  Ta  Ta89  1  0.29949267  0.09698622  0.87501593  1
  Ta  Ta90  1  0.10403271  0.30580558  0.12694038  1
  Ta  Ta91  1  0.50585166  0.30329447  0.36366550  1
  Ta  Ta92  1  0.00250784  0.59098541  0.48992091  1
  Ta  Ta93  1  0.48729295  0.89208665  0.62214942  1
  Ta  Ta94  1  0.31067145  0.53063859  0.12015817  1
  Ta  Ta95  1  0.40845622  0.41349554  0.74781934  1
  Ta  Ta96  1  0.40948196  0.20423511  0.49643285  1
  Ta  Ta97  1  0.61070218  0.20140344  0.74791745  1
  Ta  Ta98  1  0.10116263  0.70712160  0.87057693  1
  Ta  Ta99  1  0.70533172  0.30334468  0.35574202  1
  Ta  Ta100  1  0.89079332  0.50383481  0.88432955  1
  Ta  Ta101  1  0.31515767  0.31429418  0.62018646  1
  Ta  Ta102  1  0.60099206  0.41465738  0.24181533  1
  Ta  Ta103  1  0.79568712  0.40358256  0.48788606  1
  Ta  Ta104  1  0.30122338  0.51927407  0.63220975  1
  Ta  Ta105  1  0.00930907  0.19244772  0.48855721  1
  Ta  Ta106  1  0.50956398  0.69016086  0.37691955  1
  Ta  Ta107  1  0.18876992  0.61897725  0.74621741  1
  Ta  Ta108  1  0.48125536  0.88832354  0.12910475  1
  Ta  Ta109  1  0.19682294  0.61696250  0.50523756  1
  Ta  Ta110  1  0.00260727  -0.00202774  0.73613227  1
  Ta  Ta111  1  0.29674204  0.90758822  0.36635643  1
  Ta  Ta112  1  0.39512485  0.79674476  0.50387656  1
  Ta  Ta113  1  0.59927921  -0.02830421  0.24625437  1
  Ta  Ta114  1  0.31017378  0.52888844  0.87073956  1
  Ta  Ta115  1  0.30850114  0.72300479  0.14188128  1
  Ta  Ta116  1  0.19996942  0.01396628  0.73412670  1
  Ta  Ta117  1  0.50253312  0.09681952  0.86770206  1
  Ta  Ta118  1  0.48034118  0.68197580  0.86818709  1
  Ta  Ta119  1  0.19725809  0.21614953  -0.01575827  1
  Ti  Ti120  1  0.39018718  0.59830268  0.49925771  1
  Ti  Ti121  1  0.48327667  0.49715878  0.37899998  1
  Ti  Ti122  1  0.20860317  0.20368420  0.74764818  1
  Ti  Ti123  1  0.69586397  0.89177074  0.88175508  1
  Ti  Ti124  1  0.10584690  0.90137471  0.62066497  1
  Ti  Ti125  1  -0.00126004  0.00388353  -0.00276225  1
  Ti  Ti126  1  0.90324777  0.09178041  0.86543758  1
  Ti  Ti127  1  0.10472732  0.51365678  0.87250829  1
  Ti  Ti128  1  0.91199903  0.07914583  0.38798774  1
  Ti  Ti129  1  0.80573161  0.00052113  0.74838133  1
  Ti  Ti130  1  0.68848241  0.88529130  0.11817835  1
  Ti  Ti131  1  0.78696587  0.77718415  0.51095980  1
  Ti  Ti132  1  0.20167820  0.01246579  0.50012012  1
  Ti  Ti133  1  0.79624504  0.39065140  0.00318135  1
  Ti  Ti134  1  0.00952614  0.78518988  0.50856175  1
  Ti  Ti135  1  0.11103679  0.70742774  0.14522617  1
  Ti  Ti136  1  0.81444521  0.40868148  0.26068258  1
  Ti  Ti137  1  0.90388029  0.30104823  0.36205583  1
  Ti  Ti138  1  0.58339232  0.77127083  0.23751311  1
  Ti  Ti139  1  0.39478375  -0.00723005  0.00326886  1
  Ti  Ti140  1  0.89079368  0.89700278  0.11532532  1
  Ti  Ti141  1  0.70848681  0.08422254  0.37108807  1
  Ti  Ti142  1  0.38952161  0.00228431  0.49850241  1
  Ti  Ti143  1  0.70956416  0.30262044  0.62492917  1
  Ti  Ti144  1  0.81251245  0.58164589  0.75440829  1
  Ti  Ti145  1  0.89794948  0.29324093  0.62396922  1
  Ti  Ti146  1  0.49974057  0.50027477  0.87235896  1
  Ti  Ti147  1  0.10444200  0.10430678  0.61938197  1
  Ti  Ti148  1  0.10765457  0.50667639  0.37269284  1
  Ti  Ti149  1  0.50784439  0.30127316  0.62829994  1
  Ti  Ti150  1  0.47960897  0.68671182  0.63683847  1
  Ti  Ti151  1  0.67615930  0.66822406  0.10577638  1
  Ti  Ti152  1  0.58409084  0.57863303  0.74509497  1
  Ti  Ti153  1  0.10529200  0.10054423  0.86649072  1
  Ti  Ti154  1  0.09144552  0.52264929  0.63163921  1
  Ti  Ti155  1  0.69966327  0.89828017  0.61937969  1
  Ti  Ti156  1  0.70188478  0.48611716  0.63358818  1
  Ti  Ti157  1  0.80167442  0.19620266  0.74473379  1
  Ti  Ti158  1  0.78902432  0.78751716  0.00269780  1
  Ti  Ti159  1  0.49060324  0.49134836  0.62353583  1
  Mo  Mo160  1  0.00886350  0.00131928  0.51908636  1
  Mo  Mo161  1  0.31043340  0.10223884  0.38938243  1
  Mo  Mo162  1  0.39402001  0.60052317  0.74545543  1
  Mo  Mo163  1  0.80796549  0.18807819  0.27436607  1
  Mo  Mo164  1  0.20476289  0.81345054  0.00975747  1
  Mo  Mo165  1  0.10480406  0.09883782  0.38991620  1
  Mo  Mo166  1  0.19608306  0.81157841  0.25462342  1
  Mo  Mo167  1  0.11393864  0.30099159  0.86661945  1
  Mo  Mo168  1  0.29799070  0.11161387  0.61461258  1
  Mo  Mo169  1  0.68852424  0.70169976  0.37779939  1
  Mo  Mo170  1  -0.00811924  -0.00346874  0.25304862  1
  Mo  Mo171  1  0.40844395  0.81329895  0.25371104  1
  Mo  Mo172  1  0.20558537  0.60788471  0.24102371  1
  Mo  Mo173  1  0.79774736  0.38697860  0.74050315  1
  Mo  Mo174  1  0.29359100  0.91915420  0.87226695  1
  Mo  Mo175  1  0.70319629  0.49271622  0.12322609  1
  Mo  Mo176  1  0.50286276  0.08967158  0.12157881  1
  Mo  Mo177  1  0.40473966  0.61786424  -0.00407588  1
  Mo  Mo178  1  0.50091702  0.09604503  0.38801182  1
  Mo  Mo179  1  0.39556108  0.80380082  0.73735502  1
  Mo  Mo180  1  0.40372007  0.21015090  0.25933438  1
  Mo  Mo181  1  0.20030970  0.82383656  0.73244080  1
  Mo  Mo182  1  0.00620147  0.39451914  0.26418151  1
  Mo  Mo183  1  0.79612864  -0.00233080  0.49723338  1
  Mo  Mo184  1  0.30488729  0.52627890  0.37858230  1
  Mo  Mo185  1  0.89835925  0.49392480  0.37707387  1
  Mo  Mo186  1  0.48468696  0.68997185  0.11930411  1
  Mo  Mo187  1  0.29918735  0.91452260  0.61068564  1
  Mo  Mo188  1  0.80033447  0.58818354  0.50750658  1
  Mo  Mo189  1  0.59728360  0.39175586  0.73302823  1
  Mo  Mo190  1  0.40762912  0.40804767  0.51005121  1
  Mo  Mo191  1  0.37411834  0.80584206  0.00638487  1
  Mo  Mo192  1  0.00142288  0.59736003  0.76122490  1
  Mo  Mo193  1  0.10168028  0.31007366  0.37755298  1
  Mo  Mo194  1  0.78842369  0.58816229  0.00302482  1
  Mo  Mo195  1  0.69702014  0.28359284  0.87176409  1
  Mo  Mo196  1  0.58394029  0.58173663  -0.00901440  1
  Mo  Mo197  1  0.50968429  0.51270623  0.12345076  1
  Mo  Mo198  1  0.10239907  0.69824060  0.61757668  1
  Mo  Mo199  1  0.59220230  0.59789236  0.24813142  1
