# generated using pymatgen
data_HfZrTaTiMo
_symmetry_space_group_name_H-M   'P 1'
_cell_length_a   15.20374456
_cell_length_b   15.21471428
_cell_length_c   16.85378943
_cell_angle_alpha   90.00652394
_cell_angle_beta   89.99782577
_cell_angle_gamma   90.07704936
_symmetry_Int_Tables_number   1
_chemical_formula_structural   HfZrTaTiMo
_chemical_formula_sum   'Hf40 Zr40 Ta40 Ti40 Mo40'
_cell_volume   3898.62562721
_cell_formula_units_Z   40
loop_
 _symmetry_equiv_pos_site_id
 _symmetry_equiv_pos_as_xyz
  1  'x, y, z'
loop_
 _atom_site_type_symbol
 _atom_site_label
 _atom_site_symmetry_multiplicity
 _atom_site_fract_x
 _atom_site_fract_y
 _atom_site_fract_z
 _atom_site_occupancy
  Hf  Hf0  1  0.49042663  0.31595720  0.35331846  1
  Hf  Hf1  1  0.80205036  0.39069491  0.75565666  1
  Hf  Hf2  1  0.79533213  0.40319545  0.49380661  1
  Hf  Hf3  1  0.20877996  0.38919646  0.49794607  1
  Hf  Hf4  1  0.79458926  0.20211204  0.50322840  1
  Hf  Hf5  1  0.51435882  0.70093642  0.11691938  1
  Hf  Hf6  1  0.21216023  0.39303136  0.23365564  1
  Hf  Hf7  1  0.40000768  0.80866778  0.00905284  1
  Hf  Hf8  1  0.41188362  0.01218764  0.74534924  1
  Hf  Hf9  1  0.79543465  0.79183599  0.51720765  1
  Hf  Hf10  1  0.77414557  0.00652717  -0.00027936  1
  Hf  Hf11  1  0.39992412  0.58175287  0.23781350  1
  Hf  Hf12  1  0.68968215  0.69261646  0.86337002  1
  Hf  Hf13  1  0.71092527  0.90297926  0.85696129  1
  Hf  Hf14  1  0.59151246  0.60088136  0.49505291  1
  Hf  Hf15  1  0.20251327  0.80132920  0.24414750  1
  Hf  Hf16  1  0.08891209  0.69041822  0.36694970  1
  Hf  Hf17  1  0.88937611  0.10774450  0.11166736  1
  Hf  Hf18  1  0.40988605  0.01701627  0.50297980  1
  Hf  Hf19  1  0.90322977  0.30373362  0.62377583  1
  Hf  Hf20  1  0.39999069  0.00443434  0.00584113  1
  Hf  Hf21  1  0.20270974  0.58536391  0.49790548  1
  Hf  Hf22  1  0.89894647  0.69498397  0.63418836  1
  Hf  Hf23  1  0.19880196  0.79255877  0.50100692  1
  Hf  Hf24  1  0.30422731  0.90469130  0.62499273  1
  Hf  Hf25  1  0.10075723  0.30197690  0.86072133  1
  Hf  Hf26  1  0.11260196  0.29128283  0.64051032  1
  Hf  Hf27  1  0.70350741  0.89262932  0.37946004  1
  Hf  Hf28  1  0.09041409  0.89961548  0.38087482  1
  Hf  Hf29  1  0.58407859  0.19390899  0.49894424  1
  Hf  Hf30  1  0.29810133  0.09875463  0.86346130  1
  Hf  Hf31  1  0.57340899  0.20145041  0.74016989  1
  Hf  Hf32  1  0.91045799  0.10137358  0.38593289  1
  Hf  Hf33  1  0.09881427  0.49547471  0.62879577  1
  Hf  Hf34  1  0.20137726  0.00855616  0.26643106  1
  Hf  Hf35  1  0.39328016  0.59450923  0.00037536  1
  Hf  Hf36  1  0.08523645  0.08912632  0.87423852  1
  Hf  Hf37  1  0.01373984  0.40007712  0.01107106  1
  Hf  Hf38  1  0.89463644  0.70431535  0.85983272  1
  Hf  Hf39  1  0.20756080  0.81041619  0.01420572  1
  Zr  Zr40  1  0.09492528  0.29440555  0.36827414  1
  Zr  Zr41  1  0.09622033  0.71668782  0.88241497  1
  Zr  Zr42  1  0.30830182  0.69447356  0.62474195  1
  Zr  Zr43  1  0.79882768  -0.00288311  0.51483514  1
  Zr  Zr44  1  0.19873953  0.20713591  -0.00534391  1
  Zr  Zr45  1  0.90207258  0.50418399  0.13596501  1
  Zr  Zr46  1  0.38986141  0.21553113  0.48722336  1
  Zr  Zr47  1  0.70012442  0.49204848  0.36479463  1
  Zr  Zr48  1  0.40736770  0.79991567  0.24326221  1
  Zr  Zr49  1  0.80102737  -0.01513473  0.24830058  1
  Zr  Zr50  1  0.32061817  0.30669356  0.63705265  1
  Zr  Zr51  1  0.00223918  0.81062319  0.00619912  1
  Zr  Zr52  1  0.50610716  0.90993867  0.87578613  1
  Zr  Zr53  1  0.90019521  0.49865538  0.62241696  1
  Zr  Zr54  1  0.10232871  0.50611311  0.87666338  1
  Zr  Zr55  1  0.51207507  0.29111829  0.88610109  1
  Zr  Zr56  1  0.89488128  0.30754049  0.36346992  1
  Zr  Zr57  1  0.79630754  0.79108885  -0.00794111  1
  Zr  Zr58  1  0.60036270  0.59733109  0.24616537  1
  Zr  Zr59  1  0.50991998  0.90188514  0.37746080  1
  Zr  Zr60  1  0.09868213  0.91841063  0.12878759  1
  Zr  Zr61  1  0.91237420  0.50936910  0.35826862  1
  Zr  Zr62  1  0.68749006  0.50199599  0.62217899  1
  Zr  Zr63  1  -0.01766685  0.80660088  0.24339593  1
  Zr  Zr64  1  0.30406375  0.69144319  0.36850405  1
  Zr  Zr65  1  0.18964062  0.60233492  0.01595066  1
  Zr  Zr66  1  0.69079799  0.09365456  0.37021286  1
  Zr  Zr67  1  0.50144812  0.70130350  0.87961050  1
  Zr  Zr68  1  0.03087137  0.80220209  0.73421432  1
  Zr  Zr69  1  -0.01444153  0.19180583  0.74510840  1
  Zr  Zr70  1  0.20264444  0.00788031  0.49382136  1
  Zr  Zr71  1  0.19079296  0.62438568  0.74459088  1
  Zr  Zr72  1  0.39358905  0.59046128  0.76490345  1
  Zr  Zr73  1  0.92223860  0.91431361  0.86672673  1
  Zr  Zr74  1  0.78035760  0.19129002  0.74492841  1
  Zr  Zr75  1  0.78615703  0.59118472  0.75163375  1
  Zr  Zr76  1  0.40390501  0.19824739  0.00612206  1
  Zr  Zr77  1  -0.00278733  0.02125006  0.25229340  1
  Zr  Zr78  1  0.22152782  0.41928292  0.75610515  1
  Zr  Zr79  1  0.70913158  0.29077238  0.13398825  1
  Ta  Ta80  1  0.00767902  0.19365310  0.51372342  1
  Ta  Ta81  1  0.58912187  0.39540428  0.49270310  1
  Ta  Ta82  1  0.50380872  0.48562754  0.11111717  1
  Ta  Ta83  1  0.51124221  0.49506002  0.89035288  1
  Ta  Ta84  1  0.80743920  0.19375777  0.25273954  1
  Ta  Ta85  1  0.40308889  0.41461580  0.49638188  1
  Ta  Ta86  1  0.21376572  0.40466057  0.00860293  1
  Ta  Ta87  1  0.61036747  0.17259672  0.00669272  1
  Ta  Ta88  1  0.60968110  0.38638100  0.01085097  1
  Ta  Ta89  1  0.67929893  0.09124316  0.61896419  1
  Ta  Ta90  1  0.88049843  0.70148050  0.12513628  1
  Ta  Ta91  1  0.70024682  0.70215704  0.37841127  1
  Ta  Ta92  1  0.01307968  0.00192053  0.72454552  1
  Ta  Ta93  1  0.89982822  0.49785674  0.88085565  1
  Ta  Ta94  1  0.49668023  0.10360785  0.35414911  1
  Ta  Ta95  1  0.90023647  0.89508711  0.38924113  1
  Ta  Ta96  1  0.69897864  0.48626845  0.88596032  1
  Ta  Ta97  1  0.90085429  0.30259152  0.87944658  1
  Ta  Ta98  1  0.29529853  0.71325320  0.87715511  1
  Ta  Ta99  1  0.80653170  0.39874493  0.00302750  1
  Ta  Ta100  1  0.61395896  0.79713242  0.24804980  1
  Ta  Ta101  1  0.28875278  0.11201326  0.64124902  1
  Ta  Ta102  1  0.28970281  0.09486666  0.13092515  1
  Ta  Ta103  1  0.41120573  0.79769691  0.50131526  1
  Ta  Ta104  1  0.42345656  0.39783939  0.76088720  1
  Ta  Ta105  1  0.89280328  0.70819800  0.37835087  1
  Ta  Ta106  1  0.31036569  0.48172644  0.36295941  1
  Ta  Ta107  1  0.09311776  0.11638659  0.11613169  1
  Ta  Ta108  1  0.19801276  0.00068546  -0.00127609  1
  Ta  Ta109  1  0.39463712  -0.00109699  0.24795471  1
  Ta  Ta110  1  0.19860742  0.19370874  0.49380715  1
  Ta  Ta111  1  0.48823869  0.49917646  0.62814860  1
  Ta  Ta112  1  0.30956113  0.89924065  0.38169147  1
  Ta  Ta113  1  0.19244905  0.58889595  0.23429367  1
  Ta  Ta114  1  0.69911210  0.88469283  0.12788189  1
  Ta  Ta115  1  0.68774420  0.30243222  0.62035740  1
  Ta  Ta116  1  0.00764594  0.40017572  0.49548474  1
  Ta  Ta117  1  0.61705871  0.59465984  0.00692712  1
  Ta  Ta118  1  0.87826781  0.10766715  0.88607851  1
  Ta  Ta119  1  0.00485027  -0.00232816  0.52288313  1
  Ti  Ti120  1  0.59956393  0.40217056  0.23841370  1
  Ti  Ti121  1  0.70915449  0.50313655  0.12501083  1
  Ti  Ti122  1  0.50891055  0.91014440  0.12915320  1
  Ti  Ti123  1  0.89964112  0.89623866  0.63503212  1
  Ti  Ti124  1  0.37991526  0.20229944  0.25286411  1
  Ti  Ti125  1  -0.00230546  0.58990745  0.75205248  1
  Ti  Ti126  1  0.59965860  0.80030627  0.51103224  1
  Ti  Ti127  1  0.39677101  0.80463257  0.75267811  1
  Ti  Ti128  1  0.40095705  0.59865471  0.49416484  1
  Ti  Ti129  1  0.60601009  0.01099054  0.74924243  1
  Ti  Ti130  1  -0.00034056  0.79588464  0.51245171  1
  Ti  Ti131  1  0.50159725  0.69851873  0.63229560  1
  Ti  Ti132  1  0.81001500  0.00867074  0.73994992  1
  Ti  Ti133  1  0.79823283  0.61420372  0.25127449  1
  Ti  Ti134  1  0.50285840  0.70014487  0.37307308  1
  Ti  Ti135  1  0.30112548  0.69828754  0.12985456  1
  Ti  Ti136  1  0.60714586  0.80921619  -0.00008687  1
  Ti  Ti137  1  0.90796842  0.29772107  0.13255957  1
  Ti  Ti138  1  0.18663975  0.19662862  0.25239996  1
  Ti  Ti139  1  0.69317173  0.29369154  0.35655697  1
  Ti  Ti140  1  0.69959331  0.89560468  0.64058401  1
  Ti  Ti141  1  0.89372825  0.90634544  0.11353921  1
  Ti  Ti142  1  0.70713986  0.28455609  0.88643127  1
  Ti  Ti143  1  0.68730746  0.69974497  0.64166991  1
  Ti  Ti144  1  0.07906587  0.69162250  0.13353028  1
  Ti  Ti145  1  -0.01702413  0.60478801  0.00184126  1
  Ti  Ti146  1  0.30537616  0.29366602  0.12313323  1
  Ti  Ti147  1  -0.00785945  0.20558126  -0.00383990  1
  Ti  Ti148  1  0.10528726  0.49565193  0.36573738  1
  Ti  Ti149  1  0.59262654  0.80108402  0.74562491  1
  Ti  Ti150  1  0.40109331  0.39507792  0.00137113  1
  Ti  Ti151  1  0.60625468  0.40427624  0.75295541  1
  Ti  Ti152  1  0.49913324  0.10182874  0.14495201  1
  Ti  Ti153  1  -0.00064206  0.59981884  0.49922829  1
  Ti  Ti154  1  0.50380034  0.29036516  0.13400884  1
  Ti  Ti155  1  0.51214229  0.90976171  0.62283361  1
  Ti  Ti156  1  0.68619900  0.08762905  0.14355520  1
  Ti  Ti157  1  0.30667413  0.30741480  0.86973044  1
  Ti  Ti158  1  0.79920421  0.60057600  0.49602650  1
  Ti  Ti159  1  0.01465230  0.39982072  0.23490206  1
  Mo  Mo160  1  0.80151981  0.59085737  -0.00596513  1
  Mo  Mo161  1  0.79832190  0.80666108  0.73856039  1
  Mo  Mo162  1  -0.00045348  0.20445197  0.24153916  1
  Mo  Mo163  1  0.89401392  0.09612042  0.61879524  1
  Mo  Mo164  1  0.10816775  0.89593518  0.61397483  1
  Mo  Mo165  1  0.10074490  0.50064163  0.12526023  1
  Mo  Mo166  1  0.10846779  0.10066642  0.62861628  1
  Mo  Mo167  1  -0.00532109  0.01268073  -0.00002965  1
  Mo  Mo168  1  0.59730681  -0.00725151  0.50964598  1
  Mo  Mo169  1  0.59330770  -0.00621120  0.01508491  1
  Mo  Mo170  1  0.30308138  0.10457853  0.36533431  1
  Mo  Mo171  1  0.70438930  0.69463916  0.12200230  1
  Mo  Mo172  1  0.31000172  0.49737121  0.88885455  1
  Mo  Mo173  1  0.29619977  0.89889349  0.86964025  1
  Mo  Mo174  1  0.00283840  0.60551930  0.24989775  1
  Mo  Mo175  1  0.39633845  0.20817186  0.75421570  1
  Mo  Mo176  1  0.49343278  0.50705638  0.37379926  1
  Mo  Mo177  1  0.10092991  0.29413923  0.12479665  1
  Mo  Mo178  1  0.79580126  0.21004147  -0.00170799  1
  Mo  Mo179  1  0.12015389  0.91305654  0.87383629  1
  Mo  Mo180  1  0.30678286  0.49323839  0.11801886  1
  Mo  Mo181  1  0.29613041  0.29923841  0.36684081  1
  Mo  Mo182  1  0.40614625  0.39382259  0.23199819  1
  Mo  Mo183  1  0.09604209  0.10456893  0.38393437  1
  Mo  Mo184  1  0.79685485  0.39873483  0.24259626  1
  Mo  Mo185  1  0.58495521  0.58531800  0.75314769  1
  Mo  Mo186  1  0.68339823  0.09872111  0.87257991  1
  Mo  Mo187  1  0.19699973  -0.00950515  0.74722662  1
  Mo  Mo188  1  -0.00395679  0.40332898  0.76019857  1
  Mo  Mo189  1  0.09398888  0.69119569  0.61010991  1
  Mo  Mo190  1  0.30429006  0.91076214  0.13147181  1
  Mo  Mo191  1  0.59555335  0.19738293  0.24811943  1
  Mo  Mo192  1  0.50857022  0.31451552  0.62136544  1
  Mo  Mo193  1  0.79803034  0.79457335  0.25247949  1
  Mo  Mo194  1  0.30993697  0.50135604  0.62048054  1
  Mo  Mo195  1  0.59231374  -0.00821013  0.24276871  1
  Mo  Mo196  1  0.20428402  0.19757342  0.76033403  1
  Mo  Mo197  1  0.48732192  0.10383895  0.62132215  1
  Mo  Mo198  1  0.21539389  0.81414548  0.75046738  1
  Mo  Mo199  1  0.50890365  0.09712613  0.87971556  1
