# generated using pymatgen
data_HfZrTaTiMo
_symmetry_space_group_name_H-M   'P 1'
_cell_length_a   15.20624200
_cell_length_b   15.20672108
_cell_length_c   16.81574216
_cell_angle_alpha   90.06068662
_cell_angle_beta   90.04687194
_cell_angle_gamma   89.96221243
_symmetry_Int_Tables_number   1
_chemical_formula_structural   HfZrTaTiMo
_chemical_formula_sum   'Hf40 Zr40 Ta40 Ti40 Mo40'
_cell_volume   3888.41880212
_cell_formula_units_Z   40
loop_
 _symmetry_equiv_pos_site_id
 _symmetry_equiv_pos_as_xyz
  1  'x, y, z'
loop_
 _atom_site_type_symbol
 _atom_site_label
 _atom_site_symmetry_multiplicity
 _atom_site_fract_x
 _atom_site_fract_y
 _atom_site_fract_z
 _atom_site_occupancy
  Hf  Hf0  1  0.09998526  0.91619531  0.88616244  1
  Hf  Hf1  1  0.71267723  0.50334140  0.61002737  1
  Hf  Hf2  1  0.89626743  0.28542573  0.37439257  1
  Hf  Hf3  1  0.70705218  0.69939905  0.12737582  1
  Hf  Hf4  1  0.41390652  0.59853482  0.73445174  1
  Hf  Hf5  1  0.40694663  0.19906816  0.24599176  1
  Hf  Hf6  1  0.60915509  0.19232300  0.23486436  1
  Hf  Hf7  1  0.80612504  0.80455977  0.26273264  1
  Hf  Hf8  1  0.37462511  0.20359559  0.74352525  1
  Hf  Hf9  1  0.70369509  0.70066184  0.61144367  1
  Hf  Hf10  1  -0.01279960  0.00206209  0.50325828  1
  Hf  Hf11  1  0.91949051  0.48695869  0.37986749  1
  Hf  Hf12  1  0.79045085  0.40644326  -0.01145354  1
  Hf  Hf13  1  0.49884867  0.90473381  0.87840348  1
  Hf  Hf14  1  0.51109844  0.07998856  0.11688028  1
  Hf  Hf15  1  0.60606854  0.79025049  0.75069756  1
  Hf  Hf16  1  0.79298385  0.20500821  -0.00109857  1
  Hf  Hf17  1  0.20633004  0.61381837  0.50038226  1
  Hf  Hf18  1  0.68907191  0.09538572  0.86454840  1
  Hf  Hf19  1  0.30957145  0.70634002  0.86804437  1
  Hf  Hf20  1  0.39905875  -0.00052212  0.24857034  1
  Hf  Hf21  1  0.90931116  0.69554309  0.11905909  1
  Hf  Hf22  1  0.10479096  0.50934671  0.11680399  1
  Hf  Hf23  1  0.58958856  0.00128276  0.51618066  1
  Hf  Hf24  1  0.80974551  0.41986765  0.75359579  1
  Hf  Hf25  1  0.81402283  0.59830740  0.48783192  1
  Hf  Hf26  1  0.60215170  0.58999028  0.26010035  1
  Hf  Hf27  1  0.60427176  0.80648631  -0.00529618  1
  Hf  Hf28  1  0.19480091  0.40756014  0.48745891  1
  Hf  Hf29  1  0.80816951  0.59508478  0.26356083  1
  Hf  Hf30  1  0.89819433  0.08717749  0.37022626  1
  Hf  Hf31  1  0.09779980  0.50525303  0.87514231  1
  Hf  Hf32  1  0.09840483  0.71291162  0.63523826  1
  Hf  Hf33  1  -0.00037424  0.80810908  -0.00235896  1
  Hf  Hf34  1  0.27001417  0.11193728  0.62527881  1
  Hf  Hf35  1  0.69684083  0.11802000  0.38070260  1
  Hf  Hf36  1  0.10722466  0.70478740  0.87478798  1
  Hf  Hf37  1  0.60088377  0.19961898  0.52626720  1
  Hf  Hf38  1  0.10179193  0.30266595  0.11920827  1
  Hf  Hf39  1  0.30542715  0.50145735  0.87183853  1
  Zr  Zr40  1  0.92987826  0.70230580  0.37692802  1
  Zr  Zr41  1  0.11333140  0.29280668  0.62753106  1
  Zr  Zr42  1  0.70365699  0.89193012  0.62286190  1
  Zr  Zr43  1  -0.01265936  0.00342739  0.75699816  1
  Zr  Zr44  1  0.30391228  0.31628801  0.12764222  1
  Zr  Zr45  1  0.39978535  0.78454090  0.00475936  1
  Zr  Zr46  1  0.08383040  0.89666094  0.35822339  1
  Zr  Zr47  1  0.19790634  0.81345228  0.49784792  1
  Zr  Zr48  1  0.48341207  0.69686057  0.37993329  1
  Zr  Zr49  1  0.90227725  0.69936465  0.61847541  1
  Zr  Zr50  1  0.09270169  0.30703869  0.36314750  1
  Zr  Zr51  1  0.89839765  0.09458585  0.88738613  1
  Zr  Zr52  1  0.60304612  0.38618251  0.24397874  1
  Zr  Zr53  1  0.09521197  0.10844381  0.36089754  1
  Zr  Zr54  1  0.58162228  0.20000989  0.73808514  1
  Zr  Zr55  1  0.40354668  0.40219105  0.26363607  1
  Zr  Zr56  1  0.59842640  0.38132471  0.00237972  1
  Zr  Zr57  1  0.80625977  0.19742460  0.23057986  1
  Zr  Zr58  1  0.71353776  0.29928203  0.63945013  1
  Zr  Zr59  1  0.59698137  0.59187682  0.00192533  1
  Zr  Zr60  1  0.09996115  0.89171731  0.12844263  1
  Zr  Zr61  1  0.09455878  0.49797213  0.63136950  1
  Zr  Zr62  1  0.69715665  0.91200001  0.38041578  1
  Zr  Zr63  1  0.51237004  0.49318573  0.60306841  1
  Zr  Zr64  1  0.09911267  0.11585701  0.89780100  1
  Zr  Zr65  1  0.71343783  0.67863835  0.87644467  1
  Zr  Zr66  1  0.20254748  0.60400726  0.74348016  1
  Zr  Zr67  1  0.41010899  0.81228359  0.73860550  1
  Zr  Zr68  1  0.38868844  -0.00279525  0.48266695  1
  Zr  Zr69  1  0.48145765  0.09960205  0.88078747  1
  Zr  Zr70  1  0.39399432  0.19310497  0.49957754  1
  Zr  Zr71  1  0.79731053  0.39394784  0.24546210  1
  Zr  Zr72  1  0.68257387  0.90402212  0.12969778  1
  Zr  Zr73  1  0.49427062  0.68886781  0.13967662  1
  Zr  Zr74  1  0.30598703  0.29145600  0.88973079  1
  Zr  Zr75  1  0.90179868  0.50502418  0.11255593  1
  Zr  Zr76  1  0.19214338  0.00878418  0.48988297  1
  Zr  Zr77  1  0.49944564  0.49443459  0.87509870  1
  Zr  Zr78  1  0.39544019  0.38720479  0.49396800  1
  Zr  Zr79  1  0.50478613  0.50092748  0.39528861  1
  Ta  Ta80  1  0.00032301  0.39876966  -0.00872250  1
  Ta  Ta81  1  0.70295214  0.47867400  0.39256816  1
  Ta  Ta82  1  0.79404537  -0.01301533  -0.00368066  1
  Ta  Ta83  1  0.58225016  -0.01084761  0.73762910  1
  Ta  Ta84  1  0.88719861  0.89890919  0.12260881  1
  Ta  Ta85  1  0.48945778  0.49170483  0.12700250  1
  Ta  Ta86  1  0.29893851  0.52010910  0.37157531  1
  Ta  Ta87  1  0.59817819  0.40251836  0.74935439  1
  Ta  Ta88  1  0.52545586  0.28784171  0.38224046  1
  Ta  Ta89  1  0.81599864  0.79959685  0.75903806  1
  Ta  Ta90  1  0.90958632  0.69778343  0.88085595  1
  Ta  Ta91  1  0.21361002  0.38698862  0.75172995  1
  Ta  Ta92  1  0.20029467  0.00804229  0.23309789  1
  Ta  Ta93  1  0.20260894  0.82147289  0.74995274  1
  Ta  Ta94  1  0.81680289  0.18998359  0.51441998  1
  Ta  Ta95  1  0.71710844  0.09137551  0.64762200  1
  Ta  Ta96  1  0.61298988  0.59124921  0.74546710  1
  Ta  Ta97  1  0.89353143  0.51261302  0.88480933  1
  Ta  Ta98  1  0.59700319  0.80137076  0.26161140  1
  Ta  Ta99  1  0.07473802  0.10805906  0.62765916  1
  Ta  Ta100  1  0.50704071  0.69775284  0.60447573  1
  Ta  Ta101  1  0.10542021  0.30198696  0.88152029  1
  Ta  Ta102  1  0.29233077  0.70913331  0.14467121  1
  Ta  Ta103  1  0.21277331  0.81117532  0.00345326  1
  Ta  Ta104  1  0.79155885  0.00437218  0.24378992  1
  Ta  Ta105  1  0.20317626  0.01012179  0.02383072  1
  Ta  Ta106  1  0.30249010  0.91666086  0.63073178  1
  Ta  Ta107  1  0.39002194  -0.01300718  0.01483301  1
  Ta  Ta108  1  0.29885499  0.91355010  0.87568246  1
  Ta  Ta109  1  0.89885304  0.90582731  0.63052784  1
  Ta  Ta110  1  0.20542261  0.40895346  -0.00097198  1
  Ta  Ta111  1  0.30265728  0.49505557  0.62175528  1
  Ta  Ta112  1  0.90869433  0.29836075  0.87058743  1
  Ta  Ta113  1  0.39247568  0.80292188  0.50467715  1
  Ta  Ta114  1  0.00149009  0.40796428  0.24236843  1
  Ta  Ta115  1  -0.02287183  0.59538854  0.74817280  1
  Ta  Ta116  1  0.10088323  0.91290855  0.63348518  1
  Ta  Ta117  1  0.69818048  0.50194826  0.12425893  1
  Ta  Ta118  1  -0.01334720  0.00349689  0.22799075  1
  Ta  Ta119  1  0.50282481  0.69216202  0.87287088  1
  Ti  Ti120  1  0.21847984  0.61000869  0.00131451  1
  Ti  Ti121  1  0.20491354  0.19687479  0.23977412  1
  Ti  Ti122  1  0.49528530  0.89663878  0.36818816  1
  Ti  Ti123  1  0.69401175  0.69724313  0.38537301  1
  Ti  Ti124  1  0.39670188  0.19642862  0.01967224  1
  Ti  Ti125  1  0.40788485  0.39295672  0.73676241  1
  Ti  Ti126  1  0.10477562  0.69486111  0.11523114  1
  Ti  Ti127  1  0.00629306  0.39852442  0.75501612  1
  Ti  Ti128  1  0.00173733  0.80635395  0.75935539  1
  Ti  Ti129  1  0.59587035  0.19499528  0.00437474  1
  Ti  Ti130  1  0.00848400  0.78513794  0.24288199  1
  Ti  Ti131  1  0.18123669  0.61064353  0.25792584  1
  Ti  Ti132  1  0.40149444  0.40594534  0.00670617  1
  Ti  Ti133  1  0.29043985  0.09812242  0.88807931  1
  Ti  Ti134  1  0.29458093  0.71096536  0.36056892  1
  Ti  Ti135  1  0.91379769  0.28463840  0.64162433  1
  Ti  Ti136  1  0.00453314  0.80668799  0.50282902  1
  Ti  Ti137  1  0.59405314  0.80376675  0.49266433  1
  Ti  Ti138  1  0.29766146  0.29236153  0.36522575  1
  Ti  Ti139  1  0.49270924  0.88611540  0.13563482  1
  Ti  Ti140  1  0.30146159  0.51875461  0.13621049  1
  Ti  Ti141  1  -0.00128151  0.19669110  0.22799808  1
  Ti  Ti142  1  0.47236434  0.08040227  0.63391384  1
  Ti  Ti143  1  0.29356863  0.89940921  0.35655248  1
  Ti  Ti144  1  0.81522724  0.81303682  0.48510486  1
  Ti  Ti145  1  0.49934281  0.29461864  0.87428297  1
  Ti  Ti146  1  0.70503588  0.90202267  0.86711571  1
  Ti  Ti147  1  0.90111835  0.30152100  0.11296620  1
  Ti  Ti148  1  0.70283301  0.29777350  0.85611495  1
  Ti  Ti149  1  0.30406153  0.70916802  0.62708120  1
  Ti  Ti150  1  0.80061982  0.79658334  -0.00770845  1
  Ti  Ti151  1  0.19372505  0.20572224  0.48610993  1
  Ti  Ti152  1  0.01467924  0.59094962  0.50339689  1
  Ti  Ti153  1  0.70595780  0.09120752  0.11096545  1
  Ti  Ti154  1  0.19759570  0.01627847  0.75534104  1
  Ti  Ti155  1  0.19702717  0.41449971  0.25876140  1
  Ti  Ti156  1  -0.00216382  0.38533540  0.50907319  1
  Ti  Ti157  1  0.80923403  0.38290425  0.50716830  1
  Ti  Ti158  1  0.79699978  0.00227074  0.50578939  1
  Ti  Ti159  1  0.50386518  0.09465140  0.37160822  1
  Mo  Mo160  1  0.18624831  0.20122815  0.75861316  1
  Mo  Mo161  1  0.10079059  0.51036778  0.37256160  1
  Mo  Mo162  1  0.10759746  0.69714257  0.37571914  1
  Mo  Mo163  1  0.80049842  0.60380705  0.00261941  1
  Mo  Mo164  1  0.09674525  0.10619633  0.12218376  1
  Mo  Mo165  1  0.30266075  0.10452565  0.12365342  1
  Mo  Mo166  1  0.80302384  0.60667340  0.74222749  1
  Mo  Mo167  1  0.38966540  0.60777932  0.50997892  1
  Mo  Mo168  1  0.00844078  0.60209566  -0.00971902  1
  Mo  Mo169  1  0.70183610  0.29824629  0.11414306  1
  Mo  Mo170  1  0.79186630  -0.01113474  0.75763698  1
  Mo  Mo171  1  0.20605907  0.20571203  0.01159841  1
  Mo  Mo172  1  0.49425517  0.89289835  0.61825677  1
  Mo  Mo173  1  0.89433006  0.89363814  0.88257018  1
  Mo  Mo174  1  0.49965692  0.29428202  0.11707408  1
  Mo  Mo175  1  -0.00397252  0.21139444  0.00931768  1
  Mo  Mo176  1  0.70508850  0.29337242  0.38759405  1
  Mo  Mo177  1  0.30301447  0.89798911  0.13322452  1
  Mo  Mo178  1  0.60055750  -0.00046129  -0.00698736  1
  Mo  Mo179  1  0.19788725  0.80151688  0.25082813  1
  Mo  Mo180  1  0.49375701  0.29856082  0.62966665  1
  Mo  Mo181  1  0.38538155  0.00449221  0.75273121  1
  Mo  Mo182  1  0.00137873  0.20741946  0.75846195  1
  Mo  Mo183  1  0.29774139  0.30829125  0.62234528  1
  Mo  Mo184  1  0.60771832  0.60489435  0.48797015  1
  Mo  Mo185  1  0.39811005  0.80090161  0.25387156  1
  Mo  Mo186  1  0.69935845  0.49247280  0.86527316  1
  Mo  Mo187  1  0.90761699  0.48411259  0.61527205  1
  Mo  Mo188  1  0.61216089  0.38710238  0.50148363  1
  Mo  Mo189  1  0.89276505  0.10023186  0.63460195  1
  Mo  Mo190  1  0.38699008  0.59519162  0.25328842  1
  Mo  Mo191  1  0.80878007  0.19963124  0.76146689  1
  Mo  Mo192  1  0.59955648  -0.00260031  0.25548719  1
  Mo  Mo193  1  0.89730313  0.09471109  0.10850147  1
  Mo  Mo194  1  0.29182089  0.10651162  0.35962021  1
  Mo  Mo195  1  0.39074897  0.58980990  0.00781030  1
  Mo  Mo196  1  0.00700227  0.59502766  0.24679153  1
  Mo  Mo197  1  0.90031866  0.90456683  0.36441682  1
  Mo  Mo198  1  -0.00625313  0.00340804  0.02009126  1
  Mo  Mo199  1  -0.00260504  0.19977143  0.50377271  1
