# generated using pymatgen
data_HfZrTaTiMo
_symmetry_space_group_name_H-M   'P 1'
_cell_length_a   15.19972020
_cell_length_b   15.21675181
_cell_length_c   16.82647673
_cell_angle_alpha   90.02480697
_cell_angle_beta   89.99563054
_cell_angle_gamma   90.09310875
_symmetry_Int_Tables_number   1
_chemical_formula_structural   HfZrTaTiMo
_chemical_formula_sum   'Hf40 Zr40 Ta40 Ti40 Mo40'
_cell_volume   3891.79651402
_cell_formula_units_Z   40
loop_
 _symmetry_equiv_pos_site_id
 _symmetry_equiv_pos_as_xyz
  1  'x, y, z'
loop_
 _atom_site_type_symbol
 _atom_site_label
 _atom_site_symmetry_multiplicity
 _atom_site_fract_x
 _atom_site_fract_y
 _atom_site_fract_z
 _atom_site_occupancy
  Hf  Hf0  1  0.50813909  0.68499217  0.09932205  1
  Hf  Hf1  1  0.80362174  0.19469630  0.75235782  1
  Hf  Hf2  1  0.09821874  0.29278570  0.86722534  1
  Hf  Hf3  1  -0.00481149  0.79850542  0.74342103  1
  Hf  Hf4  1  0.89774856  0.29716494  0.87566430  1
  Hf  Hf5  1  0.60108199  0.19876409  0.26156464  1
  Hf  Hf6  1  0.20590185  -0.01158678  0.51549944  1
  Hf  Hf7  1  0.89905748  0.09554096  0.61186362  1
  Hf  Hf8  1  0.81896902  0.19836533  0.24944353  1
  Hf  Hf9  1  0.31345531  0.31808470  0.38422044  1
  Hf  Hf10  1  0.10063542  0.29545239  0.37934498  1
  Hf  Hf11  1  0.89734961  0.51329457  0.87123537  1
  Hf  Hf12  1  0.39843747  0.02110706  -0.02158863  1
  Hf  Hf13  1  0.71011678  0.69352824  0.88193831  1
  Hf  Hf14  1  0.19066081  0.59808907  0.25013743  1
  Hf  Hf15  1  0.21268217  0.19462881  0.50664475  1
  Hf  Hf16  1  0.19744312  0.60313039  0.51452099  1
  Hf  Hf17  1  0.08641875  0.90505238  0.12089276  1
  Hf  Hf18  1  0.07119292  0.69402597  0.10734925  1
  Hf  Hf19  1  0.60871574  0.40765057  0.49574609  1
  Hf  Hf20  1  0.09776974  0.49391581  0.38599081  1
  Hf  Hf21  1  0.19241437  0.81316734  -0.00418215  1
  Hf  Hf22  1  0.09250243  0.08786598  0.38489773  1
  Hf  Hf23  1  0.20175487  -0.00368153  0.24762679  1
  Hf  Hf24  1  -0.00408272  0.80325315  0.25991604  1
  Hf  Hf25  1  0.79880357  0.40396102  -0.00163483  1
  Hf  Hf26  1  0.70239252  0.09795225  0.88855319  1
  Hf  Hf27  1  0.58602258  0.78886696  0.76266517  1
  Hf  Hf28  1  0.78832262  0.59339242  0.50126803  1
  Hf  Hf29  1  0.49889691  0.91126189  0.38136895  1
  Hf  Hf30  1  0.40241426  0.81198967  -0.01006332  1
  Hf  Hf31  1  0.49709830  0.10404599  0.62939136  1
  Hf  Hf32  1  0.21906445  0.19784620  -0.01505910  1
  Hf  Hf33  1  0.79202175  0.80127198  0.74391002  1
  Hf  Hf34  1  0.79737033  -0.00296066  0.25933597  1
  Hf  Hf35  1  -0.01262915  0.58745752  0.50483723  1
  Hf  Hf36  1  0.20916655  0.40223665  -0.01996316  1
  Hf  Hf37  1  0.00881848  0.18718890  -0.00407165  1
  Hf  Hf38  1  0.59545068  -0.00614718  0.76315379  1
  Hf  Hf39  1  0.80577277  0.19731722  0.00493664  1
  Zr  Zr40  1  0.69960967  0.10296629  0.61396346  1
  Zr  Zr41  1  0.40415603  0.37859440  0.00374723  1
  Zr  Zr42  1  0.30220597  0.89275314  0.37551813  1
  Zr  Zr43  1  0.19775091  0.60831199  0.74526329  1
  Zr  Zr44  1  0.59953398  0.81078143  0.23435309  1
  Zr  Zr45  1  0.59402555  0.60245263  0.25148755  1
  Zr  Zr46  1  0.78830067  0.79924039  0.50303529  1
  Zr  Zr47  1  0.39949566  0.80594828  0.22473794  1
  Zr  Zr48  1  0.71737362  0.30493950  0.37730260  1
  Zr  Zr49  1  0.39975791  0.19547680  0.76886838  1
  Zr  Zr50  1  0.70144437  0.30389282  0.12868546  1
  Zr  Zr51  1  0.69337313  0.50758843  0.13043300  1
  Zr  Zr52  1  0.08020115  0.70351868  0.87872415  1
  Zr  Zr53  1  0.29948730  0.69492718  0.87545748  1
  Zr  Zr54  1  0.19490642  0.79597906  0.24000814  1
  Zr  Zr55  1  0.59871852  0.00416931  0.25481913  1
  Zr  Zr56  1  0.79041114  0.39888870  0.74874900  1
  Zr  Zr57  1  0.68655671  0.09646067  0.11215080  1
  Zr  Zr58  1  0.28838365  0.69249404  0.37761263  1
  Zr  Zr59  1  0.10342731  0.29447494  0.62889793  1
  Zr  Zr60  1  0.61005390  0.20728956  0.75665029  1
  Zr  Zr61  1  0.29010041  0.69232672  0.10432175  1
  Zr  Zr62  1  0.40332436  0.39249836  0.23012742  1
  Zr  Zr63  1  0.80261606  0.80345935  0.25037282  1
  Zr  Zr64  1  0.90363725  0.50330901  0.13029970  1
  Zr  Zr65  1  0.83141846  0.80397937  0.00213134  1
  Zr  Zr66  1  0.48737796  0.71270533  0.37662516  1
  Zr  Zr67  1  0.31780621  0.29467008  0.62900175  1
  Zr  Zr68  1  0.00607567  0.17892685  0.74846515  1
  Zr  Zr69  1  0.69132118  0.70978270  0.37517049  1
  Zr  Zr70  1  0.20440091  0.20142701  0.25457457  1
  Zr  Zr71  1  0.39219610  0.59329714  0.23740407  1
  Zr  Zr72  1  0.20882689  0.39777280  0.75810913  1
  Zr  Zr73  1  0.39516876  0.60811271  0.51661393  1
  Zr  Zr74  1  -0.00555175  0.60037687  0.26496401  1
  Zr  Zr75  1  0.51412106  0.50801502  0.63999558  1
  Zr  Zr76  1  0.31231442  0.09281451  0.37963647  1
  Zr  Zr77  1  0.41341650  0.19877283  0.25499155  1
  Zr  Zr78  1  0.48268026  0.49681246  0.37939563  1
  Zr  Zr79  1  0.11405598  0.30068353  0.12244001  1
  Ta  Ta80  1  0.39931241  0.00355926  0.51896801  1
  Ta  Ta81  1  0.50990534  0.92222276  0.10350440  1
  Ta  Ta82  1  0.59474714  0.39564159  0.25416724  1
  Ta  Ta83  1  0.19916108  0.79534361  0.51547660  1
  Ta  Ta84  1  0.09921868  0.09995091  0.12722275  1
  Ta  Ta85  1  0.41563376  0.61577082  0.75161058  1
  Ta  Ta86  1  0.71138775  0.90716790  0.10614662  1
  Ta  Ta87  1  0.89273278  0.69726632  0.62069561  1
  Ta  Ta88  1  0.09411966  0.50262683  0.86920256  1
  Ta  Ta89  1  0.89859408  0.90221313  0.61587648  1
  Ta  Ta90  1  -0.00945995  0.59508296  0.73590128  1
  Ta  Ta91  1  -0.00745240  0.00948853  0.25445082  1
  Ta  Ta92  1  0.57348012  0.20157203  -0.00675927  1
  Ta  Ta93  1  -0.00466621  0.20446039  0.50274347  1
  Ta  Ta94  1  0.20904512  0.40749989  0.50989354  1
  Ta  Ta95  1  0.30611603  0.11098584  0.11924104  1
  Ta  Ta96  1  0.70870043  0.70323682  0.11290678  1
  Ta  Ta97  1  0.09273004  0.89779888  0.62717523  1
  Ta  Ta98  1  0.90173605  0.30299023  0.62148015  1
  Ta  Ta99  1  0.30651087  0.50163895  0.64090380  1
  Ta  Ta100  1  0.40685319  0.00476703  0.23736024  1
  Ta  Ta101  1  0.20420215  0.40735928  0.25198210  1
  Ta  Ta102  1  0.68915386  0.90035926  0.62578506  1
  Ta  Ta103  1  0.00380315  0.40550912  -0.00387200  1
  Ta  Ta104  1  0.90518975  0.91006572  0.39080277  1
  Ta  Ta105  1  0.82079315  0.40498692  0.50421920  1
  Ta  Ta106  1  0.81016277  0.60274046  0.00308208  1
  Ta  Ta107  1  0.28877982  0.48921662  0.11638804  1
  Ta  Ta108  1  0.91331631  0.29793888  0.12666694  1
  Ta  Ta109  1  0.10001799  0.49666551  0.11956150  1
  Ta  Ta110  1  0.18897718  0.00413238  0.73944906  1
  Ta  Ta111  1  0.50333129  0.49863716  0.86331115  1
  Ta  Ta112  1  0.48820992  0.89065313  0.63422631  1
  Ta  Ta113  1  0.59724738  0.60746083  0.49893676  1
  Ta  Ta114  1  0.51500765  0.30759329  0.63255329  1
  Ta  Ta115  1  0.60781627  0.80517967  -0.00679033  1
  Ta  Ta116  1  0.70190574  0.09703405  0.39163782  1
  Ta  Ta117  1  0.09311441  0.49147795  0.62562994  1
  Ta  Ta118  1  0.28758692  0.90312698  0.85839597  1
  Ta  Ta119  1  0.90561004  0.07912337  0.87586652  1
  Ti  Ti120  1  0.80207916  -0.00445158  0.74634562  1
  Ti  Ti121  1  0.80278659  0.60434744  0.25308814  1
  Ti  Ti122  1  0.59451183  -0.00271667  0.50351693  1
  Ti  Ti123  1  0.50193400  0.31080071  0.86524832  1
  Ti  Ti124  1  0.70318101  0.49761310  0.63001594  1
  Ti  Ti125  1  -0.00472597  0.40023301  0.74864111  1
  Ti  Ti126  1  0.89999739  0.10892668  0.38851120  1
  Ti  Ti127  1  0.90445970  0.08651536  0.12258396  1
  Ti  Ti128  1  0.41607372  0.20326374  0.49752518  1
  Ti  Ti129  1  0.09531998  0.70182836  0.62726862  1
  Ti  Ti130  1  0.67919963  0.69435700  0.62903549  1
  Ti  Ti131  1  0.20652113  0.18656181  0.75380999  1
  Ti  Ti132  1  0.70882417  0.49976499  0.36517312  1
  Ti  Ti133  1  0.70847007  0.90426471  0.88676744  1
  Ti  Ti134  1  0.39448934  -0.00363700  0.75556540  1
  Ti  Ti135  1  0.90173454  0.69930577  0.38613831  1
  Ti  Ti136  1  0.50657146  0.68786843  0.89103131  1
  Ti  Ti137  1  -0.00886964  -0.01296848  -0.00174154  1
  Ti  Ti138  1  0.79647853  0.60414499  0.74137758  1
  Ti  Ti139  1  0.00000612  0.39146174  0.24979808  1
  Ti  Ti140  1  0.00226868  0.79629832  0.50242703  1
  Ti  Ti141  1  0.70550481  0.29982476  0.61325046  1
  Ti  Ti142  1  0.39152574  0.80990530  0.51255721  1
  Ti  Ti143  1  0.59846578  0.20496639  0.49182614  1
  Ti  Ti144  1  0.69128344  0.30773424  0.88448678  1
  Ti  Ti145  1  0.31085028  0.72332037  0.64548332  1
  Ti  Ti146  1  0.59147271  0.40760873  0.00678079  1
  Ti  Ti147  1  0.79435693  -0.00344894  0.49664306  1
  Ti  Ti148  1  0.19017408  0.00895638  -0.00936968  1
  Ti  Ti149  1  0.29999890  0.91701320  0.11276378  1
  Ti  Ti150  1  0.90202683  0.89379537  0.86676726  1
  Ti  Ti151  1  0.39835816  0.57474356  -0.00728464  1
  Ti  Ti152  1  0.19049031  0.58976078  -0.01061496  1
  Ti  Ti153  1  0.09065132  0.91211182  0.86427276  1
  Ti  Ti154  1  0.09449099  0.09121565  0.61583898  1
  Ti  Ti155  1  0.91036245  0.30863818  0.37730193  1
  Ti  Ti156  1  0.40658728  0.40405901  0.51175747  1
  Ti  Ti157  1  0.68981988  0.50128868  0.87425028  1
  Ti  Ti158  1  0.58804985  0.80318468  0.50960047  1
  Ti  Ti159  1  0.09979607  0.88931580  0.38515969  1
  Mo  Mo160  1  0.50878401  0.28722446  0.12159845  1
  Mo  Mo161  1  -0.00616305  0.59489366  -0.00422344  1
  Mo  Mo162  1  0.60677744  0.39998143  0.75250692  1
  Mo  Mo163  1  0.89406792  0.70042479  0.12910163  1
  Mo  Mo164  1  0.09171790  0.70899001  0.39363222  1
  Mo  Mo165  1  0.50269586  0.09851149  0.86554868  1
  Mo  Mo166  1  0.39971501  0.20272120  -0.01986379  1
  Mo  Mo167  1  0.61192591  0.60023127  0.75611840  1
  Mo  Mo168  1  0.50154973  0.70937786  0.62625649  1
  Mo  Mo169  1  0.50819952  0.30408004  0.38396489  1
  Mo  Mo170  1  0.80445763  0.20611965  0.49612641  1
  Mo  Mo171  1  0.60546750  0.59310672  -0.00605778  1
  Mo  Mo172  1  0.49311791  0.10336931  0.11817780  1
  Mo  Mo173  1  0.30230185  0.09621069  0.63007301  1
  Mo  Mo174  1  0.89679169  0.49760058  0.63329391  1
  Mo  Mo175  1  0.49861238  0.89586882  0.88041491  1
  Mo  Mo176  1  0.59827155  -0.00461028  -0.01563122  1
  Mo  Mo177  1  0.50441162  0.10140777  0.39300962  1
  Mo  Mo178  1  0.69821314  0.90855642  0.38943722  1
  Mo  Mo179  1  0.29802908  0.89956643  0.64502109  1
  Mo  Mo180  1  0.29841727  0.29387127  0.12455803  1
  Mo  Mo181  1  0.29154782  0.49411237  0.38070297  1
  Mo  Mo182  1  0.81024394  0.00126030  -0.00138225  1
  Mo  Mo183  1  -0.00149767  0.19375131  0.24795371  1
  Mo  Mo184  1  0.40780702  0.40493177  0.75147068  1
  Mo  Mo185  1  0.00276818  0.80660655  -0.01056101  1
  Mo  Mo186  1  0.19573711  0.80839990  0.74386868  1
  Mo  Mo187  1  0.80969308  0.40604397  0.25441925  1
  Mo  Mo188  1  0.88935682  0.48879757  0.36816730  1
  Mo  Mo189  1  0.09995924  0.08371907  0.87387009  1
  Mo  Mo190  1  0.90503739  0.90766769  0.13164574  1
  Mo  Mo191  1  0.30510480  0.30284573  0.86205422  1
  Mo  Mo192  1  0.40137225  0.80557472  0.76733522  1
  Mo  Mo193  1  0.28553348  0.09047669  0.86342789  1
  Mo  Mo194  1  0.50080261  0.49359855  0.11687868  1
  Mo  Mo195  1  -0.00009891  -0.00788560  0.49865436  1
  Mo  Mo196  1  -0.01115215  -0.00705489  0.74437378  1
  Mo  Mo197  1  0.00431945  0.39535534  0.50513243  1
  Mo  Mo198  1  0.89640300  0.69749068  0.86099607  1
  Mo  Mo199  1  0.31263107  0.50411827  0.86354386  1
