# generated using pymatgen
data_HfZrTaTiMo
_symmetry_space_group_name_H-M   'P 1'
_cell_length_a   15.21598763
_cell_length_b   15.20522758
_cell_length_c   16.85558384
_cell_angle_alpha   90.09105832
_cell_angle_beta   89.99307138
_cell_angle_gamma   89.97330293
_symmetry_Int_Tables_number   1
_chemical_formula_structural   HfZrTaTiMo
_chemical_formula_sum   'Hf40 Zr40 Ta40 Ti40 Mo40'
_cell_volume   3899.74556178
_cell_formula_units_Z   40
loop_
 _symmetry_equiv_pos_site_id
 _symmetry_equiv_pos_as_xyz
  1  'x, y, z'
loop_
 _atom_site_type_symbol
 _atom_site_label
 _atom_site_symmetry_multiplicity
 _atom_site_fract_x
 _atom_site_fract_y
 _atom_site_fract_z
 _atom_site_occupancy
  Hf  Hf0  1  0.81053950  0.61117237  -0.00836391  1
  Hf  Hf1  1  0.30891745  0.07763919  0.89121354  1
  Hf  Hf2  1  0.08532884  0.67718568  0.87374382  1
  Hf  Hf3  1  -0.00303863  0.19420251  0.25498586  1
  Hf  Hf4  1  0.49392509  0.70873229  0.87056731  1
  Hf  Hf5  1  0.12261841  0.89174193  0.87329046  1
  Hf  Hf6  1  -0.00127697  0.00775631  0.75732305  1
  Hf  Hf7  1  0.92130366  0.29970553  0.89483946  1
  Hf  Hf8  1  0.59400222  0.80450748  0.50324617  1
  Hf  Hf9  1  0.40968819  0.39987654  -0.00089735  1
  Hf  Hf10  1  0.10849655  0.50878013  0.37166630  1
  Hf  Hf11  1  0.09317327  0.10625887  0.89354101  1
  Hf  Hf12  1  0.39684074  0.60701947  0.00072109  1
  Hf  Hf13  1  0.69377689  0.90705793  0.86905877  1
  Hf  Hf14  1  0.69260863  0.52033796  0.38823388  1
  Hf  Hf15  1  0.48635303  0.70790758  0.63167975  1
  Hf  Hf16  1  0.21882776  -0.00629740  0.74659226  1
  Hf  Hf17  1  0.28674670  0.70664306  0.86372162  1
  Hf  Hf18  1  0.68760870  0.70208534  0.64028825  1
  Hf  Hf19  1  0.30473022  0.29873563  0.12240352  1
  Hf  Hf20  1  0.71366764  0.50551337  0.12692778  1
  Hf  Hf21  1  0.70441508  0.50283158  0.87163503  1
  Hf  Hf22  1  -0.00298906  0.60142070  0.25089350  1
  Hf  Hf23  1  0.18790101  0.57882668  0.00558771  1
  Hf  Hf24  1  0.42467202  -0.00507562  0.23420964  1
  Hf  Hf25  1  0.30545174  0.30001009  0.87777080  1
  Hf  Hf26  1  0.30514279  0.69732817  0.36217450  1
  Hf  Hf27  1  0.93005862  0.50694575  0.88600954  1
  Hf  Hf28  1  0.00578858  -0.00722726  0.24517095  1
  Hf  Hf29  1  0.88994180  0.69607839  0.13495993  1
  Hf  Hf30  1  0.88858440  0.09994001  0.10777329  1
  Hf  Hf31  1  0.68974822  0.70523568  0.86854171  1
  Hf  Hf32  1  0.79975156  0.81762243  -0.00456938  1
  Hf  Hf33  1  0.89516076  0.50836207  0.38117351  1
  Hf  Hf34  1  -0.00437758  0.58650535  0.73443604  1
  Hf  Hf35  1  0.10236077  0.09375993  0.11117594  1
  Hf  Hf36  1  0.60599447  0.39209149  -0.01364526  1
  Hf  Hf37  1  0.30784910  0.90304600  0.36585302  1
  Hf  Hf38  1  0.50817561  0.49623462  0.38307694  1
  Hf  Hf39  1  0.30890283  0.49918574  0.36510289  1
  Zr  Zr40  1  0.19328328  0.78931901  0.00938855  1
  Zr  Zr41  1  0.40676067  0.19644077  0.24345144  1
  Zr  Zr42  1  0.70671272  0.29931732  0.62068835  1
  Zr  Zr43  1  0.59289274  0.21009646  0.76165915  1
  Zr  Zr44  1  0.68879670  0.09698545  0.88405253  1
  Zr  Zr45  1  0.30915927  0.49738772  0.13989195  1
  Zr  Zr46  1  0.51806955  0.10443027  0.37807098  1
  Zr  Zr47  1  0.18740670  0.79905035  0.25016355  1
  Zr  Zr48  1  0.70252469  0.50307988  0.61375569  1
  Zr  Zr49  1  0.19098023  0.20714191  0.75917569  1
  Zr  Zr50  1  -0.00359134  0.79967220  0.49915293  1
  Zr  Zr51  1  0.00172017  -0.00520697  0.49782879  1
  Zr  Zr52  1  0.60525732  0.40654685  0.74830195  1
  Zr  Zr53  1  0.40178203  0.19026955  0.75052713  1
  Zr  Zr54  1  0.79397312  -0.00382544  0.50363965  1
  Zr  Zr55  1  0.10643730  0.49050709  0.61572472  1
  Zr  Zr56  1  0.89347598  0.10576193  0.62263517  1
  Zr  Zr57  1  0.10273363  0.10906680  0.62419034  1
  Zr  Zr58  1  0.49472555  0.70559066  0.12452266  1
  Zr  Zr59  1  -0.00336168  -0.02646550  -0.00109321  1
  Zr  Zr60  1  0.20551349  0.39571744  0.48899982  1
  Zr  Zr61  1  0.10743137  0.89237301  0.63393574  1
  Zr  Zr62  1  0.20439988  0.00085244  0.49671018  1
  Zr  Zr63  1  0.80389005  0.60031169  0.75353182  1
  Zr  Zr64  1  -0.00191561  0.39279989  0.48588780  1
  Zr  Zr65  1  0.79280051  0.80153512  0.50014514  1
  Zr  Zr66  1  0.78959694  -0.00569504  0.24145555  1
  Zr  Zr67  1  0.89702059  0.09255996  0.37510036  1
  Zr  Zr68  1  -0.00541434  0.79354030  0.75202735  1
  Zr  Zr69  1  0.77967748  0.19815511  0.25992702  1
  Zr  Zr70  1  0.88901369  0.30605789  0.11917565  1
  Zr  Zr71  1  0.40396823  0.38779618  0.50114852  1
  Zr  Zr72  1  -0.00825668  0.39217409  0.26194018  1
  Zr  Zr73  1  0.67719809  0.29884649  0.13153910  1
  Zr  Zr74  1  0.20971536  0.19871256  0.00161864  1
  Zr  Zr75  1  0.09305400  0.30455493  0.11733201  1
  Zr  Zr76  1  0.90501446  0.29735836  0.61862374  1
  Zr  Zr77  1  0.69085594  0.71555738  0.11822210  1
  Zr  Zr78  1  0.20838402  0.79087441  0.49659906  1
  Zr  Zr79  1  0.29484244  0.49766535  0.86369201  1
  Ta  Ta80  1  0.20313728  0.19242016  0.24621475  1
  Ta  Ta81  1  0.29558864  0.29843765  0.62781106  1
  Ta  Ta82  1  0.78495185  0.40550419  0.26912472  1
  Ta  Ta83  1  0.21173782  0.20277500  0.49080758  1
  Ta  Ta84  1  0.02213132  0.38972962  0.75240295  1
  Ta  Ta85  1  0.58858047  0.01046336  0.74530981  1
  Ta  Ta86  1  0.31414090  0.10212396  0.61415241  1
  Ta  Ta87  1  0.20667255  0.38650940  0.25924013  1
  Ta  Ta88  1  0.49972205  0.89710547  0.37692390  1
  Ta  Ta89  1  0.38827388  0.81898326  0.75573369  1
  Ta  Ta90  1  0.39979069  0.61274226  0.50281966  1
  Ta  Ta91  1  0.89262683  0.88893341  0.36509421  1
  Ta  Ta92  1  0.41009959  -0.00408726  0.49965136  1
  Ta  Ta93  1  0.49981496  0.50548017  0.86666560  1
  Ta  Ta94  1  -0.00750731  0.20503745  0.76100529  1
  Ta  Ta95  1  0.80550200  0.40613360  -0.00622312  1
  Ta  Ta96  1  0.40726746  0.39499570  0.73944887  1
  Ta  Ta97  1  0.30933186  0.50288151  0.62787424  1
  Ta  Ta98  1  0.21124349  0.00596805  0.23818237  1
  Ta  Ta99  1  0.29606313  0.69659704  0.14092804  1
  Ta  Ta100  1  0.09283953  0.69833975  0.37432345  1
  Ta  Ta101  1  -0.00233573  0.60607967  0.50299306  1
  Ta  Ta102  1  0.69085902  0.10618621  0.63051527  1
  Ta  Ta103  1  0.80141228  0.20355499  0.76651738  1
  Ta  Ta104  1  0.41748160  0.59905579  0.24997245  1
  Ta  Ta105  1  0.69626119  0.90734996  0.64128395  1
  Ta  Ta106  1  0.38943588  0.81599066  -0.00288023  1
  Ta  Ta107  1  0.30776346  0.89265071  0.13227339  1
  Ta  Ta108  1  0.00563771  0.19934619  0.48163924  1
  Ta  Ta109  1  0.89158876  0.09709365  0.89146052  1
  Ta  Ta110  1  0.82282182  0.39426515  0.76013904  1
  Ta  Ta111  1  0.79075683  0.38836986  0.47895893  1
  Ta  Ta112  1  0.89470553  0.69650643  0.62170160  1
  Ta  Ta113  1  0.78123526  0.21059905  -0.00779460  1
  Ta  Ta114  1  0.61440313  0.60743625  0.25107502  1
  Ta  Ta115  1  0.09822725  0.89019812  0.12468873  1
  Ta  Ta116  1  0.41603337  0.00999669  0.02341139  1
  Ta  Ta117  1  0.68692019  0.91028491  0.37004371  1
  Ta  Ta118  1  0.50999066  0.70113953  0.37335973  1
  Ta  Ta119  1  0.31442684  0.89255011  0.61762339  1
  Ti  Ti120  1  0.58467911  0.81600750  -0.00309770  1
  Ti  Ti121  1  0.49953426  0.90882728  0.62270081  1
  Ti  Ti122  1  0.80184969  0.80452525  0.75311579  1
  Ti  Ti123  1  0.29309787  0.70031344  0.63519930  1
  Ti  Ti124  1  0.10763880  0.28813983  0.36944755  1
  Ti  Ti125  1  0.59502135  0.59619983  -0.00024462  1
  Ti  Ti126  1  0.10628529  0.49564923  0.13970288  1
  Ti  Ti127  1  0.40912773  0.00223885  0.74391748  1
  Ti  Ti128  1  0.91040278  0.49679130  0.12153049  1
  Ti  Ti129  1  0.89545438  0.89944544  0.63393546  1
  Ti  Ti130  1  0.78031675  0.78897954  0.25721048  1
  Ti  Ti131  1  0.10183116  0.29467677  0.61821942  1
  Ti  Ti132  1  0.51755898  0.48931936  0.13431738  1
  Ti  Ti133  1  0.41995644  0.38857950  0.25647182  1
  Ti  Ti134  1  0.10112133  0.69613390  0.62557981  1
  Ti  Ti135  1  0.57613520  0.19934538  -0.00734860  1
  Ti  Ti136  1  0.58504566  0.81413825  0.75134989  1
  Ti  Ti137  1  0.19466329  0.58862294  0.74280709  1
  Ti  Ti138  1  0.58905179  0.81823243  0.24823089  1
  Ti  Ti139  1  -0.00932325  0.77750990  -0.00199018  1
  Ti  Ti140  1  0.66390254  0.29966316  0.37543013  1
  Ti  Ti141  1  0.30884067  0.10411931  0.37604044  1
  Ti  Ti142  1  0.50088472  0.28402431  0.61217098  1
  Ti  Ti143  1  0.68355834  0.92136916  0.11700430  1
  Ti  Ti144  1  0.89529547  0.89148729  0.12870617  1
  Ti  Ti145  1  0.78409787  0.19599070  0.48236735  1
  Ti  Ti146  1  0.79845284  0.00790204  0.74992768  1
  Ti  Ti147  1  0.60569365  0.00975527  0.50873692  1
  Ti  Ti148  1  0.88437529  0.69807305  0.37087207  1
  Ti  Ti149  1  0.89548452  0.49098178  0.61136274  1
  Ti  Ti150  1  -0.01008679  0.79870345  0.25386758  1
  Ti  Ti151  1  0.50728432  0.50711449  0.61617116  1
  Ti  Ti152  1  0.89806035  0.90032066  0.87065294  1
  Ti  Ti153  1  0.49088817  0.92391592  0.87920646  1
  Ti  Ti154  1  0.09821718  0.89865256  0.36972139  1
  Ti  Ti155  1  0.20360789  0.60146937  0.50314368  1
  Ti  Ti156  1  0.11344635  0.09319600  0.36960115  1
  Ti  Ti157  1  0.09439133  0.69125920  0.13033357  1
  Ti  Ti158  1  0.79548162  0.61186598  0.50392276  1
  Ti  Ti159  1  0.40394249  0.59807489  0.74575621  1
  Mo  Mo160  1  0.41010892  0.20107286  0.00580634  1
  Mo  Mo161  1  0.59270176  0.20096301  0.24767281  1
  Mo  Mo162  1  0.69335464  0.10470129  0.10710460  1
  Mo  Mo163  1  0.50428059  0.09682218  0.61677195  1
  Mo  Mo164  1  0.59895819  0.20333624  0.50622771  1
  Mo  Mo165  1  0.30103332  0.29028143  0.36412121  1
  Mo  Mo166  1  0.69295044  0.71365671  0.37076038  1
  Mo  Mo167  1  0.79617222  -0.00048455  0.00321694  1
  Mo  Mo168  1  0.10877590  0.48693769  0.86938004  1
  Mo  Mo169  1  0.49245681  0.09870942  0.87968666  1
  Mo  Mo170  1  0.52442175  0.10969743  0.12709438  1
  Mo  Mo171  1  -0.00546290  0.19590973  0.00123075  1
  Mo  Mo172  1  0.00373198  0.60252671  0.01824086  1
  Mo  Mo173  1  0.21671693  -0.01837254  0.01995771  1
  Mo  Mo174  1  0.01873519  0.41348313  0.00892773  1
  Mo  Mo175  1  0.59691018  0.00089499  -0.00039230  1
  Mo  Mo176  1  0.71116468  0.30499498  0.87488102  1
  Mo  Mo177  1  0.59702486  0.40749988  0.25388800  1
  Mo  Mo178  1  0.10725792  0.31666691  0.88774129  1
  Mo  Mo179  1  0.20343599  0.40184683  0.00387422  1
  Mo  Mo180  1  0.79817005  0.59785438  0.25232374  1
  Mo  Mo181  1  0.40648109  0.79578188  0.24976565  1
  Mo  Mo182  1  0.49885943  0.30858673  0.12414286  1
  Mo  Mo183  1  0.89766223  0.70808725  0.87552334  1
  Mo  Mo184  1  0.49409563  0.29942183  0.38215974  1
  Mo  Mo185  1  0.59091262  0.60941560  0.50384264  1
  Mo  Mo186  1  0.20435235  0.78965398  0.74362558  1
  Mo  Mo187  1  0.50804278  0.89571079  0.11877841  1
  Mo  Mo188  1  0.39620332  0.19246402  0.49800242  1
  Mo  Mo189  1  0.60845761  0.00825815  0.24721928  1
  Mo  Mo190  1  0.30975316  0.89892812  0.88089338  1
  Mo  Mo191  1  0.88807439  0.29675641  0.37678294  1
  Mo  Mo192  1  0.40167721  0.80187503  0.49975068  1
  Mo  Mo193  1  0.30527477  0.09408855  0.12036948  1
  Mo  Mo194  1  0.69564852  0.09957443  0.38099481  1
  Mo  Mo195  1  0.58514712  0.60203721  0.75231116  1
  Mo  Mo196  1  0.49709941  0.30829848  0.87113278  1
  Mo  Mo197  1  0.20998174  0.39629651  0.73825806  1
  Mo  Mo198  1  0.20054406  0.59545206  0.24568083  1
  Mo  Mo199  1  0.60003251  0.39637463  0.50627322  1
