# generated using pymatgen
data_HfZrTaTiMo
_symmetry_space_group_name_H-M   'P 1'
_cell_length_a   15.21412328
_cell_length_b   15.19735975
_cell_length_c   16.86293689
_cell_angle_alpha   89.94325822
_cell_angle_beta   90.02552949
_cell_angle_gamma   89.99512280
_symmetry_Int_Tables_number   1
_chemical_formula_structural   HfZrTaTiMo
_chemical_formula_sum   'Hf40 Zr40 Ta40 Ti40 Mo40'
_cell_volume   3898.95328904
_cell_formula_units_Z   40
loop_
 _symmetry_equiv_pos_site_id
 _symmetry_equiv_pos_as_xyz
  1  'x, y, z'
loop_
 _atom_site_type_symbol
 _atom_site_label
 _atom_site_symmetry_multiplicity
 _atom_site_fract_x
 _atom_site_fract_y
 _atom_site_fract_z
 _atom_site_occupancy
  Hf  Hf0  1  -0.00333206  0.60415990  0.73794626  1
  Hf  Hf1  1  0.69211477  0.70800911  0.87843998  1
  Hf  Hf2  1  0.80876005  0.18248788  0.73829915  1
  Hf  Hf3  1  0.91547113  0.29296900  0.86882480  1
  Hf  Hf4  1  0.00479810  0.59452604  0.25844128  1
  Hf  Hf5  1  0.28622404  0.89314144  0.12965448  1
  Hf  Hf6  1  0.09920498  0.10495370  0.13306051  1
  Hf  Hf7  1  0.00731487  0.01100297  0.74643226  1
  Hf  Hf8  1  0.19498444  0.40663408  0.26179685  1
  Hf  Hf9  1  0.20171728  0.79200414  0.25784136  1
  Hf  Hf10  1  0.40823329  -0.01670789  0.00770285  1
  Hf  Hf11  1  0.41460641  0.19149109  0.23544644  1
  Hf  Hf12  1  -0.00850952  0.19703622  0.50126784  1
  Hf  Hf13  1  0.91656709  0.88956004  0.62689849  1
  Hf  Hf14  1  0.50590547  0.28629476  0.36660728  1
  Hf  Hf15  1  0.30011474  0.28815557  0.61850330  1
  Hf  Hf16  1  0.50064407  0.31132344  0.62809424  1
  Hf  Hf17  1  0.59843639  0.39706885  0.49670979  1
  Hf  Hf18  1  0.89333151  0.09728629  0.14000537  1
  Hf  Hf19  1  0.88299277  0.89318794  0.14483944  1
  Hf  Hf20  1  0.79040646  0.80709361  0.00072927  1
  Hf  Hf21  1  0.40158993  0.20307977  0.00960773  1
  Hf  Hf22  1  0.49100907  0.70338490  0.88613565  1
  Hf  Hf23  1  0.49830172  0.49184610  0.37067937  1
  Hf  Hf24  1  0.58790233  0.60244586  0.75098373  1
  Hf  Hf25  1  0.69318420  0.49235517  0.63234359  1
  Hf  Hf26  1  0.89635341  0.89849387  0.37511701  1
  Hf  Hf27  1  0.50276808  0.08506264  0.88313416  1
  Hf  Hf28  1  0.09621144  0.09234530  0.38211798  1
  Hf  Hf29  1  0.90057642  0.70424029  0.87469481  1
  Hf  Hf30  1  0.19605473  -0.01062771  0.50388149  1
  Hf  Hf31  1  0.30708353  0.48961210  0.62159864  1
  Hf  Hf32  1  0.89438416  0.50259397  0.11202091  1
  Hf  Hf33  1  0.79422278  0.39085247  -0.00932078  1
  Hf  Hf34  1  0.69989213  0.90112570  0.37833121  1
  Hf  Hf35  1  0.59893984  0.59646268  0.24962679  1
  Hf  Hf36  1  0.60194937  0.79342311  0.50184584  1
  Hf  Hf37  1  0.31576567  0.09534690  0.37271878  1
  Hf  Hf38  1  0.90507755  0.50174076  0.88179031  1
  Hf  Hf39  1  0.29402560  0.71757214  0.86893575  1
  Zr  Zr40  1  0.10872670  0.89267628  0.86101174  1
  Zr  Zr41  1  0.70502749  0.30149124  0.37233359  1
  Zr  Zr42  1  0.08643390  0.49734092  0.10334891  1
  Zr  Zr43  1  0.21421960  0.01242005  0.74853392  1
  Zr  Zr44  1  0.21013380  0.60793293  -0.00283017  1
  Zr  Zr45  1  0.62337186  0.20469842  0.22770372  1
  Zr  Zr46  1  0.78792160  0.38776098  0.75829089  1
  Zr  Zr47  1  -0.00059514  0.80287846  0.00074031  1
  Zr  Zr48  1  0.50788209  0.89988271  0.61649727  1
  Zr  Zr49  1  0.12189012  0.30637920  0.11977340  1
  Zr  Zr50  1  0.29946039  0.70084312  0.37857193  1
  Zr  Zr51  1  0.29145022  0.10446184  0.12544531  1
  Zr  Zr52  1  0.39891679  0.79509975  0.73444010  1
  Zr  Zr53  1  0.10623216  0.70114405  0.12239139  1
  Zr  Zr54  1  0.09059593  0.90968004  0.13110298  1
  Zr  Zr55  1  0.40422353  0.60350943  0.50829379  1
  Zr  Zr56  1  0.10635097  0.30564697  0.38918892  1
  Zr  Zr57  1  0.81014430  0.40478722  0.50631228  1
  Zr  Zr58  1  -0.01072051  0.00655012  -0.00660654  1
  Zr  Zr59  1  0.48846980  0.90587676  0.38465227  1
  Zr  Zr60  1  0.38505613  0.19838253  0.75495478  1
  Zr  Zr61  1  0.90869689  0.30456802  0.12843364  1
  Zr  Zr62  1  0.87926620  0.90751059  0.85703449  1
  Zr  Zr63  1  0.19828773  0.00759286  -0.01421792  1
  Zr  Zr64  1  0.89994447  0.31546713  0.37485659  1
  Zr  Zr65  1  0.09929257  0.49484193  0.61950768  1
  Zr  Zr66  1  -0.00503852  0.79175969  0.25994445  1
  Zr  Zr67  1  0.20471574  0.60641720  0.74117066  1
  Zr  Zr68  1  0.49796841  0.70111433  0.37396991  1
  Zr  Zr69  1  0.10026806  0.48799553  0.88169000  1
  Zr  Zr70  1  0.48940838  0.51928054  0.10898267  1
  Zr  Zr71  1  0.58375314  0.01112045  0.25172450  1
  Zr  Zr72  1  0.00775675  0.20725031  0.25943304  1
  Zr  Zr73  1  0.71093831  0.09313333  0.87627622  1
  Zr  Zr74  1  0.79475252  0.60320265  0.74775360  1
  Zr  Zr75  1  0.60605676  0.20972591  0.75432941  1
  Zr  Zr76  1  0.81043550  0.19485505  0.00043466  1
  Zr  Zr77  1  0.61415792  -0.00416282  0.74658050  1
  Zr  Zr78  1  0.50357067  0.30202475  0.88215037  1
  Zr  Zr79  1  0.69575499  0.69751001  0.12220059  1
  Ta  Ta80  1  0.39246368  0.78545564  0.01954664  1
  Ta  Ta81  1  0.79043043  0.19251878  0.51022656  1
  Ta  Ta82  1  0.88374975  0.10366849  0.37260602  1
  Ta  Ta83  1  0.50261138  0.10830338  0.62623417  1
  Ta  Ta84  1  0.71372389  0.90728096  0.61507481  1
  Ta  Ta85  1  0.60158937  0.39678692  -0.00141532  1
  Ta  Ta86  1  0.39583747  0.39876740  0.24257321  1
  Ta  Ta87  1  0.09284425  0.72339199  0.62482515  1
  Ta  Ta88  1  0.10618090  0.10241222  0.61602115  1
  Ta  Ta89  1  0.39468156  0.00524007  0.51386636  1
  Ta  Ta90  1  0.68860595  0.90792910  0.13454121  1
  Ta  Ta91  1  0.41514354  0.19644619  0.49949147  1
  Ta  Ta92  1  0.00761615  0.38931103  0.74338694  1
  Ta  Ta93  1  0.21566662  0.20745523  0.26033962  1
  Ta  Ta94  1  0.40645019  -0.00336910  0.74760747  1
  Ta  Ta95  1  0.49811137  0.50744892  0.89087516  1
  Ta  Ta96  1  0.29764181  0.49833835  0.38235737  1
  Ta  Ta97  1  0.39593883  -0.00949759  0.24024759  1
  Ta  Ta98  1  0.70780644  0.69829817  0.37088702  1
  Ta  Ta99  1  0.50240425  0.50171610  0.62377103  1
  Ta  Ta100  1  0.61132769  0.19530570  0.01550627  1
  Ta  Ta101  1  0.20940816  0.38661815  0.75471206  1
  Ta  Ta102  1  0.69148546  0.49060772  0.12176218  1
  Ta  Ta103  1  0.28842296  0.48994707  0.12031569  1
  Ta  Ta104  1  -0.01468762  0.60661450  0.51028443  1
  Ta  Ta105  1  0.20723231  0.39985083  0.49615119  1
  Ta  Ta106  1  0.30796393  0.50207350  0.87373659  1
  Ta  Ta107  1  0.09402718  0.69644955  0.87057732  1
  Ta  Ta108  1  0.80614921  0.78892230  0.50664705  1
  Ta  Ta109  1  0.89930467  0.69260062  0.12180285  1
  Ta  Ta110  1  0.40805412  0.40888064  0.75916367  1
  Ta  Ta111  1  0.50877358  0.31567344  0.12311155  1
  Ta  Ta112  1  0.59938450  0.80232962  0.24858233  1
  Ta  Ta113  1  0.58631450  0.82064974  0.00448991  1
  Ta  Ta114  1  0.10378815  0.29545742  0.61858366  1
  Ta  Ta115  1  0.60977513  0.59804579  0.49886892  1
  Ta  Ta116  1  0.89493153  0.69162244  0.38191996  1
  Ta  Ta117  1  0.19467824  0.60568000  0.50811964  1
  Ta  Ta118  1  0.78530821  -0.00432618  0.00672623  1
  Ta  Ta119  1  0.40631081  0.79248198  0.23328204  1
  Ti  Ti120  1  0.20748239  0.21393671  -0.00688941  1
  Ti  Ti121  1  0.60103028  0.02084751  0.50184946  1
  Ti  Ti122  1  0.90129581  0.08891799  0.61827725  1
  Ti  Ti123  1  0.20389716  0.80940996  -0.00375852  1
  Ti  Ti124  1  0.79556752  0.59997113  0.50450761  1
  Ti  Ti125  1  0.19892482  0.79704829  0.50467768  1
  Ti  Ti126  1  0.28705625  0.89604375  0.62828017  1
  Ti  Ti127  1  0.69604827  0.70274294  0.62633161  1
  Ti  Ti128  1  0.01375011  0.20158916  -0.00175395  1
  Ti  Ti129  1  -0.00497688  0.41125429  0.25547979  1
  Ti  Ti130  1  0.91401513  0.10228463  0.86708581  1
  Ti  Ti131  1  0.31425927  0.30449363  0.38217051  1
  Ti  Ti132  1  0.10963223  0.28435399  0.86805016  1
  Ti  Ti133  1  -0.00294636  0.00027421  0.26058315  1
  Ti  Ti134  1  0.39920191  0.60302680  0.73999120  1
  Ti  Ti135  1  0.90683196  0.29812329  0.62768038  1
  Ti  Ti136  1  0.09641774  0.69515996  0.38825936  1
  Ti  Ti137  1  0.29623733  0.10873638  0.87810000  1
  Ti  Ti138  1  0.19920898  0.00122053  0.26039116  1
  Ti  Ti139  1  0.79258293  0.80427586  0.73983343  1
  Ti  Ti140  1  0.38823854  0.59741402  0.24534337  1
  Ti  Ti141  1  0.80615796  0.00053325  0.49871015  1
  Ti  Ti142  1  0.10050842  0.89556060  0.37694665  1
  Ti  Ti143  1  0.78871200  0.40186094  0.24354817  1
  Ti  Ti144  1  0.30061420  0.89649667  0.37610695  1
  Ti  Ti145  1  0.68758143  0.49572682  0.87615540  1
  Ti  Ti146  1  0.78331426  0.01140378  0.25645656  1
  Ti  Ti147  1  0.39065389  0.79969367  0.51631078  1
  Ti  Ti148  1  0.89831124  0.49517071  0.63014504  1
  Ti  Ti149  1  0.71137287  0.50304195  0.37024426  1
  Ti  Ti150  1  0.08443100  0.50178301  0.39719848  1
  Ti  Ti151  1  0.38465855  0.39956771  0.00005900  1
  Ti  Ti152  1  0.59898468  0.80456103  0.74903224  1
  Ti  Ti153  1  0.80625588  0.59918218  0.24940311  1
  Ti  Ti154  1  0.21409851  0.19117253  0.49504851  1
  Ti  Ti155  1  0.79054096  0.59883202  -0.00350503  1
  Ti  Ti156  1  0.68995693  0.11005617  0.38078946  1
  Ti  Ti157  1  0.00427564  0.80651003  0.49636888  1
  Ti  Ti158  1  0.69706985  0.28993220  0.62188846  1
  Ti  Ti159  1  0.19962581  0.59483207  0.25305627  1
  Mo  Mo160  1  0.60220447  -0.00146414  0.00592074  1
  Mo  Mo161  1  0.60254978  0.19820538  0.50436810  1
  Mo  Mo162  1  -0.00460106  -0.00037403  0.49810849  1
  Mo  Mo163  1  0.30768474  0.30938784  0.12997437  1
  Mo  Mo164  1  0.19538537  0.80459679  0.74346924  1
  Mo  Mo165  1  0.59222579  0.40801443  0.75913653  1
  Mo  Mo166  1  0.80484324  0.19880758  0.25442322  1
  Mo  Mo167  1  0.39378574  0.59942012  -0.00248505  1
  Mo  Mo168  1  0.50087528  0.09813891  0.38168404  1
  Mo  Mo169  1  0.10305828  0.90343110  0.62895753  1
  Mo  Mo170  1  0.20916904  0.39280206  -0.01588700  1
  Mo  Mo171  1  0.80468461  -0.00495217  0.73702756  1
  Mo  Mo172  1  0.00272462  0.38611769  -0.01002308  1
  Mo  Mo173  1  0.01015012  0.20119932  0.73572760  1
  Mo  Mo174  1  0.18828398  0.20167991  0.74596252  1
  Mo  Mo175  1  0.50682817  0.69234935  0.62143834  1
  Mo  Mo176  1  0.39785880  0.39503748  0.49335285  1
  Mo  Mo177  1  0.59718333  0.40706157  0.24005897  1
  Mo  Mo178  1  0.70138900  0.30043781  0.87522220  1
  Mo  Mo179  1  0.49830018  0.89616155  0.13182715  1
  Mo  Mo180  1  0.50589506  0.09693249  0.11180349  1
  Mo  Mo181  1  0.29756179  0.30633984  0.87402840  1
  Mo  Mo182  1  0.00193987  0.79340945  0.75021054  1
  Mo  Mo183  1  0.60508083  0.60205989  -0.00606112  1
  Mo  Mo184  1  0.70721645  0.09475750  0.12265314  1
  Mo  Mo185  1  0.32314370  0.90396946  0.87212107  1
  Mo  Mo186  1  0.30726526  0.09767683  0.61885677  1
  Mo  Mo187  1  0.30550883  0.68270816  0.13342246  1
  Mo  Mo188  1  0.68563620  0.89860767  0.87479450  1
  Mo  Mo189  1  0.29310399  0.70204999  0.61841379  1
  Mo  Mo190  1  0.78811406  0.79057057  0.25456771  1
  Mo  Mo191  1  0.70772548  0.30797128  0.12360142  1
  Mo  Mo192  1  0.89435499  0.51014767  0.37525080  1
  Mo  Mo193  1  0.89178188  0.69858455  0.61875734  1
  Mo  Mo194  1  -0.00816982  0.60540674  -0.00462091  1
  Mo  Mo195  1  0.50169783  0.70357338  0.11978455  1
  Mo  Mo196  1  0.70321611  0.09560586  0.61636142  1
  Mo  Mo197  1  0.49415394  0.89229059  0.87240190  1
  Mo  Mo198  1  0.09938419  0.11180887  0.87537773  1
  Mo  Mo199  1  0.00201943  0.40535656  0.51395985  1
