# generated using pymatgen
data_HfZrTaTiMo
_symmetry_space_group_name_H-M   'P 1'
_cell_length_a   15.22119365
_cell_length_b   15.21790538
_cell_length_c   16.85426941
_cell_angle_alpha   90.00849046
_cell_angle_beta   89.98001035
_cell_angle_gamma   90.07771713
_symmetry_Int_Tables_number   1
_chemical_formula_structural   HfZrTaTiMo
_chemical_formula_sum   'Hf40 Zr40 Ta40 Ti40 Mo40'
_cell_volume   3904.02950880
_cell_formula_units_Z   40
loop_
 _symmetry_equiv_pos_site_id
 _symmetry_equiv_pos_as_xyz
  1  'x, y, z'
loop_
 _atom_site_type_symbol
 _atom_site_label
 _atom_site_symmetry_multiplicity
 _atom_site_fract_x
 _atom_site_fract_y
 _atom_site_fract_z
 _atom_site_occupancy
  Hf  Hf0  1  0.48931116  0.90153043  0.12800223  1
  Hf  Hf1  1  -0.00109935  0.79408026  0.24022059  1
  Hf  Hf2  1  0.00872078  0.22218944  0.77056386  1
  Hf  Hf3  1  0.30869937  0.49100497  0.62586737  1
  Hf  Hf4  1  0.59733206  -0.00014116  0.76091657  1
  Hf  Hf5  1  0.91170432  0.09404954  0.36953996  1
  Hf  Hf6  1  0.61258146  0.39706698  0.74663948  1
  Hf  Hf7  1  0.60043720  0.59466472  0.49465841  1
  Hf  Hf8  1  0.89806745  0.67871535  0.88261403  1
  Hf  Hf9  1  0.39425300  0.58810242  0.48961789  1
  Hf  Hf10  1  0.28823039  0.90318680  0.36983363  1
  Hf  Hf11  1  -0.00320933  0.79498334  0.51676187  1
  Hf  Hf12  1  0.19018017  0.59182613  0.00299342  1
  Hf  Hf13  1  0.20718901  0.79771264  0.74468048  1
  Hf  Hf14  1  0.70520818  0.09934417  0.63285931  1
  Hf  Hf15  1  0.10333832  0.10760978  0.12447044  1
  Hf  Hf16  1  0.70218844  0.88523036  0.13658400  1
  Hf  Hf17  1  0.90640049  0.88816291  0.87528842  1
  Hf  Hf18  1  0.90446969  0.90194970  0.11941127  1
  Hf  Hf19  1  0.80535828  0.00014907  0.50694007  1
  Hf  Hf20  1  0.89444301  0.29633491  0.12438148  1
  Hf  Hf21  1  0.20147474  0.00657874  0.50514188  1
  Hf  Hf22  1  0.29469119  0.49784335  0.87518433  1
  Hf  Hf23  1  0.80239996  0.00187541  -0.00651014  1
  Hf  Hf24  1  0.08865451  0.29422474  0.62333958  1
  Hf  Hf25  1  0.10254060  0.91723813  0.64157800  1
  Hf  Hf26  1  0.10612870  0.31507648  0.12799993  1
  Hf  Hf27  1  0.51170683  0.31381773  0.12558068  1
  Hf  Hf28  1  0.59674426  0.60150373  0.00919078  1
  Hf  Hf29  1  0.71056755  0.11393229  0.12365289  1
  Hf  Hf30  1  0.59606310  -0.00094577  0.50182916  1
  Hf  Hf31  1  0.71008585  0.11843569  0.37388135  1
  Hf  Hf32  1  0.60002188  0.20366775  0.51125786  1
  Hf  Hf33  1  0.29810540  0.08698265  0.11307854  1
  Hf  Hf34  1  0.79900354  0.79033073  0.74182544  1
  Hf  Hf35  1  0.00349144  0.00700976  0.50817407  1
  Hf  Hf36  1  0.09407127  0.90156144  0.36872794  1
  Hf  Hf37  1  0.38956999  0.20534090  0.74878600  1
  Hf  Hf38  1  0.39417033  0.19923279  0.50607132  1
  Hf  Hf39  1  0.19648694  0.79700676  0.51310088  1
  Zr  Zr40  1  0.28937108  0.49869647  0.13571764  1
  Zr  Zr41  1  0.59612815  0.01643685  0.24465945  1
  Zr  Zr42  1  0.69377067  0.89518951  0.63256650  1
  Zr  Zr43  1  -0.01211730  0.39795442  0.48398003  1
  Zr  Zr44  1  0.49537432  0.10858561  0.87141483  1
  Zr  Zr45  1  0.60295100  0.00307489  -0.00538402  1
  Zr  Zr46  1  0.59707946  0.59477507  0.74211373  1
  Zr  Zr47  1  0.58984894  0.80050611  -0.00209589  1
  Zr  Zr48  1  0.90288036  0.67910879  0.37843161  1
  Zr  Zr49  1  0.40014636  0.41463565  0.00144410  1
  Zr  Zr50  1  0.70024915  0.90098049  0.36263655  1
  Zr  Zr51  1  -0.00659127  0.40428265  0.26256861  1
  Zr  Zr52  1  0.89306873  0.88749310  0.36738907  1
  Zr  Zr53  1  -0.00226533  0.21163511  -0.01245044  1
  Zr  Zr54  1  0.20887781  0.40250639  0.48658406  1
  Zr  Zr55  1  0.79045788  0.58581041  0.23676303  1
  Zr  Zr56  1  0.01330410  0.00198353  -0.00892046  1
  Zr  Zr57  1  0.72019234  0.48987819  0.86965511  1
  Zr  Zr58  1  0.38765676  0.00922504  0.25312174  1
  Zr  Zr59  1  -0.00088026  0.78420637  0.73832812  1
  Zr  Zr60  1  0.39706286  0.00362779  0.50077747  1
  Zr  Zr61  1  0.29314288  0.70173040  0.88107195  1
  Zr  Zr62  1  0.78611637  0.38978997  0.26363185  1
  Zr  Zr63  1  0.49830149  0.69796751  0.62399418  1
  Zr  Zr64  1  0.80214990  0.21729658  0.74663713  1
  Zr  Zr65  1  0.70007513  0.69447434  0.87364558  1
  Zr  Zr66  1  0.41482078  0.19998450  0.24370934  1
  Zr  Zr67  1  0.70492282  0.70089918  0.36894760  1
  Zr  Zr68  1  0.09489035  0.50705996  0.61246266  1
  Zr  Zr69  1  0.12804197  0.89645421  0.12641535  1
  Zr  Zr70  1  0.19482805  0.19543656  0.49843805  1
  Zr  Zr71  1  0.79828863  0.57008362  0.02321050  1
  Zr  Zr72  1  0.19032358  0.38936725  0.75156400  1
  Zr  Zr73  1  0.29845267  0.71237392  0.12379732  1
  Zr  Zr74  1  0.28645242  0.68852155  0.36903430  1
  Zr  Zr75  1  0.29961573  0.29663852  0.12273357  1
  Zr  Zr76  1  0.39570040  0.79977352  0.25148943  1
  Zr  Zr77  1  0.40395475  0.80050328  0.49781459  1
  Zr  Zr78  1  0.50279053  0.30859850  0.87921360  1
  Zr  Zr79  1  0.40143883  -0.00542817  -0.01716967  1
  Ta  Ta80  1  0.39357701  0.59888912  0.74813903  1
  Ta  Ta81  1  0.49649782  0.90321429  0.63526380  1
  Ta  Ta82  1  0.89811480  0.10631657  0.87246419  1
  Ta  Ta83  1  0.81284922  0.20606672  0.51182703  1
  Ta  Ta84  1  0.30295580  0.29045191  0.36625449  1
  Ta  Ta85  1  0.49124432  0.09936153  0.63771404  1
  Ta  Ta86  1  0.08227839  0.49928906  0.87178817  1
  Ta  Ta87  1  0.40744844  0.40623912  0.75312176  1
  Ta  Ta88  1  0.40897005  0.39695289  0.48341519  1
  Ta  Ta89  1  0.50149832  0.10532011  0.37699183  1
  Ta  Ta90  1  0.11303723  0.89401855  0.86860954  1
  Ta  Ta91  1  0.80907202  0.00205330  0.75813681  1
  Ta  Ta92  1  -0.00107685  0.59807327  0.01741556  1
  Ta  Ta93  1  -0.00444693  0.41575909  0.00462796  1
  Ta  Ta94  1  0.70273704  0.30692157  0.11911075  1
  Ta  Ta95  1  0.01262361  0.79035129  0.00319070  1
  Ta  Ta96  1  0.09128661  0.69356830  0.87507601  1
  Ta  Ta97  1  0.18910011  0.59950034  0.74862420  1
  Ta  Ta98  1  0.70426770  0.89892566  0.87060292  1
  Ta  Ta99  1  0.40493340  0.40329043  0.26610455  1
  Ta  Ta100  1  0.79943561  0.79386459  0.51213566  1
  Ta  Ta101  1  0.61403240  0.40896032  -0.00211552  1
  Ta  Ta102  1  0.70320496  0.49707456  0.61362741  1
  Ta  Ta103  1  0.00618678  0.00417317  0.24121888  1
  Ta  Ta104  1  0.49464504  0.31408788  0.62470084  1
  Ta  Ta105  1  0.51082910  0.29645686  0.37516508  1
  Ta  Ta106  1  0.70444778  0.11355954  0.87111655  1
  Ta  Ta107  1  0.88679106  0.28407884  0.37277010  1
  Ta  Ta108  1  0.49092558  0.69716247  0.87177688  1
  Ta  Ta109  1  0.59779262  0.20708699  0.74137693  1
  Ta  Ta110  1  0.80928669  0.59173174  0.73032136  1
  Ta  Ta111  1  0.09874452  0.29098238  0.36603975  1
  Ta  Ta112  1  0.50590404  0.70008306  0.36541109  1
  Ta  Ta113  1  0.50533828  0.89838585  0.36831557  1
  Ta  Ta114  1  0.09764712  0.70383711  0.37141161  1
  Ta  Ta115  1  0.89367022  0.70105648  0.12293944  1
  Ta  Ta116  1  0.29234710  0.68892028  0.62417403  1
  Ta  Ta117  1  0.00285535  0.59244514  0.23718927  1
  Ta  Ta118  1  0.09955784  0.51968285  0.38111886  1
  Ta  Ta119  1  0.29153176  0.29610064  0.88071647  1
  Ti  Ti120  1  -0.00037818  0.19721923  0.49639606  1
  Ti  Ti121  1  0.40544887  0.61034514  0.00845693  1
  Ti  Ti122  1  0.30857154  0.90331616  0.63339733  1
  Ti  Ti123  1  0.61898923  0.22031889  0.25397316  1
  Ti  Ti124  1  0.19826910  0.41122699  0.26589985  1
  Ti  Ti125  1  0.28392810  0.09816956  0.86817422  1
  Ti  Ti126  1  0.80893942  0.00548140  0.24298946  1
  Ti  Ti127  1  0.40006335  0.59046489  0.25980664  1
  Ti  Ti128  1  0.20780764  0.19408720  0.25186047  1
  Ti  Ti129  1  0.60035659  0.80245539  0.49809272  1
  Ti  Ti130  1  0.70703797  0.30784201  0.61666342  1
  Ti  Ti131  1  0.50549995  0.11131866  0.11335554  1
  Ti  Ti132  1  -0.00818510  0.58712228  0.73837874  1
  Ti  Ti133  1  0.40277340  0.79752495  0.75269047  1
  Ti  Ti134  1  0.82091240  0.40551429  0.73627002  1
  Ti  Ti135  1  0.50154219  0.50639231  0.13693591  1
  Ti  Ti136  1  0.60091253  0.41556024  0.26837836  1
  Ti  Ti137  1  0.79481408  0.40339835  0.48888067  1
  Ti  Ti138  1  0.01298326  0.01530461  0.76520914  1
  Ti  Ti139  1  0.88826299  0.32461245  0.88287989  1
  Ti  Ti140  1  0.70238551  0.69512641  0.61722122  1
  Ti  Ti141  1  0.60977654  0.20918101  -0.00495076  1
  Ti  Ti142  1  0.39274123  -0.00860974  0.76086944  1
  Ti  Ti143  1  0.79519974  0.78850594  0.00399179  1
  Ti  Ti144  1  0.59814964  0.40296633  0.49257375  1
  Ti  Ti145  1  0.29631497  0.29711307  0.62740227  1
  Ti  Ti146  1  0.89785493  0.90843303  0.63584188  1
  Ti  Ti147  1  0.90235423  0.10386215  0.12259254  1
  Ti  Ti148  1  0.11326751  0.09754831  0.36184605  1
  Ti  Ti149  1  0.38852827  0.80845032  -0.00820499  1
  Ti  Ti150  1  0.28131292  0.09789219  0.64430332  1
  Ti  Ti151  1  0.19569198  0.19928220  -0.01053735  1
  Ti  Ti152  1  0.10727492  0.69454483  0.13037509  1
  Ti  Ti153  1  -0.00091272  0.19856252  0.24959118  1
  Ti  Ti154  1  0.50119775  0.50933353  0.87669454  1
  Ti  Ti155  1  0.39967295  0.20154865  -0.00166460  1
  Ti  Ti156  1  0.92001821  0.11042486  0.63891088  1
  Ti  Ti157  1  0.20839198  -0.01455271  -0.01611790  1
  Ti  Ti158  1  0.51491658  0.69874479  0.14602916  1
  Ti  Ti159  1  0.59279290  0.79848054  0.75648641  1
  Mo  Mo160  1  0.29956681  0.10886380  0.37206466  1
  Mo  Mo161  1  0.50019108  0.48976681  0.62220464  1
  Mo  Mo162  1  0.80528849  0.59490568  0.51137032  1
  Mo  Mo163  1  0.69704843  0.29891457  0.38950201  1
  Mo  Mo164  1  0.80354062  0.39043237  0.00406799  1
  Mo  Mo165  1  0.80562078  0.19600901  0.24881976  1
  Mo  Mo166  1  0.19565087  0.00714516  0.25029680  1
  Mo  Mo167  1  0.80301641  0.79329611  0.23667355  1
  Mo  Mo168  1  0.19465449  0.79917354  -0.01088914  1
  Mo  Mo169  1  0.89550669  0.50091517  0.38026871  1
  Mo  Mo170  1  0.00341178  0.60270997  0.50213077  1
  Mo  Mo171  1  0.90362212  0.48945005  0.12999308  1
  Mo  Mo172  1  0.09332828  0.10646057  0.63517662  1
  Mo  Mo173  1  0.19494197  0.60477134  0.50157321  1
  Mo  Mo174  1  0.18957824  0.60084407  0.24843813  1
  Mo  Mo175  1  0.59193194  0.59377607  0.25703332  1
  Mo  Mo176  1  0.50188812  0.50139641  0.37143116  1
  Mo  Mo177  1  0.67626849  0.48468520  0.13054807  1
  Mo  Mo178  1  0.69697994  0.69648378  0.13349319  1
  Mo  Mo179  1  0.10527400  0.10163412  0.87868807  1
  Mo  Mo180  1  0.10196072  0.31167231  0.88559658  1
  Mo  Mo181  1  0.59821128  0.79590496  0.25023078  1
  Mo  Mo182  1  0.49971566  0.88654105  0.86264401  1
  Mo  Mo183  1  0.70419289  0.50126494  0.38926836  1
  Mo  Mo184  1  0.19689894  0.19587912  0.75809620  1
  Mo  Mo185  1  0.30233633  0.89793644  0.86443468  1
  Mo  Mo186  1  0.18770610  0.39440679  -0.00870171  1
  Mo  Mo187  1  0.89961426  0.30137205  0.61759020  1
  Mo  Mo188  1  0.90547420  0.50479746  0.87263329  1
  Mo  Mo189  1  0.30194957  0.90086366  0.11870550  1
  Mo  Mo190  1  -0.01011142  0.40908331  0.75060168  1
  Mo  Mo191  1  0.20441813  0.00370424  0.75685926  1
  Mo  Mo192  1  0.89768735  0.68745124  0.61590490  1
  Mo  Mo193  1  0.89466741  0.49071812  0.61285058  1
  Mo  Mo194  1  0.29624625  0.49410851  0.36682140  1
  Mo  Mo195  1  0.09891414  0.49968774  0.12947344  1
  Mo  Mo196  1  0.19411079  0.79797729  0.25184452  1
  Mo  Mo197  1  0.70186114  0.29659619  0.87779211  1
  Mo  Mo198  1  0.10199333  0.69647132  0.63045233  1
  Mo  Mo199  1  0.79656679  0.20253871  -0.01049222  1
