# generated using pymatgen
data_HfZrTaTiMo
_symmetry_space_group_name_H-M   'P 1'
_cell_length_a   15.21623476
_cell_length_b   15.22044058
_cell_length_c   16.85572425
_cell_angle_alpha   90.09892877
_cell_angle_beta   90.00999490
_cell_angle_gamma   90.02969548
_symmetry_Int_Tables_number   1
_chemical_formula_structural   HfZrTaTiMo
_chemical_formula_sum   'Hf40 Zr40 Ta40 Ti40 Mo40'
_cell_volume   3903.74219916
_cell_formula_units_Z   40
loop_
 _symmetry_equiv_pos_site_id
 _symmetry_equiv_pos_as_xyz
  1  'x, y, z'
loop_
 _atom_site_type_symbol
 _atom_site_label
 _atom_site_symmetry_multiplicity
 _atom_site_fract_x
 _atom_site_fract_y
 _atom_site_fract_z
 _atom_site_occupancy
  Hf  Hf0  1  0.09826900  0.70318964  0.63599670  1
  Hf  Hf1  1  0.19944530  -0.00152871  0.00764076  1
  Hf  Hf2  1  0.90572507  0.29431410  0.12168628  1
  Hf  Hf3  1  0.89591185  0.69456272  0.62609103  1
  Hf  Hf4  1  0.51469781  0.30399396  0.38607178  1
  Hf  Hf5  1  0.30686567  0.51125503  0.10942877  1
  Hf  Hf6  1  0.08538748  0.11227959  0.61955945  1
  Hf  Hf7  1  -0.01130933  0.59621913  0.25296479  1
  Hf  Hf8  1  0.90601222  0.69631987  0.11773897  1
  Hf  Hf9  1  0.50560618  0.31497269  0.11874416  1
  Hf  Hf10  1  0.30514765  0.71160638  0.63612920  1
  Hf  Hf11  1  0.90736742  0.89293103  0.63022790  1
  Hf  Hf12  1  0.11098344  0.90119827  0.62783270  1
  Hf  Hf13  1  0.89336741  0.70907180  0.87228678  1
  Hf  Hf14  1  0.17647310  0.80234116  -0.00985973  1
  Hf  Hf15  1  0.09016242  0.50465319  0.13003218  1
  Hf  Hf16  1  0.11131759  0.10387434  0.87804515  1
  Hf  Hf17  1  0.91047248  0.26782218  0.61126732  1
  Hf  Hf18  1  0.30280187  0.29642382  0.89095353  1
  Hf  Hf19  1  0.09536238  0.49866434  0.37156031  1
  Hf  Hf20  1  0.60935272  0.60690437  -0.00400944  1
  Hf  Hf21  1  0.78884478  -0.00138706  0.01311056  1
  Hf  Hf22  1  0.38816147  -0.01014254  0.50581464  1
  Hf  Hf23  1  0.88985701  0.89562036  0.37422105  1
  Hf  Hf24  1  0.39820002  0.00803478  0.74425473  1
  Hf  Hf25  1  0.30587687  0.08393810  0.36964353  1
  Hf  Hf26  1  0.80924852  0.20213741  0.25148522  1
  Hf  Hf27  1  0.79039352  0.38271912  -0.01093260  1
  Hf  Hf28  1  0.78185326  0.59492223  0.74255840  1
  Hf  Hf29  1  0.71358110  0.30169119  0.37765808  1
  Hf  Hf30  1  0.59406653  0.60728247  0.75429670  1
  Hf  Hf31  1  0.51165784  0.71264876  0.88687515  1
  Hf  Hf32  1  -0.00434489  0.00650508  0.75056011  1
  Hf  Hf33  1  0.80633270  0.40314379  0.49996876  1
  Hf  Hf34  1  0.79380011  -0.00104895  0.23833943  1
  Hf  Hf35  1  0.89795899  0.09896282  0.88220515  1
  Hf  Hf36  1  0.60839940  0.20321608  0.24043661  1
  Hf  Hf37  1  0.50350976  0.10685026  0.60916067  1
  Hf  Hf38  1  0.28797447  0.88136639  0.14004108  1
  Hf  Hf39  1  -0.00615125  0.40641100  -0.00657261  1
  Zr  Zr40  1  0.10866050  0.49705652  0.86610287  1
  Zr  Zr41  1  0.49173784  0.49950098  0.62999403  1
  Zr  Zr42  1  0.11867961  0.70921320  0.13421921  1
  Zr  Zr43  1  0.10771862  0.29195549  0.12729246  1
  Zr  Zr44  1  0.41683477  0.41478218  0.25837990  1
  Zr  Zr45  1  0.00053490  0.59426907  0.74898565  1
  Zr  Zr46  1  0.89477221  0.48865392  0.86038300  1
  Zr  Zr47  1  0.48938489  0.90711364  0.36053536  1
  Zr  Zr48  1  0.78616670  0.79572956  0.50774056  1
  Zr  Zr49  1  0.79944219  0.00218564  0.51370084  1
  Zr  Zr50  1  0.21058198  0.40875020  0.25144074  1
  Zr  Zr51  1  0.60129133  0.80105172  0.24137136  1
  Zr  Zr52  1  0.20447374  0.20442936  0.26356571  1
  Zr  Zr53  1  0.69573901  0.09320440  0.87546707  1
  Zr  Zr54  1  0.49468034  0.29728900  0.60938045  1
  Zr  Zr55  1  0.19624337  0.39788664  -0.00016513  1
  Zr  Zr56  1  0.20201625  0.21221732  0.75078339  1
  Zr  Zr57  1  0.60229225  -0.01266500  0.50603523  1
  Zr  Zr58  1  0.59837240  0.60259091  0.50575595  1
  Zr  Zr59  1  0.69149294  0.88443257  0.87852667  1
  Zr  Zr60  1  0.89892439  0.47227461  0.63758528  1
  Zr  Zr61  1  0.41089283  0.19954657  0.24770157  1
  Zr  Zr62  1  0.09880321  0.90331913  0.37940683  1
  Zr  Zr63  1  0.80526989  0.58898176  0.00017139  1
  Zr  Zr64  1  0.21532830  0.80562216  0.49695580  1
  Zr  Zr65  1  0.38233999  0.62029346  0.24568015  1
  Zr  Zr66  1  0.59800842  0.19738540  0.75043269  1
  Zr  Zr67  1  0.80796756  0.21318508  0.75484105  1
  Zr  Zr68  1  0.29706387  0.11891126  0.61520318  1
  Zr  Zr69  1  0.38690094  0.80417922  -0.00631840  1
  Zr  Zr70  1  0.49575437  0.10124386  0.88348438  1
  Zr  Zr71  1  0.17767098  -0.00465279  0.24426717  1
  Zr  Zr72  1  0.20599713  0.40554322  0.49428427  1
  Zr  Zr73  1  -0.00719151  0.58236280  0.50301462  1
  Zr  Zr74  1  0.62240373  0.20188423  0.01072914  1
  Zr  Zr75  1  0.00629032  0.80857195  0.25310770  1
  Zr  Zr76  1  0.70123670  0.70444580  0.36829699  1
  Zr  Zr77  1  0.40583513  0.80450320  0.76599136  1
  Zr  Zr78  1  0.60922519  0.39674363  0.75066018  1
  Zr  Zr79  1  0.00758361  0.17984346  0.26137521  1
  Ta  Ta80  1  0.00830732  0.20078071  -0.00578745  1
  Ta  Ta81  1  0.39267168  0.60908750  0.50172565  1
  Ta  Ta82  1  0.40606023  0.41700451  0.48660856  1
  Ta  Ta83  1  0.89920860  0.69071908  0.37842380  1
  Ta  Ta84  1  0.09823815  0.70582292  0.85999132  1
  Ta  Ta85  1  0.00107664  0.79072781  0.49398555  1
  Ta  Ta86  1  0.49053325  0.90084150  0.13190543  1
  Ta  Ta87  1  0.21202804  0.59745482  0.75092146  1
  Ta  Ta88  1  0.49340151  0.89266490  0.62804492  1
  Ta  Ta89  1  0.69492614  0.09966055  0.37851068  1
  Ta  Ta90  1  0.40863517  0.80001583  0.49875004  1
  Ta  Ta91  1  0.19866728  0.60391886  0.50932881  1
  Ta  Ta92  1  0.69143137  0.50260837  0.37227559  1
  Ta  Ta93  1  0.19173587  0.20417582  0.48112163  1
  Ta  Ta94  1  0.89493134  0.09776987  0.38303368  1
  Ta  Ta95  1  0.79144192  -0.00102540  0.73792382  1
  Ta  Ta96  1  0.10636920  0.30186374  0.61832396  1
  Ta  Ta97  1  0.30990997  0.30276794  0.11456788  1
  Ta  Ta98  1  0.90621979  0.89691401  0.12018389  1
  Ta  Ta99  1  0.31110867  0.50189742  0.88286542  1
  Ta  Ta100  1  0.49184620  0.69593437  0.37459088  1
  Ta  Ta101  1  0.30022892  0.52360785  0.37768995  1
  Ta  Ta102  1  0.00550153  0.36454151  0.75625846  1
  Ta  Ta103  1  0.69567455  0.69401826  0.12742906  1
  Ta  Ta104  1  0.01348136  0.61345569  -0.00833978  1
  Ta  Ta105  1  0.29331669  0.91505698  0.87551918  1
  Ta  Ta106  1  0.48742241  0.70270269  0.11289730  1
  Ta  Ta107  1  0.50523546  0.10727388  0.38713325  1
  Ta  Ta108  1  0.59311533  0.01345618  0.23399902  1
  Ta  Ta109  1  -0.00086147  -0.01317048  -0.00597255  1
  Ta  Ta110  1  -0.01052530  0.38553768  0.26211072  1
  Ta  Ta111  1  0.10765345  0.48928218  0.63331680  1
  Ta  Ta112  1  0.10955206  0.69147809  0.37399519  1
  Ta  Ta113  1  0.29803470  0.10368244  0.12897264  1
  Ta  Ta114  1  0.39731667  0.00385205  0.01532326  1
  Ta  Ta115  1  0.49864266  0.70384385  0.62766848  1
  Ta  Ta116  1  0.78538012  0.59005546  0.24314559  1
  Ta  Ta117  1  0.39553971  0.39735694  0.75767698  1
  Ta  Ta118  1  0.19577025  0.00585910  0.49729953  1
  Ta  Ta119  1  0.58651981  0.59423432  0.24336286  1
  Ti  Ti120  1  0.88407237  0.49174459  0.36861714  1
  Ti  Ti121  1  0.40486902  0.19847597  0.00967483  1
  Ti  Ti122  1  0.29712892  0.69823446  0.87116603  1
  Ti  Ti123  1  0.30569460  0.10155376  0.88481523  1
  Ti  Ti124  1  0.50449298  0.30532285  0.88487941  1
  Ti  Ti125  1  0.69504064  0.49556879  0.87149861  1
  Ti  Ti126  1  0.90403435  0.09742867  0.11546553  1
  Ti  Ti127  1  0.50063879  0.91408201  0.88630973  1
  Ti  Ti128  1  0.80413881  0.79269708  0.24063266  1
  Ti  Ti129  1  0.39959096  0.59655631  0.75855691  1
  Ti  Ti130  1  0.20576154  0.00561483  0.74784807  1
  Ti  Ti131  1  0.40078037  0.20822894  0.75414491  1
  Ti  Ti132  1  0.69415678  0.90643627  0.36757499  1
  Ti  Ti133  1  0.88291488  0.48848958  0.13254593  1
  Ti  Ti134  1  0.20534933  0.60920799  -0.00818099  1
  Ti  Ti135  1  0.78816717  0.79482377  0.00569409  1
  Ti  Ti136  1  0.20352614  0.80993670  0.75769824  1
  Ti  Ti137  1  0.20806988  0.39998968  0.75109589  1
  Ti  Ti138  1  0.79137157  0.79887375  0.74380165  1
  Ti  Ti139  1  0.59959287  -0.00721568  0.73934385  1
  Ti  Ti140  1  0.59540704  -0.00346791  0.02726048  1
  Ti  Ti141  1  0.70600298  0.30329194  0.61468979  1
  Ti  Ti142  1  0.60727754  0.80042501  0.74236285  1
  Ti  Ti143  1  0.09165352  0.09332025  0.11683696  1
  Ti  Ti144  1  0.60312707  0.40561439  -0.00362157  1
  Ti  Ti145  1  0.60740351  0.40895881  0.50458689  1
  Ti  Ti146  1  -0.00126505  0.00047546  0.50331993  1
  Ti  Ti147  1  0.59682316  0.79811209  0.50548051  1
  Ti  Ti148  1  0.50355817  0.50890491  0.10999813  1
  Ti  Ti149  1  0.89272728  0.89796021  0.87021299  1
  Ti  Ti150  1  0.61505503  0.41250747  0.24623597  1
  Ti  Ti151  1  0.31192903  0.30264230  0.38112522  1
  Ti  Ti152  1  0.08841998  0.89786083  0.86346335  1
  Ti  Ti153  1  0.71381712  0.31380240  0.13220651  1
  Ti  Ti154  1  0.70754525  0.11252050  0.62071147  1
  Ti  Ti155  1  0.00803293  0.37907664  0.48668383  1
  Ti  Ti156  1  0.78944261  0.59522420  0.50861019  1
  Ti  Ti157  1  0.30103754  0.50191736  0.62756425  1
  Ti  Ti158  1  0.49455465  0.49797478  0.88351206  1
  Ti  Ti159  1  0.30521936  0.31080082  0.61366504  1
  Mo  Mo160  1  0.10027203  0.29516756  0.88015867  1
  Mo  Mo161  1  0.41219470  0.40074336  -0.00460869  1
  Mo  Mo162  1  0.80313622  0.40421756  0.25361706  1
  Mo  Mo163  1  0.40074130  0.60264161  -0.00915309  1
  Mo  Mo164  1  0.40182510  0.80189745  0.24852043  1
  Mo  Mo165  1  0.00640001  0.19438277  0.75649096  1
  Mo  Mo166  1  -0.01047842  0.80162830  -0.00908913  1
  Mo  Mo167  1  -0.01681681  0.00295629  0.24617911  1
  Mo  Mo168  1  0.69622009  0.30331625  0.87678817  1
  Mo  Mo169  1  0.69946255  0.89240043  0.12471732  1
  Mo  Mo170  1  0.61226907  0.19926169  0.49869703  1
  Mo  Mo171  1  0.69852879  0.49210423  0.62264068  1
  Mo  Mo172  1  0.69045360  0.49466450  0.12567714  1
  Mo  Mo173  1  0.30200361  0.70515960  0.38473999  1
  Mo  Mo174  1  0.90583961  0.28994319  0.88186445  1
  Mo  Mo175  1  0.08273911  0.90625247  0.11687981  1
  Mo  Mo176  1  0.69134335  0.70046180  0.62557905  1
  Mo  Mo177  1  0.60232143  0.80867844  0.01899989  1
  Mo  Mo178  1  0.39487792  0.20624129  0.48694157  1
  Mo  Mo179  1  0.30045718  0.90523959  0.63273630  1
  Mo  Mo180  1  0.30329230  0.89500615  0.36007233  1
  Mo  Mo181  1  0.10375127  0.30130217  0.37251540  1
  Mo  Mo182  1  0.81193781  0.19678491  0.00428307  1
  Mo  Mo183  1  0.00258515  0.19072184  0.48242499  1
  Mo  Mo184  1  0.09551552  0.09315358  0.38564039  1
  Mo  Mo185  1  0.50366055  0.50767304  0.37603080  1
  Mo  Mo186  1  0.70827414  0.10505678  0.12628972  1
  Mo  Mo187  1  0.29906746  0.69817760  0.11435729  1
  Mo  Mo188  1  0.89750744  0.09212663  0.62287776  1
  Mo  Mo189  1  0.20952646  0.19044332  0.00952585  1
  Mo  Mo190  1  0.21779905  0.78181706  0.27004224  1
  Mo  Mo191  1  0.70228982  0.70497379  0.87433417  1
  Mo  Mo192  1  0.49756476  0.10328702  0.11859607  1
  Mo  Mo193  1  0.69173195  0.89769047  0.63715370  1
  Mo  Mo194  1  0.40084971  0.00590158  0.23586520  1
  Mo  Mo195  1  0.19459055  0.59974310  0.25258696  1
  Mo  Mo196  1  -0.00170868  0.80488013  0.75570295  1
  Mo  Mo197  1  0.79670343  0.19633673  0.49517569  1
  Mo  Mo198  1  0.90569884  0.29847095  0.38302165  1
  Mo  Mo199  1  0.79660324  0.38961663  0.75037886  1
