# generated using pymatgen
data_HfZrTaTiMo
_symmetry_space_group_name_H-M   'P 1'
_cell_length_a   15.21833780
_cell_length_b   15.20807591
_cell_length_c   16.85069784
_cell_angle_alpha   90.04726884
_cell_angle_beta   90.04429629
_cell_angle_gamma   89.98713605
_symmetry_Int_Tables_number   1
_chemical_formula_structural   HfZrTaTiMo
_chemical_formula_sum   'Hf40 Zr40 Ta40 Ti40 Mo40'
_cell_volume   3899.95049546
_cell_formula_units_Z   40
loop_
 _symmetry_equiv_pos_site_id
 _symmetry_equiv_pos_as_xyz
  1  'x, y, z'
loop_
 _atom_site_type_symbol
 _atom_site_label
 _atom_site_symmetry_multiplicity
 _atom_site_fract_x
 _atom_site_fract_y
 _atom_site_fract_z
 _atom_site_occupancy
  Hf  Hf0  1  0.48615817  0.70268317  0.85748894  1
  Hf  Hf1  1  0.58984798  0.80110433  -0.00578111  1
  Hf  Hf2  1  -0.00747630  0.39897365  0.00422841  1
  Hf  Hf3  1  0.29666158  0.52807447  0.63277394  1
  Hf  Hf4  1  0.79582509  0.59537328  0.26734076  1
  Hf  Hf5  1  0.89535690  0.90889364  0.62623573  1
  Hf  Hf6  1  0.59340766  0.40790147  -0.00641742  1
  Hf  Hf7  1  0.31087144  0.89074380  0.37266761  1
  Hf  Hf8  1  0.70691783  0.08789734  0.11984895  1
  Hf  Hf9  1  0.08988308  0.09177394  0.37468227  1
  Hf  Hf10  1  0.59250696  0.20489877  0.01725496  1
  Hf  Hf11  1  0.70014497  0.70647235  0.12537990  1
  Hf  Hf12  1  0.50462401  0.10558669  0.87245449  1
  Hf  Hf13  1  0.10334468  0.69810767  0.37681073  1
  Hf  Hf14  1  0.10705278  0.29740966  0.87676148  1
  Hf  Hf15  1  0.88464464  0.30471105  0.62324420  1
  Hf  Hf16  1  0.00547031  -0.00347760  -0.00151163  1
  Hf  Hf17  1  0.10761452  0.89668067  0.86657587  1
  Hf  Hf18  1  0.70298136  0.49884205  0.12026346  1
  Hf  Hf19  1  0.60593843  0.79379826  0.72760485  1
  Hf  Hf20  1  0.48691081  0.09613744  0.12984952  1
  Hf  Hf21  1  0.69370214  0.29740073  0.37208765  1
  Hf  Hf22  1  -0.00544488  0.19952442  0.50564265  1
  Hf  Hf23  1  0.89900616  0.49773073  0.62058417  1
  Hf  Hf24  1  0.20696013  -0.00501417  0.51310350  1
  Hf  Hf25  1  0.20204642  0.59817517  0.02135633  1
  Hf  Hf26  1  -0.00775308  0.19402137  0.23880709  1
  Hf  Hf27  1  0.09104734  0.09254380  0.63247744  1
  Hf  Hf28  1  0.59712426  0.38227252  0.74933299  1
  Hf  Hf29  1  0.01192910  0.60507778  0.73872668  1
  Hf  Hf30  1  0.31751486  0.90563703  0.13595646  1
  Hf  Hf31  1  0.09041497  0.50308605  0.88209505  1
  Hf  Hf32  1  0.78918147  0.80801119  0.26850969  1
  Hf  Hf33  1  0.90962546  0.70946022  0.61690569  1
  Hf  Hf34  1  0.40897792  0.41657226  0.51250546  1
  Hf  Hf35  1  0.89360301  0.90503032  0.13214856  1
  Hf  Hf36  1  -0.00378711  0.40397632  0.75450405  1
  Hf  Hf37  1  0.40546662  0.61062267  -0.00019912  1
  Hf  Hf38  1  0.01750460  0.59468562  0.50493275  1
  Hf  Hf39  1  0.60649800  -0.00939893  0.25794369  1
  Zr  Zr40  1  0.40514433  0.01103474  0.50251237  1
  Zr  Zr41  1  0.49086750  0.70406669  0.39263459  1
  Zr  Zr42  1  0.40011102  0.21565979  0.50497157  1
  Zr  Zr43  1  0.30786842  0.88715011  0.87410682  1
  Zr  Zr44  1  -0.01021809  0.79945042  -0.00112058  1
  Zr  Zr45  1  0.10619672  0.49709514  0.36231528  1
  Zr  Zr46  1  -0.00752165  0.39911823  0.24442326  1
  Zr  Zr47  1  0.10517891  0.29233644  0.36931590  1
  Zr  Zr48  1  0.69371138  0.29031647  0.88224439  1
  Zr  Zr49  1  0.40564076  0.41867823  0.75868704  1
  Zr  Zr50  1  0.79210785  0.59315180  0.49992539  1
  Zr  Zr51  1  -0.00661336  0.19792763  0.74742506  1
  Zr  Zr52  1  0.69985368  0.08894312  0.88805553  1
  Zr  Zr53  1  0.88626226  0.11306190  0.36966563  1
  Zr  Zr54  1  0.40663171  0.20998013  0.74919389  1
  Zr  Zr55  1  0.20557263  0.80365927  0.01894760  1
  Zr  Zr56  1  0.20114603  0.20092933  0.51403971  1
  Zr  Zr57  1  0.20703580  0.19647769  0.00033565  1
  Zr  Zr58  1  0.22029391  -0.00989832  0.73136766  1
  Zr  Zr59  1  0.20269458  0.40793470  0.49953131  1
  Zr  Zr60  1  0.60100948  0.20101344  0.23823273  1
  Zr  Zr61  1  0.89001825  0.69814942  0.12994736  1
  Zr  Zr62  1  0.18487841  -0.00423417  0.24444131  1
  Zr  Zr63  1  0.20133448  0.79465334  0.24266269  1
  Zr  Zr64  1  0.59419943  0.59888107  0.24984896  1
  Zr  Zr65  1  0.29859916  0.10962632  0.36773197  1
  Zr  Zr66  1  0.50007404  0.90789691  0.86195069  1
  Zr  Zr67  1  0.39779303  0.39975703  -0.02267322  1
  Zr  Zr68  1  0.20574392  0.59019242  0.23715107  1
  Zr  Zr69  1  0.10627068  0.29723321  0.12506184  1
  Zr  Zr70  1  0.78347806  0.19301587  0.74692100  1
  Zr  Zr71  1  0.09579870  0.89211482  0.38760780  1
  Zr  Zr72  1  0.29366090  0.52818461  0.86528772  1
  Zr  Zr73  1  0.11114613  0.69854367  0.88194572  1
  Zr  Zr74  1  0.60137544  0.60389265  -0.00602832  1
  Zr  Zr75  1  0.51552789  0.49854156  0.37936010  1
  Zr  Zr76  1  0.09883135  0.86860655  0.61637210  1
  Zr  Zr77  1  0.77707791  0.20457099  0.50548976  1
  Zr  Zr78  1  0.78337664  0.80512141  0.50349976  1
  Zr  Zr79  1  0.10591984  0.09525721  0.86545150  1
  Ta  Ta80  1  0.80008497  0.40093903  0.75996361  1
  Ta  Ta81  1  0.80269212  -0.01243179  -0.00454104  1
  Ta  Ta82  1  0.30123037  0.69185921  0.37904978  1
  Ta  Ta83  1  0.89728691  0.29819039  0.88027230  1
  Ta  Ta84  1  0.20639422  0.40277329  0.00169394  1
  Ta  Ta85  1  0.70183808  0.89097283  0.86950023  1
  Ta  Ta86  1  0.48968362  0.32048406  0.12687461  1
  Ta  Ta87  1  0.68384356  0.70015711  0.38744814  1
  Ta  Ta88  1  0.22909977  0.38639714  0.24969541  1
  Ta  Ta89  1  0.39893448  0.00065937  0.00150225  1
  Ta  Ta90  1  -0.00844634  0.59670643  0.00608976  1
  Ta  Ta91  1  0.70011551  0.50578533  0.86434094  1
  Ta  Ta92  1  -0.01223294  -0.00286309  0.50270524  1
  Ta  Ta93  1  0.61113898  0.38685689  0.51332784  1
  Ta  Ta94  1  0.20766141  0.00060814  0.00843360  1
  Ta  Ta95  1  0.39525832  0.21936457  0.25438193  1
  Ta  Ta96  1  0.89750007  0.09889867  0.88251043  1
  Ta  Ta97  1  0.80301511  0.79636054  0.74604124  1
  Ta  Ta98  1  0.89802754  0.49636482  0.38158728  1
  Ta  Ta99  1  0.80673562  0.20507066  0.01245667  1
  Ta  Ta100  1  -0.00462778  0.19672228  0.00464381  1
  Ta  Ta101  1  0.59826893  0.59141945  0.51993821  1
  Ta  Ta102  1  0.32355488  0.70202469  0.13763395  1
  Ta  Ta103  1  0.29766899  0.31189460  0.63665852  1
  Ta  Ta104  1  0.51327725  0.10893392  0.37788551  1
  Ta  Ta105  1  0.89678236  0.50030636  0.12548318  1
  Ta  Ta106  1  0.60293976  0.39840459  0.24097655  1
  Ta  Ta107  1  0.70015712  0.69686122  0.85878650  1
  Ta  Ta108  1  0.21246414  0.76926456  0.73955194  1
  Ta  Ta109  1  0.51106972  0.11228782  0.62542396  1
  Ta  Ta110  1  0.51250262  0.90836489  0.61335393  1
  Ta  Ta111  1  0.30703065  0.09544468  0.86860083  1
  Ta  Ta112  1  0.90544761  0.70557969  0.38283017  1
  Ta  Ta113  1  0.30108964  0.10526721  0.13293111  1
  Ta  Ta114  1  0.78763159  0.00185278  0.48966191  1
  Ta  Ta115  1  -0.00193104  0.80875016  0.25012991  1
  Ta  Ta116  1  -0.00302151  0.39621469  0.49841463  1
  Ta  Ta117  1  0.60644106  0.00330141  0.74197661  1
  Ta  Ta118  1  0.59213252  0.80147062  0.25817736  1
  Ta  Ta119  1  0.48478185  0.69169088  0.61845967  1
  Ti  Ti120  1  0.79844782  0.59985520  0.74263976  1
  Ti  Ti121  1  0.39515038  0.20285883  -0.00957157  1
  Ti  Ti122  1  0.79834112  0.00730146  0.26158500  1
  Ti  Ti123  1  0.09816903  0.31126634  0.63002428  1
  Ti  Ti124  1  0.88880129  0.09615557  0.62322814  1
  Ti  Ti125  1  0.31729809  0.50074781  0.36842222  1
  Ti  Ti126  1  0.69330578  0.08885117  0.61980530  1
  Ti  Ti127  1  0.89371380  0.30786899  0.37750253  1
  Ti  Ti128  1  0.49458069  0.30545452  0.37308719  1
  Ti  Ti129  1  0.09917958  0.49539354  0.12854775  1
  Ti  Ti130  1  0.00202264  0.79720453  0.75365935  1
  Ti  Ti131  1  -0.00816059  -0.00577524  0.75478948  1
  Ti  Ti132  1  0.70134061  0.48480339  0.63242214  1
  Ti  Ti133  1  0.09645531  0.08806551  0.12619364  1
  Ti  Ti134  1  0.89996074  0.09707231  0.12320006  1
  Ti  Ti135  1  -0.00648672  0.60340167  0.24963760  1
  Ti  Ti136  1  0.59576742  -0.00653761  0.00385327  1
  Ti  Ti137  1  0.39578676  0.81293632  0.72705120  1
  Ti  Ti138  1  0.49967057  0.70324150  0.13239729  1
  Ti  Ti139  1  0.20695219  0.20376620  0.74361658  1
  Ti  Ti140  1  0.20185243  0.19845645  0.24481648  1
  Ti  Ti141  1  0.52051837  0.89791011  0.39808916  1
  Ti  Ti142  1  0.80403686  0.59692991  -0.01216884  1
  Ti  Ti143  1  0.19858984  0.40335904  0.75199836  1
  Ti  Ti144  1  0.69777743  0.89456601  0.12108041  1
  Ti  Ti145  1  0.89700618  0.68950214  0.86822509  1
  Ti  Ti146  1  0.89514388  0.89495383  0.86906304  1
  Ti  Ti147  1  0.08893947  0.70145609  0.12902414  1
  Ti  Ti148  1  0.39288896  0.80461619  0.51094217  1
  Ti  Ti149  1  0.79372070  0.79290620  -0.01323824  1
  Ti  Ti150  1  0.30779344  0.29911920  0.12131196  1
  Ti  Ti151  1  0.41144674  0.00029718  0.26392946  1
  Ti  Ti152  1  0.58717288  0.58829039  0.73848312  1
  Ti  Ti153  1  0.90172926  0.90542287  0.37706413  1
  Ti  Ti154  1  0.79805215  -0.00533823  0.75447841  1
  Ti  Ti155  1  0.80098917  0.40490589  -0.00612362  1
  Ti  Ti156  1  0.79578202  0.21401971  0.22993133  1
  Ti  Ti157  1  0.32715421  0.49183795  0.13109117  1
  Ti  Ti158  1  0.79600356  0.39917594  0.24790637  1
  Ti  Ti159  1  0.50180797  0.89172814  0.12809867  1
  Mo  Mo160  1  0.39793016  0.60055518  0.49868095  1
  Mo  Mo161  1  0.31026968  0.89715282  0.61913867  1
  Mo  Mo162  1  -0.00669350  0.79927100  0.49402697  1
  Mo  Mo163  1  0.60125990  0.19145124  0.74656003  1
  Mo  Mo164  1  0.70341719  0.49024071  0.38022827  1
  Mo  Mo165  1  0.70072176  0.68583947  0.63766275  1
  Mo  Mo166  1  0.70281786  0.30737183  0.12065748  1
  Mo  Mo167  1  0.40785596  0.80517473  0.00792097  1
  Mo  Mo168  1  0.20462946  0.79156213  0.49649388  1
  Mo  Mo169  1  0.10377632  0.48598358  0.62535036  1
  Mo  Mo170  1  0.41217937  0.40687216  0.25125153  1
  Mo  Mo171  1  0.49640788  0.50865428  0.12709841  1
  Mo  Mo172  1  0.70420374  0.90474564  0.63192444  1
  Mo  Mo173  1  0.09516433  0.89914999  0.12500802  1
  Mo  Mo174  1  0.50518846  0.50256154  0.62821652  1
  Mo  Mo175  1  0.50857603  0.50992178  0.86179550  1
  Mo  Mo176  1  0.49544327  0.29621798  0.88227507  1
  Mo  Mo177  1  0.21451233  0.59441713  0.48824642  1
  Mo  Mo178  1  0.19508485  0.59660337  0.74720654  1
  Mo  Mo179  1  0.69414447  0.09844640  0.37183839  1
  Mo  Mo180  1  0.79715424  0.40175226  0.49455954  1
  Mo  Mo181  1  0.69568239  0.89760074  0.37838423  1
  Mo  Mo182  1  0.60825321  0.00289306  0.49879949  1
  Mo  Mo183  1  0.30809492  0.31065223  0.37301148  1
  Mo  Mo184  1  0.88924912  0.50808408  0.87240729  1
  Mo  Mo185  1  0.11664881  0.68148656  0.61213697  1
  Mo  Mo186  1  0.29250287  0.71194548  0.60794529  1
  Mo  Mo187  1  0.88972588  0.30420598  0.11899236  1
  Mo  Mo188  1  0.29763877  0.71084549  0.87807727  1
  Mo  Mo189  1  -0.01359467  -0.00449248  0.24687665  1
  Mo  Mo190  1  0.50426542  0.30476058  0.62284626  1
  Mo  Mo191  1  0.68942795  0.29182830  0.62754894  1
  Mo  Mo192  1  0.40129874  0.60530835  0.25040714  1
  Mo  Mo193  1  0.39088527  0.62907527  0.74468522  1
  Mo  Mo194  1  0.58962148  0.19638113  0.49752804  1
  Mo  Mo195  1  0.41565017  0.80696496  0.25855920  1
  Mo  Mo196  1  0.29157978  0.29503314  0.86624504  1
  Mo  Mo197  1  0.41027175  0.00442241  0.73060728  1
  Mo  Mo198  1  0.30566750  0.10622707  0.63305933  1
  Mo  Mo199  1  0.60048073  0.79548223  0.52077812  1
