# generated using pymatgen
data_HfZrTaTiMo
_symmetry_space_group_name_H-M   'P 1'
_cell_length_a   15.20649919
_cell_length_b   15.20868677
_cell_length_c   16.83418167
_cell_angle_alpha   89.96261304
_cell_angle_beta   90.04992075
_cell_angle_gamma   89.87694040
_symmetry_Int_Tables_number   1
_chemical_formula_structural   HfZrTaTiMo
_chemical_formula_sum   'Hf40 Zr40 Ta40 Ti40 Mo40'
_cell_volume   3893.24476880
_cell_formula_units_Z   40
loop_
 _symmetry_equiv_pos_site_id
 _symmetry_equiv_pos_as_xyz
  1  'x, y, z'
loop_
 _atom_site_type_symbol
 _atom_site_label
 _atom_site_symmetry_multiplicity
 _atom_site_fract_x
 _atom_site_fract_y
 _atom_site_fract_z
 _atom_site_occupancy
  Hf  Hf0  1  0.38681708  0.21695740  0.01380419  1
  Hf  Hf1  1  0.29819209  0.90384567  0.88350278  1
  Hf  Hf2  1  0.18879273  0.60098255  0.76835594  1
  Hf  Hf3  1  0.61293253  0.59836675  0.74472718  1
  Hf  Hf4  1  0.49896757  0.89377643  0.87340559  1
  Hf  Hf5  1  0.60072320  0.20261967  0.24332820  1
  Hf  Hf6  1  0.00612810  -0.01175330  0.73605986  1
  Hf  Hf7  1  0.88591668  0.30672982  0.62884329  1
  Hf  Hf8  1  0.29370641  0.10471420  0.61394386  1
  Hf  Hf9  1  0.40810640  0.19438017  0.76066884  1
  Hf  Hf10  1  0.90394676  0.50949652  0.11498032  1
  Hf  Hf11  1  0.79517034  0.61710654  -0.00800449  1
  Hf  Hf12  1  0.00145514  0.19736516  0.74710002  1
  Hf  Hf13  1  -0.00472809  0.77799948  0.77247316  1
  Hf  Hf14  1  0.08272616  0.51017696  0.36485689  1
  Hf  Hf15  1  0.39505562  0.60025160  0.49989250  1
  Hf  Hf16  1  0.29339123  0.91024433  0.13082529  1
  Hf  Hf17  1  0.29481212  0.48825026  0.13494698  1
  Hf  Hf18  1  0.59650300  0.80303257  0.73658124  1
  Hf  Hf19  1  0.52099298  0.30353851  0.37788196  1
  Hf  Hf20  1  0.68656454  0.10151684  0.37639751  1
  Hf  Hf21  1  0.41223153  0.40593194  0.25518840  1
  Hf  Hf22  1  0.49724089  0.11752502  0.61270658  1
  Hf  Hf23  1  0.20287293  0.78699150  0.00080326  1
  Hf  Hf24  1  0.39865355  0.01027335  0.00801423  1
  Hf  Hf25  1  0.80150619  0.80090464  0.26258343  1
  Hf  Hf26  1  0.72098933  0.50175587  0.62100065  1
  Hf  Hf27  1  0.40913060  0.39657914  0.74679177  1
  Hf  Hf28  1  0.29332776  0.70348648  0.62575535  1
  Hf  Hf29  1  0.19245258  0.60715460  0.49484490  1
  Hf  Hf30  1  0.80250130  0.20294824  0.25303679  1
  Hf  Hf31  1  0.19759614  0.40781766  0.49615584  1
  Hf  Hf32  1  0.80257940  0.38870706  0.48461636  1
  Hf  Hf33  1  0.30977537  0.29869023  0.62113038  1
  Hf  Hf34  1  0.79654411  -0.00741359  0.49345678  1
  Hf  Hf35  1  0.40096005  0.81371783  0.49895409  1
  Hf  Hf36  1  -0.00058264  0.40257109  0.75609072  1
  Hf  Hf37  1  0.60191192  0.00087471  -0.00700578  1
  Hf  Hf38  1  0.81573848  0.79766395  0.48619573  1
  Hf  Hf39  1  0.01146054  0.19098636  0.24126091  1
  Zr  Zr40  1  0.67399568  0.29993718  0.60695448  1
  Zr  Zr41  1  -0.00991807  0.79054852  -0.00438009  1
  Zr  Zr42  1  0.82432477  0.59129545  0.49058734  1
  Zr  Zr43  1  0.39894810  -0.00694445  0.74417823  1
  Zr  Zr44  1  0.70685457  0.90637626  0.12756177  1
  Zr  Zr45  1  0.19682668  0.00809509  0.74679413  1
  Zr  Zr46  1  0.81526553  0.01525904  -0.00858817  1
  Zr  Zr47  1  0.51111060  0.70318032  0.38586319  1
  Zr  Zr48  1  0.41480206  -0.00004361  0.25959923  1
  Zr  Zr49  1  0.61480249  0.78702876  0.00176373  1
  Zr  Zr50  1  0.10047473  0.30129412  0.37175187  1
  Zr  Zr51  1  0.59542695  0.02212124  0.75487323  1
  Zr  Zr52  1  0.19935521  0.39845284  0.76293509  1
  Zr  Zr53  1  -0.00621109  0.19046678  0.00940971  1
  Zr  Zr54  1  0.40291394  0.59550329  0.00305855  1
  Zr  Zr55  1  0.19746604  0.80987150  0.75226326  1
  Zr  Zr56  1  0.69835851  0.10390071  0.61515631  1
  Zr  Zr57  1  0.39874436  0.79895511  0.25406357  1
  Zr  Zr58  1  0.59291744  0.80701807  0.24274491  1
  Zr  Zr59  1  0.89687113  0.29036645  0.88300081  1
  Zr  Zr60  1  0.29983308  0.69016908  0.13481682  1
  Zr  Zr61  1  0.50299060  0.29297765  0.89348822  1
  Zr  Zr62  1  0.80088764  0.59072291  0.25750915  1
  Zr  Zr63  1  0.28592696  0.11254268  0.88929003  1
  Zr  Zr64  1  -0.00918527  0.19903420  0.50266798  1
  Zr  Zr65  1  0.31899555  0.69981908  0.86958130  1
  Zr  Zr66  1  0.89381524  0.87061246  0.63700253  1
  Zr  Zr67  1  0.21707599  0.37713938  -0.00234316  1
  Zr  Zr68  1  0.07832886  0.09007633  0.88824482  1
  Zr  Zr69  1  0.09349718  0.68421585  0.12713791  1
  Zr  Zr70  1  0.79323058  0.39511234  0.24717707  1
  Zr  Zr71  1  0.41571962  0.80537068  0.01853717  1
  Zr  Zr72  1  0.39764646  0.39887542  0.49097381  1
  Zr  Zr73  1  0.92779842  0.69165148  0.36205448  1
  Zr  Zr74  1  0.10326065  0.30134348  0.61867880  1
  Zr  Zr75  1  0.51277534  0.48906896  0.61571014  1
  Zr  Zr76  1  0.08014008  0.71237092  0.62091309  1
  Zr  Zr77  1  0.90052095  0.91175536  0.86646088  1
  Zr  Zr78  1  -0.00310127  -0.01727757  0.51298699  1
  Zr  Zr79  1  0.50403968  0.50232605  0.87669131  1
  Ta  Ta80  1  0.70321404  0.10485624  0.12339355  1
  Ta  Ta81  1  0.80359475  0.40326129  0.00385112  1
  Ta  Ta82  1  0.68699047  0.49393293  0.38272383  1
  Ta  Ta83  1  0.69358448  0.50335151  0.11388111  1
  Ta  Ta84  1  0.69529987  0.12047583  0.88058309  1
  Ta  Ta85  1  0.07831458  0.90164367  0.37067335  1
  Ta  Ta86  1  0.29024634  0.11233307  0.13747828  1
  Ta  Ta87  1  0.19265113  0.80582588  0.25313561  1
  Ta  Ta88  1  0.71877532  0.70492401  0.62093532  1
  Ta  Ta89  1  0.69924253  0.30783384  0.89391160  1
  Ta  Ta90  1  0.29691278  0.30166615  0.35631290  1
  Ta  Ta91  1  0.50033095  0.30798708  0.12132254  1
  Ta  Ta92  1  0.61317914  0.38496478  0.75612125  1
  Ta  Ta93  1  0.50477028  0.09817972  0.12605450  1
  Ta  Ta94  1  0.09780373  0.09431647  0.37723302  1
  Ta  Ta95  1  0.61065072  0.80737880  0.51156845  1
  Ta  Ta96  1  0.70058561  0.50463042  0.88304783  1
  Ta  Ta97  1  0.50814826  0.69896489  0.61326036  1
  Ta  Ta98  1  0.09004079  0.51077685  0.62699261  1
  Ta  Ta99  1  0.18529443  0.00251217  0.25525556  1
  Ta  Ta100  1  0.77566394  0.21250602  0.75081579  1
  Ta  Ta101  1  0.58425697  -0.00602156  0.49963370  1
  Ta  Ta102  1  0.40531923  0.60275417  0.73999319  1
  Ta  Ta103  1  0.70406402  0.90142914  0.86133650  1
  Ta  Ta104  1  0.19998881  0.20427953  0.75342827  1
  Ta  Ta105  1  0.29314983  0.50339698  0.36083787  1
  Ta  Ta106  1  0.59921041  0.59193517  0.25013841  1
  Ta  Ta107  1  -0.00113494  0.40226924  0.23892093  1
  Ta  Ta108  1  0.29199579  0.10643816  0.36586628  1
  Ta  Ta109  1  0.39441248  0.00551868  0.48425814  1
  Ta  Ta110  1  -0.00908550  0.42012815  0.50306787  1
  Ta  Ta111  1  0.29187271  0.50462473  0.63154363  1
  Ta  Ta112  1  0.10229231  0.90114690  0.89270453  1
  Ta  Ta113  1  0.19366733  0.58388520  -0.01526749  1
  Ta  Ta114  1  0.90481849  0.30096656  0.11750914  1
  Ta  Ta115  1  0.90973494  0.08251158  0.36330456  1
  Ta  Ta116  1  0.89446885  0.70609139  0.13061061  1
  Ta  Ta117  1  0.88670574  0.09706487  0.63789633  1
  Ta  Ta118  1  0.68403507  0.89796058  0.37207445  1
  Ta  Ta119  1  0.89725920  0.09146263  0.13640322  1
  Ti  Ti120  1  0.81213088  0.60841717  0.76154612  1
  Ti  Ti121  1  0.29650854  0.70203845  0.37072860  1
  Ti  Ti122  1  0.60678534  0.40342915  0.24289177  1
  Ti  Ti123  1  0.09811568  0.89702229  0.12062812  1
  Ti  Ti124  1  0.90061970  0.49223540  0.88839463  1
  Ti  Ti125  1  0.11722796  0.29406635  0.12781992  1
  Ti  Ti126  1  0.70129492  0.90688979  0.63375587  1
  Ti  Ti127  1  0.18949662  0.81443670  0.49476862  1
  Ti  Ti128  1  0.40402432  0.20230496  0.25060127  1
  Ti  Ti129  1  0.40210348  0.19973959  0.48086072  1
  Ti  Ti130  1  0.70376332  0.69264924  0.13112012  1
  Ti  Ti131  1  0.51560021  0.69484409  0.87278993  1
  Ti  Ti132  1  0.10841331  0.70935673  0.37093760  1
  Ti  Ti133  1  0.00222458  0.59645248  -0.01693802  1
  Ti  Ti134  1  0.40374097  0.80058898  0.73276522  1
  Ti  Ti135  1  0.90144701  0.90148483  0.12714133  1
  Ti  Ti136  1  0.70077252  0.29919592  0.10655774  1
  Ti  Ti137  1  0.30979359  0.48810077  0.87689391  1
  Ti  Ti138  1  0.19311068  0.59926006  0.25272400  1
  Ti  Ti139  1  0.79560123  -0.00196750  0.25764246  1
  Ti  Ti140  1  0.00211287  0.80676349  0.24308771  1
  Ti  Ti141  1  -0.00377136  0.59014315  0.77108700  1
  Ti  Ti142  1  0.19794380  0.00179582  0.49069493  1
  Ti  Ti143  1  0.80182600  0.19304945  0.48566358  1
  Ti  Ti144  1  0.10057993  0.09956552  0.61583910  1
  Ti  Ti145  1  0.40758498  0.60235436  0.25722113  1
  Ti  Ti146  1  0.50245846  0.50510031  0.12349995  1
  Ti  Ti147  1  0.79872853  0.41148812  0.76122880  1
  Ti  Ti148  1  0.80076135  0.80730335  -0.00961026  1
  Ti  Ti149  1  0.51058506  0.69250022  0.12794492  1
  Ti  Ti150  1  0.59508327  0.40892497  0.00519756  1
  Ti  Ti151  1  0.10683536  0.29129073  0.88771086  1
  Ti  Ti152  1  0.69679998  0.69264550  0.38224040  1
  Ti  Ti153  1  0.09837977  0.48843852  0.11836387  1
  Ti  Ti154  1  0.10394798  0.08672137  0.11884352  1
  Ti  Ti155  1  0.29567691  0.90631189  0.61518210  1
  Ti  Ti156  1  0.50530747  0.50893033  0.38337872  1
  Ti  Ti157  1  0.20341768  0.20068250  0.48909100  1
  Ti  Ti158  1  0.90851054  0.29766663  0.36927758  1
  Ti  Ti159  1  0.28710797  0.90218781  0.37139945  1
  Mo  Mo160  1  0.50360625  0.10009510  0.88940979  1
  Mo  Mo161  1  0.59424867  0.19712148  0.48712572  1
  Mo  Mo162  1  0.79624962  0.20278130  0.00749293  1
  Mo  Mo163  1  0.49788258  0.90276459  0.61748637  1
  Mo  Mo164  1  0.60313317  0.60021026  0.00361266  1
  Mo  Mo165  1  0.00306213  0.59838773  0.23641567  1
  Mo  Mo166  1  0.79317025  0.00555627  0.75032965  1
  Mo  Mo167  1  0.19531190  -0.00249025  0.01129131  1
  Mo  Mo168  1  -0.00117460  -0.00866811  0.23642822  1
  Mo  Mo169  1  0.49357434  0.10374576  0.37712000  1
  Mo  Mo170  1  0.19379205  0.40113641  0.24705260  1
  Mo  Mo171  1  0.30164690  0.29732286  0.15217649  1
  Mo  Mo172  1  0.61296300  0.60823563  0.50709675  1
  Mo  Mo173  1  0.59509123  0.21253091  0.75671966  1
  Mo  Mo174  1  0.11092026  0.90324760  0.61407799  1
  Mo  Mo175  1  0.40508453  0.40493579  0.01310692  1
  Mo  Mo176  1  0.90437065  0.48476942  0.36497413  1
  Mo  Mo177  1  0.60557216  0.00610481  0.24599776  1
  Mo  Mo178  1  0.89787294  0.67634408  0.63137647  1
  Mo  Mo179  1  0.10276239  0.69463132  0.88235014  1
  Mo  Mo180  1  0.09305868  0.48636766  0.88946624  1
  Mo  Mo181  1  0.00232111  -0.01286292  0.02227145  1
  Mo  Mo182  1  0.00444114  0.59801994  0.50062038  1
  Mo  Mo183  1  0.60246766  0.40833636  0.49425416  1
  Mo  Mo184  1  0.50368812  0.90450285  0.12161459  1
  Mo  Mo185  1  0.87997791  0.10647342  0.84522655  1
  Mo  Mo186  1  0.19843204  0.19089630  0.01208920  1
  Mo  Mo187  1  0.89179833  0.69393852  0.87761798  1
  Mo  Mo188  1  0.00790786  0.40132520  0.00647833  1
  Mo  Mo189  1  0.59995036  0.19956314  0.01653800  1
  Mo  Mo190  1  0.89681652  0.90154434  0.36577449  1
  Mo  Mo191  1  0.90514823  0.50295453  0.63750702  1
  Mo  Mo192  1  0.30012175  0.30071257  0.87148641  1
  Mo  Mo193  1  0.69989566  0.70747963  0.86493831  1
  Mo  Mo194  1  0.00532035  0.79004432  0.49321612  1
  Mo  Mo195  1  0.20004525  0.19600033  0.25159251  1
  Mo  Mo196  1  0.49548124  0.29565713  0.61712333  1
  Mo  Mo197  1  0.70529007  0.29958829  0.37721288  1
  Mo  Mo198  1  0.50336814  0.90630805  0.38216141  1
  Mo  Mo199  1  0.78976333  0.79246050  0.75406383  1
