# generated using pymatgen
data_HfZrTaTiMo
_symmetry_space_group_name_H-M   'P 1'
_cell_length_a   15.19855251
_cell_length_b   15.20295920
_cell_length_c   16.81751870
_cell_angle_alpha   90.02782048
_cell_angle_beta   89.91938347
_cell_angle_gamma   90.05623722
_symmetry_Int_Tables_number   1
_chemical_formula_structural   HfZrTaTiMo
_chemical_formula_sum   'Hf40 Zr40 Ta40 Ti40 Mo40'
_cell_volume   3885.89970498
_cell_formula_units_Z   40
loop_
 _symmetry_equiv_pos_site_id
 _symmetry_equiv_pos_as_xyz
  1  'x, y, z'
loop_
 _atom_site_type_symbol
 _atom_site_label
 _atom_site_symmetry_multiplicity
 _atom_site_fract_x
 _atom_site_fract_y
 _atom_site_fract_z
 _atom_site_occupancy
  Hf  Hf0  1  0.50770438  0.88046840  0.12342854  1
  Hf  Hf1  1  0.19141102  0.79041807  0.73695588  1
  Hf  Hf2  1  0.68966768  0.91098203  0.38264639  1
  Hf  Hf3  1  0.79681107  0.01324596  0.00038429  1
  Hf  Hf4  1  0.31481263  0.09164872  0.61829661  1
  Hf  Hf5  1  0.30263777  0.88698968  0.36643263  1
  Hf  Hf6  1  0.39409101  0.60296218  0.00277903  1
  Hf  Hf7  1  0.90439441  0.50544958  0.10259789  1
  Hf  Hf8  1  0.09345330  0.88805932  0.87764575  1
  Hf  Hf9  1  0.80332056  0.61961006  0.23474653  1
  Hf  Hf10  1  0.11418985  0.09939505  0.11269144  1
  Hf  Hf11  1  0.09798832  0.89470806  0.12897349  1
  Hf  Hf12  1  -0.00733292  0.78571120  0.25210961  1
  Hf  Hf13  1  0.59624218  0.00910021  0.74358869  1
  Hf  Hf14  1  0.38544404  0.59671498  0.74222720  1
  Hf  Hf15  1  0.18591284  0.18811537  0.51451512  1
  Hf  Hf16  1  0.29759493  0.89356947  0.87239342  1
  Hf  Hf17  1  0.49133645  0.91839109  0.62072062  1
  Hf  Hf18  1  0.27201682  0.48386323  0.36533245  1
  Hf  Hf19  1  0.90829720  0.10206844  0.13308258  1
  Hf  Hf20  1  0.38422075  0.58042602  0.51528108  1
  Hf  Hf21  1  0.11524942  0.30580730  0.37974659  1
  Hf  Hf22  1  0.79928469  0.82030297  0.00240691  1
  Hf  Hf23  1  0.69155545  0.50969428  0.11349788  1
  Hf  Hf24  1  0.28558301  0.29998266  0.11477282  1
  Hf  Hf25  1  0.48085975  0.50739749  0.36439947  1
  Hf  Hf26  1  0.30902337  0.09947409  0.11527695  1
  Hf  Hf27  1  0.70182183  0.30443521  0.12235083  1
  Hf  Hf28  1  0.31036116  0.30769794  0.63046911  1
  Hf  Hf29  1  0.60364230  0.40182676  0.75891957  1
  Hf  Hf30  1  0.80976544  0.39444917  0.75333168  1
  Hf  Hf31  1  0.60345908  0.80433424  0.50863695  1
  Hf  Hf32  1  0.40388521  0.21095323  -0.02065466  1
  Hf  Hf33  1  0.51397266  0.07239271  0.39445056  1
  Hf  Hf34  1  0.30270181  0.68361981  0.36246929  1
  Hf  Hf35  1  0.19555521  0.79303002  0.50879144  1
  Hf  Hf36  1  0.80092481  0.79969806  0.74245892  1
  Hf  Hf37  1  0.79754943  0.60213085  0.75183330  1
  Hf  Hf38  1  0.51095569  0.09059621  0.88404646  1
  Hf  Hf39  1  0.40860924  0.00417119  0.25335188  1
  Zr  Zr40  1  0.49952746  0.50859545  0.87314270  1
  Zr  Zr41  1  0.49077608  0.70836327  0.86647788  1
  Zr  Zr42  1  0.80537615  0.20919825  0.24577471  1
  Zr  Zr43  1  0.40044773  0.78794591  0.49969617  1
  Zr  Zr44  1  0.48602695  0.29441822  0.13173886  1
  Zr  Zr45  1  0.62040195  0.19955057  0.49825485  1
  Zr  Zr46  1  0.70948786  0.70703439  0.37244732  1
  Zr  Zr47  1  0.70110360  0.29904699  0.88391955  1
  Zr  Zr48  1  -0.00607788  0.20586538  0.76129787  1
  Zr  Zr49  1  0.62128853  -0.00997914  0.23905179  1
  Zr  Zr50  1  0.59384301  0.40394394  0.49263558  1
  Zr  Zr51  1  0.20065071  0.40574187  0.51512265  1
  Zr  Zr52  1  0.89638436  0.90026228  0.36827380  1
  Zr  Zr53  1  0.69684873  0.70528625  0.87813436  1
  Zr  Zr54  1  0.59425965  0.60170558  0.49490008  1
  Zr  Zr55  1  -0.00313252  -0.00649732  -0.00731994  1
  Zr  Zr56  1  0.59410982  0.19322652  0.25417609  1
  Zr  Zr57  1  0.80847626  0.79748465  0.51320374  1
  Zr  Zr58  1  0.20242698  0.79006532  0.00537841  1
  Zr  Zr59  1  0.80625140  0.00744646  0.50684965  1
  Zr  Zr60  1  0.91561550  0.32018615  0.37518838  1
  Zr  Zr61  1  -0.00718246  0.58342876  0.24823571  1
  Zr  Zr62  1  0.51210766  0.29170002  0.62817677  1
  Zr  Zr63  1  0.09288176  0.29972910  0.64159969  1
  Zr  Zr64  1  0.30083034  0.89235239  0.13692362  1
  Zr  Zr65  1  0.90698001  0.49628797  0.62811592  1
  Zr  Zr66  1  0.90530003  0.10806775  0.63375627  1
  Zr  Zr67  1  0.79896204  0.40601028  0.49778740  1
  Zr  Zr68  1  0.50463431  0.69562647  0.63392572  1
  Zr  Zr69  1  0.37976933  0.38195645  0.25499103  1
  Zr  Zr70  1  0.90288635  0.51093697  0.88798892  1
  Zr  Zr71  1  0.02130406  0.20753686  0.24500613  1
  Zr  Zr72  1  0.40807034  0.19108901  0.76296314  1
  Zr  Zr73  1  0.18434698  0.60044737  0.51927703  1
  Zr  Zr74  1  0.23043660  0.20581313  0.25968943  1
  Zr  Zr75  1  0.09844463  0.90481412  0.37838714  1
  Zr  Zr76  1  0.29836218  0.08779016  0.39421336  1
  Zr  Zr77  1  0.50948274  0.09388798  0.11161306  1
  Zr  Zr78  1  0.58785995  0.61951964  0.24967371  1
  Zr  Zr79  1  0.58038890  0.39518861  -0.00037125  1
  Ta  Ta80  1  0.79781902  0.60360478  0.50522543  1
  Ta  Ta81  1  0.80705252  0.20254707  0.00420660  1
  Ta  Ta82  1  0.70239079  0.50744125  0.89773795  1
  Ta  Ta83  1  0.89980379  0.30471756  0.88724666  1
  Ta  Ta84  1  0.89077352  0.90735194  0.86125857  1
  Ta  Ta85  1  0.29082212  0.49504144  0.12907825  1
  Ta  Ta86  1  0.71326398  0.09899757  0.86287787  1
  Ta  Ta87  1  0.69209421  0.50423523  0.62692348  1
  Ta  Ta88  1  0.01388091  0.39937397  -0.01223827  1
  Ta  Ta89  1  0.91275657  0.71493716  0.88424120  1
  Ta  Ta90  1  0.81670955  0.20430867  0.49107432  1
  Ta  Ta91  1  0.48896091  0.48344081  0.63337807  1
  Ta  Ta92  1  0.19105719  0.59857010  0.73640024  1
  Ta  Ta93  1  0.19779002  -0.00036919  0.74472461  1
  Ta  Ta94  1  0.60170020  0.40543196  0.25189978  1
  Ta  Ta95  1  0.00481177  -0.00324670  0.75263348  1
  Ta  Ta96  1  0.49654863  0.29624520  0.37260827  1
  Ta  Ta97  1  0.09191564  0.90614227  0.61920471  1
  Ta  Ta98  1  0.90020227  0.90565477  0.13707312  1
  Ta  Ta99  1  0.10755262  0.30512619  0.86430090  1
  Ta  Ta100  1  0.00277196  0.20017416  -0.01072326  1
  Ta  Ta101  1  0.19785505  0.58821496  0.00507491  1
  Ta  Ta102  1  0.91470278  0.09969595  0.36686061  1
  Ta  Ta103  1  0.39888781  -0.01321330  -0.00572098  1
  Ta  Ta104  1  0.80179064  0.62203574  0.00782911  1
  Ta  Ta105  1  0.40918399  0.20198389  0.49795036  1
  Ta  Ta106  1  0.19336610  0.00114836  0.25115491  1
  Ta  Ta107  1  0.10038937  0.69363340  0.37131164  1
  Ta  Ta108  1  0.38434841  0.40536827  -0.01114216  1
  Ta  Ta109  1  0.70255939  0.90813218  0.63184602  1
  Ta  Ta110  1  0.29386290  0.90103477  0.62116074  1
  Ta  Ta111  1  0.68270342  0.72096160  0.11670082  1
  Ta  Ta112  1  0.70466169  0.30786170  0.36375690  1
  Ta  Ta113  1  0.18872100  0.59827954  0.23943926  1
  Ta  Ta114  1  0.00159619  0.61085521  0.75338216  1
  Ta  Ta115  1  0.78264833  0.81728731  0.23597008  1
  Ta  Ta116  1  0.90783964  0.31193566  0.11116858  1
  Ta  Ta117  1  0.10619478  0.09446009  0.87496718  1
  Ta  Ta118  1  0.48552263  0.50430866  0.13188465  1
  Ta  Ta119  1  0.71885131  0.10231919  0.37405866  1
  Ti  Ti120  1  0.49831552  0.89646164  0.86826398  1
  Ti  Ti121  1  0.08844772  0.69191028  0.11768167  1
  Ti  Ti122  1  0.39384589  -0.00169037  0.75487813  1
  Ti  Ti123  1  0.90734031  0.30349267  0.61656697  1
  Ti  Ti124  1  -0.00096169  0.79813580  0.74414560  1
  Ti  Ti125  1  0.39617086  0.38989894  0.77077114  1
  Ti  Ti126  1  0.59297003  0.79930570  -0.00916809  1
  Ti  Ti127  1  0.70386713  0.10885487  0.63274781  1
  Ti  Ti128  1  0.60799367  0.20473660  0.75418392  1
  Ti  Ti129  1  0.90637822  0.69694131  0.62504719  1
  Ti  Ti130  1  0.07456186  0.49265263  0.37456343  1
  Ti  Ti131  1  0.90525351  0.90572799  0.63102019  1
  Ti  Ti132  1  -0.00909852  0.59522763  0.49514463  1
  Ti  Ti133  1  0.30222372  0.69361812  0.13925182  1
  Ti  Ti134  1  0.69612680  0.90861693  0.86098403  1
  Ti  Ti135  1  0.28827943  0.69377078  0.87173295  1
  Ti  Ti136  1  -0.00027664  0.78977156  0.49881596  1
  Ti  Ti137  1  0.71637587  0.29971345  0.62882172  1
  Ti  Ti138  1  0.81073766  0.41739816  0.24745826  1
  Ti  Ti139  1  0.60421631  0.59956297  0.74659686  1
  Ti  Ti140  1  0.39882178  0.79550738  0.00047071  1
  Ti  Ti141  1  0.20810031  0.19423678  0.75324133  1
  Ti  Ti142  1  0.09840843  0.69176487  0.88374980  1
  Ti  Ti143  1  0.09923299  0.48882873  0.11911754  1
  Ti  Ti144  1  0.89586467  0.10253521  0.86543844  1
  Ti  Ti145  1  0.39178678  0.80253657  0.74049863  1
  Ti  Ti146  1  0.09079164  0.49235272  0.64029932  1
  Ti  Ti147  1  0.09876128  0.09910955  0.37567146  1
  Ti  Ti148  1  0.61271316  0.18863033  -0.00154024  1
  Ti  Ti149  1  0.09733159  0.30247169  0.11507758  1
  Ti  Ti150  1  0.42125030  0.77939742  0.25357870  1
  Ti  Ti151  1  0.28659271  0.49892109  0.86732956  1
  Ti  Ti152  1  0.10145938  0.50390243  0.86749954  1
  Ti  Ti153  1  0.29344482  0.09073495  0.88138120  1
  Ti  Ti154  1  0.19816478  0.20254605  -0.01644768  1
  Ti  Ti155  1  0.01256555  0.02107468  0.50885667  1
  Ti  Ti156  1  0.70587102  0.50383575  0.36608466  1
  Ti  Ti157  1  0.59976281  0.80174240  0.74231337  1
  Ti  Ti158  1  0.60989257  -0.01107822  -0.00040010  1
  Ti  Ti159  1  0.20106537  0.39899724  -0.01220271  1
  Mo  Mo160  1  0.88862796  0.51400392  0.37638743  1
  Mo  Mo161  1  0.60809437  0.00314212  0.51652518  1
  Mo  Mo162  1  0.80128240  0.40389288  0.00056756  1
  Mo  Mo163  1  0.40420979  0.18749664  0.26953367  1
  Mo  Mo164  1  -0.00293536  0.19923054  0.49795663  1
  Mo  Mo165  1  0.70585948  0.10725470  0.11694926  1
  Mo  Mo166  1  0.20426937  0.40585919  0.75382880  1
  Mo  Mo167  1  0.50083286  0.88425492  0.37591396  1
  Mo  Mo168  1  0.00753270  0.00133240  0.25062291  1
  Mo  Mo169  1  -0.00389513  0.39924927  0.23803721  1
  Mo  Mo170  1  0.50216148  0.29930390  0.87382513  1
  Mo  Mo171  1  0.49428333  0.69604049  0.11489581  1
  Mo  Mo172  1  0.79518512  0.20520308  0.74994348  1
  Mo  Mo173  1  0.80820619  0.00640020  0.24917147  1
  Mo  Mo174  1  0.40135204  0.39488008  0.49670809  1
  Mo  Mo175  1  0.80120259  0.00186809  0.74589173  1
  Mo  Mo176  1  0.00321214  0.40996306  0.77048296  1
  Mo  Mo177  1  0.70375065  0.69566279  0.62997256  1
  Mo  Mo178  1  0.90903972  0.69036858  0.38377410  1
  Mo  Mo179  1  0.59978560  0.79945439  0.25171863  1
  Mo  Mo180  1  0.38898179  0.59347945  0.23962804  1
  Mo  Mo181  1  0.10462006  0.09290684  0.63875217  1
  Mo  Mo182  1  0.90020418  0.71279878  0.11359505  1
  Mo  Mo183  1  0.20834931  0.00160884  -0.00688496  1
  Mo  Mo184  1  0.17021551  0.40360603  0.24021765  1
  Mo  Mo185  1  0.50898026  0.10326868  0.61631983  1
  Mo  Mo186  1  0.59631070  0.60859287  0.00859688  1
  Mo  Mo187  1  0.00569864  0.40542404  0.50327124  1
  Mo  Mo188  1  0.01467238  0.60580924  -0.00199217  1
  Mo  Mo189  1  0.39973283  -0.01052030  0.49811724  1
  Mo  Mo190  1  0.49305222  0.70502588  0.38012677  1
  Mo  Mo191  1  -0.00824595  0.79598953  0.00378169  1
  Mo  Mo192  1  0.69873691  0.91067910  0.11563004  1
  Mo  Mo193  1  0.08075989  0.69678486  0.62401868  1
  Mo  Mo194  1  0.30873912  0.29567702  0.40014974  1
  Mo  Mo195  1  0.29321202  0.30062190  0.87020451  1
  Mo  Mo196  1  0.19497790  0.78671549  0.24664961  1
  Mo  Mo197  1  0.29392786  0.70194387  0.63123901  1
  Mo  Mo198  1  0.29823911  0.49038190  0.64250325  1
  Mo  Mo199  1  0.19683282  -0.00880531  0.50937530  1
