# generated using pymatgen
data_HfZrTaTiMo
_symmetry_space_group_name_H-M   'P 1'
_cell_length_a   15.19412245
_cell_length_b   15.15794255
_cell_length_c   16.81746102
_cell_angle_alpha   90.04245241
_cell_angle_beta   89.98555184
_cell_angle_gamma   90.00937937
_symmetry_Int_Tables_number   1
_chemical_formula_structural   HfZrTaTiMo
_chemical_formula_sum   'Hf40 Zr40 Ta40 Ti40 Mo40'
_cell_volume   3873.25570925
_cell_formula_units_Z   40
loop_
 _symmetry_equiv_pos_site_id
 _symmetry_equiv_pos_as_xyz
  1  'x, y, z'
loop_
 _atom_site_type_symbol
 _atom_site_label
 _atom_site_symmetry_multiplicity
 _atom_site_fract_x
 _atom_site_fract_y
 _atom_site_fract_z
 _atom_site_occupancy
  Hf  Hf0  1  0.49153923  0.28517017  0.61738561  1
  Hf  Hf1  1  0.00481941  0.41021206  0.74801258  1
  Hf  Hf2  1  0.91566588  0.30959082  0.60571200  1
  Hf  Hf3  1  -0.01841248  0.60710918  0.75088835  1
  Hf  Hf4  1  0.41083033  0.81322237  0.50232020  1
  Hf  Hf5  1  0.88908067  0.52857291  0.89168500  1
  Hf  Hf6  1  0.38417073  0.39310034  0.75079355  1
  Hf  Hf7  1  0.40706514  0.59888652  0.75115778  1
  Hf  Hf8  1  0.81210419  -0.00399366  -0.00212945  1
  Hf  Hf9  1  0.79813737  0.41683302  0.74359590  1
  Hf  Hf10  1  0.51626332  0.69342369  0.62038808  1
  Hf  Hf11  1  0.60746693  0.60400515  0.48419774  1
  Hf  Hf12  1  0.68522004  0.29316150  0.12254869  1
  Hf  Hf13  1  0.89750746  0.10369900  0.38006512  1
  Hf  Hf14  1  0.70016529  0.88078171  0.64643708  1
  Hf  Hf15  1  0.62314028  0.78875857  -0.00590268  1
  Hf  Hf16  1  0.61179439  0.00455344  -0.01172689  1
  Hf  Hf17  1  0.29256378  0.09982210  0.12002270  1
  Hf  Hf18  1  0.19494598  0.39370614  0.25775192  1
  Hf  Hf19  1  0.21939317  0.82355295  0.75023369  1
  Hf  Hf20  1  0.19228550  0.59726936  0.74590349  1
  Hf  Hf21  1  0.79834699  0.41710103  0.49506794  1
  Hf  Hf22  1  0.38753855  0.38705659  0.48827649  1
  Hf  Hf23  1  0.19716979  0.41092506  0.47030076  1
  Hf  Hf24  1  0.49955498  0.10128786  0.11384502  1
  Hf  Hf25  1  0.01694138  0.01911304  0.74640312  1
  Hf  Hf26  1  0.10160340  0.69417369  0.88228062  1
  Hf  Hf27  1  0.01401679  0.01875241  -0.00571801  1
  Hf  Hf28  1  0.29566481  0.70940588  0.61187246  1
  Hf  Hf29  1  0.41512202  0.80593158  0.74634668  1
  Hf  Hf30  1  0.71603442  0.89285838  0.85838855  1
  Hf  Hf31  1  0.10046168  0.09744253  0.38677440  1
  Hf  Hf32  1  0.18450811  0.41164231  0.02000359  1
  Hf  Hf33  1  0.58109999  0.39225040  0.25508746  1
  Hf  Hf34  1  0.09702458  0.11428253  0.60807269  1
  Hf  Hf35  1  0.59324019  0.19220433  0.25042200  1
  Hf  Hf36  1  0.20282215  0.00078315  0.25761829  1
  Hf  Hf37  1  0.90659847  0.90120886  0.63395309  1
  Hf  Hf38  1  0.48481820  0.50093979  0.12304722  1
  Hf  Hf39  1  0.41651407  0.79095574  0.00412583  1
  Zr  Zr40  1  0.48273938  0.07310840  0.63852016  1
  Zr  Zr41  1  0.69394747  0.28174873  0.39004837  1
  Zr  Zr42  1  0.61633240  0.76095601  0.76518520  1
  Zr  Zr43  1  0.59160189  -0.01492651  0.51170237  1
  Zr  Zr44  1  0.12123165  0.90445091  0.60693762  1
  Zr  Zr45  1  0.49479411  0.49209090  0.61855666  1
  Zr  Zr46  1  0.70529931  0.08974687  0.12916300  1
  Zr  Zr47  1  0.37918435  0.19305157  0.75326469  1
  Zr  Zr48  1  0.20955429  0.79772675  0.25322767  1
  Zr  Zr49  1  0.51840803  0.89791371  0.12266193  1
  Zr  Zr50  1  0.79223805  0.39387389  0.24898172  1
  Zr  Zr51  1  0.09375545  0.70371379  0.60513251  1
  Zr  Zr52  1  0.69222179  0.51748129  0.62497839  1
  Zr  Zr53  1  0.70241009  0.08789314  0.37949300  1
  Zr  Zr54  1  0.49096419  0.48917249  0.88793773  1
  Zr  Zr55  1  0.08682385  0.50912680  0.60107697  1
  Zr  Zr56  1  0.88767254  0.32164829  0.87799851  1
  Zr  Zr57  1  0.80311779  0.21257073  0.74049433  1
  Zr  Zr58  1  0.91142333  0.89985129  0.86355834  1
  Zr  Zr59  1  0.00874109  0.59924213  0.02199978  1
  Zr  Zr60  1  0.50166161  0.09729980  0.38390421  1
  Zr  Zr61  1  0.12413713  0.91914119  0.87950628  1
  Zr  Zr62  1  0.69676811  0.50047324  0.36417239  1
  Zr  Zr63  1  0.22693196  0.20733230  0.49219314  1
  Zr  Zr64  1  0.08799609  0.29495441  0.13294708  1
  Zr  Zr65  1  0.28770699  0.49480753  0.61669709  1
  Zr  Zr66  1  -0.01675231  0.20771980  -0.00636706  1
  Zr  Zr67  1  0.10483379  0.90976417  0.12868020  1
  Zr  Zr68  1  0.01689380  0.79838959  0.74749451  1
  Zr  Zr69  1  0.30986188  0.69666398  0.88239241  1
  Zr  Zr70  1  0.27326977  0.09016020  0.87985035  1
  Zr  Zr71  1  0.79831241  -0.01524222  0.51252784  1
  Zr  Zr72  1  0.00212278  0.80547733  0.00905001  1
  Zr  Zr73  1  0.69968319  0.88678800  0.36702232  1
  Zr  Zr74  1  0.20376944  0.79103672  0.01292006  1
  Zr  Zr75  1  0.39349862  0.20236113  -0.00807067  1
  Zr  Zr76  1  0.11712263  0.31606204  0.61543335  1
  Zr  Zr77  1  0.31476711  0.67185399  0.12635707  1
  Zr  Zr78  1  0.49054013  0.08640337  0.86583941  1
  Zr  Zr79  1  0.77521810  0.20142201  -0.01465115  1
  Ta  Ta80  1  0.09637207  0.49715079  0.88079861  1
  Ta  Ta81  1  -0.01009799  0.39948499  0.25792044  1
  Ta  Ta82  1  0.28421213  0.30962339  0.88222952  1
  Ta  Ta83  1  0.89847151  0.30229097  0.38804296  1
  Ta  Ta84  1  0.59435512  0.60270851  0.24450304  1
  Ta  Ta85  1  0.31228516  0.90295645  0.37285136  1
  Ta  Ta86  1  0.59681461  0.39393178  0.75323944  1
  Ta  Ta87  1  0.78543932  0.41816350  0.01385893  1
  Ta  Ta88  1  0.41502316  0.79607869  0.24531061  1
  Ta  Ta89  1  -0.00741006  0.80461183  0.48663419  1
  Ta  Ta90  1  0.90569112  0.10466885  0.13330567  1
  Ta  Ta91  1  0.69196040  0.30414648  0.61492577  1
  Ta  Ta92  1  0.50128594  0.89649351  0.36460779  1
  Ta  Ta93  1  -0.00600054  0.20315153  0.25774545  1
  Ta  Ta94  1  0.21218857  0.59062846  0.26416226  1
  Ta  Ta95  1  0.69414227  0.49916014  0.87740854  1
  Ta  Ta96  1  0.61784348  0.58450090  0.01371979  1
  Ta  Ta97  1  0.18229270  0.19904316  -0.00082141  1
  Ta  Ta98  1  0.90426667  0.70476666  0.14584957  1
  Ta  Ta99  1  0.40485110  0.00094449  0.24681602  1
  Ta  Ta100  1  0.59134193  0.39516476  0.49175052  1
  Ta  Ta101  1  0.00426676  0.80892641  0.25750040  1
  Ta  Ta102  1  0.81291396  0.78810402  0.00656300  1
  Ta  Ta103  1  0.31399901  0.90300369  0.12013525  1
  Ta  Ta104  1  0.50662641  0.89258147  0.87640265  1
  Ta  Ta105  1  0.38676158  0.40473222  0.25663292  1
  Ta  Ta106  1  0.69355727  0.09381861  0.64427381  1
  Ta  Ta107  1  0.08572113  0.50966546  0.36695515  1
  Ta  Ta108  1  0.80226404  0.18875100  0.52060239  1
  Ta  Ta109  1  0.48665624  0.29923138  0.11849921  1
  Ta  Ta110  1  0.09832622  0.30768558  0.87658931  1
  Ta  Ta111  1  0.69517268  0.09735349  0.84696170  1
  Ta  Ta112  1  -0.02434573  0.61120791  0.47967109  1
  Ta  Ta113  1  0.88474007  0.70443485  0.61875523  1
  Ta  Ta114  1  0.39795089  0.60136985  0.48681376  1
  Ta  Ta115  1  0.28442686  0.50279139  0.88249767  1
  Ta  Ta116  1  0.88807084  0.29880880  0.12510986  1
  Ta  Ta117  1  0.39542945  0.20603178  0.24654396  1
  Ta  Ta118  1  0.89509165  0.51666531  0.61355267  1
  Ta  Ta119  1  0.90450698  0.90149149  0.37208034  1
  Ti  Ti120  1  0.80840990  -0.00089254  0.24840512  1
  Ti  Ti121  1  0.31439223  0.70501016  0.37297769  1
  Ti  Ti122  1  0.48998571  0.50474569  0.37206378  1
  Ti  Ti123  1  0.51707818  0.67902882  0.88677499  1
  Ti  Ti124  1  0.89174884  0.51983109  0.35791193  1
  Ti  Ti125  1  0.59470404  0.20415004  0.74758603  1
  Ti  Ti126  1  0.29618751  0.30045509  0.12685374  1
  Ti  Ti127  1  0.08834817  0.29528918  0.37912459  1
  Ti  Ti128  1  0.09722388  0.10404297  0.13339532  1
  Ti  Ti129  1  0.80185957  0.19784455  0.25218352  1
  Ti  Ti130  1  0.71261039  0.89085473  0.12857582  1
  Ti  Ti131  1  0.89782557  0.50373478  0.13783267  1
  Ti  Ti132  1  0.61151559  0.79623723  0.49954514  1
  Ti  Ti133  1  0.78497714  0.61940036  0.75527031  1
  Ti  Ti134  1  0.19010553  0.21007971  0.74718012  1
  Ti  Ti135  1  0.90434759  0.90652189  0.13195099  1
  Ti  Ti136  1  0.19856518  0.61542908  0.47632819  1
  Ti  Ti137  1  0.80251123  0.78158582  0.48769404  1
  Ti  Ti138  1  0.10626320  0.68840338  0.14301989  1
  Ti  Ti139  1  0.89415994  0.10225858  0.86112465  1
  Ti  Ti140  1  0.31383604  0.10156449  0.37219742  1
  Ti  Ti141  1  0.22466789  -0.00232777  0.49656832  1
  Ti  Ti142  1  0.80380750  0.80328083  0.24832981  1
  Ti  Ti143  1  0.70679800  0.69479380  0.13437906  1
  Ti  Ti144  1  0.09247651  0.70592830  0.36954731  1
  Ti  Ti145  1  0.60378192  -0.01114017  0.24802846  1
  Ti  Ti146  1  0.59654587  0.38529641  -0.00181760  1
  Ti  Ti147  1  -0.00096277  0.21192268  0.74992137  1
  Ti  Ti148  1  0.38206981  0.40543815  0.00630231  1
  Ti  Ti149  1  0.71309626  0.69325197  0.35454312  1
  Ti  Ti150  1  0.48994906  0.28633394  0.38545828  1
  Ti  Ti151  1  0.51223044  0.69523178  0.12495432  1
  Ti  Ti152  1  0.50139648  0.29246184  0.87780437  1
  Ti  Ti153  1  0.00030307  0.00480044  0.25621996  1
  Ti  Ti154  1  -0.01138757  0.40630358  0.01183047  1
  Ti  Ti155  1  0.19937381  0.19853979  0.26048475  1
  Ti  Ti156  1  0.10675671  0.89990928  0.38827911  1
  Ti  Ti157  1  -0.00832698  0.00562893  0.50422823  1
  Ti  Ti158  1  0.31662957  0.90517759  0.89340610  1
  Ti  Ti159  1  0.51024207  0.70702744  0.36720288  1
  Mo  Mo160  1  0.40877165  0.59294989  -0.00175117  1
  Mo  Mo161  1  0.20995023  0.01933065  0.73708762  1
  Mo  Mo162  1  0.81982795  0.78644629  0.75416702  1
  Mo  Mo163  1  -0.00711054  0.41303184  0.47455230  1
  Mo  Mo164  1  0.00011505  0.20319888  0.49216035  1
  Mo  Mo165  1  0.68408952  0.30869994  0.87034400  1
  Mo  Mo166  1  0.80037729  0.60333169  0.02758909  1
  Mo  Mo167  1  0.29641485  0.29849926  0.62628569  1
  Mo  Mo168  1  0.30033408  0.50773414  0.37655400  1
  Mo  Mo169  1  0.89718537  0.70451538  0.88240133  1
  Mo  Mo170  1  0.89686041  0.70951613  0.35368837  1
  Mo  Mo171  1  0.40690526  0.59993092  0.26522624  1
  Mo  Mo172  1  0.20246194  0.59056809  0.00717029  1
  Mo  Mo173  1  0.80001175  0.61045819  0.48821739  1
  Mo  Mo174  1  0.50645441  0.88775074  0.63209818  1
  Mo  Mo175  1  0.72185963  0.67942652  0.89168000  1
  Mo  Mo176  1  0.30369307  0.29111160  0.36090158  1
  Mo  Mo177  1  0.40252196  -0.01006512  0.00290647  1
  Mo  Mo178  1  0.60599753  0.19385577  0.51982469  1
  Mo  Mo179  1  0.40407918  0.18705052  0.50320449  1
  Mo  Mo180  1  0.19579641  0.40134380  0.75845588  1
  Mo  Mo181  1  0.79770394  0.60045001  0.23227597  1
  Mo  Mo182  1  0.00436828  0.60421092  0.24788774  1
  Mo  Mo183  1  0.20542419  0.80159248  0.47873084  1
  Mo  Mo184  1  0.28907116  0.09900108  0.62659626  1
  Mo  Mo185  1  0.60647722  0.79357039  0.24492007  1
  Mo  Mo186  1  0.31678907  0.91436089  0.61941594  1
  Mo  Mo187  1  0.59550583  0.20140397  -0.01269197  1
  Mo  Mo188  1  0.80444558  0.00550386  0.74242807  1
  Mo  Mo189  1  0.60154531  0.58253747  0.75922345  1
  Mo  Mo190  1  0.09239256  0.12083026  0.86754298  1
  Mo  Mo191  1  0.68883581  0.49592902  0.13390689  1
  Mo  Mo192  1  0.59138244  -0.01709323  0.75536873  1
  Mo  Mo193  1  0.29581328  0.49208686  0.13373637  1
  Mo  Mo194  1  0.90220741  0.10545579  0.62627349  1
  Mo  Mo195  1  0.39561294  0.00148004  0.49664943  1
  Mo  Mo196  1  0.70787514  0.69641589  0.61867269  1
  Mo  Mo197  1  0.20334866  0.00591386  0.01036245  1
  Mo  Mo198  1  0.09558474  0.50409008  0.15203999  1
  Mo  Mo199  1  0.37981993  -0.01924557  0.75490432  1
