# generated using pymatgen
data_HfZrTaTiMo
_symmetry_space_group_name_H-M   'P 1'
_cell_length_a   15.21579385
_cell_length_b   15.22000724
_cell_length_c   16.86100158
_cell_angle_alpha   90.06234778
_cell_angle_beta   90.01034230
_cell_angle_gamma   89.96671577
_symmetry_Int_Tables_number   1
_chemical_formula_structural   HfZrTaTiMo
_chemical_formula_sum   'Hf40 Zr40 Ta40 Ti40 Mo40'
_cell_volume   3904.74346109
_cell_formula_units_Z   40
loop_
 _symmetry_equiv_pos_site_id
 _symmetry_equiv_pos_as_xyz
  1  'x, y, z'
loop_
 _atom_site_type_symbol
 _atom_site_label
 _atom_site_symmetry_multiplicity
 _atom_site_fract_x
 _atom_site_fract_y
 _atom_site_fract_z
 _atom_site_occupancy
  Hf  Hf0  1  0.40650193  0.39934665  0.00133043  1
  Hf  Hf1  1  0.68718168  0.08880881  0.12870549  1
  Hf  Hf2  1  0.15668546  0.61127536  0.72700594  1
  Hf  Hf3  1  0.29006748  0.70441359  0.85820656  1
  Hf  Hf4  1  0.06531733  0.10115527  0.61574121  1
  Hf  Hf5  1  0.06530800  0.09042060  0.37949373  1
  Hf  Hf6  1  0.30667430  0.72147936  0.12607877  1
  Hf  Hf7  1  0.00485236  -0.01461867  -0.00806930  1
  Hf  Hf8  1  0.19635616  0.39986450  0.23802701  1
  Hf  Hf9  1  0.09320763  0.87828338  0.14464903  1
  Hf  Hf10  1  0.50868595  0.70245624  0.61771699  1
  Hf  Hf11  1  0.68759877  0.09176321  0.87984144  1
  Hf  Hf12  1  0.50228031  0.90132451  0.12513803  1
  Hf  Hf13  1  0.60807189  0.41092212  0.49271171  1
  Hf  Hf14  1  0.80062449  0.58679995  0.50106241  1
  Hf  Hf15  1  0.69485764  0.70725866  0.38408719  1
  Hf  Hf16  1  0.51591828  0.50001487  0.86696512  1
  Hf  Hf17  1  0.17947752  0.00084156  0.76183044  1
  Hf  Hf18  1  0.29983107  0.50042677  0.63282479  1
  Hf  Hf19  1  0.80158111  0.80561059  0.25839110  1
  Hf  Hf20  1  -0.00431577  0.38818872  0.24160749  1
  Hf  Hf21  1  0.20062300  0.02683046  -0.01394590  1
  Hf  Hf22  1  0.29089361  0.29651093  0.61647237  1
  Hf  Hf23  1  0.81212851  0.60297844  0.74389346  1
  Hf  Hf24  1  0.41056409  0.59401357  0.49938721  1
  Hf  Hf25  1  0.19977822  0.39139655  0.75452759  1
  Hf  Hf26  1  0.09333269  0.49648882  0.37384940  1
  Hf  Hf27  1  0.20248496  0.00340757  0.26242859  1
  Hf  Hf28  1  0.30170242  0.50541499  0.87171012  1
  Hf  Hf29  1  0.90796128  0.69412033  0.37519624  1
  Hf  Hf30  1  0.20732189  0.60791750  0.50399115  1
  Hf  Hf31  1  0.51711402  0.70842721  0.87247483  1
  Hf  Hf32  1  0.90231894  0.27848629  0.62535395  1
  Hf  Hf33  1  0.91637402  0.48755604  0.62477489  1
  Hf  Hf34  1  0.69870820  0.30048056  0.36364830  1
  Hf  Hf35  1  0.30950484  0.50877429  0.12220618  1
  Hf  Hf36  1  0.81390577  0.82063055  0.48962079  1
  Hf  Hf37  1  0.89132940  0.69843440  0.88857863  1
  Hf  Hf38  1  0.59910056  -0.01152180  0.74686685  1
  Hf  Hf39  1  0.39868779  0.00631767  0.00648012  1
  Zr  Zr40  1  0.40743308  0.39178673  0.75809764  1
  Zr  Zr41  1  0.51106866  0.69801144  0.12723175  1
  Zr  Zr42  1  0.18686945  0.20461342  0.25696722  1
  Zr  Zr43  1  0.59772587  0.39908543  0.01046404  1
  Zr  Zr44  1  0.01677154  0.60005955  0.50618615  1
  Zr  Zr45  1  0.92125249  0.71016669  0.61957997  1
  Zr  Zr46  1  0.30511592  0.50679421  0.36818901  1
  Zr  Zr47  1  0.50417276  0.29794412  0.62760171  1
  Zr  Zr48  1  0.00655865  0.39473259  0.75769252  1
  Zr  Zr49  1  0.91470574  0.70488426  0.12154099  1
  Zr  Zr50  1  0.01525816  0.79862847  0.74963538  1
  Zr  Zr51  1  0.68863108  0.29669964  0.13381822  1
  Zr  Zr52  1  0.30937267  0.90829794  0.86786806  1
  Zr  Zr53  1  0.40545172  0.39615705  0.49431451  1
  Zr  Zr54  1  0.80992136  0.18752981  0.76316359  1
  Zr  Zr55  1  0.68908135  0.30734275  0.87303514  1
  Zr  Zr56  1  0.19769144  0.60672600  0.24104556  1
  Zr  Zr57  1  0.69757803  0.87800955  0.87982924  1
  Zr  Zr58  1  0.09619143  0.08827624  0.13152208  1
  Zr  Zr59  1  0.90097386  0.89597268  0.87494496  1
  Zr  Zr60  1  0.80238971  0.40829675  0.01050721  1
  Zr  Zr61  1  0.49469980  0.09147446  0.36819241  1
  Zr  Zr62  1  0.80600618  0.41292263  0.24139490  1
  Zr  Zr63  1  0.27654717  0.09961207  0.61397763  1
  Zr  Zr64  1  0.19531876  0.61871966  0.00975157  1
  Zr  Zr65  1  0.20806536  0.39013798  0.00367225  1
  Zr  Zr66  1  0.79212258  0.19499546  -0.00144342  1
  Zr  Zr67  1  0.29783077  0.30111314  0.37649791  1
  Zr  Zr68  1  0.51610947  0.50219475  0.63840821  1
  Zr  Zr69  1  0.39941814  0.00806577  0.73606268  1
  Zr  Zr70  1  0.19377887  0.82118136  -0.00206608  1
  Zr  Zr71  1  0.40839145  0.00099475  0.50866577  1
  Zr  Zr72  1  0.09477552  0.51044091  0.88668309  1
  Zr  Zr73  1  0.28964948  0.89213906  0.62002882  1
  Zr  Zr74  1  0.59930573  0.20068267  0.49657305  1
  Zr  Zr75  1  0.41989958  0.80748771  0.74554679  1
  Zr  Zr76  1  0.37671235  0.20133292  0.01366831  1
  Zr  Zr77  1  0.80192887  0.19928779  0.24630327  1
  Zr  Zr78  1  0.41716484  0.80873490  0.26373162  1
  Zr  Zr79  1  0.70102347  0.70199644  0.60734478  1
  Ta  Ta80  1  0.70677040  0.49043619  0.63156667  1
  Ta  Ta81  1  0.29359755  0.10025030  0.38576112  1
  Ta  Ta82  1  0.80423395  0.38755083  0.50036485  1
  Ta  Ta83  1  0.08441973  0.29939799  0.38828919  1
  Ta  Ta84  1  0.38779463  0.18680480  0.23901011  1
  Ta  Ta85  1  0.60158741  -0.01797840  0.25260983  1
  Ta  Ta86  1  0.08238148  0.50550024  0.11469044  1
  Ta  Ta87  1  0.89969203  0.90187014  0.12536230  1
  Ta  Ta88  1  0.60843767  0.60125446  0.00109933  1
  Ta  Ta89  1  0.48597123  0.09960190  0.87376305  1
  Ta  Ta90  1  0.18402849  0.19657646  0.49090438  1
  Ta  Ta91  1  0.09309137  0.30012519  0.61044282  1
  Ta  Ta92  1  0.89863374  0.49983125  0.88369127  1
  Ta  Ta93  1  0.70700917  0.90857048  0.61398134  1
  Ta  Ta94  1  0.70253446  0.30059416  0.63486361  1
  Ta  Ta95  1  0.90450844  0.91720023  0.62909058  1
  Ta  Ta96  1  0.01576143  0.81849225  0.48386297  1
  Ta  Ta97  1  0.79152464  0.80119228  0.74113375  1
  Ta  Ta98  1  0.50670053  0.69503038  0.38180639  1
  Ta  Ta99  1  0.09798138  0.29286165  0.11432606  1
  Ta  Ta100  1  0.89622920  0.09013647  0.11841346  1
  Ta  Ta101  1  0.30220276  0.70426810  0.63166923  1
  Ta  Ta102  1  0.80408736  0.39892442  0.75680693  1
  Ta  Ta103  1  0.31573024  0.91080049  0.37860238  1
  Ta  Ta104  1  0.40187708  0.79465238  0.49143211  1
  Ta  Ta105  1  0.70341735  0.10114766  0.62568405  1
  Ta  Ta106  1  0.50051794  0.29633761  0.35313992  1
  Ta  Ta107  1  0.59027492  0.19599311  0.75027591  1
  Ta  Ta108  1  0.40869227  0.60657499  -0.00668729  1
  Ta  Ta109  1  0.70892980  0.51447655  0.87420389  1
  Ta  Ta110  1  -0.00640230  0.59264294  0.24559727  1
  Ta  Ta111  1  0.20794116  0.80185876  0.47617652  1
  Ta  Ta112  1  0.80275330  -0.00129543  0.25579620  1
  Ta  Ta113  1  0.40178675  0.39805550  0.24090492  1
  Ta  Ta114  1  0.91159017  0.29183514  0.88090068  1
  Ta  Ta115  1  0.21127166  0.80181741  0.26955084  1
  Ta  Ta116  1  0.59571088  -0.00285421  0.00313307  1
  Ta  Ta117  1  0.09585378  0.90631847  0.61909561  1
  Ta  Ta118  1  0.38607913  0.19757161  0.75127155  1
  Ta  Ta119  1  0.00339538  0.18939354  -0.00225127  1
  Ti  Ti120  1  0.90447404  0.29112956  0.11611892  1
  Ti  Ti121  1  0.79482419  0.61079623  0.01192261  1
  Ti  Ti122  1  0.79510739  -0.01019515  0.00084650  1
  Ti  Ti123  1  0.90185549  0.28970141  0.38122127  1
  Ti  Ti124  1  0.40463891  0.60343024  0.74959950  1
  Ti  Ti125  1  0.40462998  0.80009561  -0.00611526  1
  Ti  Ti126  1  0.90052266  0.48827258  0.37987813  1
  Ti  Ti127  1  0.50431307  0.50519251  0.12852981  1
  Ti  Ti128  1  0.40643228  0.60315679  0.25493113  1
  Ti  Ti129  1  0.70482840  0.88749369  0.12455315  1
  Ti  Ti130  1  0.59773426  0.40705387  0.24494422  1
  Ti  Ti131  1  0.61669467  0.61209300  0.75149350  1
  Ti  Ti132  1  0.18392792  0.19810019  0.75261677  1
  Ti  Ti133  1  0.57631255  0.19040586  0.00541521  1
  Ti  Ti134  1  0.50740158  0.10081511  0.62148201  1
  Ti  Ti135  1  -0.00182575  0.39638327  0.00214889  1
  Ti  Ti136  1  0.49337152  0.28902870  0.87500591  1
  Ti  Ti137  1  0.10321381  0.69930568  0.36560594  1
  Ti  Ti138  1  0.51887047  0.89673630  0.60948785  1
  Ti  Ti139  1  0.79605925  0.19500741  0.49751686  1
  Ti  Ti140  1  0.69284580  0.09457271  0.36950890  1
  Ti  Ti141  1  0.50696307  0.90474600  0.88231387  1
  Ti  Ti142  1  0.80734761  0.01274765  0.48935823  1
  Ti  Ti143  1  0.69791170  0.51753318  0.13032958  1
  Ti  Ti144  1  0.60657725  0.61152072  0.25092708  1
  Ti  Ti145  1  0.19162601  0.40502296  0.50015838  1
  Ti  Ti146  1  0.79636337  -0.00454361  0.75305183  1
  Ti  Ti147  1  0.11008128  0.28726069  0.88693090  1
  Ti  Ti148  1  -0.01048066  0.18965227  0.24632310  1
  Ti  Ti149  1  0.61520867  0.79150963  0.00650452  1
  Ti  Ti150  1  0.08685615  0.70978423  0.88212077  1
  Ti  Ti151  1  0.51114303  0.49953695  0.36390672  1
  Ti  Ti152  1  0.29908534  0.91773746  0.13494993  1
  Ti  Ti153  1  0.39751252  0.20026613  0.49689442  1
  Ti  Ti154  1  0.17972841  -0.00914254  0.48477595  1
  Ti  Ti155  1  0.49589472  0.28793597  0.14056516  1
  Ti  Ti156  1  -0.01503767  0.02135318  0.76377479  1
  Ti  Ti157  1  0.52624343  0.89568582  0.38705823  1
  Ti  Ti158  1  0.80162757  0.60334479  0.24530626  1
  Ti  Ti159  1  0.70456564  0.50553647  0.36888866  1
  Mo  Mo160  1  0.88093154  0.08942510  0.62712850  1
  Mo  Mo161  1  -0.01609369  -0.00363068  0.24667281  1
  Mo  Mo162  1  0.60130656  0.80640027  0.49830828  1
  Mo  Mo163  1  0.89167970  0.09790911  0.89033020  1
  Mo  Mo164  1  0.59182042  0.19286206  0.25160499  1
  Mo  Mo165  1  0.10309257  0.69879582  0.13857223  1
  Mo  Mo166  1  0.79917476  0.80296430  0.01339514  1
  Mo  Mo167  1  0.29974113  0.29139507  0.87091123  1
  Mo  Mo168  1  -0.00565785  0.39414595  0.49543140  1
  Mo  Mo169  1  0.91059927  0.91602415  0.36918679  1
  Mo  Mo170  1  -0.01296062  0.59049110  0.76143716  1
  Mo  Mo171  1  0.89794484  0.50086070  0.11778597  1
  Mo  Mo172  1  0.88142484  0.10620667  0.37151439  1
  Mo  Mo173  1  0.19272917  0.20206502  0.00378280  1
  Mo  Mo174  1  0.10071413  0.89675268  0.36129262  1
  Mo  Mo175  1  0.61112749  0.80262944  0.25472949  1
  Mo  Mo176  1  0.12320430  0.73719675  0.60540057  1
  Mo  Mo177  1  0.70287777  0.91380962  0.38154179  1
  Mo  Mo178  1  -0.02015133  0.19777118  0.49601568  1
  Mo  Mo179  1  0.61263601  0.80127451  0.74000612  1
  Mo  Mo180  1  0.70403355  0.70095560  0.13288000  1
  Mo  Mo181  1  0.61648553  0.39847626  0.75399778  1
  Mo  Mo182  1  -0.01745573  -0.00879854  0.49773681  1
  Mo  Mo183  1  0.61604788  0.00460593  0.50287345  1
  Mo  Mo184  1  0.29396252  0.11869798  0.86711935  1
  Mo  Mo185  1  0.08368565  0.11001197  0.87207763  1
  Mo  Mo186  1  0.00398540  0.79417767  0.26597525  1
  Mo  Mo187  1  0.29706292  0.30059896  0.13630931  1
  Mo  Mo188  1  0.00652064  0.19794498  0.75920101  1
  Mo  Mo189  1  0.39838348  -0.00220191  0.25311431  1
  Mo  Mo190  1  0.50035414  0.09587990  0.13590347  1
  Mo  Mo191  1  0.10056729  0.89824115  0.87150627  1
  Mo  Mo192  1  -0.00706966  0.59545775  0.00528503  1
  Mo  Mo193  1  0.29654380  0.09493866  0.13310510  1
  Mo  Mo194  1  0.00582790  0.79280959  0.00010247  1
  Mo  Mo195  1  0.70385473  0.69254180  0.87697705  1
  Mo  Mo196  1  0.31062272  0.70188467  0.37237520  1
  Mo  Mo197  1  0.10703511  0.47693241  0.61937259  1
  Mo  Mo198  1  0.60417609  0.59194818  0.49114095  1
  Mo  Mo199  1  0.20162535  0.80343625  0.74962377  1
