# generated using pymatgen
data_HfZrTaTiMo
_symmetry_space_group_name_H-M   'P 1'
_cell_length_a   15.21695011
_cell_length_b   15.21459476
_cell_length_c   16.84339244
_cell_angle_alpha   89.99526179
_cell_angle_beta   90.06812733
_cell_angle_gamma   89.98085701
_symmetry_Int_Tables_number   1
_chemical_formula_structural   HfZrTaTiMo
_chemical_formula_sum   'Hf40 Zr40 Ta40 Ti40 Mo40'
_cell_volume   3899.57467206
_cell_formula_units_Z   40
loop_
 _symmetry_equiv_pos_site_id
 _symmetry_equiv_pos_as_xyz
  1  'x, y, z'
loop_
 _atom_site_type_symbol
 _atom_site_label
 _atom_site_symmetry_multiplicity
 _atom_site_fract_x
 _atom_site_fract_y
 _atom_site_fract_z
 _atom_site_occupancy
  Hf  Hf0  1  0.40781511  0.58975345  -0.00175399  1
  Hf  Hf1  1  0.39950722  0.79526056  0.00157836  1
  Hf  Hf2  1  0.10874278  0.88969670  0.60784720  1
  Hf  Hf3  1  0.88753569  0.30550997  0.11997885  1
  Hf  Hf4  1  0.50865024  0.31077413  0.37320314  1
  Hf  Hf5  1  0.18656326  -0.01361474  0.00337815  1
  Hf  Hf6  1  0.21232114  0.18075955  0.76145888  1
  Hf  Hf7  1  -0.00802887  -0.01669326  0.27352592  1
  Hf  Hf8  1  0.39826111  0.80040364  0.75213253  1
  Hf  Hf9  1  0.29422553  0.49106785  0.63307462  1
  Hf  Hf10  1  0.82260917  0.79563193  0.00212832  1
  Hf  Hf11  1  0.31849513  0.09223450  0.60405651  1
  Hf  Hf12  1  0.51172398  0.89572511  0.37361805  1
  Hf  Hf13  1  0.28767600  0.28916720  0.62918192  1
  Hf  Hf14  1  0.40525920  0.38984440  0.75411909  1
  Hf  Hf15  1  0.49916409  0.52692883  0.37853263  1
  Hf  Hf16  1  0.92358417  0.69905523  0.13833846  1
  Hf  Hf17  1  0.29977995  0.29752071  0.10567901  1
  Hf  Hf18  1  0.59354599  0.60190473  0.73819682  1
  Hf  Hf19  1  0.61521662  0.79985946  0.24260260  1
  Hf  Hf20  1  0.40213090  0.01228644  0.75214771  1
  Hf  Hf21  1  0.10181625  0.68866584  0.37905236  1
  Hf  Hf22  1  0.28828693  0.49869660  0.36192742  1
  Hf  Hf23  1  0.30379296  0.29896633  0.88171441  1
  Hf  Hf24  1  0.38571475  0.20324144  0.25706938  1
  Hf  Hf25  1  0.60751020  0.39599895  0.74021910  1
  Hf  Hf26  1  0.79931978  0.21727517  0.51109367  1
  Hf  Hf27  1  0.89365541  0.10193847  0.85385102  1
  Hf  Hf28  1  0.29929476  0.89260788  0.60027414  1
  Hf  Hf29  1  0.79472406  0.00687793  0.51126993  1
  Hf  Hf30  1  0.49355598  0.31376264  0.12462266  1
  Hf  Hf31  1  0.80542237  0.58414226  0.01091372  1
  Hf  Hf32  1  -0.01090425  0.19390376  0.24657049  1
  Hf  Hf33  1  0.29947835  0.48890753  0.12712375  1
  Hf  Hf34  1  0.11566816  0.10410064  0.61156644  1
  Hf  Hf35  1  -0.00962402  0.00009263  0.50075913  1
  Hf  Hf36  1  0.80109691  0.60036612  0.25216303  1
  Hf  Hf37  1  0.50120236  0.09834637  0.88081609  1
  Hf  Hf38  1  0.81855170  -0.00025181  -0.00887275  1
  Hf  Hf39  1  0.09475364  0.30626163  0.11820243  1
  Zr  Zr40  1  0.09516409  0.89312672  0.86421405  1
  Zr  Zr41  1  0.19059827  0.18722951  -0.00993899  1
  Zr  Zr42  1  0.29793570  0.68868943  0.14425387  1
  Zr  Zr43  1  0.70180287  0.11122024  0.37862066  1
  Zr  Zr44  1  0.09537701  0.29502037  0.36821548  1
  Zr  Zr45  1  0.19243880  0.39333244  0.24740055  1
  Zr  Zr46  1  0.49420452  0.09872778  0.37332788  1
  Zr  Zr47  1  0.10910654  0.70007061  0.86731049  1
  Zr  Zr48  1  0.69278948  0.30260264  0.12578506  1
  Zr  Zr49  1  0.41683541  0.77414468  0.49112301  1
  Zr  Zr50  1  0.00440469  0.00001577  0.73264192  1
  Zr  Zr51  1  0.61124365  0.80837368  0.00852322  1
  Zr  Zr52  1  0.60020591  0.42067714  -0.00378494  1
  Zr  Zr53  1  0.49262168  0.28481953  0.61978907  1
  Zr  Zr54  1  0.70137203  0.30565924  0.87599523  1
  Zr  Zr55  1  0.00094299  0.60606887  0.74860339  1
  Zr  Zr56  1  -0.01180385  0.18437542  -0.00069499  1
  Zr  Zr57  1  0.90199682  0.31503884  0.64523722  1
  Zr  Zr58  1  0.70812379  0.69837298  0.88297066  1
  Zr  Zr59  1  0.89290719  0.50661277  0.86534329  1
  Zr  Zr60  1  0.29827381  0.89754234  0.13242147  1
  Zr  Zr61  1  0.50309182  0.90658240  0.12774770  1
  Zr  Zr62  1  0.20295474  0.58325580  0.49696493  1
  Zr  Zr63  1  0.90310579  0.30581638  0.86557100  1
  Zr  Zr64  1  0.60796399  0.40779845  0.50984663  1
  Zr  Zr65  1  0.31061616  0.69139732  0.62604027  1
  Zr  Zr66  1  0.60266580  0.80055028  0.74420007  1
  Zr  Zr67  1  0.39151422  0.40362736  0.49421319  1
  Zr  Zr68  1  0.10827651  0.69215969  0.61707965  1
  Zr  Zr69  1  0.18645401  0.58571162  0.00738028  1
  Zr  Zr70  1  0.81658101  0.81390420  0.25977473  1
  Zr  Zr71  1  0.19603187  -0.00455154  0.26063137  1
  Zr  Zr72  1  -0.00001444  0.39807422  0.50118566  1
  Zr  Zr73  1  0.61903062  0.01014910  0.24553433  1
  Zr  Zr74  1  0.79578536  0.62075512  0.73876584  1
  Zr  Zr75  1  -0.00177329  0.42314292  0.00393393  1
  Zr  Zr76  1  0.49680800  0.10902687  0.12455138  1
  Zr  Zr77  1  0.19307771  0.18683132  0.24305273  1
  Zr  Zr78  1  0.70312718  0.91220329  0.86721756  1
  Zr  Zr79  1  0.29958770  0.89500067  0.87957144  1
  Ta  Ta80  1  0.61082258  0.80184342  0.50843084  1
  Ta  Ta81  1  -0.00600707  0.79563217  0.73440366  1
  Ta  Ta82  1  0.50371168  0.50492696  0.13402233  1
  Ta  Ta83  1  0.40617121  0.40467737  0.25674718  1
  Ta  Ta84  1  0.79450100  0.60699471  0.50450137  1
  Ta  Ta85  1  0.10542172  0.48764220  0.86366801  1
  Ta  Ta86  1  0.90245679  0.11340489  0.63391971  1
  Ta  Ta87  1  0.78063369  0.20707744  0.74043456  1
  Ta  Ta88  1  0.69213884  0.70157400  0.38323382  1
  Ta  Ta89  1  0.79302501  0.00519712  0.73474101  1
  Ta  Ta90  1  0.62004196  0.01870187  0.00515625  1
  Ta  Ta91  1  0.92698567  0.90596178  0.12733385  1
  Ta  Ta92  1  0.90113758  0.50790881  0.63170829  1
  Ta  Ta93  1  0.50590458  0.69405023  0.12633770  1
  Ta  Ta94  1  0.30334535  0.89504749  0.38478294  1
  Ta  Ta95  1  0.58458805  0.19672555  0.75449721  1
  Ta  Ta96  1  0.50556019  0.69504548  0.88153394  1
  Ta  Ta97  1  0.79719801  0.40376436  0.25635939  1
  Ta  Ta98  1  0.29655868  0.49488808  0.87623464  1
  Ta  Ta99  1  0.69704083  0.90396840  0.62595731  1
  Ta  Ta100  1  0.60187938  0.60225128  0.24918873  1
  Ta  Ta101  1  0.88034629  0.08885848  0.13328807  1
  Ta  Ta102  1  0.19011517  0.79774969  0.26185892  1
  Ta  Ta103  1  0.07935052  0.07258001  0.12390004  1
  Ta  Ta104  1  0.09973383  0.48249631  0.63823456  1
  Ta  Ta105  1  0.80692611  0.41501732  0.49588466  1
  Ta  Ta106  1  0.31193005  0.69038469  0.36094373  1
  Ta  Ta107  1  0.49478105  0.90705000  0.61702992  1
  Ta  Ta108  1  0.59518380  0.20645375  -0.00717479  1
  Ta  Ta109  1  0.19350406  0.38296989  0.49474194  1
  Ta  Ta110  1  0.59873991  0.20141118  0.50277267  1
  Ta  Ta111  1  0.19390665  0.78593126  0.01216973  1
  Ta  Ta112  1  0.89309730  0.30582694  0.36965040  1
  Ta  Ta113  1  0.09817530  0.09861142  0.39232943  1
  Ta  Ta114  1  0.21047937  -0.01786826  0.74271615  1
  Ta  Ta115  1  -0.01411695  0.58970335  0.50021945  1
  Ta  Ta116  1  0.78293571  0.18847922  -0.00335420  1
  Ta  Ta117  1  0.59626434  0.00225947  0.50561312  1
  Ta  Ta118  1  0.72914829  0.91882045  0.12668976  1
  Ta  Ta119  1  0.29662609  0.09444540  0.11870801  1
  Ti  Ti120  1  0.80679645  0.80493967  0.73939814  1
  Ti  Ti121  1  0.09613643  0.09018559  0.86661766  1
  Ti  Ti122  1  0.59755063  0.00644088  0.74244917  1
  Ti  Ti123  1  0.50006812  0.49441013  0.87375114  1
  Ti  Ti124  1  0.59877475  0.21404700  0.24954027  1
  Ti  Ti125  1  -0.00175269  0.62195741  -0.00647044  1
  Ti  Ti126  1  0.89768696  0.89705162  0.62091328  1
  Ti  Ti127  1  0.48678905  0.51311876  0.61894288  1
  Ti  Ti128  1  0.30135607  0.69402885  0.87497251  1
  Ti  Ti129  1  0.07772941  0.52120090  0.14620830  1
  Ti  Ti130  1  0.68630166  0.11123123  0.62619593  1
  Ti  Ti131  1  0.40852768  0.79478582  0.25628336  1
  Ti  Ti132  1  0.40473425  0.59851660  0.76062386  1
  Ti  Ti133  1  0.07743785  0.49604298  0.35964725  1
  Ti  Ti134  1  0.40117838  0.19649126  -0.00737309  1
  Ti  Ti135  1  0.80118179  0.79936368  0.50354108  1
  Ti  Ti136  1  0.00068620  0.20754582  0.50292474  1
  Ti  Ti137  1  0.01227654  0.81306300  0.00065450  1
  Ti  Ti138  1  0.70152505  0.31023245  0.37187430  1
  Ti  Ti139  1  0.09830734  0.30080868  0.86510942  1
  Ti  Ti140  1  0.29049213  0.09802293  0.39150666  1
  Ti  Ti141  1  0.69909704  0.50458342  0.87085817  1
  Ti  Ti142  1  0.09990076  0.89018418  0.39549404  1
  Ti  Ti143  1  0.39295229  0.00083492  0.25390728  1
  Ti  Ti144  1  0.70775486  0.49951801  0.62471896  1
  Ti  Ti145  1  0.89589009  0.10597072  0.37929257  1
  Ti  Ti146  1  0.09792970  0.29513679  0.64218953  1
  Ti  Ti147  1  0.70060621  0.49751789  0.12987780  1
  Ti  Ti148  1  0.39429415  0.20408687  0.48479370  1
  Ti  Ti149  1  0.50619619  0.89853183  0.88275717  1
  Ti  Ti150  1  0.39876280  0.00277942  -0.00199826  1
  Ti  Ti151  1  -0.00963127  0.78855555  0.50123772  1
  Ti  Ti152  1  0.71442039  0.90436440  0.38136614  1
  Ti  Ti153  1  0.20866239  0.59707362  0.75276697  1
  Ti  Ti154  1  0.90418352  0.89506401  0.86146378  1
  Ti  Ti155  1  0.69916098  0.50468043  0.37734682  1
  Ti  Ti156  1  0.59284015  0.61708267  0.51479826  1
  Ti  Ti157  1  0.89943267  0.69795199  0.37704492  1
  Ti  Ti158  1  0.70362540  0.69748203  0.11953931  1
  Ti  Ti159  1  0.79161973  0.19506511  0.25116397  1
  Mo  Mo160  1  0.50315693  0.70112466  0.63108435  1
  Mo  Mo161  1  0.00525058  0.19658427  0.74997012  1
  Mo  Mo162  1  0.09841812  0.70812249  0.13454908  1
  Mo  Mo163  1  0.88982804  0.50198586  0.37919923  1
  Mo  Mo164  1  -0.00606197  0.60046045  0.26313363  1
  Mo  Mo165  1  0.91000497  0.71999496  0.87579451  1
  Mo  Mo166  1  0.89483454  0.49738463  0.13281733  1
  Mo  Mo167  1  0.80874346  0.00682021  0.25920949  1
  Mo  Mo168  1  0.19974748  0.39539196  0.75577415  1
  Mo  Mo169  1  0.00466220  0.40155474  0.75222634  1
  Mo  Mo170  1  0.49960623  0.30211083  0.87851397  1
  Mo  Mo171  1  0.60599726  0.41190718  0.25515197  1
  Mo  Mo172  1  0.40454660  0.60079506  0.24481984  1
  Mo  Mo173  1  -0.00182449  -0.00293536  -0.00538179  1
  Mo  Mo174  1  0.20051175  -0.00235287  0.48570762  1
  Mo  Mo175  1  0.40083500  0.40062924  -0.00860328  1
  Mo  Mo176  1  0.51274978  0.70414989  0.36693285  1
  Mo  Mo177  1  0.79708698  0.39777099  0.00402898  1
  Mo  Mo178  1  0.29640137  0.09008820  0.88163578  1
  Mo  Mo179  1  0.00781505  0.79947436  0.26918810  1
  Mo  Mo180  1  0.20530035  0.79060016  0.47738576  1
  Mo  Mo181  1  0.90087001  0.70590805  0.61180559  1
  Mo  Mo182  1  0.40738289  -0.00498573  0.48884903  1
  Mo  Mo183  1  0.89752327  0.89425837  0.39736270  1
  Mo  Mo184  1  0.40458752  0.19214845  0.75612083  1
  Mo  Mo185  1  0.09767493  0.88525265  0.13267262  1
  Mo  Mo186  1  0.19741600  0.20555179  0.49780378  1
  Mo  Mo187  1  0.69820434  0.10225059  0.86431355  1
  Mo  Mo188  1  0.40492123  0.59295403  0.50047791  1
  Mo  Mo189  1  0.19274697  0.39832337  -0.00898494  1
  Mo  Mo190  1  0.30060993  0.29552792  0.37522909  1
  Mo  Mo191  1  0.70130316  0.10722404  0.12444510  1
  Mo  Mo192  1  0.70201415  0.70674465  0.61428873  1
  Mo  Mo193  1  0.20334340  0.79514937  0.74433389  1
  Mo  Mo194  1  0.19230046  0.60053619  0.25002184  1
  Mo  Mo195  1  0.60105704  0.60737965  0.00600970  1
  Mo  Mo196  1  0.50419520  0.09536352  0.61811188  1
  Mo  Mo197  1  0.79396704  0.41366623  0.74476263  1
  Mo  Mo198  1  0.69969427  0.30206598  0.62506647  1
  Mo  Mo199  1  -0.01866762  0.40447236  0.24484609  1
