# generated using pymatgen
data_HfZrTaTiMo
_symmetry_space_group_name_H-M   'P 1'
_cell_length_a   15.21485123
_cell_length_b   15.21477200
_cell_length_c   16.81632486
_cell_angle_alpha   89.93527950
_cell_angle_beta   90.00062897
_cell_angle_gamma   90.06869410
_symmetry_Int_Tables_number   1
_chemical_formula_structural   HfZrTaTiMo
_chemical_formula_sum   'Hf40 Zr40 Ta40 Ti40 Mo40'
_cell_volume   3892.81404291
_cell_formula_units_Z   40
loop_
 _symmetry_equiv_pos_site_id
 _symmetry_equiv_pos_as_xyz
  1  'x, y, z'
loop_
 _atom_site_type_symbol
 _atom_site_label
 _atom_site_symmetry_multiplicity
 _atom_site_fract_x
 _atom_site_fract_y
 _atom_site_fract_z
 _atom_site_occupancy
  Hf  Hf0  1  0.30524375  0.90390467  0.87056680  1
  Hf  Hf1  1  0.00071245  0.40045022  0.25183601  1
  Hf  Hf2  1  0.50133062  0.30508389  0.62359384  1
  Hf  Hf3  1  0.61112246  0.18740769  -0.01313718  1
  Hf  Hf4  1  0.78249145  0.60486438  -0.01121070  1
  Hf  Hf5  1  0.09676337  0.07945099  0.60336167  1
  Hf  Hf6  1  0.59543006  0.40085777  0.25431883  1
  Hf  Hf7  1  0.09742041  0.49498893  0.88375557  1
  Hf  Hf8  1  0.00754999  0.00004498  -0.00518466  1
  Hf  Hf9  1  0.90090316  0.50384920  0.62988251  1
  Hf  Hf10  1  0.01343695  0.40198075  0.50447642  1
  Hf  Hf11  1  0.69929620  0.29853121  0.61954425  1
  Hf  Hf12  1  0.59739222  0.80696208  0.49369380  1
  Hf  Hf13  1  0.80527168  0.19914689  0.26299474  1
  Hf  Hf14  1  0.59827513  0.20083548  0.76342971  1
  Hf  Hf15  1  0.19681461  0.40010396  0.73999884  1
  Hf  Hf16  1  0.29827762  0.89022518  0.37286636  1
  Hf  Hf17  1  0.48448444  0.09098108  0.86921748  1
  Hf  Hf18  1  0.00072516  0.19323906  0.75292496  1
  Hf  Hf19  1  0.39957455  0.79484636  0.24413319  1
  Hf  Hf20  1  0.69970411  0.91780914  0.12649530  1
  Hf  Hf21  1  0.38171898  0.78806287  0.51053424  1
  Hf  Hf22  1  0.20097999  0.61545790  0.74470607  1
  Hf  Hf23  1  0.82443867  0.61351395  0.25835654  1
  Hf  Hf24  1  0.39462999  0.39140356  0.24722546  1
  Hf  Hf25  1  0.28727023  0.09381641  0.39603376  1
  Hf  Hf26  1  0.80870718  0.39141759  -0.00320372  1
  Hf  Hf27  1  0.70775392  0.50557002  0.37331845  1
  Hf  Hf28  1  0.08438321  0.10609821  0.13282466  1
  Hf  Hf29  1  0.70311183  0.30253894  0.37695996  1
  Hf  Hf30  1  0.71209598  0.70869999  0.13294779  1
  Hf  Hf31  1  0.11717072  0.89965867  0.87620374  1
  Hf  Hf32  1  0.89824804  0.29716616  0.62855750  1
  Hf  Hf33  1  0.30181368  0.69381808  0.12007752  1
  Hf  Hf34  1  0.29540532  0.09858583  0.60540998  1
  Hf  Hf35  1  -0.01532700  0.19816198  0.49176270  1
  Hf  Hf36  1  0.40895722  0.79911218  0.00963609  1
  Hf  Hf37  1  0.08774999  0.08383203  0.38252294  1
  Hf  Hf38  1  0.19457769  0.19117427  0.73660153  1
  Hf  Hf39  1  0.59986416  0.40106722  -0.01173885  1
  Zr  Zr40  1  0.50754735  0.10344300  0.62107323  1
  Zr  Zr41  1  0.29820554  0.71107989  0.88245118  1
  Zr  Zr42  1  0.40887604  0.20585771  0.48654180  1
  Zr  Zr43  1  0.81379931  0.60548394  0.49020328  1
  Zr  Zr44  1  0.59967210  0.80531996  0.26210670  1
  Zr  Zr45  1  0.89656221  0.90778410  0.12932112  1
  Zr  Zr46  1  0.91352940  0.89230503  0.87128156  1
  Zr  Zr47  1  -0.01043768  0.79053706  0.24032663  1
  Zr  Zr48  1  0.02684237  0.59784111  0.23321898  1
  Zr  Zr49  1  0.60891676  0.78460344  -0.00564861  1
  Zr  Zr50  1  0.50585789  0.50384432  0.62187070  1
  Zr  Zr51  1  -0.01551151  0.20055764  -0.00931468  1
  Zr  Zr52  1  0.26719964  0.09808597  0.88571131  1
  Zr  Zr53  1  0.59817659  0.40342676  0.76829636  1
  Zr  Zr54  1  0.59283461  0.60697541  0.25959549  1
  Zr  Zr55  1  0.79787957  0.02210980  -0.01647915  1
  Zr  Zr56  1  0.39035068  -0.00763820  0.01578637  1
  Zr  Zr57  1  0.80755899  0.00255831  0.74789396  1
  Zr  Zr58  1  0.29942754  0.50867840  0.88087922  1
  Zr  Zr59  1  0.10860787  0.30555067  0.37385683  1
  Zr  Zr60  1  0.60710263  -0.00592697  0.74676561  1
  Zr  Zr61  1  0.38665703  0.00159893  0.73433706  1
  Zr  Zr62  1  0.91276927  0.91489679  0.36967888  1
  Zr  Zr63  1  0.80468642  0.00491991  0.50428695  1
  Zr  Zr64  1  0.49638968  0.29561760  0.12448114  1
  Zr  Zr65  1  0.29671854  0.50087125  0.38745344  1
  Zr  Zr66  1  0.70436839  0.28281533  0.12570740  1
  Zr  Zr67  1  0.29329378  0.30539253  0.87564840  1
  Zr  Zr68  1  0.90361712  0.50090144  0.87566262  1
  Zr  Zr69  1  0.70249013  0.49737471  0.62068392  1
  Zr  Zr70  1  0.91467079  0.71407017  0.62696009  1
  Zr  Zr71  1  0.80181799  0.79495085  0.74744061  1
  Zr  Zr72  1  0.19990669  0.41771775  0.23669601  1
  Zr  Zr73  1  0.20697526  0.00570922  0.24686488  1
  Zr  Zr74  1  0.69550185  0.50448537  0.12839162  1
  Zr  Zr75  1  0.69656171  0.69555057  0.61849891  1
  Zr  Zr76  1  0.59438153  -0.01133445  -0.01099535  1
  Zr  Zr77  1  0.38948507  0.18925171  0.26153935  1
  Zr  Zr78  1  0.58966395  0.19341155  0.26861733  1
  Zr  Zr79  1  0.39953730  0.20437556  -0.00168139  1
  Ta  Ta80  1  0.60102133  0.00183692  0.26366561  1
  Ta  Ta81  1  0.59811240  0.39694281  0.48807271  1
  Ta  Ta82  1  0.09377707  0.70329099  0.88155827  1
  Ta  Ta83  1  0.50042552  0.89053080  0.62605620  1
  Ta  Ta84  1  0.49462027  0.88439032  0.86095689  1
  Ta  Ta85  1  0.81106353  0.80937086  0.49308892  1
  Ta  Ta86  1  0.81307966  0.39633197  0.49022690  1
  Ta  Ta87  1  0.49297349  0.49726614  0.37929749  1
  Ta  Ta88  1  0.79728272  0.19703419  0.75694064  1
  Ta  Ta89  1  0.69987094  0.88835757  0.86910803  1
  Ta  Ta90  1  0.09898697  0.70076894  0.37746029  1
  Ta  Ta91  1  0.00505310  0.60344500  0.74970126  1
  Ta  Ta92  1  0.59174964  0.60299768  0.48588678  1
  Ta  Ta93  1  0.30099616  0.30852435  0.62034314  1
  Ta  Ta94  1  0.51402766  0.09294159  0.12781037  1
  Ta  Ta95  1  0.10664665  0.89150299  0.36973959  1
  Ta  Ta96  1  0.38922811  0.79269215  0.73436838  1
  Ta  Ta97  1  0.30813519  0.50858204  0.62034779  1
  Ta  Ta98  1  0.90561152  0.29761635  0.12725927  1
  Ta  Ta99  1  0.18866241  0.60683993  0.00600607  1
  Ta  Ta100  1  0.39251446  0.59076512  0.24703468  1
  Ta  Ta101  1  0.01689045  -0.00732765  0.74748641  1
  Ta  Ta102  1  0.90163147  0.49881910  0.11811077  1
  Ta  Ta103  1  0.11310602  0.51473857  0.38574313  1
  Ta  Ta104  1  0.59243966  0.78756524  0.74885003  1
  Ta  Ta105  1  0.40766080  0.60324893  0.75033230  1
  Ta  Ta106  1  0.19340474  0.78798236  0.23852035  1
  Ta  Ta107  1  0.09866508  0.30124379  0.12042759  1
  Ta  Ta108  1  0.39840222  0.40464634  0.00249254  1
  Ta  Ta109  1  0.28561447  0.69178478  0.36873266  1
  Ta  Ta110  1  0.00442199  0.79086708  0.01252797  1
  Ta  Ta111  1  0.40217260  -0.01430575  0.50688433  1
  Ta  Ta112  1  0.70609441  0.71044851  0.38070668  1
  Ta  Ta113  1  0.81037439  0.40402627  0.25213156  1
  Ta  Ta114  1  0.80867358  0.80182385  -0.00634007  1
  Ta  Ta115  1  0.10404028  0.90404436  0.13004700  1
  Ta  Ta116  1  0.39478323  0.21144929  0.75116241  1
  Ta  Ta117  1  0.00633952  0.39768618  0.74357403  1
  Ta  Ta118  1  0.29105327  0.11099214  0.11957600  1
  Ta  Ta119  1  0.80116883  0.39633265  0.75895126  1
  Ti  Ti120  1  0.49324789  0.50575019  0.11610053  1
  Ti  Ti121  1  0.19911111  0.21187839  0.24915995  1
  Ti  Ti122  1  0.59987780  0.19652717  0.48572793  1
  Ti  Ti123  1  0.20856892  0.61588232  0.51463234  1
  Ti  Ti124  1  -0.00548772  0.19820311  0.26196625  1
  Ti  Ti125  1  0.29737435  0.30792117  0.38430291  1
  Ti  Ti126  1  0.48139915  0.69569735  0.38007945  1
  Ti  Ti127  1  0.50769969  0.68680236  0.12107816  1
  Ti  Ti128  1  0.71036727  0.29428627  0.87779244  1
  Ti  Ti129  1  0.10180718  0.29221105  0.88375869  1
  Ti  Ti130  1  0.20243050  0.81535394  0.01601863  1
  Ti  Ti131  1  0.10508146  0.50545656  0.62134435  1
  Ti  Ti132  1  0.49569876  0.50552193  0.88215355  1
  Ti  Ti133  1  -0.00801248  0.60196609  0.01004384  1
  Ti  Ti134  1  0.49582833  0.69166839  0.62141443  1
  Ti  Ti135  1  0.40110793  0.40428564  0.75276961  1
  Ti  Ti136  1  0.79681778  0.81026736  0.26732372  1
  Ti  Ti137  1  0.59808332  0.00045733  0.49622548  1
  Ti  Ti138  1  0.29882221  0.49948552  0.11261720  1
  Ti  Ti139  1  0.01203151  0.80976598  0.50146993  1
  Ti  Ti140  1  0.79749368  0.20145428  0.49099714  1
  Ti  Ti141  1  0.40074966  0.40479606  0.49977250  1
  Ti  Ti142  1  0.19638018  0.39418302  0.00903147  1
  Ti  Ti143  1  0.50409578  0.89742051  0.13365981  1
  Ti  Ti144  1  0.90395696  0.69982807  0.87125154  1
  Ti  Ti145  1  0.79434350  0.59485464  0.76128977  1
  Ti  Ti146  1  0.90058764  0.09483743  0.62592010  1
  Ti  Ti147  1  0.70456392  0.89647000  0.62141474  1
  Ti  Ti148  1  0.88158388  0.10595836  0.12833404  1
  Ti  Ti149  1  0.18994594  0.22458869  0.50932975  1
  Ti  Ti150  1  0.49591871  0.90593842  0.37747073  1
  Ti  Ti151  1  0.79925615  0.00711403  0.25939838  1
  Ti  Ti152  1  0.01142371  0.61177137  0.50244121  1
  Ti  Ti153  1  0.60437644  0.60080219  0.76257778  1
  Ti  Ti154  1  0.49939945  0.69344090  0.87677690  1
  Ti  Ti155  1  0.91964997  0.50678877  0.37750661  1
  Ti  Ti156  1  0.70105066  0.08844400  0.38219836  1
  Ti  Ti157  1  0.90583136  0.30040521  0.86833527  1
  Ti  Ti158  1  0.40671823  0.00149999  0.24563700  1
  Ti  Ti159  1  0.70230130  0.10590938  0.62020445  1
  Mo  Mo160  1  0.30238715  0.69600570  0.63087713  1
  Mo  Mo161  1  0.10148086  0.70260658  0.11253989  1
  Mo  Mo162  1  0.20450606  0.40843837  0.51599657  1
  Mo  Mo163  1  0.69846285  0.09512371  0.13440259  1
  Mo  Mo164  1  0.49603205  0.08279570  0.38405508  1
  Mo  Mo165  1  0.40232093  0.60100315  0.49912510  1
  Mo  Mo166  1  0.20691128  0.60297953  0.24335362  1
  Mo  Mo167  1  0.29034058  0.29990068  0.11906661  1
  Mo  Mo168  1  0.89563287  0.10738224  0.37423951  1
  Mo  Mo169  1  0.19096025  0.79083578  0.49884349  1
  Mo  Mo170  1  0.09456930  0.09720726  0.87355669  1
  Mo  Mo171  1  0.90023676  0.31245711  0.37532929  1
  Mo  Mo172  1  0.19507477  0.80826880  0.74448845  1
  Mo  Mo173  1  0.00302152  0.39992451  0.00608279  1
  Mo  Mo174  1  0.70152467  0.09832659  0.86655059  1
  Mo  Mo175  1  0.18909463  0.20266383  0.01066005  1
  Mo  Mo176  1  0.28593607  0.89770430  0.62391525  1
  Mo  Mo177  1  0.69905283  0.69776844  0.86590183  1
  Mo  Mo178  1  0.09965216  0.29896470  0.62396945  1
  Mo  Mo179  1  0.09335583  0.88092201  0.63079685  1
  Mo  Mo180  1  0.30011014  0.90162196  0.13768314  1
  Mo  Mo181  1  0.91434124  0.90796783  0.62365929  1
  Mo  Mo182  1  0.49410905  0.30595195  0.38032924  1
  Mo  Mo183  1  0.49018261  0.30500670  0.87407731  1
  Mo  Mo184  1  0.19559280  -0.00011672  0.01813574  1
  Mo  Mo185  1  0.69858563  0.49897133  0.87086800  1
  Mo  Mo186  1  -0.00361802  -0.01230344  0.50521104  1
  Mo  Mo187  1  0.70033494  0.90429148  0.38030683  1
  Mo  Mo188  1  0.19878945  -0.03546999  0.49974154  1
  Mo  Mo189  1  0.19462534  -0.00265137  0.74029589  1
  Mo  Mo190  1  0.10375353  0.69570455  0.62223388  1
  Mo  Mo191  1  0.40439020  0.59678338  0.00314752  1
  Mo  Mo192  1  0.58851317  0.59492761  -0.00524912  1
  Mo  Mo193  1  0.09932182  0.49661049  0.10466035  1
  Mo  Mo194  1  0.01568926  0.79021135  0.75289110  1
  Mo  Mo195  1  0.89249686  0.69642210  0.11488382  1
  Mo  Mo196  1  0.90382214  0.10328133  0.86218105  1
  Mo  Mo197  1  0.91213841  0.70575511  0.38615823  1
  Mo  Mo198  1  0.80076379  0.20218700  -0.00617242  1
  Mo  Mo199  1  -0.00501425  0.00980627  0.24452977  1
