# generated using pymatgen
data_HfZrTaTiMo
_symmetry_space_group_name_H-M   'P 1'
_cell_length_a   15.21428762
_cell_length_b   15.21737821
_cell_length_c   16.83625677
_cell_angle_alpha   90.03233077
_cell_angle_beta   90.01147359
_cell_angle_gamma   89.94918995
_symmetry_Int_Tables_number   1
_chemical_formula_structural   HfZrTaTiMo
_chemical_formula_sum   'Hf40 Zr40 Ta40 Ti40 Mo40'
_cell_volume   3897.95435129
_cell_formula_units_Z   40
loop_
 _symmetry_equiv_pos_site_id
 _symmetry_equiv_pos_as_xyz
  1  'x, y, z'
loop_
 _atom_site_type_symbol
 _atom_site_label
 _atom_site_symmetry_multiplicity
 _atom_site_fract_x
 _atom_site_fract_y
 _atom_site_fract_z
 _atom_site_occupancy
  Hf  Hf0  1  0.20484915  -0.01004145  0.49828887  1
  Hf  Hf1  1  0.70559346  0.89661691  0.11650994  1
  Hf  Hf2  1  0.00093024  0.79696128  0.25182732  1
  Hf  Hf3  1  0.49594030  0.31493042  0.86376198  1
  Hf  Hf4  1  0.88806864  0.28303483  0.88518055  1
  Hf  Hf5  1  0.58769134  0.80382059  0.49417829  1
  Hf  Hf6  1  0.32164380  0.09406265  0.38836910  1
  Hf  Hf7  1  0.32047016  0.70572123  0.38957522  1
  Hf  Hf8  1  0.90476942  0.90732834  0.87165611  1
  Hf  Hf9  1  0.50051766  0.32990209  0.64414702  1
  Hf  Hf10  1  0.59959628  0.79567120  -0.00583265  1
  Hf  Hf11  1  0.09228940  0.09269778  0.36824624  1
  Hf  Hf12  1  0.49996406  0.91493095  0.10984983  1
  Hf  Hf13  1  0.00310109  0.80239693  -0.00363957  1
  Hf  Hf14  1  0.09592953  0.10112323  0.62944051  1
  Hf  Hf15  1  0.20188522  0.60116815  -0.00658752  1
  Hf  Hf16  1  0.28861973  0.50978285  0.37744636  1
  Hf  Hf17  1  0.60982948  0.40546058  0.48642254  1
  Hf  Hf18  1  0.90094297  0.90254503  0.38285787  1
  Hf  Hf19  1  0.90435167  0.08320935  0.13729784  1
  Hf  Hf20  1  0.71742404  0.10726880  0.88870745  1
  Hf  Hf21  1  0.78523250  0.40223294  0.00549860  1
  Hf  Hf22  1  0.31769105  0.28974216  0.11031785  1
  Hf  Hf23  1  0.60242621  0.60759157  0.48975642  1
  Hf  Hf24  1  -0.00967290  0.18080438  0.01064008  1
  Hf  Hf25  1  -0.00113333  0.40836975  0.22808201  1
  Hf  Hf26  1  0.19118588  -0.00966713  -0.01832697  1
  Hf  Hf27  1  0.38861129  0.01635971  -0.02083909  1
  Hf  Hf28  1  0.80825803  0.40144745  0.24646295  1
  Hf  Hf29  1  0.09269531  0.89950561  0.62959477  1
  Hf  Hf30  1  0.89768910  0.69206615  0.12954973  1
  Hf  Hf31  1  0.40064791  0.60262492  0.73908294  1
  Hf  Hf32  1  0.70044363  0.90895151  0.88471258  1
  Hf  Hf33  1  0.90917688  0.69122055  0.37996644  1
  Hf  Hf34  1  0.87126215  0.89614565  0.62145033  1
  Hf  Hf35  1  0.20449126  0.79319615  0.25666013  1
  Hf  Hf36  1  0.40829185  0.40229678  0.49458580  1
  Hf  Hf37  1  0.30256158  0.09901469  0.61855702  1
  Hf  Hf38  1  0.21869280  0.19557055  0.24977027  1
  Hf  Hf39  1  0.61445896  0.59634535  -0.01061668  1
  Zr  Zr40  1  0.40089353  0.40125046  0.25387025  1
  Zr  Zr41  1  0.10155151  0.90081938  0.12774320  1
  Zr  Zr42  1  0.09759762  0.88655915  0.38509359  1
  Zr  Zr43  1  0.89228327  0.10458067  0.36890514  1
  Zr  Zr44  1  0.51526035  0.11340451  0.86742661  1
  Zr  Zr45  1  0.19877629  0.78099945  0.74137939  1
  Zr  Zr46  1  0.08181157  0.09430931  0.87150835  1
  Zr  Zr47  1  0.50156635  0.50259891  0.86400593  1
  Zr  Zr48  1  0.78699487  -0.00342440  0.25181924  1
  Zr  Zr49  1  0.09268766  0.31456530  0.36895138  1
  Zr  Zr50  1  0.59118241  0.21161320  0.50663166  1
  Zr  Zr51  1  0.60219763  0.41411608  0.26575237  1
  Zr  Zr52  1  0.10445843  0.29785166  0.89134851  1
  Zr  Zr53  1  -0.01287891  0.40889624  0.01505132  1
  Zr  Zr54  1  0.11439429  0.29118457  0.10942245  1
  Zr  Zr55  1  0.37975061  0.21025322  0.75462328  1
  Zr  Zr56  1  0.60836010  0.00288397  0.51967198  1
  Zr  Zr57  1  0.10154441  0.49521326  0.62727326  1
  Zr  Zr58  1  0.30269616  0.29997513  0.37648931  1
  Zr  Zr59  1  -0.01766734  0.78275809  0.73778437  1
  Zr  Zr60  1  0.78868456  0.19992810  0.50360207  1
  Zr  Zr61  1  0.39513615  0.80838828  0.24469135  1
  Zr  Zr62  1  0.90373545  0.51066992  0.61404805  1
  Zr  Zr63  1  0.50155717  0.68693145  0.12050695  1
  Zr  Zr64  1  0.10290262  0.29804107  0.62843926  1
  Zr  Zr65  1  0.48736253  0.11981815  0.12021943  1
  Zr  Zr66  1  0.50122776  0.11299368  0.63937404  1
  Zr  Zr67  1  0.70470929  0.69467864  0.13272555  1
  Zr  Zr68  1  0.80605067  0.40095992  0.75356585  1
  Zr  Zr69  1  0.20223379  0.58297146  0.75609124  1
  Zr  Zr70  1  0.50165592  0.90547683  0.87287258  1
  Zr  Zr71  1  0.19689565  0.20227606  0.49405055  1
  Zr  Zr72  1  0.68996824  0.09368705  0.10969427  1
  Zr  Zr73  1  0.29777662  0.70512743  0.11182081  1
  Zr  Zr74  1  -0.00077434  0.20561428  0.23707230  1
  Zr  Zr75  1  0.51817545  0.08763669  0.37497120  1
  Zr  Zr76  1  0.59298061  0.80187503  0.25861609  1
  Zr  Zr77  1  0.00698172  0.39923175  0.76259017  1
  Zr  Zr78  1  0.20229881  0.78679688  0.51598980  1
  Zr  Zr79  1  0.69800572  0.49913702  0.62638455  1
  Ta  Ta80  1  0.70904908  0.70878867  0.62250829  1
  Ta  Ta81  1  0.31533741  0.50050089  0.12090441  1
  Ta  Ta82  1  0.39377392  0.00119193  0.76190408  1
  Ta  Ta83  1  0.49688724  0.90318549  0.63658272  1
  Ta  Ta84  1  0.62308627  0.00419083  0.74008519  1
  Ta  Ta85  1  0.00552101  0.59296880  0.24736226  1
  Ta  Ta86  1  0.19134716  0.40829394  0.49740771  1
  Ta  Ta87  1  -0.01423448  0.00384540  0.74251615  1
  Ta  Ta88  1  0.50052135  0.70233616  0.87118739  1
  Ta  Ta89  1  0.60865389  0.61008733  0.74693378  1
  Ta  Ta90  1  0.79626728  0.59164517  0.26716839  1
  Ta  Ta91  1  0.39778089  0.00680597  0.24610703  1
  Ta  Ta92  1  0.78392648  0.79856933  0.48577729  1
  Ta  Ta93  1  -0.00787828  0.20415578  0.49937577  1
  Ta  Ta94  1  0.60155986  0.21934091  0.00004327  1
  Ta  Ta95  1  0.60062688  0.79908298  0.74921087  1
  Ta  Ta96  1  0.19919471  0.40887485  0.23483566  1
  Ta  Ta97  1  0.08981281  0.69231170  0.87534635  1
  Ta  Ta98  1  0.79290585  0.20540761  0.24012050  1
  Ta  Ta99  1  0.59000182  0.40727299  0.00519778  1
  Ta  Ta100  1  0.90066006  0.30053097  0.62259480  1
  Ta  Ta101  1  0.30057411  0.29525147  0.89802002  1
  Ta  Ta102  1  0.80434579  0.78641675  -0.01241667  1
  Ta  Ta103  1  0.68183508  0.91635002  0.37206320  1
  Ta  Ta104  1  0.20951329  -0.00841784  0.25796620  1
  Ta  Ta105  1  0.68832815  0.30197975  0.86709024  1
  Ta  Ta106  1  0.31094460  0.49224415  0.61873076  1
  Ta  Ta107  1  0.79650326  0.79507495  0.26768781  1
  Ta  Ta108  1  0.79836140  0.18326689  0.74478680  1
  Ta  Ta109  1  0.69097643  0.50589708  0.13296934  1
  Ta  Ta110  1  0.20382454  -0.00152068  0.75819315  1
  Ta  Ta111  1  0.39845087  0.79875807  0.75063021  1
  Ta  Ta112  1  0.30792772  0.89967642  0.63346952  1
  Ta  Ta113  1  0.70388718  0.29076255  0.36761405  1
  Ta  Ta114  1  0.10838451  0.67660168  0.38071113  1
  Ta  Ta115  1  0.89614130  0.10014882  0.62106418  1
  Ta  Ta116  1  0.59913067  0.19713573  0.24969572  1
  Ta  Ta117  1  0.20311923  0.59663481  0.24284670  1
  Ta  Ta118  1  0.80723854  0.61572901  0.75693096  1
  Ta  Ta119  1  -0.00853090  0.77989339  0.51641130  1
  Ti  Ti120  1  0.20927818  0.40709215  0.00653950  1
  Ti  Ti121  1  0.38964038  0.80557532  -0.01364560  1
  Ti  Ti122  1  0.20133725  0.79893355  -0.01745219  1
  Ti  Ti123  1  -0.00100239  0.59975264  0.75294696  1
  Ti  Ti124  1  0.47178561  0.89818125  0.38331941  1
  Ti  Ti125  1  0.30159200  0.30059645  0.61514036  1
  Ti  Ti126  1  0.50397346  0.31754238  0.12799219  1
  Ti  Ti127  1  0.30818584  0.48771177  0.88060286  1
  Ti  Ti128  1  0.10842381  0.08648748  0.12747141  1
  Ti  Ti129  1  0.69915051  0.29450132  0.64090193  1
  Ti  Ti130  1  0.30411724  0.69746419  0.87598006  1
  Ti  Ti131  1  0.19350942  0.19589697  0.75808880  1
  Ti  Ti132  1  -0.00679869  0.00089402  0.50794286  1
  Ti  Ti133  1  0.40852097  0.59371473  -0.00454484  1
  Ti  Ti134  1  0.10097284  0.70048268  0.12069736  1
  Ti  Ti135  1  0.10141385  0.49714716  0.88372907  1
  Ti  Ti136  1  0.09836926  0.88960638  0.85644100  1
  Ti  Ti137  1  0.79163762  0.00262689  0.49488960  1
  Ti  Ti138  1  0.90449974  0.50792343  0.87607638  1
  Ti  Ti139  1  0.69317774  0.30169149  0.13020757  1
  Ti  Ti140  1  0.49694342  0.70369752  0.62256638  1
  Ti  Ti141  1  0.82282256  0.00141570  0.00259794  1
  Ti  Ti142  1  0.40846762  0.60383404  0.24733168  1
  Ti  Ti143  1  0.92047061  0.49310042  0.38620060  1
  Ti  Ti144  1  -0.00723785  0.60278630  -0.00056517  1
  Ti  Ti145  1  0.20180271  0.59760670  0.51208435  1
  Ti  Ti146  1  0.49470665  0.28511705  0.37138419  1
  Ti  Ti147  1  -0.01052394  0.20079474  0.75138391  1
  Ti  Ti148  1  0.80002882  0.60077326  0.48800317  1
  Ti  Ti149  1  0.78636181  0.80073037  0.75968439  1
  Ti  Ti150  1  0.29816148  0.90643242  0.11685465  1
  Ti  Ti151  1  0.90096776  0.89110336  0.12702300  1
  Ti  Ti152  1  0.21694229  0.38645760  0.75721274  1
  Ti  Ti153  1  0.10356060  0.51257185  0.11670100  1
  Ti  Ti154  1  0.89992026  0.30244064  0.37525716  1
  Ti  Ti155  1  0.80592180  0.39674910  0.49412137  1
  Ti  Ti156  1  0.29556614  0.09532040  0.11773390  1
  Ti  Ti157  1  0.49051457  0.52186317  0.37796836  1
  Ti  Ti158  1  0.80473629  0.59766944  -0.00907149  1
  Ti  Ti159  1  0.70188486  0.49822954  0.86421383  1
  Mo  Mo160  1  0.30174352  0.90412561  0.37896824  1
  Mo  Mo161  1  0.40665881  0.20383110  0.50948706  1
  Mo  Mo162  1  0.88564549  0.69359891  0.61463108  1
  Mo  Mo163  1  0.21024517  0.18018714  0.00123662  1
  Mo  Mo164  1  0.10099482  0.50204594  0.36939788  1
  Mo  Mo165  1  0.30484766  0.69389335  0.61931582  1
  Mo  Mo166  1  0.69855388  0.10570806  0.36857300  1
  Mo  Mo167  1  0.49689546  0.70147775  0.37526262  1
  Mo  Mo168  1  0.41011161  0.20950980  -0.00910904  1
  Mo  Mo169  1  0.61199270  0.20897188  0.74933160  1
  Mo  Mo170  1  0.89681420  0.09788596  0.87393941  1
  Mo  Mo171  1  0.69949763  0.69803096  0.86878915  1
  Mo  Mo172  1  0.29512239  0.89146226  0.86107975  1
  Mo  Mo173  1  0.50399258  0.50570260  0.12707758  1
  Mo  Mo174  1  0.80201296  -0.00545434  0.75067794  1
  Mo  Mo175  1  0.59997029  0.60057981  0.27126662  1
  Mo  Mo176  1  0.01192598  0.59460871  0.49795201  1
  Mo  Mo177  1  0.79717101  0.20829400  0.01573546  1
  Mo  Mo178  1  0.40531858  0.40836229  0.00382273  1
  Mo  Mo179  1  0.29203159  0.10533075  0.87352954  1
  Mo  Mo180  1  0.71866995  0.49891970  0.38203218  1
  Mo  Mo181  1  0.01072524  -0.00842527  0.24979162  1
  Mo  Mo182  1  0.70224626  0.70448896  0.37174718  1
  Mo  Mo183  1  0.08999534  0.68424683  0.62333332  1
  Mo  Mo184  1  0.40750680  0.19673102  0.24843241  1
  Mo  Mo185  1  0.40098823  0.80884086  0.51577894  1
  Mo  Mo186  1  0.88533841  0.29603215  0.11804817  1
  Mo  Mo187  1  0.38275020  0.41021490  0.74845350  1
  Mo  Mo188  1  0.69419895  0.89052403  0.62716831  1
  Mo  Mo189  1  -0.00455483  0.39279469  0.49762615  1
  Mo  Mo190  1  0.88718203  0.51475423  0.12520119  1
  Mo  Mo191  1  0.58639283  -0.00552078  0.24914086  1
  Mo  Mo192  1  -0.00174602  -0.01006346  0.00309582  1
  Mo  Mo193  1  0.60554863  0.41245877  0.74852988  1
  Mo  Mo194  1  0.40668262  -0.01033655  0.51194318  1
  Mo  Mo195  1  0.40244303  0.60501812  0.51558363  1
  Mo  Mo196  1  0.90008889  0.69554292  0.87835910  1
  Mo  Mo197  1  0.71119600  0.09638379  0.63105036  1
  Mo  Mo198  1  0.50310974  0.51457663  0.62226605  1
  Mo  Mo199  1  0.60168835  0.00582103  -0.00287797  1
