# generated using pymatgen
data_HfZrTaTiMo
_symmetry_space_group_name_H-M   'P 1'
_cell_length_a   15.21143836
_cell_length_b   15.19262368
_cell_length_c   16.86720895
_cell_angle_alpha   89.98135959
_cell_angle_beta   89.96280302
_cell_angle_gamma   90.05992289
_symmetry_Int_Tables_number   1
_chemical_formula_structural   HfZrTaTiMo
_chemical_formula_sum   'Hf40 Zr40 Ta40 Ti40 Mo40'
_cell_volume   3898.03680451
_cell_formula_units_Z   40
loop_
 _symmetry_equiv_pos_site_id
 _symmetry_equiv_pos_as_xyz
  1  'x, y, z'
loop_
 _atom_site_type_symbol
 _atom_site_label
 _atom_site_symmetry_multiplicity
 _atom_site_fract_x
 _atom_site_fract_y
 _atom_site_fract_z
 _atom_site_occupancy
  Hf  Hf0  1  0.29665740  0.48234174  0.12983492  1
  Hf  Hf1  1  0.08322616  0.89693861  0.61906609  1
  Hf  Hf2  1  0.30650508  0.69521665  0.62476143  1
  Hf  Hf3  1  0.69744806  0.09545005  0.37414973  1
  Hf  Hf4  1  0.10847839  0.69816960  0.38374792  1
  Hf  Hf5  1  0.09983884  0.29270241  0.62582814  1
  Hf  Hf6  1  -0.01469266  0.00076645  0.49822409  1
  Hf  Hf7  1  0.29410407  0.88478642  0.88267143  1
  Hf  Hf8  1  -0.02165513  0.38980624  -0.01067460  1
  Hf  Hf9  1  0.89503333  0.48384341  0.13514701  1
  Hf  Hf10  1  -0.00272925  0.60518267  0.25837011  1
  Hf  Hf11  1  0.20970502  0.79036841  0.25195945  1
  Hf  Hf12  1  0.20520498  0.59164575  0.75144934  1
  Hf  Hf13  1  0.80547126  0.00354704  0.24991497  1
  Hf  Hf14  1  0.60872396  0.00029041  0.74743784  1
  Hf  Hf15  1  0.31506324  0.88578402  0.37426069  1
  Hf  Hf16  1  0.09350116  0.69554379  0.61523047  1
  Hf  Hf17  1  0.29064983  0.50858362  0.36770980  1
  Hf  Hf18  1  0.41677655  0.40111720  0.74739020  1
  Hf  Hf19  1  0.81251497  -0.01099325  0.75847514  1
  Hf  Hf20  1  0.20990318  0.80201172  0.50320969  1
  Hf  Hf21  1  0.39799171  0.18813715  0.25345010  1
  Hf  Hf22  1  0.78803763  0.60124279  0.00260596  1
  Hf  Hf23  1  0.60301687  -0.01358938  0.24420932  1
  Hf  Hf24  1  0.60943159  -0.01480532  0.00086259  1
  Hf  Hf25  1  0.49779297  0.09594829  0.63899258  1
  Hf  Hf26  1  0.18975883  0.79579122  0.74450063  1
  Hf  Hf27  1  -0.00624499  0.59832982  0.49327361  1
  Hf  Hf28  1  0.40367979  0.80206142  0.74542912  1
  Hf  Hf29  1  0.19959125  -0.00539214  0.75037215  1
  Hf  Hf30  1  0.88561768  0.69930922  0.13504877  1
  Hf  Hf31  1  0.49944201  0.10556208  0.87226522  1
  Hf  Hf32  1  0.89562415  0.29395174  0.62583066  1
  Hf  Hf33  1  0.80244133  0.23389249  0.00361841  1
  Hf  Hf34  1  0.28559562  0.08171267  0.36943377  1
  Hf  Hf35  1  0.21073417  0.39059739  0.76588932  1
  Hf  Hf36  1  -0.00124982  0.61333013  0.75026980  1
  Hf  Hf37  1  0.41136932  -0.00070469  0.49925750  1
  Hf  Hf38  1  0.52101575  0.48028176  0.87944348  1
  Hf  Hf39  1  0.88846787  0.29716839  0.37680051  1
  Zr  Zr40  1  0.29316194  0.10747334  0.63429197  1
  Zr  Zr41  1  0.60154230  0.58398553  0.72483065  1
  Zr  Zr42  1  -0.00641115  0.60284440  -0.00005499  1
  Zr  Zr43  1  0.19892831  0.39113252  -0.01440073  1
  Zr  Zr44  1  0.68938381  0.30679747  0.39133723  1
  Zr  Zr45  1  0.50881720  0.50473745  0.36723540  1
  Zr  Zr46  1  0.50794334  0.69121365  0.86602627  1
  Zr  Zr47  1  0.70465732  0.52314478  0.15573095  1
  Zr  Zr48  1  0.90040353  0.11954946  0.13016417  1
  Zr  Zr49  1  0.18171073  0.20070652  0.77550428  1
  Zr  Zr50  1  0.89288357  0.72977641  0.86677160  1
  Zr  Zr51  1  0.09694094  0.50359737  0.87668646  1
  Zr  Zr52  1  0.60517963  0.39033813  0.24579318  1
  Zr  Zr53  1  0.70881449  0.12067967  0.87069370  1
  Zr  Zr54  1  0.40584980  0.39843168  0.48802931  1
  Zr  Zr55  1  0.87057609  0.50169929  0.86567568  1
  Zr  Zr56  1  0.58685784  0.18097381  0.49435951  1
  Zr  Zr57  1  0.61711549  0.41170280  0.02289202  1
  Zr  Zr58  1  0.18357500  0.19689126  0.24359261  1
  Zr  Zr59  1  0.19617644  0.39978719  0.50046102  1
  Zr  Zr60  1  0.30768172  0.08805306  0.88050534  1
  Zr  Zr61  1  0.49684367  0.30359706  0.61624332  1
  Zr  Zr62  1  -0.00216214  0.39326975  0.75362963  1
  Zr  Zr63  1  0.19187044  0.19498813  -0.01497229  1
  Zr  Zr64  1  0.00675879  0.81029115  0.01285731  1
  Zr  Zr65  1  0.70534987  0.88215180  0.87152325  1
  Zr  Zr66  1  0.68836564  0.70886701  0.37506563  1
  Zr  Zr67  1  0.30977696  0.89404877  0.11954840  1
  Zr  Zr68  1  0.01907728  0.40370860  0.26068886  1
  Zr  Zr69  1  0.59531953  0.21244128  0.00206738  1
  Zr  Zr70  1  0.49477329  0.08978224  0.11880661  1
  Zr  Zr71  1  0.40922345  0.57909222  0.00655105  1
  Zr  Zr72  1  0.30346050  0.69053466  0.12381482  1
  Zr  Zr73  1  0.00405650  0.80796398  0.24769106  1
  Zr  Zr74  1  0.28556367  0.29992711  0.36435047  1
  Zr  Zr75  1  0.80986361  0.01166417  -0.00579994  1
  Zr  Zr76  1  0.38789486  0.19494553  0.48390017  1
  Zr  Zr77  1  0.41692151  0.78683672  -0.00286942  1
  Zr  Zr78  1  0.79639185  0.60596365  0.50051739  1
  Zr  Zr79  1  0.10803426  0.91334907  0.37930322  1
  Ta  Ta80  1  0.71667934  0.91197442  0.61253471  1
  Ta  Ta81  1  0.00355463  0.00737446  -0.00033339  1
  Ta  Ta82  1  0.48951593  0.70684653  0.37650227  1
  Ta  Ta83  1  0.70138043  0.10968628  0.12875100  1
  Ta  Ta84  1  0.68593103  0.72356018  0.14283753  1
  Ta  Ta85  1  0.78957765  0.80696456  0.01142081  1
  Ta  Ta86  1  0.52286277  0.87585202  0.12192084  1
  Ta  Ta87  1  0.60982803  0.79605933  0.73282629  1
  Ta  Ta88  1  0.18841691  0.58638177  0.24926060  1
  Ta  Ta89  1  0.90142488  0.90802399  0.12900143  1
  Ta  Ta90  1  0.89958599  0.72497772  0.62886592  1
  Ta  Ta91  1  0.51685328  0.90029891  0.38292219  1
  Ta  Ta92  1  0.70652140  0.50707075  0.36677439  1
  Ta  Ta93  1  0.40677880  0.60253935  0.50192326  1
  Ta  Ta94  1  0.18970828  -0.01821260  0.00498622  1
  Ta  Ta95  1  0.31697507  0.49851481  0.87945296  1
  Ta  Ta96  1  0.20078263  0.00678703  0.50988780  1
  Ta  Ta97  1  0.29950821  0.68901672  0.87527994  1
  Ta  Ta98  1  0.50050190  0.90124229  0.86651662  1
  Ta  Ta99  1  0.20207316  0.60177503  -0.00284680  1
  Ta  Ta100  1  0.01028139  0.00961550  0.24751345  1
  Ta  Ta101  1  0.09964902  0.09913908  0.11939663  1
  Ta  Ta102  1  0.48961016  0.29994848  0.13103138  1
  Ta  Ta103  1  0.30435616  0.49268179  0.62397792  1
  Ta  Ta104  1  0.29655717  0.29921762  0.62795490  1
  Ta  Ta105  1  0.69850704  0.29658870  0.61112655  1
  Ta  Ta106  1  -0.00358821  0.40341298  0.49793080  1
  Ta  Ta107  1  -0.00241043  0.20044074  -0.00577874  1
  Ta  Ta108  1  0.77790872  0.40648497  0.73202563  1
  Ta  Ta109  1  0.09085216  0.29772446  0.38265957  1
  Ta  Ta110  1  0.88758127  0.09082018  0.63019954  1
  Ta  Ta111  1  0.29701055  0.09734501  0.11245055  1
  Ta  Ta112  1  0.60140789  0.61607639  0.00955692  1
  Ta  Ta113  1  0.91762476  0.11134851  0.86376301  1
  Ta  Ta114  1  0.08797247  0.30167883  0.12079521  1
  Ta  Ta115  1  0.10666549  0.71096615  0.87992091  1
  Ta  Ta116  1  0.10105973  0.49490107  0.62742433  1
  Ta  Ta117  1  0.69472714  0.33228160  0.86971880  1
  Ta  Ta118  1  0.60574009  0.22026678  0.74768950  1
  Ta  Ta119  1  0.59805720  0.19357487  0.25144375  1
  Ti  Ti120  1  0.59775780  0.79969499  0.51152261  1
  Ti  Ti121  1  0.81992804  0.81129618  0.49557992  1
  Ti  Ti122  1  0.40444820  0.59577253  0.74242599  1
  Ti  Ti123  1  0.80406544  0.40823966  0.50610549  1
  Ti  Ti124  1  0.10610344  0.69713678  0.12222879  1
  Ti  Ti125  1  0.39791628  0.20527490  0.75387466  1
  Ti  Ti126  1  0.09152013  0.10571674  0.37770333  1
  Ti  Ti127  1  0.40543528  -0.00724813  -0.00036177  1
  Ti  Ti128  1  0.60591472  0.42810399  0.51017225  1
  Ti  Ti129  1  0.08690152  0.89782306  0.87353259  1
  Ti  Ti130  1  0.79314716  0.61013131  0.73481214  1
  Ti  Ti131  1  0.40489678  -0.00988679  0.24736087  1
  Ti  Ti132  1  0.41658823  0.79932020  0.25057740  1
  Ti  Ti133  1  0.10095347  0.49731626  0.11535748  1
  Ti  Ti134  1  0.50699340  0.89880406  0.62641821  1
  Ti  Ti135  1  0.70513017  0.90486820  0.39327625  1
  Ti  Ti136  1  0.89483697  0.50165251  0.36977591  1
  Ti  Ti137  1  0.89779994  0.10175012  0.37131329  1
  Ti  Ti138  1  0.39307260  0.60616203  0.25481969  1
  Ti  Ti139  1  0.79872011  0.18266312  0.50526222  1
  Ti  Ti140  1  0.20198128  -0.00672816  0.23275981  1
  Ti  Ti141  1  0.40910351  0.79733162  0.50800021  1
  Ti  Ti142  1  -0.01033365  0.20431680  0.25299791  1
  Ti  Ti143  1  0.90255109  0.90114938  0.37134683  1
  Ti  Ti144  1  0.49610993  0.50102915  0.14126510  1
  Ti  Ti145  1  0.88174550  0.29350764  0.85262552  1
  Ti  Ti146  1  0.20485074  0.59306686  0.50201880  1
  Ti  Ti147  1  -0.00578614  0.19831668  0.49952548  1
  Ti  Ti148  1  0.08792263  0.10109567  0.62532246  1
  Ti  Ti149  1  0.00361896  -0.00367655  0.75127020  1
  Ti  Ti150  1  0.70128728  0.70704731  0.61425746  1
  Ti  Ti151  1  0.50605131  0.69002054  0.14061316  1
  Ti  Ti152  1  0.69890139  0.68965086  0.86633470  1
  Ti  Ti153  1  0.39561997  0.39211315  0.25515275  1
  Ti  Ti154  1  0.33968668  0.29903831  0.89105144  1
  Ti  Ti155  1  0.90237972  0.50716807  0.62797908  1
  Ti  Ti156  1  0.79441807  0.80866748  0.25661431  1
  Ti  Ti157  1  0.18998308  0.19478336  0.49914894  1
  Ti  Ti158  1  0.29581933  0.29169515  0.11910986  1
  Ti  Ti159  1  0.30840148  0.90847507  0.62683826  1
  Mo  Mo160  1  0.06674866  0.28602751  0.86969306  1
  Mo  Mo161  1  0.79167320  0.79851647  0.73749478  1
  Mo  Mo162  1  0.60955043  0.78944800  -0.00296241  1
  Mo  Mo163  1  0.71353644  0.29984891  0.14005134  1
  Mo  Mo164  1  0.80304538  0.61294253  0.26648772  1
  Mo  Mo165  1  0.89969200  0.90184599  0.62168763  1
  Mo  Mo166  1  0.59828283  0.80504568  0.25965643  1
  Mo  Mo167  1  0.49675711  0.28997692  0.35491705  1
  Mo  Mo168  1  0.79357739  0.40812253  0.00270636  1
  Mo  Mo169  1  0.89565572  0.71006817  0.37045908  1
  Mo  Mo170  1  0.60424447  0.39850645  0.73359710  1
  Mo  Mo171  1  0.80672842  0.40102344  0.26610003  1
  Mo  Mo172  1  0.39876783  0.20080497  0.00878045  1
  Mo  Mo173  1  0.79268106  0.20280220  0.74201490  1
  Mo  Mo174  1  0.41137663  0.38553722  0.01046709  1
  Mo  Mo175  1  0.59406656  0.60887120  0.50841158  1
  Mo  Mo176  1  0.71038309  0.50083060  0.61337690  1
  Mo  Mo177  1  0.60423972  -0.00868590  0.50851646  1
  Mo  Mo178  1  0.58944421  0.60925221  0.25563360  1
  Mo  Mo179  1  0.19830635  0.78949733  -0.00136180  1
  Mo  Mo180  1  0.71293980  0.90263967  0.12660814  1
  Mo  Mo181  1  0.30898930  0.69535123  0.37953225  1
  Mo  Mo182  1  0.40628268  -0.00693041  0.75282256  1
  Mo  Mo183  1  0.09471840  0.08198675  0.87795181  1
  Mo  Mo184  1  0.90656088  0.90864099  0.88057685  1
  Mo  Mo185  1  0.09919105  0.49694425  0.37972451  1
  Mo  Mo186  1  -0.00971677  0.18585424  0.74109121  1
  Mo  Mo187  1  0.70458754  0.10702637  0.63066362  1
  Mo  Mo188  1  0.79959680  0.00584919  0.49301520  1
  Mo  Mo189  1  0.49837605  0.08271021  0.36369547  1
  Mo  Mo190  1  -0.00780707  0.79707756  0.48860299  1
  Mo  Mo191  1  0.50239305  0.70724646  0.61946338  1
  Mo  Mo192  1  0.90231421  0.30510802  0.13625668  1
  Mo  Mo193  1  -0.00515825  0.81304238  0.75380899  1
  Mo  Mo194  1  0.10281533  0.90626791  0.12911708  1
  Mo  Mo195  1  0.78880513  0.20962505  0.25053695  1
  Mo  Mo196  1  0.51216061  0.29437037  0.87327642  1
  Mo  Mo197  1  0.69586912  0.51584726  0.87127006  1
  Mo  Mo198  1  0.19895275  0.39676614  0.23871995  1
  Mo  Mo199  1  0.49388592  0.50751990  0.61350378  1
