# generated using pymatgen
data_HfZrTaTiMo
_symmetry_space_group_name_H-M   'P 1'
_cell_length_a   15.21675271
_cell_length_b   15.21227090
_cell_length_c   16.81008545
_cell_angle_alpha   89.98165379
_cell_angle_beta   90.00067707
_cell_angle_gamma   89.94733820
_symmetry_Int_Tables_number   1
_chemical_formula_structural   HfZrTaTiMo
_chemical_formula_sum   'Hf40 Zr40 Ta40 Ti40 Mo40'
_cell_volume   3891.21967301
_cell_formula_units_Z   40
loop_
 _symmetry_equiv_pos_site_id
 _symmetry_equiv_pos_as_xyz
  1  'x, y, z'
loop_
 _atom_site_type_symbol
 _atom_site_label
 _atom_site_symmetry_multiplicity
 _atom_site_fract_x
 _atom_site_fract_y
 _atom_site_fract_z
 _atom_site_occupancy
  Hf  Hf0  1  0.00023303  0.19530001  0.23124358  1
  Hf  Hf1  1  0.50770570  0.30185020  0.88160047  1
  Hf  Hf2  1  0.10468605  0.89734231  0.13285948  1
  Hf  Hf3  1  0.69569803  0.09146385  0.12763686  1
  Hf  Hf4  1  -0.00963097  0.59679263  0.24471660  1
  Hf  Hf5  1  0.60551815  0.81273586  0.26879661  1
  Hf  Hf6  1  0.78831902  0.21183860  0.74359318  1
  Hf  Hf7  1  0.20900825  0.17251919  0.75473249  1
  Hf  Hf8  1  0.29357327  0.89134144  0.62643198  1
  Hf  Hf9  1  0.58710832  0.00614724  0.74954135  1
  Hf  Hf10  1  -0.01142935  0.79578967  0.00415644  1
  Hf  Hf11  1  0.58628233  0.80648357  0.49538636  1
  Hf  Hf12  1  0.40660503  0.39477743  0.24875106  1
  Hf  Hf13  1  0.48545456  0.11879151  0.37586170  1
  Hf  Hf14  1  0.58028676  0.61145200  0.01307081  1
  Hf  Hf15  1  0.88552426  0.69274915  0.88237641  1
  Hf  Hf16  1  0.59362739  0.20694649  0.01954092  1
  Hf  Hf17  1  0.31054391  0.28693244  0.88692727  1
  Hf  Hf18  1  0.50266965  0.91068233  0.13727296  1
  Hf  Hf19  1  0.31137081  0.69308414  0.11227352  1
  Hf  Hf20  1  0.59985786  0.41010811  0.24880875  1
  Hf  Hf21  1  0.79443690  0.61062614  0.74157458  1
  Hf  Hf22  1  0.30358848  0.49620079  0.62310306  1
  Hf  Hf23  1  0.80221502  0.40037931  0.49825707  1
  Hf  Hf24  1  0.72514117  0.31475871  0.12421487  1
  Hf  Hf25  1  0.69972579  0.50570688  0.61268255  1
  Hf  Hf26  1  -0.00018027  0.19401362  0.00705140  1
  Hf  Hf27  1  0.09211708  0.48565491  0.85690325  1
  Hf  Hf28  1  0.90790116  0.31026400  0.85863186  1
  Hf  Hf29  1  0.09390189  0.68863124  0.88177790  1
  Hf  Hf30  1  0.47651234  0.09987404  0.88320638  1
  Hf  Hf31  1  0.19928555  0.77623478  0.75324143  1
  Hf  Hf32  1  0.80962844  0.01826913  0.50791721  1
  Hf  Hf33  1  0.58869917  -0.00188788  -0.00202704  1
  Hf  Hf34  1  0.90070465  0.29039400  0.37623756  1
  Hf  Hf35  1  0.10585181  0.27988657  0.86448623  1
  Hf  Hf36  1  0.68282351  0.10837133  0.62124591  1
  Hf  Hf37  1  0.70850140  0.52610182  0.13965487  1
  Hf  Hf38  1  0.10037930  0.08710597  0.36307482  1
  Hf  Hf39  1  0.50988907  0.70308197  0.87117409  1
  Zr  Zr40  1  0.90917302  0.90227150  0.39148021  1
  Zr  Zr41  1  0.39502243  0.60155955  0.74004325  1
  Zr  Zr42  1  0.29098597  0.49867801  0.12701701  1
  Zr  Zr43  1  0.59304441  0.21069622  0.24261544  1
  Zr  Zr44  1  0.91653032  0.91044045  0.61795936  1
  Zr  Zr45  1  0.10365618  0.28631771  0.36784935  1
  Zr  Zr46  1  0.90757175  0.50389610  0.38129415  1
  Zr  Zr47  1  0.90265119  0.70208250  0.40008261  1
  Zr  Zr48  1  0.49362892  0.92014957  0.61842245  1
  Zr  Zr49  1  -0.01102109  0.79089929  0.23762067  1
  Zr  Zr50  1  0.10888932  0.68843734  0.37009394  1
  Zr  Zr51  1  0.58795868  0.61028533  0.49384289  1
  Zr  Zr52  1  -0.00601890  0.17898963  0.51390154  1
  Zr  Zr53  1  0.10264209  0.88757666  0.35815131  1
  Zr  Zr54  1  0.79868944  0.80271980  0.73557983  1
  Zr  Zr55  1  0.31226272  0.08900590  0.62360228  1
  Zr  Zr56  1  0.60586983  0.40184461  0.74779034  1
  Zr  Zr57  1  0.30691734  0.90484251  0.87107162  1
  Zr  Zr58  1  0.69868183  0.71853239  0.12991383  1
  Zr  Zr59  1  0.79264153  -0.00950961  0.26000002  1
  Zr  Zr60  1  0.41375874  0.80172394  0.74138337  1
  Zr  Zr61  1  0.80361088  0.19980480  0.24797080  1
  Zr  Zr62  1  0.79886790  -0.00017521  -0.01208729  1
  Zr  Zr63  1  0.00658471  0.39459545  0.00311387  1
  Zr  Zr64  1  0.90473311  0.50350689  0.62429944  1
  Zr  Zr65  1  0.19789795  0.80732389  -0.00344283  1
  Zr  Zr66  1  0.11556511  0.29602071  0.12838727  1
  Zr  Zr67  1  0.20281169  0.39764852  0.48987857  1
  Zr  Zr68  1  0.01124296  0.38750416  0.50964956  1
  Zr  Zr69  1  0.69148065  0.11240063  0.87298535  1
  Zr  Zr70  1  0.49731477  0.48833863  0.60877779  1
  Zr  Zr71  1  0.81257815  0.42682667  -0.01339134  1
  Zr  Zr72  1  0.20599031  0.39194290  0.25968349  1
  Zr  Zr73  1  0.30024291  0.29729241  0.62296316  1
  Zr  Zr74  1  0.01169867  -0.00432732  -0.01021410  1
  Zr  Zr75  1  0.18463996  -0.01346603  0.49866673  1
  Zr  Zr76  1  0.60435445  0.41525546  0.01359123  1
  Zr  Zr77  1  0.40833471  0.41070167  0.01273005  1
  Zr  Zr78  1  0.11408704  0.49512099  0.64518374  1
  Zr  Zr79  1  0.30876200  0.68545999  0.89014616  1
  Ta  Ta80  1  0.29533106  0.48784820  0.86581155  1
  Ta  Ta81  1  0.88660150  0.89430715  0.12118754  1
  Ta  Ta82  1  0.00775793  -0.00149876  0.76364250  1
  Ta  Ta83  1  0.79950706  0.00531603  0.74582236  1
  Ta  Ta84  1  0.20087056  0.18869131  0.50054149  1
  Ta  Ta85  1  0.70211314  0.50956467  0.37563067  1
  Ta  Ta86  1  0.90478456  0.10879108  0.86177596  1
  Ta  Ta87  1  0.69722513  0.30548773  0.38070917  1
  Ta  Ta88  1  0.40441432  0.79810759  0.24968711  1
  Ta  Ta89  1  0.30766230  0.70288459  0.37580583  1
  Ta  Ta90  1  0.38903283  0.00165517  0.48331056  1
  Ta  Ta91  1  0.58856842  0.61473319  0.26202057  1
  Ta  Ta92  1  0.48643971  0.90252203  0.37582200  1
  Ta  Ta93  1  0.38313339  0.00640692  0.25725905  1
  Ta  Ta94  1  0.29968245  0.51161512  0.37721840  1
  Ta  Ta95  1  0.49501847  0.50712993  0.87073130  1
  Ta  Ta96  1  0.49086344  0.50486025  0.38206965  1
  Ta  Ta97  1  0.28453051  0.09449667  0.90238091  1
  Ta  Ta98  1  0.69450692  0.52241452  0.87315868  1
  Ta  Ta99  1  0.30525446  0.08807436  0.10544103  1
  Ta  Ta100  1  0.59756546  0.61215435  0.73678546  1
  Ta  Ta101  1  -0.00783870  0.00000694  0.23617623  1
  Ta  Ta102  1  0.70322142  0.31126513  0.88151646  1
  Ta  Ta103  1  -0.01404002  0.58591360  0.00477933  1
  Ta  Ta104  1  0.42222651  0.80094050  0.00714202  1
  Ta  Ta105  1  0.59010407  0.01367942  0.48959373  1
  Ta  Ta106  1  0.10421506  0.68535117  0.11894961  1
  Ta  Ta107  1  0.70059330  0.11123429  0.38393163  1
  Ta  Ta108  1  0.49806053  0.28840744  0.60139535  1
  Ta  Ta109  1  0.89605129  0.49334825  0.13268174  1
  Ta  Ta110  1  0.09680310  0.08487557  0.63465533  1
  Ta  Ta111  1  0.21365243  0.78500086  0.23836702  1
  Ta  Ta112  1  0.00070013  0.61040889  0.74361168  1
  Ta  Ta113  1  0.69903480  0.90728952  0.60999986  1
  Ta  Ta114  1  0.89648582  0.89807521  0.86755379  1
  Ta  Ta115  1  0.09761777  0.50035528  0.13140479  1
  Ta  Ta116  1  0.20457402  0.61371912  0.50829275  1
  Ta  Ta117  1  0.70873462  0.70257899  0.38504881  1
  Ta  Ta118  1  0.70338211  0.90518748  0.39638318  1
  Ta  Ta119  1  0.40455238  0.38777264  0.75225115  1
  Ti  Ti120  1  0.90443355  0.09591583  0.37247123  1
  Ti  Ti121  1  0.29159114  0.89601840  0.36997068  1
  Ti  Ti122  1  0.22161048  0.17752035  0.24819778  1
  Ti  Ti123  1  0.70409264  0.90320900  0.12696395  1
  Ti  Ti124  1  -0.00249564  0.79741454  0.75154891  1
  Ti  Ti125  1  0.88168087  0.68783368  0.11457961  1
  Ti  Ti126  1  0.03280621  0.80068667  0.50952182  1
  Ti  Ti127  1  0.50321427  0.30967823  0.39385655  1
  Ti  Ti128  1  0.80260512  0.79292227  0.25984769  1
  Ti  Ti129  1  0.10368281  0.50031043  0.36869007  1
  Ti  Ti130  1  0.70088930  0.70691193  0.60593475  1
  Ti  Ti131  1  0.60910299  0.80998788  0.00099797  1
  Ti  Ti132  1  0.79835935  0.20683962  0.51182888  1
  Ti  Ti133  1  0.11787271  0.09041884  0.12459182  1
  Ti  Ti134  1  0.39716997  0.60359443  0.25024007  1
  Ti  Ti135  1  0.50275655  0.89942723  0.87179336  1
  Ti  Ti136  1  0.80791961  0.40933909  0.26077716  1
  Ti  Ti137  1  0.58925167  0.21038295  0.74535384  1
  Ti  Ti138  1  0.19981167  0.39177570  -0.00315391  1
  Ti  Ti139  1  0.69915164  0.89763250  0.86650811  1
  Ti  Ti140  1  0.90664529  0.70600082  0.60825488  1
  Ti  Ti141  1  0.80702045  0.20864607  -0.00332381  1
  Ti  Ti142  1  0.31443011  0.28232911  0.38021002  1
  Ti  Ti143  1  0.30621313  0.28559392  0.11121783  1
  Ti  Ti144  1  -0.00280715  0.39354021  0.24517325  1
  Ti  Ti145  1  0.59169883  0.01002206  0.26868559  1
  Ti  Ti146  1  0.10160032  0.28945996  0.64653154  1
  Ti  Ti147  1  0.89271669  0.09262713  0.11862016  1
  Ti  Ti148  1  0.01513245  0.59677821  0.51150895  1
  Ti  Ti149  1  0.39218020  0.78682524  0.50293547  1
  Ti  Ti150  1  0.19241160  0.58052658  -0.00400500  1
  Ti  Ti151  1  0.40855115  0.19178180  0.74716987  1
  Ti  Ti152  1  0.90185694  0.30019107  0.63717513  1
  Ti  Ti153  1  0.69620735  0.71014047  0.87940711  1
  Ti  Ti154  1  0.40282133  0.19856951  0.23158728  1
  Ti  Ti155  1  0.80053163  0.41459457  0.75527171  1
  Ti  Ti156  1  0.30318736  0.90176021  0.12285857  1
  Ti  Ti157  1  0.60722949  0.80127079  0.73419641  1
  Ti  Ti158  1  0.68728989  0.30955376  0.61214206  1
  Ti  Ti159  1  0.10394211  0.89149961  0.63912077  1
  Mo  Mo160  1  0.39684947  0.39997237  0.48485300  1
  Mo  Mo161  1  -0.00216361  0.19209558  0.74033451  1
  Mo  Mo162  1  0.79607105  0.80564593  0.51196022  1
  Mo  Mo163  1  0.29048305  0.09962264  0.37287985  1
  Mo  Mo164  1  0.60309780  0.40291486  0.48651362  1
  Mo  Mo165  1  0.19922053  0.59411913  0.75346701  1
  Mo  Mo166  1  0.40044933  -0.01347886  0.00438985  1
  Mo  Mo167  1  0.79194484  0.80982225  -0.00531839  1
  Mo  Mo168  1  0.29729311  0.69606190  0.61892503  1
  Mo  Mo169  1  0.49378757  0.52118476  0.14368555  1
  Mo  Mo170  1  0.40439310  0.19570554  0.01713816  1
  Mo  Mo171  1  0.21415809  0.38511726  0.75654430  1
  Mo  Mo172  1  0.40066968  0.59860679  -0.00448147  1
  Mo  Mo173  1  0.49923465  0.30708301  0.12791667  1
  Mo  Mo174  1  0.20709754  0.79376333  0.50173288  1
  Mo  Mo175  1  0.09497095  0.89101572  0.86230553  1
  Mo  Mo176  1  0.20520815  -0.00756842  0.24269303  1
  Mo  Mo177  1  0.90027465  0.30242229  0.12408427  1
  Mo  Mo178  1  0.00776519  0.00087768  0.50447642  1
  Mo  Mo179  1  0.48970472  0.70417006  0.37030709  1
  Mo  Mo180  1  0.19779487  -0.01380897  0.75433970  1
  Mo  Mo181  1  0.09989037  0.08882079  0.87333650  1
  Mo  Mo182  1  0.09519124  0.70236850  0.62816954  1
  Mo  Mo183  1  0.79175837  0.60789464  -0.00220536  1
  Mo  Mo184  1  0.39184189  0.60523189  0.49947648  1
  Mo  Mo185  1  0.50280677  0.70506262  0.62522053  1
  Mo  Mo186  1  0.60490994  0.20390903  0.49311735  1
  Mo  Mo187  1  0.49205480  0.09555106  0.13592677  1
  Mo  Mo188  1  0.79663114  0.60692632  0.25878877  1
  Mo  Mo189  1  0.80173112  0.60677877  0.50504404  1
  Mo  Mo190  1  0.38819866  0.01515014  0.75590727  1
  Mo  Mo191  1  0.20120174  0.60170874  0.24871766  1
  Mo  Mo192  1  0.19658026  -0.00785601  0.00228235  1
  Mo  Mo193  1  -0.00413084  0.39302281  0.74087527  1
  Mo  Mo194  1  0.39342312  0.19780695  0.49506862  1
  Mo  Mo195  1  0.90040416  0.51068983  0.85872144  1
  Mo  Mo196  1  0.49863541  0.70932988  0.13547728  1
  Mo  Mo197  1  0.89824429  0.10486276  0.64611464  1
  Mo  Mo198  1  0.19440508  0.19609489  0.00280961  1
  Mo  Mo199  1  0.49608915  0.10878837  0.61600610  1
