# generated using pymatgen
data_HfZrTaTiMo
_symmetry_space_group_name_H-M   'P 1'
_cell_length_a   15.22225181
_cell_length_b   15.20658241
_cell_length_c   16.85190833
_cell_angle_alpha   90.00153799
_cell_angle_beta   90.05279668
_cell_angle_gamma   90.08046061
_symmetry_Int_Tables_number   1
_chemical_formula_structural   HfZrTaTiMo
_chemical_formula_sum   'Hf40 Zr40 Ta40 Ti40 Mo40'
_cell_volume   3900.84772193
_cell_formula_units_Z   40
loop_
 _symmetry_equiv_pos_site_id
 _symmetry_equiv_pos_as_xyz
  1  'x, y, z'
loop_
 _atom_site_type_symbol
 _atom_site_label
 _atom_site_symmetry_multiplicity
 _atom_site_fract_x
 _atom_site_fract_y
 _atom_site_fract_z
 _atom_site_occupancy
  Hf  Hf0  1  0.71570654  0.91571575  0.36916007  1
  Hf  Hf1  1  0.41472774  0.59088462  0.50329714  1
  Hf  Hf2  1  0.78648570  0.19303563  0.50688841  1
  Hf  Hf3  1  0.09104609  0.08596274  0.13464161  1
  Hf  Hf4  1  0.18837130  0.19775180  -0.00613697  1
  Hf  Hf5  1  0.51690856  0.90672827  0.37619882  1
  Hf  Hf6  1  0.90415063  0.50140918  0.12717229  1
  Hf  Hf7  1  0.68902103  0.31061769  0.64007517  1
  Hf  Hf8  1  0.89499306  0.09988654  0.86569097  1
  Hf  Hf9  1  0.38980630  0.19870236  0.48978854  1
  Hf  Hf10  1  0.09636325  0.51328374  0.62043339  1
  Hf  Hf11  1  0.02155666  0.59191519  0.26001425  1
  Hf  Hf12  1  0.70332232  0.49871445  0.12680707  1
  Hf  Hf13  1  0.40912520  0.58826209  0.00130215  1
  Hf  Hf14  1  0.90625561  0.70307124  0.36827567  1
  Hf  Hf15  1  0.49530847  0.09785728  0.62937289  1
  Hf  Hf16  1  0.72309895  0.90129435  0.12433202  1
  Hf  Hf17  1  0.09741589  0.89289394  0.37914933  1
  Hf  Hf18  1  0.71512185  0.70753755  0.64467702  1
  Hf  Hf19  1  -0.00400107  0.60337559  -0.01489688  1
  Hf  Hf20  1  0.48632555  0.69942124  0.87347826  1
  Hf  Hf21  1  0.91005316  0.89800243  0.86799138  1
  Hf  Hf22  1  0.20551401  0.00436195  0.26619075  1
  Hf  Hf23  1  0.89375932  0.29416521  0.38271520  1
  Hf  Hf24  1  0.29854513  0.29644114  0.11399170  1
  Hf  Hf25  1  0.90580654  0.90716971  0.36463300  1
  Hf  Hf26  1  0.19071195  -0.01275587  -0.00018326  1
  Hf  Hf27  1  0.59601593  0.20850613  0.50202439  1
  Hf  Hf28  1  0.90289356  0.70657762  0.13347587  1
  Hf  Hf29  1  0.79852032  0.39239332  0.25255573  1
  Hf  Hf30  1  0.60650481  0.59228515  0.75944537  1
  Hf  Hf31  1  0.59139714  0.40025735  -0.00160739  1
  Hf  Hf32  1  0.80904630  0.21597575  0.74386701  1
  Hf  Hf33  1  0.09021962  0.30457896  0.12765350  1
  Hf  Hf34  1  0.29994641  0.89743880  0.12582929  1
  Hf  Hf35  1  0.61858780  0.80278451  0.24687029  1
  Hf  Hf36  1  0.30483055  0.69700333  0.60946531  1
  Hf  Hf37  1  0.80392168  0.80645259  0.50171611  1
  Hf  Hf38  1  0.18087642  0.19822258  0.74583387  1
  Hf  Hf39  1  0.38559854  0.20051050  0.26463261  1
  Zr  Zr40  1  0.50170400  0.11595949  0.12559116  1
  Zr  Zr41  1  0.60069927  0.80461739  -0.00896669  1
  Zr  Zr42  1  0.18157003  0.20906549  0.49430702  1
  Zr  Zr43  1  0.89944627  0.30373771  0.87798498  1
  Zr  Zr44  1  0.81530325  0.59208545  0.50027387  1
  Zr  Zr45  1  0.29197298  0.50217125  0.11780840  1
  Zr  Zr46  1  0.61493068  0.61061102  0.50431118  1
  Zr  Zr47  1  0.30175085  0.09413716  0.87141005  1
  Zr  Zr48  1  0.70318220  0.90724333  0.87382700  1
  Zr  Zr49  1  0.50325427  0.50539636  0.36982552  1
  Zr  Zr50  1  0.29108856  0.87971140  0.88062187  1
  Zr  Zr51  1  0.01748518  0.80305708  -0.00437212  1
  Zr  Zr52  1  0.01007703  0.00400882  0.73531416  1
  Zr  Zr53  1  0.60447383  0.59908639  0.25038636  1
  Zr  Zr54  1  0.59298080  0.81303080  0.76221722  1
  Zr  Zr55  1  0.38610524  0.79547860  0.74674693  1
  Zr  Zr56  1  0.18496312  0.20562721  0.26570878  1
  Zr  Zr57  1  0.29469127  0.09537510  0.62420856  1
  Zr  Zr58  1  0.20630626  0.61739616  0.75698431  1
  Zr  Zr59  1  0.20579247  0.77912562  0.26708691  1
  Zr  Zr60  1  -0.00547822  0.39747232  0.51396789  1
  Zr  Zr61  1  0.60892402  0.01429079  0.00176043  1
  Zr  Zr62  1  0.50624307  0.90488566  0.12787263  1
  Zr  Zr63  1  0.30900500  0.50196608  0.87239117  1
  Zr  Zr64  1  -0.00847931  0.38508476  0.73629462  1
  Zr  Zr65  1  -0.01461223  0.19053024  0.00677439  1
  Zr  Zr66  1  0.88521889  0.08963917  0.62770170  1
  Zr  Zr67  1  0.29425896  0.30426231  0.87803786  1
  Zr  Zr68  1  0.91626251  0.68399692  0.63180838  1
  Zr  Zr69  1  0.62990284  0.60192827  -0.02000947  1
  Zr  Zr70  1  0.39048795  0.40579262  0.24935572  1
  Zr  Zr71  1  0.50170372  0.30826725  0.37574681  1
  Zr  Zr72  1  0.50524305  0.69717216  0.11926927  1
  Zr  Zr73  1  -0.02763398  0.18927006  0.24856214  1
  Zr  Zr74  1  -0.00095497  0.39959496  -0.00208049  1
  Zr  Zr75  1  0.11141611  0.71639631  0.61114743  1
  Zr  Zr76  1  0.40411141  0.79652382  0.25883069  1
  Zr  Zr77  1  0.29230060  0.89539686  0.60610103  1
  Zr  Zr78  1  0.40581591  0.00594467  0.25939121  1
  Zr  Zr79  1  0.69985726  0.90821128  0.63217641  1
  Ta  Ta80  1  0.68525339  0.10236190  0.64603712  1
  Ta  Ta81  1  0.78834671  0.39714574  0.50545627  1
  Ta  Ta82  1  0.87388945  0.29201940  0.12123430  1
  Ta  Ta83  1  0.80727654  0.78705562  -0.00873697  1
  Ta  Ta84  1  0.29957394  0.10050882  0.11785914  1
  Ta  Ta85  1  0.76924290  0.19429693  0.25587402  1
  Ta  Ta86  1  0.70563332  0.49015539  0.37494722  1
  Ta  Ta87  1  0.09215614  0.09734717  0.87100497  1
  Ta  Ta88  1  0.62430423  0.02659261  0.24342982  1
  Ta  Ta89  1  0.19209646  0.00713690  0.48839370  1
  Ta  Ta90  1  0.02574559  0.79792541  0.75700594  1
  Ta  Ta91  1  0.59506032  0.41305813  0.50805078  1
  Ta  Ta92  1  0.29331296  0.69664167  0.11841388  1
  Ta  Ta93  1  0.39146437  0.60822993  0.25245620  1
  Ta  Ta94  1  0.18788354  0.40769898  0.25129388  1
  Ta  Ta95  1  0.40295016  0.00142558  -0.00343780  1
  Ta  Ta96  1  0.69120523  0.31343726  0.86423246  1
  Ta  Ta97  1  0.00287281  0.59487129  0.76431234  1
  Ta  Ta98  1  0.79038843  0.40595004  -0.00163811  1
  Ta  Ta99  1  0.20678895  0.59493378  0.48445116  1
  Ta  Ta100  1  0.90550215  0.88098710  0.63470774  1
  Ta  Ta101  1  0.10008898  0.48730368  0.86685873  1
  Ta  Ta102  1  0.27716015  0.32393921  0.38506833  1
  Ta  Ta103  1  0.50970013  0.70384495  0.62722324  1
  Ta  Ta104  1  0.48919693  0.30790729  0.62508976  1
  Ta  Ta105  1  0.49926533  0.90185715  0.61508934  1
  Ta  Ta106  1  0.19668899  0.40088199  0.73959963  1
  Ta  Ta107  1  0.69582605  0.11088416  0.85929004  1
  Ta  Ta108  1  0.81196824  0.00445462  0.00128474  1
  Ta  Ta109  1  0.49217549  0.30302868  0.12083384  1
  Ta  Ta110  1  0.19596653  -0.02023341  0.74728909  1
  Ta  Ta111  1  0.58310659  0.20812738  0.75714569  1
  Ta  Ta112  1  -0.00676003  -0.00669481  0.51106698  1
  Ta  Ta113  1  0.39436682  0.20409604  0.74751390  1
  Ta  Ta114  1  0.30619171  0.90064662  0.39074226  1
  Ta  Ta115  1  0.61478339  0.01102696  0.50094133  1
  Ta  Ta116  1  0.41404105  0.79515508  0.49242786  1
  Ta  Ta117  1  -0.00641987  0.19374827  0.51518677  1
  Ta  Ta118  1  0.10749161  0.47730097  0.38857321  1
  Ta  Ta119  1  0.29416925  0.30324465  0.62376164  1
  Ti  Ti120  1  0.19502271  0.40570738  -0.00610833  1
  Ti  Ti121  1  0.19339911  0.61060128  -0.01417482  1
  Ti  Ti122  1  0.60657182  0.80533801  0.50096227  1
  Ti  Ti123  1  0.81859132  0.01299822  0.23772038  1
  Ti  Ti124  1  0.70138103  0.50253343  0.63532730  1
  Ti  Ti125  1  0.79470288  -0.00665504  0.75193622  1
  Ti  Ti126  1  0.07355935  0.09790542  0.37545870  1
  Ti  Ti127  1  0.40794895  -0.00899897  0.75489815  1
  Ti  Ti128  1  0.49981578  0.49485674  0.13023046  1
  Ti  Ti129  1  0.88235597  0.09073240  0.38672130  1
  Ti  Ti130  1  0.68522694  0.28945527  0.12046864  1
  Ti  Ti131  1  0.88189423  0.50214690  0.87013593  1
  Ti  Ti132  1  0.48518184  0.29640812  0.87919942  1
  Ti  Ti133  1  0.91649757  0.90657069  0.13060312  1
  Ti  Ti134  1  0.49815755  0.09706121  0.87108189  1
  Ti  Ti135  1  0.10757952  0.69362891  0.12600133  1
  Ti  Ti136  1  0.10611287  0.88853324  0.13818307  1
  Ti  Ti137  1  0.30453644  0.49727761  0.62565176  1
  Ti  Ti138  1  0.21160461  0.59138860  0.27368147  1
  Ti  Ti139  1  0.89483794  0.69841025  0.86221099  1
  Ti  Ti140  1  0.00626921  0.79947064  0.24999180  1
  Ti  Ti141  1  0.78174902  0.19873438  -0.00480042  1
  Ti  Ti142  1  0.39326919  0.79787025  0.00033608  1
  Ti  Ti143  1  0.39362124  0.40291967  0.50402073  1
  Ti  Ti144  1  0.80250338  0.60228287  0.25643569  1
  Ti  Ti145  1  0.40968868  0.59220005  0.73881179  1
  Ti  Ti146  1  0.00382101  0.79341275  0.49637928  1
  Ti  Ti147  1  0.50475029  0.48408425  0.86989539  1
  Ti  Ti148  1  0.70847990  0.70540555  0.37117188  1
  Ti  Ti149  1  0.51466682  0.10343573  0.37110205  1
  Ti  Ti150  1  0.40939440  0.00423118  0.49025763  1
  Ti  Ti151  1  0.51012775  0.70387523  0.37549155  1
  Ti  Ti152  1  -0.00089091  0.39374579  0.25332934  1
  Ti  Ti153  1  0.90516655  0.49641029  0.37419146  1
  Ti  Ti154  1  -0.00031687  -0.00044534  -0.00013476  1
  Ti  Ti155  1  0.71464369  0.69697084  0.12263871  1
  Ti  Ti156  1  0.10359950  0.50594100  0.12134367  1
  Ti  Ti157  1  0.40363572  0.39863571  0.74241340  1
  Ti  Ti158  1  0.59313207  0.20450885  -0.01301979  1
  Ti  Ti159  1  0.60455197  0.38644683  0.24768208  1
  Mo  Mo160  1  0.10039639  0.09261371  0.61637042  1
  Mo  Mo161  1  0.89124655  0.30049222  0.61447748  1
  Mo  Mo162  1  0.00272309  0.19931265  0.73584584  1
  Mo  Mo163  1  0.58408516  0.39900070  0.75569601  1
  Mo  Mo164  1  0.81354674  0.79931012  0.75758787  1
  Mo  Mo165  1  0.30349218  0.49733800  0.37883545  1
  Mo  Mo166  1  0.29923398  0.10114017  0.38775060  1
  Mo  Mo167  1  0.59371643  0.20956271  0.25113704  1
  Mo  Mo168  1  0.31415607  0.69461497  0.38836752  1
  Mo  Mo169  1  0.10374044  0.70179581  0.87355516  1
  Mo  Mo170  1  0.20444764  0.40473524  0.51696762  1
  Mo  Mo171  1  0.10050901  0.29604092  0.62482098  1
  Mo  Mo172  1  0.20710440  0.79787558  0.47970397  1
  Mo  Mo173  1  0.70564836  0.49350145  0.87179002  1
  Mo  Mo174  1  0.80978852  0.79876940  0.24459586  1
  Mo  Mo175  1  0.79942651  -0.00267939  0.50683296  1
  Mo  Mo176  1  0.69893388  0.10310687  0.37687030  1
  Mo  Mo177  1  0.00481212  -0.00453825  0.24792031  1
  Mo  Mo178  1  0.08436563  0.30147032  0.37372198  1
  Mo  Mo179  1  0.09927688  0.90090406  0.60822561  1
  Mo  Mo180  1  0.88801299  0.49599778  0.63346778  1
  Mo  Mo181  1  0.88571668  0.09558513  0.11898546  1
  Mo  Mo182  1  0.71085933  0.11430263  0.11781805  1
  Mo  Mo183  1  0.00645373  0.59776350  0.48447861  1
  Mo  Mo184  1  0.19857546  0.80381357  0.74652637  1
  Mo  Mo185  1  0.58855464  0.00858251  0.75565131  1
  Mo  Mo186  1  0.10142837  0.90799608  0.87440565  1
  Mo  Mo187  1  0.48766332  0.91117912  0.88272435  1
  Mo  Mo188  1  0.10081484  0.68960551  0.38528298  1
  Mo  Mo189  1  0.80844020  0.59283548  0.74963818  1
  Mo  Mo190  1  0.40538005  0.39527755  0.00306885  1
  Mo  Mo191  1  0.72039784  0.70203051  0.85991119  1
  Mo  Mo192  1  0.81047990  0.60209860  -0.00171030  1
  Mo  Mo193  1  0.69582262  0.30866413  0.38061196  1
  Mo  Mo194  1  0.50353351  0.49672193  0.62909093  1
  Mo  Mo195  1  0.10194518  0.30267611  0.87236185  1
  Mo  Mo196  1  0.29813543  0.69353386  0.88816963  1
  Mo  Mo197  1  0.19962880  0.79141568  0.01042528  1
  Mo  Mo198  1  0.79104610  0.41291358  0.74888430  1
  Mo  Mo199  1  0.40443610  0.19406342  -0.00212389  1
