# generated using pymatgen
data_HfZrTaTiMo
_symmetry_space_group_name_H-M   'P 1'
_cell_length_a   15.22567246
_cell_length_b   15.20283618
_cell_length_c   16.85806767
_cell_angle_alpha   89.94830214
_cell_angle_beta   90.03251855
_cell_angle_gamma   89.95753612
_symmetry_Int_Tables_number   1
_chemical_formula_structural   HfZrTaTiMo
_chemical_formula_sum   'Hf40 Zr40 Ta40 Ti40 Mo40'
_cell_volume   3902.19102020
_cell_formula_units_Z   40
loop_
 _symmetry_equiv_pos_site_id
 _symmetry_equiv_pos_as_xyz
  1  'x, y, z'
loop_
 _atom_site_type_symbol
 _atom_site_label
 _atom_site_symmetry_multiplicity
 _atom_site_fract_x
 _atom_site_fract_y
 _atom_site_fract_z
 _atom_site_occupancy
  Hf  Hf0  1  0.78128418  0.40042296  0.25391099  1
  Hf  Hf1  1  0.39406417  0.82443550  0.24792625  1
  Hf  Hf2  1  0.39113006  0.02725780  0.25260388  1
  Hf  Hf3  1  0.90264871  0.49720695  0.14441039  1
  Hf  Hf4  1  0.28479872  0.09057366  0.62052593  1
  Hf  Hf5  1  -0.00115693  0.39775965  0.00252616  1
  Hf  Hf6  1  0.19780919  0.19881244  0.74524343  1
  Hf  Hf7  1  0.50463740  0.70817451  0.36989285  1
  Hf  Hf8  1  0.10078557  0.28873580  0.36242009  1
  Hf  Hf9  1  0.69242508  0.50730210  0.63163522  1
  Hf  Hf10  1  0.10153523  0.48142490  0.36152274  1
  Hf  Hf11  1  0.60538133  0.00437761  0.74328780  1
  Hf  Hf12  1  0.10845584  0.28430566  0.13367129  1
  Hf  Hf13  1  0.09932879  0.69895065  0.14589347  1
  Hf  Hf14  1  -0.00250769  0.59389159  0.00645379  1
  Hf  Hf15  1  0.09712206  0.07816145  0.37149895  1
  Hf  Hf16  1  0.57921053  0.38282386  0.25109335  1
  Hf  Hf17  1  0.79512811  0.38253942  0.50440938  1
  Hf  Hf18  1  -0.00310658  -0.00445794  0.75765230  1
  Hf  Hf19  1  0.01272474  0.79074692  0.00293636  1
  Hf  Hf20  1  0.70791095  0.28408348  0.86917828  1
  Hf  Hf21  1  0.31523243  0.30072472  0.11794454  1
  Hf  Hf22  1  0.20438357  0.40722200  0.75076787  1
  Hf  Hf23  1  0.29426034  0.72091041  0.12913368  1
  Hf  Hf24  1  0.39541072  -0.00488736  0.75667359  1
  Hf  Hf25  1  0.50398455  0.88848820  0.88031445  1
  Hf  Hf26  1  0.60778636  0.81256524  0.24140161  1
  Hf  Hf27  1  0.90837958  0.09167934  0.12715920  1
  Hf  Hf28  1  0.48422581  0.11152159  0.61856804  1
  Hf  Hf29  1  0.70319738  0.89326458  0.61506454  1
  Hf  Hf30  1  0.69770364  0.68996437  0.36992063  1
  Hf  Hf31  1  0.49729772  0.70581553  0.12606304  1
  Hf  Hf32  1  0.20030798  0.40262630  -0.00626163  1
  Hf  Hf33  1  0.60586697  0.39374628  -0.00175259  1
  Hf  Hf34  1  0.22806317  0.18716599  0.25066305  1
  Hf  Hf35  1  0.19595369  0.62300306  -0.00558622  1
  Hf  Hf36  1  0.09813005  0.30131069  0.87027254  1
  Hf  Hf37  1  0.01531896  0.78466534  0.75352705  1
  Hf  Hf38  1  0.20379944  0.80781416  0.48042399  1
  Hf  Hf39  1  0.89734192  0.29262399  0.36875808  1
  Zr  Zr40  1  0.80057241  0.58559480  0.49718727  1
  Zr  Zr41  1  0.59535348  0.20810703  0.73750561  1
  Zr  Zr42  1  0.87494091  0.10090831  0.87566186  1
  Zr  Zr43  1  0.40596500  0.40300290  0.75588821  1
  Zr  Zr44  1  0.31014455  0.52728663  0.87783361  1
  Zr  Zr45  1  0.90062352  0.69325053  0.86950574  1
  Zr  Zr46  1  0.60780089  0.21717450  0.51837942  1
  Zr  Zr47  1  0.49574142  0.12674627  0.38557328  1
  Zr  Zr48  1  0.90566509  0.68701283  0.62418183  1
  Zr  Zr49  1  0.10859408  0.90085852  0.62068195  1
  Zr  Zr50  1  0.20294376  0.59502061  0.48670702  1
  Zr  Zr51  1  0.10763512  0.48761144  0.14557892  1
  Zr  Zr52  1  0.89538462  0.69883173  0.36967540  1
  Zr  Zr53  1  0.12657029  0.90601823  0.14212739  1
  Zr  Zr54  1  0.79792892  -0.01057201  0.24616970  1
  Zr  Zr55  1  0.00342413  -0.01254066  -0.00098896  1
  Zr  Zr56  1  0.31193656  0.30181172  0.61861888  1
  Zr  Zr57  1  0.48670638  0.12611309  0.12588309  1
  Zr  Zr58  1  0.69015785  0.70416213  0.87647608  1
  Zr  Zr59  1  0.78329053  -0.00630035  0.01040878  1
  Zr  Zr60  1  0.90812438  0.91294580  0.38836261  1
  Zr  Zr61  1  -0.00148337  0.19921570  0.00578065  1
  Zr  Zr62  1  0.21870882  0.59411680  0.26323826  1
  Zr  Zr63  1  0.38904459  -0.00609608  0.49600909  1
  Zr  Zr64  1  0.59409417  0.60513535  0.00408869  1
  Zr  Zr65  1  0.59645288  0.79089350  0.74500919  1
  Zr  Zr66  1  0.30918556  0.70619689  0.61118383  1
  Zr  Zr67  1  0.38151002  0.41177300  0.25644985  1
  Zr  Zr68  1  0.80305707  0.38624749  0.73516272  1
  Zr  Zr69  1  0.18185087  0.20133572  0.50562428  1
  Zr  Zr70  1  0.91022283  0.89647861  0.61238726  1
  Zr  Zr71  1  0.20203965  0.63189838  0.75467193  1
  Zr  Zr72  1  0.48642253  0.89077718  0.62280000  1
  Zr  Zr73  1  0.89706198  0.49065184  0.86303696  1
  Zr  Zr74  1  0.09784369  0.09988936  0.87800754  1
  Zr  Zr75  1  0.78245909  0.19251692  0.24029223  1
  Zr  Zr76  1  0.09992021  0.50853648  0.62875153  1
  Zr  Zr77  1  0.79613269  0.59580357  0.00623673  1
  Zr  Zr78  1  0.80186492  0.39262523  0.00673113  1
  Zr  Zr79  1  0.70510061  0.89853635  0.38898197  1
  Ta  Ta80  1  0.30046445  0.10334476  0.88253711  1
  Ta  Ta81  1  0.49291033  0.49536877  0.12055620  1
  Ta  Ta82  1  0.40429605  0.40784155  0.49519781  1
  Ta  Ta83  1  0.90194220  0.70017787  0.14019926  1
  Ta  Ta84  1  0.20197484  -0.00592743  0.76043894  1
  Ta  Ta85  1  0.50277962  0.50786767  0.37760189  1
  Ta  Ta86  1  0.89705578  0.10208688  0.37571851  1
  Ta  Ta87  1  0.59641053  0.79450953  0.50336792  1
  Ta  Ta88  1  0.00541333  0.80845694  0.26306928  1
  Ta  Ta89  1  0.70771998  0.90795351  0.87273428  1
  Ta  Ta90  1  -0.01239508  0.20214907  0.73877473  1
  Ta  Ta91  1  0.50637595  0.50800114  0.87758339  1
  Ta  Ta92  1  0.01122770  0.79032511  0.48397945  1
  Ta  Ta93  1  0.50005476  0.68879605  0.61596759  1
  Ta  Ta94  1  0.50002615  0.90875731  0.37924368  1
  Ta  Ta95  1  0.50082511  0.29947805  0.88013609  1
  Ta  Ta96  1  0.61028719  0.81525706  0.01009025  1
  Ta  Ta97  1  0.69685622  0.49833715  0.86236742  1
  Ta  Ta98  1  0.79462398  0.18679088  0.71848877  1
  Ta  Ta99  1  0.80091050  0.80412749  0.74640721  1
  Ta  Ta100  1  0.80590384  0.79874911  0.01017487  1
  Ta  Ta101  1  0.30612577  0.51341792  0.11226109  1
  Ta  Ta102  1  0.70409443  0.10268348  0.38679172  1
  Ta  Ta103  1  0.60031240  0.00341435  0.50379460  1
  Ta  Ta104  1  0.09391884  0.51136373  0.86421006  1
  Ta  Ta105  1  0.31461589  0.70386184  0.37715229  1
  Ta  Ta106  1  0.50564727  0.10027371  0.87574342  1
  Ta  Ta107  1  0.50621723  0.92041101  0.11812798  1
  Ta  Ta108  1  0.60397455  0.18720164  -0.00677417  1
  Ta  Ta109  1  0.30723435  0.29995424  0.38530382  1
  Ta  Ta110  1  0.79061550  0.19939702  0.01623401  1
  Ta  Ta111  1  0.60182268  0.58827364  0.24372733  1
  Ta  Ta112  1  0.49336248  0.50037036  0.62122258  1
  Ta  Ta113  1  0.79893804  -0.00267375  0.74045807  1
  Ta  Ta114  1  0.59617163  0.01137845  0.26019523  1
  Ta  Ta115  1  0.40547345  0.40836403  -0.00811125  1
  Ta  Ta116  1  0.00158219  0.39509275  0.49897817  1
  Ta  Ta117  1  0.12216464  0.87876670  0.87570472  1
  Ta  Ta118  1  0.60084270  0.59783233  0.49853052  1
  Ta  Ta119  1  0.00389304  0.59259272  0.48313831  1
  Ti  Ti120  1  0.90882665  0.49279566  0.62335083  1
  Ti  Ti121  1  0.28922151  0.91665370  0.37034089  1
  Ti  Ti122  1  0.40415546  0.00120873  -0.00476177  1
  Ti  Ti123  1  0.20707448  -0.00848210  -0.00635271  1
  Ti  Ti124  1  0.59789644  0.40017772  0.74964613  1
  Ti  Ti125  1  0.39366023  0.80065686  -0.00247937  1
  Ti  Ti126  1  0.29608152  0.89541828  0.62393802  1
  Ti  Ti127  1  0.67722590  0.28638788  0.12736501  1
  Ti  Ti128  1  -0.00208007  0.59910802  0.26535865  1
  Ti  Ti129  1  0.79191187  0.60761840  0.74374702  1
  Ti  Ti130  1  0.90067384  0.29924187  0.13950037  1
  Ti  Ti131  1  0.30992311  0.51344482  0.62427068  1
  Ti  Ti132  1  0.90019736  0.29076569  0.87144757  1
  Ti  Ti133  1  0.29318396  0.10787493  0.39380893  1
  Ti  Ti134  1  0.19986463  0.40150281  0.50116382  1
  Ti  Ti135  1  0.30012785  0.29815767  0.87911742  1
  Ti  Ti136  1  0.90846276  0.88989971  0.13075885  1
  Ti  Ti137  1  0.39978714  0.20408913  -0.01048674  1
  Ti  Ti138  1  0.09260761  0.30227371  0.62492467  1
  Ti  Ti139  1  0.80354437  0.79855792  0.24569671  1
  Ti  Ti140  1  0.68656089  0.29337609  0.37458309  1
  Ti  Ti141  1  0.67697199  0.08305330  0.12605542  1
  Ti  Ti142  1  0.28201995  0.09528866  0.10623571  1
  Ti  Ti143  1  0.79929892  0.78417312  0.50524742  1
  Ti  Ti144  1  0.80758205  0.02093790  0.51391162  1
  Ti  Ti145  1  0.00215657  0.18312716  0.24554531  1
  Ti  Ti146  1  -0.02030612  0.19421820  0.50932223  1
  Ti  Ti147  1  0.89563172  0.48933741  0.36853370  1
  Ti  Ti148  1  0.10246244  0.70215863  0.61417267  1
  Ti  Ti149  1  0.08611594  0.09221772  0.62290475  1
  Ti  Ti150  1  0.58317784  0.59993189  0.75226954  1
  Ti  Ti151  1  0.40780026  0.60439554  0.24943543  1
  Ti  Ti152  1  0.89838765  0.89162793  0.87623196  1
  Ti  Ti153  1  0.69279862  0.49629504  0.12719644  1
  Ti  Ti154  1  0.00154681  0.39759672  0.74393902  1
  Ti  Ti155  1  0.39870161  0.20133047  0.75849310  1
  Ti  Ti156  1  0.70674257  0.70162422  0.12890862  1
  Ti  Ti157  1  0.79251879  0.59633080  0.25078968  1
  Ti  Ti158  1  0.38951583  0.78485742  0.76174825  1
  Ti  Ti159  1  0.60042489  0.40796305  0.49663849  1
  Mo  Mo160  1  0.39370775  0.21173205  0.50482147  1
  Mo  Mo161  1  0.41009976  0.60896975  0.74928468  1
  Mo  Mo162  1  0.50093703  0.31923177  0.62450264  1
  Mo  Mo163  1  0.20428596  0.81214606  0.00575331  1
  Mo  Mo164  1  0.69787606  0.09261545  0.61590346  1
  Mo  Mo165  1  0.10782892  0.09712368  0.12794215  1
  Mo  Mo166  1  0.00384252  0.00498290  0.50115186  1
  Mo  Mo167  1  0.69825375  0.30858620  0.62680503  1
  Mo  Mo168  1  0.10283630  0.89870341  0.36527466  1
  Mo  Mo169  1  0.69870329  0.09643845  0.87060169  1
  Mo  Mo170  1  0.21305546  -0.00118823  0.24851595  1
  Mo  Mo171  1  0.30723389  0.90758796  0.87989997  1
  Mo  Mo172  1  0.48357433  0.69163352  0.88182419  1
  Mo  Mo173  1  0.90377534  0.09355725  0.62703573  1
  Mo  Mo174  1  0.19111502  -0.00194858  0.50121371  1
  Mo  Mo175  1  0.20529855  0.80081670  0.27293310  1
  Mo  Mo176  1  0.39928705  0.60780402  0.00638913  1
  Mo  Mo177  1  0.41645760  0.22442546  0.25885016  1
  Mo  Mo178  1  0.20955098  0.81308159  0.74644694  1
  Mo  Mo179  1  0.41038808  0.59965907  0.49297399  1
  Mo  Mo180  1  0.80040075  0.19657707  0.50736348  1
  Mo  Mo181  1  0.10082249  0.69642184  0.36566431  1
  Mo  Mo182  1  0.91032069  0.29858563  0.61850383  1
  Mo  Mo183  1  0.69306951  0.49318557  0.37023916  1
  Mo  Mo184  1  0.10165371  0.69676401  0.87633632  1
  Mo  Mo185  1  0.20540633  0.39013910  0.24680550  1
  Mo  Mo186  1  0.29711245  0.72948348  0.88295915  1
  Mo  Mo187  1  0.69616726  0.69844811  0.62449591  1
  Mo  Mo188  1  -0.00187058  0.59122678  0.74542808  1
  Mo  Mo189  1  0.69858639  0.89449033  0.12903820  1
  Mo  Mo190  1  0.30567565  0.49653131  0.38509793  1
  Mo  Mo191  1  -0.00008060  -0.00060930  0.24461646  1
  Mo  Mo192  1  0.49813504  0.31217692  0.38364319  1
  Mo  Mo193  1  0.49871923  0.30654984  0.10945872  1
  Mo  Mo194  1  0.20896850  0.19603888  -0.00375256  1
  Mo  Mo195  1  0.32081528  0.91483302  0.11656887  1
  Mo  Mo196  1  -0.00805191  0.38629513  0.25181004  1
  Mo  Mo197  1  0.40512364  0.80144693  0.48669549  1
  Mo  Mo198  1  0.59603680  0.19499589  0.25419580  1
  Mo  Mo199  1  0.59250898  0.00151392  -0.00474217  1
