# generated using pymatgen
data_HfZrTaTiMo
_symmetry_space_group_name_H-M   'P 1'
_cell_length_a   15.20758249
_cell_length_b   15.21078294
_cell_length_c   16.83037584
_cell_angle_alpha   89.92805261
_cell_angle_beta   90.02525576
_cell_angle_gamma   89.91493782
_symmetry_Int_Tables_number   1
_chemical_formula_structural   HfZrTaTiMo
_chemical_formula_sum   'Hf40 Zr40 Ta40 Ti40 Mo40'
_cell_volume   3893.18194296
_cell_formula_units_Z   40
loop_
 _symmetry_equiv_pos_site_id
 _symmetry_equiv_pos_as_xyz
  1  'x, y, z'
loop_
 _atom_site_type_symbol
 _atom_site_label
 _atom_site_symmetry_multiplicity
 _atom_site_fract_x
 _atom_site_fract_y
 _atom_site_fract_z
 _atom_site_occupancy
  Hf  Hf0  1  0.08383754  0.70844774  0.13096600  1
  Hf  Hf1  1  0.69139580  0.10257275  0.36914089  1
  Hf  Hf2  1  0.29174233  0.10569458  0.63646127  1
  Hf  Hf3  1  0.30067513  0.10381382  0.37862635  1
  Hf  Hf4  1  0.00136975  -0.00519548  0.00763677  1
  Hf  Hf5  1  0.90189782  0.32049653  0.10242484  1
  Hf  Hf6  1  0.30392956  0.30751748  0.12500006  1
  Hf  Hf7  1  0.81718566  0.17929815  0.77230607  1
  Hf  Hf8  1  0.09826855  0.32557531  0.87472082  1
  Hf  Hf9  1  0.78610203  0.80457419  -0.01153818  1
  Hf  Hf10  1  0.70665370  0.28940540  0.62950815  1
  Hf  Hf11  1  0.40959608  0.20322262  0.51417723  1
  Hf  Hf12  1  0.42056951  -0.01007706  0.00365095  1
  Hf  Hf13  1  0.49505157  0.69465458  0.87883660  1
  Hf  Hf14  1  0.49985186  0.89548781  0.63135877  1
  Hf  Hf15  1  0.21510687  0.22178340  -0.01985776  1
  Hf  Hf16  1  0.87595571  0.93350780  0.87306490  1
  Hf  Hf17  1  0.40756398  0.19282427  -0.01397939  1
  Hf  Hf18  1  0.19238475  0.59523995  0.49999283  1
  Hf  Hf19  1  0.20366626  0.20543176  0.25588802  1
  Hf  Hf20  1  0.79710761  0.41008878  0.49096302  1
  Hf  Hf21  1  0.00533198  0.59492367  -0.00474391  1
  Hf  Hf22  1  0.29032355  0.89434390  0.12778427  1
  Hf  Hf23  1  0.68400323  0.89745223  0.37251701  1
  Hf  Hf24  1  0.20917556  0.01137247  -0.00392448  1
  Hf  Hf25  1  0.50472379  0.30700116  0.86436137  1
  Hf  Hf26  1  0.00607175  0.40346589  0.50509658  1
  Hf  Hf27  1  -0.01050317  0.60206323  0.49556443  1
  Hf  Hf28  1  0.79012390  -0.00005022  0.51175972  1
  Hf  Hf29  1  0.49743051  0.89891799  0.85502594  1
  Hf  Hf30  1  0.20445005  0.60892932  0.25193777  1
  Hf  Hf31  1  0.48568776  0.68376207  0.60828516  1
  Hf  Hf32  1  0.79829672  0.78773862  0.25801635  1
  Hf  Hf33  1  0.60562243  0.40722225  0.25742091  1
  Hf  Hf34  1  0.70649372  0.68753763  0.62931898  1
  Hf  Hf35  1  0.39320403  0.59630716  0.01722402  1
  Hf  Hf36  1  0.31219147  0.10080090  0.85158483  1
  Hf  Hf37  1  0.08990552  0.90400056  0.87172038  1
  Hf  Hf38  1  0.49781357  0.08818053  0.36683043  1
  Hf  Hf39  1  0.59315465  0.00989444  0.51522217  1
  Zr  Zr40  1  0.58876611  0.80033685  0.00205110  1
  Zr  Zr41  1  0.30585313  0.90246727  0.38429353  1
  Zr  Zr42  1  -0.00774828  0.80385842  0.74958966  1
  Zr  Zr43  1  0.29753151  0.89551038  0.61234405  1
  Zr  Zr44  1  0.10070601  0.31210890  0.11572394  1
  Zr  Zr45  1  0.00418901  0.80118729  0.26998257  1
  Zr  Zr46  1  0.79705475  0.20971527  0.25411574  1
  Zr  Zr47  1  0.90146193  0.49970376  0.36639088  1
  Zr  Zr48  1  0.69502016  0.31086910  0.10095838  1
  Zr  Zr49  1  0.19201455  0.79994363  0.74417379  1
  Zr  Zr50  1  0.00031435  0.79452607  0.48858069  1
  Zr  Zr51  1  0.89485013  0.90944072  0.38267607  1
  Zr  Zr52  1  0.49527902  0.29033477  0.37433320  1
  Zr  Zr53  1  0.09751813  0.91165395  0.61322595  1
  Zr  Zr54  1  0.40876090  -0.01659990  0.24449033  1
  Zr  Zr55  1  0.51012024  0.30327600  0.64232119  1
  Zr  Zr56  1  -0.01262405  0.01870071  0.73741724  1
  Zr  Zr57  1  0.18244169  0.80222310  0.00688490  1
  Zr  Zr58  1  0.62393429  0.59028990  0.49373936  1
  Zr  Zr59  1  0.31530744  0.10839076  0.13114123  1
  Zr  Zr60  1  0.70410405  0.09907804  0.12653904  1
  Zr  Zr61  1  0.90121669  0.11381341  0.11838149  1
  Zr  Zr62  1  0.30159066  0.89681503  0.87365159  1
  Zr  Zr63  1  0.90379223  0.10729880  0.37843437  1
  Zr  Zr64  1  0.38964319  0.77578635  0.73909387  1
  Zr  Zr65  1  0.50475699  0.48095494  0.11488244  1
  Zr  Zr66  1  0.80516224  0.39586013  0.25592312  1
  Zr  Zr67  1  0.60409198  0.18570043  -0.01709942  1
  Zr  Zr68  1  0.89893308  0.30464642  0.63078866  1
  Zr  Zr69  1  0.10514258  0.29458076  0.63442026  1
  Zr  Zr70  1  0.31656201  0.69694542  0.38802737  1
  Zr  Zr71  1  0.00682360  0.00733491  0.24366427  1
  Zr  Zr72  1  0.29439915  0.69050418  0.88295632  1
  Zr  Zr73  1  0.10900073  0.10980612  0.12132716  1
  Zr  Zr74  1  0.62666469  0.19996176  0.77040014  1
  Zr  Zr75  1  0.78848499  0.80470268  0.75616206  1
  Zr  Zr76  1  0.89534370  0.88806570  0.12442262  1
  Zr  Zr77  1  0.30423486  0.48773036  0.37881298  1
  Zr  Zr78  1  0.89433817  0.52145013  0.13173092  1
  Zr  Zr79  1  0.58863853  0.58438531  0.75306838  1
  Ta  Ta80  1  0.70048461  0.48317255  0.63467686  1
  Ta  Ta81  1  0.62652280  -0.01032820  0.73885734  1
  Ta  Ta82  1  0.59182539  0.79171677  0.24509848  1
  Ta  Ta83  1  0.79363871  0.39432151  0.76953525  1
  Ta  Ta84  1  0.38361051  0.39126406  -0.01217061  1
  Ta  Ta85  1  0.51058193  0.69665198  0.37521218  1
  Ta  Ta86  1  0.10041975  0.10607439  0.87365993  1
  Ta  Ta87  1  0.40290596  0.42000994  0.75434645  1
  Ta  Ta88  1  0.49863480  0.49922643  0.38328399  1
  Ta  Ta89  1  0.39791706  0.78060547  0.23889914  1
  Ta  Ta90  1  0.80138580  0.60810426  -0.01537037  1
  Ta  Ta91  1  0.09783340  0.69701147  0.62476133  1
  Ta  Ta92  1  0.70883332  0.69332166  0.12451169  1
  Ta  Ta93  1  0.30905667  0.31056427  0.63884135  1
  Ta  Ta94  1  0.50683130  0.08663873  0.85013629  1
  Ta  Ta95  1  0.10285146  0.10756711  0.37900006  1
  Ta  Ta96  1  0.79445748  0.77693680  0.49151093  1
  Ta  Ta97  1  0.20852771  0.39177435  0.50917288  1
  Ta  Ta98  1  0.88814445  0.89052672  0.61417451  1
  Ta  Ta99  1  0.09433456  0.50089744  0.13688286  1
  Ta  Ta100  1  0.09846609  0.69128982  0.87185561  1
  Ta  Ta101  1  0.50088679  0.48844016  0.60915091  1
  Ta  Ta102  1  0.61004004  0.59755725  -0.00552931  1
  Ta  Ta103  1  0.78888703  0.20819115  0.49060539  1
  Ta  Ta104  1  0.21008422  0.60260656  0.73683747  1
  Ta  Ta105  1  0.40018938  0.38976851  0.25011869  1
  Ta  Ta106  1  0.89922618  0.69213318  0.63022682  1
  Ta  Ta107  1  0.68632062  0.90069794  0.13357722  1
  Ta  Ta108  1  0.41437619  0.59040676  0.24489216  1
  Ta  Ta109  1  0.51600980  0.08710964  0.13148173  1
  Ta  Ta110  1  -0.00061543  0.22722915  0.25617582  1
  Ta  Ta111  1  0.60097837  0.78856307  0.74613103  1
  Ta  Ta112  1  0.60371621  0.38064622  0.49153743  1
  Ta  Ta113  1  0.10229189  0.30628508  0.38176046  1
  Ta  Ta114  1  -0.00533584  0.41040859  0.75191694  1
  Ta  Ta115  1  0.49169479  0.49909578  0.88874161  1
  Ta  Ta116  1  0.19856108  0.80476686  0.25841385  1
  Ta  Ta117  1  0.10993486  0.91630267  0.38925050  1
  Ta  Ta118  1  0.50123762  0.10258221  0.65183113  1
  Ta  Ta119  1  0.31242529  0.50776061  0.61637859  1
  Ti  Ti120  1  0.89960510  0.69950873  0.86740414  1
  Ti  Ti121  1  0.00463888  0.20899134  0.76149783  1
  Ti  Ti122  1  0.00521167  0.01690939  0.50911353  1
  Ti  Ti123  1  0.09785321  0.50201299  0.63060197  1
  Ti  Ti124  1  0.60168857  0.79948925  0.50387624  1
  Ti  Ti125  1  0.20052216  0.21188751  0.75885870  1
  Ti  Ti126  1  0.39716054  0.00367011  0.50915260  1
  Ti  Ti127  1  0.59281445  0.20312231  0.24457864  1
  Ti  Ti128  1  0.91030781  0.49796784  0.87564749  1
  Ti  Ti129  1  0.19612212  0.39975089  0.25337454  1
  Ti  Ti130  1  0.79806870  -0.00320795  0.24967200  1
  Ti  Ti131  1  0.29139552  0.50317138  0.87452924  1
  Ti  Ti132  1  0.70127264  0.50315278  0.11206392  1
  Ti  Ti133  1  0.89450454  0.11202020  0.61606041  1
  Ti  Ti134  1  0.29415718  0.49713194  0.13240132  1
  Ti  Ti135  1  -0.00015677  0.20544939  0.49982271  1
  Ti  Ti136  1  0.69157970  0.48935122  0.88261002  1
  Ti  Ti137  1  0.49360038  0.88695466  0.38260504  1
  Ti  Ti138  1  0.61533222  -0.00833136  -0.01104353  1
  Ti  Ti139  1  0.19922768  0.79543915  0.49588666  1
  Ti  Ti140  1  0.19611193  -0.00241712  0.24991589  1
  Ti  Ti141  1  0.00511713  0.59864774  0.75176161  1
  Ti  Ti142  1  0.30054810  0.29801977  0.38174926  1
  Ti  Ti143  1  0.18933988  0.00599308  0.74791401  1
  Ti  Ti144  1  0.00841120  0.20622004  -0.00983418  1
  Ti  Ti145  1  0.77486362  0.59888949  0.26185879  1
  Ti  Ti146  1  0.39332536  0.79253301  0.01847620  1
  Ti  Ti147  1  0.19763331  0.60512810  0.01582395  1
  Ti  Ti148  1  0.80255616  0.18521216  -0.02040434  1
  Ti  Ti149  1  0.20131955  0.41464127  0.74834595  1
  Ti  Ti150  1  0.49637405  0.28616406  0.11974009  1
  Ti  Ti151  1  -0.01569056  0.79038177  -0.00573070  1
  Ti  Ti152  1  0.10222432  0.50078665  0.36794264  1
  Ti  Ti153  1  0.89936982  0.31028082  0.89167986  1
  Ti  Ti154  1  0.19578064  0.19715218  0.50653189  1
  Ti  Ti155  1  0.51003229  0.69060303  0.12709968  1
  Ti  Ti156  1  0.79737124  0.59164327  0.76597711  1
  Ti  Ti157  1  -0.00527161  0.61181615  0.26268254  1
  Ti  Ti158  1  0.19044617  0.42584800  -0.00355818  1
  Ti  Ti159  1  0.88988204  0.50702923  0.63595414  1
  Mo  Mo160  1  0.68640882  0.89603819  0.86869365  1
  Mo  Mo161  1  0.40174234  -0.00258242  0.73860145  1
  Mo  Mo162  1  0.60366714  0.19158175  0.50685450  1
  Mo  Mo163  1  0.70343684  0.10363444  0.62390570  1
  Mo  Mo164  1  0.10627904  0.51485376  0.86390942  1
  Mo  Mo165  1  0.01189145  0.40583410  0.25363479  1
  Mo  Mo166  1  0.50212909  0.89143863  0.12589013  1
  Mo  Mo167  1  0.69272865  0.69914287  0.37283098  1
  Mo  Mo168  1  0.88926619  0.69752201  0.12255465  1
  Mo  Mo169  1  0.40583589  0.20232976  0.24442705  1
  Mo  Mo170  1  0.10598992  0.70072810  0.37282057  1
  Mo  Mo171  1  0.91111606  0.29875294  0.38458118  1
  Mo  Mo172  1  0.29088613  0.69398162  0.60463310  1
  Mo  Mo173  1  0.59110701  0.39907372  -0.00236453  1
  Mo  Mo174  1  0.80569558  0.59624127  0.50506350  1
  Mo  Mo175  1  0.41230511  0.80259728  0.49930831  1
  Mo  Mo176  1  0.30236793  0.31629476  0.85552435  1
  Mo  Mo177  1  0.79806612  -0.00243421  0.72055521  1
  Mo  Mo178  1  0.69749433  0.68858123  0.87019151  1
  Mo  Mo179  1  0.10024866  0.90192257  0.13039946  1
  Mo  Mo180  1  0.89102174  0.69405230  0.37528705  1
  Mo  Mo181  1  0.69788484  0.88396965  0.61235182  1
  Mo  Mo182  1  0.00168020  0.41355130  -0.00420171  1
  Mo  Mo183  1  0.29924469  0.69232339  0.13405886  1
  Mo  Mo184  1  0.09387487  0.11362387  0.62806786  1
  Mo  Mo185  1  0.40732866  0.59318597  0.49259640  1
  Mo  Mo186  1  0.39948429  0.39448037  0.50466423  1
  Mo  Mo187  1  0.91853430  0.10852826  0.88885368  1
  Mo  Mo188  1  0.79837544  0.41959138  -0.01442409  1
  Mo  Mo189  1  0.40022557  0.20691063  0.75072043  1
  Mo  Mo190  1  0.59950931  0.60242821  0.24845211  1
  Mo  Mo191  1  0.71520650  0.06888335  0.87649753  1
  Mo  Mo192  1  0.71156341  0.30743369  0.89229012  1
  Mo  Mo193  1  0.60837335  0.40684081  0.75517250  1
  Mo  Mo194  1  0.60425643  -0.00913249  0.25009390  1
  Mo  Mo195  1  0.69646402  0.29702493  0.37910064  1
  Mo  Mo196  1  0.68974957  0.49694141  0.37190230  1
  Mo  Mo197  1  0.39131185  0.59062587  0.74791022  1
  Mo  Mo198  1  0.19652013  0.01433213  0.50019342  1
  Mo  Mo199  1  0.79081654  0.00037317  0.00501187  1
