# generated using pymatgen
data_HfZrTaTiMo
_symmetry_space_group_name_H-M   'P 1'
_cell_length_a   15.21205418
_cell_length_b   15.20421621
_cell_length_c   16.86458776
_cell_angle_alpha   90.01378501
_cell_angle_beta   90.02840904
_cell_angle_gamma   89.92511036
_symmetry_Int_Tables_number   1
_chemical_formula_structural   HfZrTaTiMo
_chemical_formula_sum   'Hf40 Zr40 Ta40 Ti40 Mo40'
_cell_volume   3900.56206916
_cell_formula_units_Z   40
loop_
 _symmetry_equiv_pos_site_id
 _symmetry_equiv_pos_as_xyz
  1  'x, y, z'
loop_
 _atom_site_type_symbol
 _atom_site_label
 _atom_site_symmetry_multiplicity
 _atom_site_fract_x
 _atom_site_fract_y
 _atom_site_fract_z
 _atom_site_occupancy
  Hf  Hf0  1  0.18694470  0.00866420  0.75979061  1
  Hf  Hf1  1  0.50403423  0.68115084  0.37813730  1
  Hf  Hf2  1  0.40107183  -0.00189226  0.74351543  1
  Hf  Hf3  1  0.60703432  0.78393741  0.23568821  1
  Hf  Hf4  1  0.70661858  0.70065803  0.37561448  1
  Hf  Hf5  1  -0.01373647  0.60549208  0.50182225  1
  Hf  Hf6  1  -0.00222344  0.59351302  0.01697691  1
  Hf  Hf7  1  0.41948485  0.38664474  0.00023701  1
  Hf  Hf8  1  0.28729880  0.68870284  0.37548362  1
  Hf  Hf9  1  0.20813540  0.59608553  0.74181700  1
  Hf  Hf10  1  0.89574132  0.69980306  0.63039753  1
  Hf  Hf11  1  0.59041763  0.79029067  0.01397190  1
  Hf  Hf12  1  0.68911961  0.10369395  0.38951858  1
  Hf  Hf13  1  0.59198880  0.21679600  -0.00666032  1
  Hf  Hf14  1  0.39690230  0.78935802  0.25218925  1
  Hf  Hf15  1  0.49277486  0.91327785  0.13389011  1
  Hf  Hf16  1  0.11056394  0.69427025  0.88247042  1
  Hf  Hf17  1  0.90032483  0.69909109  0.87551963  1
  Hf  Hf18  1  0.10538146  0.89383199  0.11557115  1
  Hf  Hf19  1  0.68296271  0.69856628  0.87504268  1
  Hf  Hf20  1  0.70728966  0.30892796  0.61614973  1
  Hf  Hf21  1  0.48559114  0.09940041  0.39433435  1
  Hf  Hf22  1  0.10823576  0.29844783  0.36586221  1
  Hf  Hf23  1  0.39616776  0.57310066  0.49870730  1
  Hf  Hf24  1  0.00063298  0.38503551  0.75350925  1
  Hf  Hf25  1  0.10737457  0.29898679  0.89175931  1
  Hf  Hf26  1  0.00470621  0.78810471  0.23879930  1
  Hf  Hf27  1  0.50128215  0.10264368  0.86160603  1
  Hf  Hf28  1  0.78836457  0.60344430  0.75095700  1
  Hf  Hf29  1  0.29013709  0.11187001  0.63102318  1
  Hf  Hf30  1  0.59422828  0.42574552  0.48659513  1
  Hf  Hf31  1  0.23320988  0.19959469  -0.00107877  1
  Hf  Hf32  1  -0.00564413  0.20320337  0.24907816  1
  Hf  Hf33  1  0.20844566  0.01291131  0.24281838  1
  Hf  Hf34  1  0.60646251  0.40820746  0.27082508  1
  Hf  Hf35  1  0.20914950  0.80112927  0.74882599  1
  Hf  Hf36  1  0.78112220  0.19424826  0.24587596  1
  Hf  Hf37  1  0.79307198  0.80727250  -0.00400695  1
  Hf  Hf38  1  0.21587609  0.40758444  0.49329540  1
  Hf  Hf39  1  0.67532304  0.50924101  0.63773774  1
  Zr  Zr40  1  0.08817586  0.10589522  0.10988428  1
  Zr  Zr41  1  0.87855012  0.69411365  0.12800743  1
  Zr  Zr42  1  0.40301389  0.38937338  0.26423609  1
  Zr  Zr43  1  0.10333879  0.71555213  0.61441041  1
  Zr  Zr44  1  0.91656268  0.29557107  0.62281421  1
  Zr  Zr45  1  0.80092482  0.81293908  0.74926650  1
  Zr  Zr46  1  -0.00132026  0.39303807  0.48309775  1
  Zr  Zr47  1  0.69919134  0.50393226  0.12889375  1
  Zr  Zr48  1  0.89980868  0.52533610  0.36187193  1
  Zr  Zr49  1  0.19604856  0.82212668  0.48838953  1
  Zr  Zr50  1  0.08396034  0.10335834  0.89397270  1
  Zr  Zr51  1  0.39604955  0.80210547  -0.00080837  1
  Zr  Zr52  1  0.50506037  0.89563252  0.37481483  1
  Zr  Zr53  1  0.59343094  0.78762002  0.73913387  1
  Zr  Zr54  1  0.38526652  -0.00581883  0.50774383  1
  Zr  Zr55  1  0.89818155  0.10095360  0.37658805  1
  Zr  Zr56  1  0.79519255  0.19397295  0.01057925  1
  Zr  Zr57  1  -0.00457313  0.39832881  0.01076461  1
  Zr  Zr58  1  0.09543219  0.48704588  0.61954858  1
  Zr  Zr59  1  0.81091618  0.39064830  0.26335618  1
  Zr  Zr60  1  0.00564003  0.81357332  0.75367678  1
  Zr  Zr61  1  0.60750591  0.79297906  0.51275752  1
  Zr  Zr62  1  0.30282267  0.90127680  0.13067610  1
  Zr  Zr63  1  -0.00071118  0.59252086  0.74567192  1
  Zr  Zr64  1  0.10086053  0.49669910  0.87996337  1
  Zr  Zr65  1  0.11814909  0.31117700  0.11914941  1
  Zr  Zr66  1  0.60040156  0.01193615  0.00250497  1
  Zr  Zr67  1  0.78783077  0.39776317  0.00084790  1
  Zr  Zr68  1  0.81115147  0.80226659  0.50770177  1
  Zr  Zr69  1  0.70496059  0.90810560  0.12772985  1
  Zr  Zr70  1  0.50233954  0.29679601  0.60897439  1
  Zr  Zr71  1  0.91162206  0.88711062  0.37484807  1
  Zr  Zr72  1  0.09991048  0.89824795  0.88890686  1
  Zr  Zr73  1  -0.00230853  0.79693271  0.00629411  1
  Zr  Zr74  1  0.59825837  0.02461171  0.24863891  1
  Zr  Zr75  1  0.21396321  -0.00300311  -0.00213716  1
  Zr  Zr76  1  0.69076101  0.91796664  0.86444897  1
  Zr  Zr77  1  0.58762694  0.58589128  -0.00423403  1
  Zr  Zr78  1  0.40504606  0.59635291  0.75601780  1
  Zr  Zr79  1  0.21661401  0.39254922  0.74676497  1
  Ta  Ta80  1  0.88989189  0.49337502  0.87518475  1
  Ta  Ta81  1  0.09819422  0.92413919  0.62708880  1
  Ta  Ta82  1  0.21055641  0.40878147  0.25518290  1
  Ta  Ta83  1  0.01507972  0.18747490  0.49537115  1
  Ta  Ta84  1  0.80186071  0.00269010  0.50867857  1
  Ta  Ta85  1  0.81034338  0.20181019  0.74437073  1
  Ta  Ta86  1  0.49480410  0.49813576  0.13323228  1
  Ta  Ta87  1  0.70573005  0.90721793  0.37487246  1
  Ta  Ta88  1  0.90351527  0.91168528  0.12697401  1
  Ta  Ta89  1  0.81407328  0.20590987  0.50081721  1
  Ta  Ta90  1  0.88213242  0.49073720  0.62256089  1
  Ta  Ta91  1  0.49393773  0.89344947  0.62381674  1
  Ta  Ta92  1  0.89902313  0.28960803  0.87520685  1
  Ta  Ta93  1  0.10897875  0.51628879  0.36874753  1
  Ta  Ta94  1  0.60350277  -0.00352684  0.51550469  1
  Ta  Ta95  1  0.39719105  0.59673432  -0.00021914  1
  Ta  Ta96  1  0.10884900  0.09576630  0.36826881  1
  Ta  Ta97  1  0.40261468  0.18210664  0.25467602  1
  Ta  Ta98  1  0.30963972  0.90188156  0.87238064  1
  Ta  Ta99  1  0.39899541  0.79407196  0.74844559  1
  Ta  Ta100  1  0.07914814  0.70630822  0.37915458  1
  Ta  Ta101  1  0.20734919  0.20133221  0.49624156  1
  Ta  Ta102  1  0.68798523  0.48967348  0.86341866  1
  Ta  Ta103  1  0.50647302  0.28701860  0.39290729  1
  Ta  Ta104  1  0.89955469  0.92137780  0.87789972  1
  Ta  Ta105  1  0.79894271  0.39737875  0.75268798  1
  Ta  Ta106  1  0.69576152  0.29989622  0.86272534  1
  Ta  Ta107  1  0.00428792  -0.00312093  0.24893678  1
  Ta  Ta108  1  0.29660477  0.48933308  0.11910880  1
  Ta  Ta109  1  0.01339587  0.41009910  0.24732570  1
  Ta  Ta110  1  0.80412319  0.00100588  0.24946820  1
  Ta  Ta111  1  0.77858352  0.59875656  0.50598704  1
  Ta  Ta112  1  0.00896015  -0.00895521  0.49323132  1
  Ta  Ta113  1  0.39818610  0.78972815  0.50269051  1
  Ta  Ta114  1  0.80124391  0.41039031  0.48466363  1
  Ta  Ta115  1  0.30090724  0.49282325  0.88809608  1
  Ta  Ta116  1  0.29376528  0.69229654  0.12470871  1
  Ta  Ta117  1  0.70575925  0.10886372  0.86054001  1
  Ta  Ta118  1  0.70240132  0.29528606  0.39086882  1
  Ta  Ta119  1  0.60644883  0.19708609  0.73975653  1
  Ti  Ti120  1  0.19479258  0.80100427  0.25848471  1
  Ti  Ti121  1  0.19209390  0.01489117  0.49644098  1
  Ti  Ti122  1  0.21204624  0.20602638  0.24306760  1
  Ti  Ti123  1  0.31976890  0.29265818  0.12658957  1
  Ti  Ti124  1  0.39108333  0.58862612  0.24947203  1
  Ti  Ti125  1  0.90248758  0.29302725  0.12545307  1
  Ti  Ti126  1  0.30145464  0.91595681  0.36704185  1
  Ti  Ti127  1  0.39973131  0.02165035  -0.00782045  1
  Ti  Ti128  1  0.49496292  0.11555749  0.12541120  1
  Ti  Ti129  1  0.80188914  0.00971091  0.00551809  1
  Ti  Ti130  1  0.11539472  0.27924615  0.62470911  1
  Ti  Ti131  1  0.50104524  0.89179978  0.86819165  1
  Ti  Ti132  1  0.79187897  0.59849492  -0.00561788  1
  Ti  Ti133  1  0.50191597  0.09942464  0.61953151  1
  Ti  Ti134  1  0.30963348  0.28508838  0.37968319  1
  Ti  Ti135  1  0.40215413  0.21160016  0.74470145  1
  Ti  Ti136  1  0.29571611  0.89544344  0.62526221  1
  Ti  Ti137  1  0.70549149  0.10601889  0.62068919  1
  Ti  Ti138  1  0.50750757  0.67922665  0.61912516  1
  Ti  Ti139  1  0.80526453  0.01388919  0.74025377  1
  Ti  Ti140  1  0.31022815  0.69637659  0.61808156  1
  Ti  Ti141  1  0.31246927  0.31343145  0.61699635  1
  Ti  Ti142  1  0.89580910  0.10358145  0.87508079  1
  Ti  Ti143  1  0.49986385  0.48063506  0.86539067  1
  Ti  Ti144  1  0.91475865  0.09549811  0.62052750  1
  Ti  Ti145  1  0.20501253  0.20093470  0.76482099  1
  Ti  Ti146  1  0.80192253  0.80310167  0.25086732  1
  Ti  Ti147  1  0.32466036  0.29457231  0.87551822  1
  Ti  Ti148  1  0.77867295  0.60594025  0.24903597  1
  Ti  Ti149  1  0.20014852  0.59484776  0.01003243  1
  Ti  Ti150  1  0.00941886  0.18133727  0.74891027  1
  Ti  Ti151  1  0.91031660  0.90795864  0.62373459  1
  Ti  Ti152  1  0.50798424  0.30124866  0.13597368  1
  Ti  Ti153  1  0.30349672  0.69872887  0.88181963  1
  Ti  Ti154  1  0.69984722  0.90872478  0.63297402  1
  Ti  Ti155  1  0.48102903  0.48474675  0.63490919  1
  Ti  Ti156  1  0.90047049  0.49588957  0.14061742  1
  Ti  Ti157  1  0.68757679  0.29972657  0.13107193  1
  Ti  Ti158  1  0.18655983  0.60433884  0.24085992  1
  Ti  Ti159  1  0.19699331  0.60224859  0.50429069  1
  Mo  Mo160  1  -0.01373427  0.00947208  0.74881801  1
  Mo  Mo161  1  0.60170358  0.39864985  0.00139402  1
  Mo  Mo162  1  0.39592511  0.38977418  0.48404778  1
  Mo  Mo163  1  0.50968906  0.29982369  0.85872062  1
  Mo  Mo164  1  0.59267190  0.39072490  0.74688927  1
  Mo  Mo165  1  0.30568258  0.10398980  0.86028530  1
  Mo  Mo166  1  0.69651156  0.70041973  0.62764470  1
  Mo  Mo167  1  0.29110133  0.10726479  0.37643526  1
  Mo  Mo168  1  0.11096000  0.69774924  0.12204429  1
  Mo  Mo169  1  0.89721137  0.70064762  0.36805949  1
  Mo  Mo170  1  0.58791471  0.21604815  0.25580694  1
  Mo  Mo171  1  0.69465479  0.69554656  0.11828875  1
  Mo  Mo172  1  0.39982733  0.00076069  0.25769330  1
  Mo  Mo173  1  0.60196549  0.00582372  0.72627378  1
  Mo  Mo174  1  0.29139103  0.50232688  0.36568270  1
  Mo  Mo175  1  0.58908759  0.59324407  0.75961431  1
  Mo  Mo176  1  -0.02146825  0.00452603  0.00592330  1
  Mo  Mo177  1  0.60982487  0.19304014  0.51102513  1
  Mo  Mo178  1  0.30297538  0.50005840  0.62371020  1
  Mo  Mo179  1  0.41227294  0.19359679  -0.00192508  1
  Mo  Mo180  1  0.00510996  0.80677443  0.50461225  1
  Mo  Mo181  1  0.68812745  0.10812484  0.12852348  1
  Mo  Mo182  1  0.49040131  0.49895229  0.36499125  1
  Mo  Mo183  1  0.10975718  0.50484440  0.13264485  1
  Mo  Mo184  1  0.21073781  0.78483140  -0.00226868  1
  Mo  Mo185  1  0.09745143  0.10755307  0.62309597  1
  Mo  Mo186  1  0.48589733  0.68409962  0.13168081  1
  Mo  Mo187  1  0.39635190  0.39399898  0.75332253  1
  Mo  Mo188  1  0.89199808  0.09604767  0.13508525  1
  Mo  Mo189  1  0.10749566  0.90473940  0.36515017  1
  Mo  Mo190  1  0.21822971  0.40360145  -0.00003272  1
  Mo  Mo191  1  0.58574781  0.60052126  0.24220355  1
  Mo  Mo192  1  0.31555478  0.10612963  0.12695286  1
  Mo  Mo193  1  0.39428406  0.19845592  0.50791301  1
  Mo  Mo194  1  0.00365586  0.59778190  0.23674604  1
  Mo  Mo195  1  0.69475518  0.51178180  0.37391333  1
  Mo  Mo196  1  0.59401332  0.60160296  0.50294044  1
  Mo  Mo197  1  0.48806380  0.70112265  0.87517834  1
  Mo  Mo198  1  -0.01616047  0.20335128  0.00477706  1
  Mo  Mo199  1  0.90248920  0.29956007  0.37742287  1
