# generated using pymatgen
data_HfZrTaTiMo
_symmetry_space_group_name_H-M   'P 1'
_cell_length_a   15.21364120
_cell_length_b   15.22335821
_cell_length_c   16.84902209
_cell_angle_alpha   90.00592204
_cell_angle_beta   89.99773523
_cell_angle_gamma   90.01788547
_symmetry_Int_Tables_number   1
_chemical_formula_structural   HfZrTaTiMo
_chemical_formula_sum   'Hf40 Zr40 Ta40 Ti40 Mo40'
_cell_volume   3902.27895751
_cell_formula_units_Z   40
loop_
 _symmetry_equiv_pos_site_id
 _symmetry_equiv_pos_as_xyz
  1  'x, y, z'
loop_
 _atom_site_type_symbol
 _atom_site_label
 _atom_site_symmetry_multiplicity
 _atom_site_fract_x
 _atom_site_fract_y
 _atom_site_fract_z
 _atom_site_occupancy
  Hf  Hf0  1  0.68024011  0.49883428  0.86818307  1
  Hf  Hf1  1  0.78379970  0.59424368  -0.00278583  1
  Hf  Hf2  1  0.29152722  0.49521385  0.63599993  1
  Hf  Hf3  1  0.19770501  0.22464835  0.02016326  1
  Hf  Hf4  1  0.89762656  0.71317871  0.10597460  1
  Hf  Hf5  1  0.80247058  0.18821783  0.75870735  1
  Hf  Hf6  1  0.89798095  0.50032500  0.11556286  1
  Hf  Hf7  1  0.30726857  0.30987928  0.36858110  1
  Hf  Hf8  1  0.59464665  0.58876326  0.52473844  1
  Hf  Hf9  1  0.18965517  0.60463098  0.76459981  1
  Hf  Hf10  1  0.29765068  0.10857304  0.89853469  1
  Hf  Hf11  1  0.09052026  0.88100884  0.64064770  1
  Hf  Hf12  1  0.89920272  0.29156040  0.88394884  1
  Hf  Hf13  1  0.31228192  0.50631174  0.11978662  1
  Hf  Hf14  1  0.01054601  0.40197966  -0.00577485  1
  Hf  Hf15  1  -0.00570393  0.59466488  0.77080039  1
  Hf  Hf16  1  0.10121664  0.07421210  0.35868013  1
  Hf  Hf17  1  0.18097963  0.80445830  0.49650849  1
  Hf  Hf18  1  0.80218262  0.00600328  0.49638940  1
  Hf  Hf19  1  0.78741497  0.81523042  0.25083592  1
  Hf  Hf20  1  0.69955879  0.70457758  0.86404784  1
  Hf  Hf21  1  0.80557250  0.81073033  0.49830099  1
  Hf  Hf22  1  0.10090403  0.70546786  0.36804827  1
  Hf  Hf23  1  0.00065688  0.19760898  0.22949573  1
  Hf  Hf24  1  0.29442784  0.91234958  0.12019563  1
  Hf  Hf25  1  0.49527216  0.30117755  0.87068066  1
  Hf  Hf26  1  0.02048359  0.00040141  -0.01199636  1
  Hf  Hf27  1  0.60422108  0.38735750  0.51031687  1
  Hf  Hf28  1  0.50260090  0.67901084  0.11710804  1
  Hf  Hf29  1  0.50349477  0.09599442  0.36351972  1
  Hf  Hf30  1  0.00274982  0.40651614  0.49772047  1
  Hf  Hf31  1  0.19370474  0.82455044  -0.01095424  1
  Hf  Hf32  1  0.09852083  0.08882681  0.62506077  1
  Hf  Hf33  1  0.60627090  0.19504264  0.23554024  1
  Hf  Hf34  1  0.29356384  0.90311577  0.36634493  1
  Hf  Hf35  1  0.91720745  0.70942711  0.62807802  1
  Hf  Hf36  1  0.89213417  0.50339768  0.62461761  1
  Hf  Hf37  1  0.30805520  0.70015868  0.88418795  1
  Hf  Hf38  1  0.20157375  0.60146032  0.50086598  1
  Hf  Hf39  1  0.79333440  -0.01439705  0.00855437  1
  Zr  Zr40  1  0.32977154  0.90670346  0.87990092  1
  Zr  Zr41  1  0.89961935  0.89241809  0.87918732  1
  Zr  Zr42  1  0.90380714  0.50081506  0.37383496  1
  Zr  Zr43  1  0.89772366  0.70660824  0.37368946  1
  Zr  Zr44  1  0.19304251  0.00423274  0.77062948  1
  Zr  Zr45  1  0.09747522  0.29939403  0.37315851  1
  Zr  Zr46  1  0.42293072  0.00325418  0.75030268  1
  Zr  Zr47  1  0.57170614  0.80627592  0.74154856  1
  Zr  Zr48  1  0.59456711  0.19882840  0.01405932  1
  Zr  Zr49  1  0.60227863  0.79543621  0.50774130  1
  Zr  Zr50  1  0.19437944  0.80112608  0.24220148  1
  Zr  Zr51  1  0.40414641  0.39932286  0.50354765  1
  Zr  Zr52  1  0.29314537  0.90562277  0.62925422  1
  Zr  Zr53  1  0.40009463  0.78635982  0.23959383  1
  Zr  Zr54  1  0.01293298  0.60495606  0.24000773  1
  Zr  Zr55  1  -0.00202812  0.39973189  0.76422540  1
  Zr  Zr56  1  0.79008354  0.20462304  0.50329519  1
  Zr  Zr57  1  0.69432457  0.49527092  0.37214041  1
  Zr  Zr58  1  0.42117002  0.81454077  0.01306841  1
  Zr  Zr59  1  0.29812849  0.29838622  0.86288765  1
  Zr  Zr60  1  0.30168041  0.29642064  0.63616414  1
  Zr  Zr61  1  0.50859315  0.89148255  0.37027289  1
  Zr  Zr62  1  -0.00585027  0.18544172  0.49831771  1
  Zr  Zr63  1  0.68984912  0.09155762  0.87988262  1
  Zr  Zr64  1  0.68554841  0.09462901  0.63499850  1
  Zr  Zr65  1  0.20497212  0.19546256  0.49071124  1
  Zr  Zr66  1  0.69339685  0.30193858  0.64471967  1
  Zr  Zr67  1  0.48298513  0.68430736  0.38036856  1
  Zr  Zr68  1  0.40941352  0.60610902  0.73856812  1
  Zr  Zr69  1  0.79351672  0.60302263  0.50058819  1
  Zr  Zr70  1  0.00473047  0.39941830  0.23913984  1
  Zr  Zr71  1  0.20243118  0.20696909  0.23641466  1
  Zr  Zr72  1  0.10368657  0.30471081  0.62554198  1
  Zr  Zr73  1  0.70617940  0.90408799  0.64081733  1
  Zr  Zr74  1  0.58794065  0.41292412  0.00454997  1
  Zr  Zr75  1  0.89507437  0.10544631  0.36082003  1
  Zr  Zr76  1  0.31152241  0.10266806  0.62367576  1
  Zr  Zr77  1  0.90002020  0.29581532  0.63040236  1
  Zr  Zr78  1  0.79399451  0.60362181  0.24647596  1
  Zr  Zr79  1  0.50470468  0.70242320  0.88019195  1
  Ta  Ta80  1  0.09268154  0.70193182  0.89852591  1
  Ta  Ta81  1  0.90944642  0.08939089  0.11708092  1
  Ta  Ta82  1  0.00890667  0.61321620  0.50284525  1
  Ta  Ta83  1  0.38615565  0.38713139  0.00294851  1
  Ta  Ta84  1  0.89890674  0.69476780  0.89365252  1
  Ta  Ta85  1  0.49778879  0.91571795  0.61057973  1
  Ta  Ta86  1  0.58210506  0.59300161  0.25070228  1
  Ta  Ta87  1  -0.00710833  0.81025360  0.23751181  1
  Ta  Ta88  1  0.60031151  0.59511224  0.72962152  1
  Ta  Ta89  1  0.69471567  0.29669107  0.87071208  1
  Ta  Ta90  1  0.81166424  0.79569086  0.75301852  1
  Ta  Ta91  1  0.89016581  0.30354995  0.36864576  1
  Ta  Ta92  1  0.38858370  0.79684982  0.50657947  1
  Ta  Ta93  1  0.40822887  0.41269206  0.25072735  1
  Ta  Ta94  1  0.40422056  0.20537201  0.24253597  1
  Ta  Ta95  1  0.39728989  0.60173544  0.52046104  1
  Ta  Ta96  1  0.70194910  0.29173691  0.36692687  1
  Ta  Ta97  1  0.28413548  0.70724104  0.63199873  1
  Ta  Ta98  1  0.20491889  0.41634138  0.24624096  1
  Ta  Ta99  1  0.30838054  0.51963032  0.37224048  1
  Ta  Ta100  1  0.40436197  0.00359485  0.23567544  1
  Ta  Ta101  1  0.10240958  0.70301738  0.10219814  1
  Ta  Ta102  1  0.59489368  0.19363780  0.49390511  1
  Ta  Ta103  1  0.09055694  0.91254069  0.12537930  1
  Ta  Ta104  1  0.29302096  0.69480283  0.10199643  1
  Ta  Ta105  1  0.31295893  0.49268247  0.86745643  1
  Ta  Ta106  1  0.51003316  0.29934085  0.36649717  1
  Ta  Ta107  1  0.11315459  0.50756614  0.11185468  1
  Ta  Ta108  1  0.79634097  0.39260567  0.24185835  1
  Ta  Ta109  1  0.68709734  0.50589351  0.12763479  1
  Ta  Ta110  1  0.00437420  -0.02331198  0.50043854  1
  Ta  Ta111  1  0.80077916  0.19744939  0.00599026  1
  Ta  Ta112  1  0.49041065  0.09298435  0.89265258  1
  Ta  Ta113  1  0.61336746  -0.02030308  0.23877664  1
  Ta  Ta114  1  0.91087660  0.90863201  0.36727104  1
  Ta  Ta115  1  0.71077521  0.69829742  0.63897615  1
  Ta  Ta116  1  0.00584705  0.18878038  0.75632528  1
  Ta  Ta117  1  0.60008190  0.39662780  0.24270253  1
  Ta  Ta118  1  0.31087877  0.10948330  0.11425585  1
  Ta  Ta119  1  0.69494523  0.89850294  0.86460059  1
  Ti  Ti120  1  0.69414225  0.70394971  0.12741899  1
  Ti  Ti121  1  0.19990169  -0.00121266  0.49409948  1
  Ti  Ti122  1  0.89749455  0.30013514  0.11319423  1
  Ti  Ti123  1  0.09377320  0.51172815  0.62747781  1
  Ti  Ti124  1  0.79756287  0.40500629  0.76187906  1
  Ti  Ti125  1  0.90089184  0.09860201  0.88551001  1
  Ti  Ti126  1  0.80260657  0.59442036  0.75787177  1
  Ti  Ti127  1  0.19537768  0.19545479  0.75334075  1
  Ti  Ti128  1  0.49938741  0.49256741  0.37968507  1
  Ti  Ti129  1  0.79222270  0.39466983  -0.00757180  1
  Ti  Ti130  1  0.20225303  0.58612194  -0.01496585  1
  Ti  Ti131  1  0.41822209  0.57930817  -0.01101227  1
  Ti  Ti132  1  0.58182209  0.40522876  0.74285318  1
  Ti  Ti133  1  0.20230721  0.40626177  0.49519372  1
  Ti  Ti134  1  0.79598853  0.40008716  0.50056036  1
  Ti  Ti135  1  0.40919263  0.19771720  0.49024176  1
  Ti  Ti136  1  0.40028094  0.00298782  0.49269501  1
  Ti  Ti137  1  0.80932729  0.00073475  0.23543519  1
  Ti  Ti138  1  0.58795197  -0.01257916  0.02346369  1
  Ti  Ti139  1  0.30467284  0.10027317  0.36320730  1
  Ti  Ti140  1  0.00970519  0.78950932  0.76725887  1
  Ti  Ti141  1  0.20260435  0.79927637  0.76902706  1
  Ti  Ti142  1  0.18927863  0.40569464  0.75875961  1
  Ti  Ti143  1  0.48782783  0.30253855  0.12773408  1
  Ti  Ti144  1  0.21590785  0.61055364  0.24517856  1
  Ti  Ti145  1  0.00725847  0.19754171  0.01521165  1
  Ti  Ti146  1  0.57682024  0.18378977  0.75495790  1
  Ti  Ti147  1  0.70098823  0.09295474  0.36212871  1
  Ti  Ti148  1  0.90156179  0.90584996  0.63856839  1
  Ti  Ti149  1  0.49205679  0.28228671  0.63427204  1
  Ti  Ti150  1  0.10458052  0.29221373  0.87744635  1
  Ti  Ti151  1  0.68337763  0.71116023  0.36859584  1
  Ti  Ti152  1  0.70483593  0.09409865  0.12348187  1
  Ti  Ti153  1  0.10911764  0.50357859  0.37189581  1
  Ti  Ti154  1  0.89950289  0.08856167  0.63456719  1
  Ti  Ti155  1  0.61866242  0.80268738  0.00426321  1
  Ti  Ti156  1  0.60418298  0.00014333  0.48971777  1
  Ti  Ti157  1  -0.00461894  0.00232436  0.76599836  1
  Ti  Ti158  1  0.70459774  0.30703121  0.12059179  1
  Ti  Ti159  1  0.80215071  0.20214355  0.23386028  1
  Mo  Mo160  1  0.60081881  0.60604722  0.00073502  1
  Mo  Mo161  1  0.50079139  0.09961198  0.60972246  1
  Mo  Mo162  1  0.20151838  0.01379007  -0.00269256  1
  Mo  Mo163  1  0.80968348  -0.00276485  0.75841825  1
  Mo  Mo164  1  0.38737255  0.79986611  0.73167891  1
  Mo  Mo165  1  0.09320586  0.11794150  0.87892664  1
  Mo  Mo166  1  0.49742363  0.48760126  0.62578889  1
  Mo  Mo167  1  0.70447562  0.90871258  0.37450868  1
  Mo  Mo168  1  0.11206660  0.09416866  0.12741737  1
  Mo  Mo169  1  0.70340080  0.89162986  0.12376275  1
  Mo  Mo170  1  0.10316866  0.89916566  0.86426212  1
  Mo  Mo171  1  0.40271383  0.39871824  0.74338327  1
  Mo  Mo172  1  0.41289393  0.01118324  0.02079458  1
  Mo  Mo173  1  0.49362202  0.70729216  0.61750611  1
  Mo  Mo174  1  0.09230960  0.89844250  0.36637895  1
  Mo  Mo175  1  -0.00079887  0.80510014  0.00238116  1
  Mo  Mo176  1  0.88849050  0.49678636  0.88346970  1
  Mo  Mo177  1  0.60184598  0.78627077  0.24930030  1
  Mo  Mo178  1  0.50158009  0.49130149  0.12645012  1
  Mo  Mo179  1  0.40303535  0.19419203  0.75340455  1
  Mo  Mo180  1  0.20533836  0.00596886  0.24246099  1
  Mo  Mo181  1  0.50977079  0.88980311  0.14082794  1
  Mo  Mo182  1  -0.00252190  -0.00434616  0.23800999  1
  Mo  Mo183  1  0.10729860  0.49617713  0.88400477  1
  Mo  Mo184  1  0.00050455  0.59663254  -0.00434916  1
  Mo  Mo185  1  0.39026457  0.59497687  0.24737935  1
  Mo  Mo186  1  0.59979346  0.00362391  0.75491809  1
  Mo  Mo187  1  0.20519581  0.40939743  -0.00579384  1
  Mo  Mo188  1  0.10106090  0.69508096  0.63433274  1
  Mo  Mo189  1  0.09867230  0.31475373  0.12522721  1
  Mo  Mo190  1  0.40585918  0.20874195  0.01449432  1
  Mo  Mo191  1  0.49271393  0.49774282  0.86771000  1
  Mo  Mo192  1  0.70458092  0.49602851  0.64163872  1
  Mo  Mo193  1  -0.00490138  0.80316592  0.50036161  1
  Mo  Mo194  1  0.90011959  0.90313942  0.11865873  1
  Mo  Mo195  1  0.50293883  0.09518821  0.13544896  1
  Mo  Mo196  1  0.30300610  0.31391063  0.13882151  1
  Mo  Mo197  1  0.79117850  0.79610397  -0.00284406  1
  Mo  Mo198  1  0.30115846  0.70036258  0.38294151  1
  Mo  Mo199  1  0.52475211  0.91513486  0.88934815  1
