# generated using pymatgen
data_HfZrTaTiMo
_symmetry_space_group_name_H-M   'P 1'
_cell_length_a   15.18469692
_cell_length_b   15.17334478
_cell_length_c   16.81497399
_cell_angle_alpha   90.01963625
_cell_angle_beta   90.03911254
_cell_angle_gamma   90.14923749
_symmetry_Int_Tables_number   1
_chemical_formula_structural   HfZrTaTiMo
_chemical_formula_sum   'Hf40 Zr40 Ta40 Ti40 Mo40'
_cell_volume   3874.20015247
_cell_formula_units_Z   40
loop_
 _symmetry_equiv_pos_site_id
 _symmetry_equiv_pos_as_xyz
  1  'x, y, z'
loop_
 _atom_site_type_symbol
 _atom_site_label
 _atom_site_symmetry_multiplicity
 _atom_site_fract_x
 _atom_site_fract_y
 _atom_site_fract_z
 _atom_site_occupancy
  Hf  Hf0  1  -0.01854199  0.80232435  0.49767935  1
  Hf  Hf1  1  0.48415127  0.88908526  0.38817679  1
  Hf  Hf2  1  0.01396778  0.21139391  0.73455951  1
  Hf  Hf3  1  0.30342824  0.52230257  0.12423792  1
  Hf  Hf4  1  0.60451271  0.20061334  0.25980771  1
  Hf  Hf5  1  0.01535278  0.21222094  0.52266669  1
  Hf  Hf6  1  0.18109454  0.77336590  0.74838911  1
  Hf  Hf7  1  0.89609120  0.71438183  0.64333514  1
  Hf  Hf8  1  0.40168932  0.60321039  0.26196944  1
  Hf  Hf9  1  0.70283172  0.49932393  0.12277567  1
  Hf  Hf10  1  0.49324878  0.10030390  0.38298963  1
  Hf  Hf11  1  0.81058892  0.19228835  0.49507971  1
  Hf  Hf12  1  0.71820068  0.49251644  0.60848265  1
  Hf  Hf13  1  -0.00368097  0.00718676  0.51094524  1
  Hf  Hf14  1  0.89633310  0.10309769  0.11833042  1
  Hf  Hf15  1  0.79528608  0.20222547  -0.00544532  1
  Hf  Hf16  1  0.48649906  0.91764626  0.61259781  1
  Hf  Hf17  1  0.60847672  0.40254838  0.73968794  1
  Hf  Hf18  1  0.31472260  0.09271638  0.62120180  1
  Hf  Hf19  1  0.81232375  0.40181812  0.00018424  1
  Hf  Hf20  1  0.69097565  0.70080621  0.87252411  1
  Hf  Hf21  1  0.79377212  0.79989829  0.00541856  1
  Hf  Hf22  1  0.69273507  0.69487840  0.63863429  1
  Hf  Hf23  1  0.38897688  -0.01890893  0.24939814  1
  Hf  Hf24  1  0.80711167  0.59437508  0.76127994  1
  Hf  Hf25  1  0.58992432  -0.01007748  0.25066308  1
  Hf  Hf26  1  0.88953717  0.88834665  0.86948313  1
  Hf  Hf27  1  0.89552147  0.70625919  0.35394889  1
  Hf  Hf28  1  0.88108947  0.90625468  0.63957737  1
  Hf  Hf29  1  0.81410254  0.20626279  0.25372561  1
  Hf  Hf30  1  0.01529257  0.38811432  0.24666761  1
  Hf  Hf31  1  0.59901556  0.58941303  0.25295766  1
  Hf  Hf32  1  0.50471230  0.69012416  0.39764647  1
  Hf  Hf33  1  0.81197018  0.60846429  -0.00631132  1
  Hf  Hf34  1  0.60927331  -0.00586814  0.49073592  1
  Hf  Hf35  1  0.41089151  0.39849951  0.24185562  1
  Hf  Hf36  1  0.90466973  0.49456138  0.38391293  1
  Hf  Hf37  1  0.69119295  0.69692334  0.12576664  1
  Hf  Hf38  1  0.19229622  0.00687466  0.25286000  1
  Hf  Hf39  1  0.20175843  0.19868873  0.00131005  1
  Zr  Zr40  1  0.01883678  0.42101091  0.74275591  1
  Zr  Zr41  1  0.19524350  0.58067408  0.48377564  1
  Zr  Zr42  1  0.69727989  0.28683828  0.61272553  1
  Zr  Zr43  1  0.67911627  0.90440686  0.10927586  1
  Zr  Zr44  1  -0.00030372  0.00720742  0.74438091  1
  Zr  Zr45  1  0.70552037  0.08339273  0.61786369  1
  Zr  Zr46  1  0.41918227  0.19765515  0.00393316  1
  Zr  Zr47  1  0.58398064  0.37501885  0.50232968  1
  Zr  Zr48  1  0.90436301  0.10290655  0.87704500  1
  Zr  Zr49  1  0.20049126  -0.01190657  0.50378180  1
  Zr  Zr50  1  0.68477832  0.10605170  0.12092540  1
  Zr  Zr51  1  0.50904537  0.31413977  0.88265726  1
  Zr  Zr52  1  0.69653154  0.50563259  0.39090816  1
  Zr  Zr53  1  0.60131936  0.19776122  0.75870400  1
  Zr  Zr54  1  0.80353430  0.62757336  0.50019524  1
  Zr  Zr55  1  0.39236775  -0.00371455  -0.00412502  1
  Zr  Zr56  1  0.21476099  0.21168910  0.51434490  1
  Zr  Zr57  1  0.49594925  0.51697007  0.60646264  1
  Zr  Zr58  1  0.29480888  0.68173056  0.62219015  1
  Zr  Zr59  1  0.37820555  0.78995774  -0.01167216  1
  Zr  Zr60  1  0.49030440  0.71073519  0.60802716  1
  Zr  Zr61  1  0.58328657  0.00595387  0.75625897  1
  Zr  Zr62  1  0.92966150  0.50648245  0.88326641  1
  Zr  Zr63  1  0.29590200  0.31475299  0.11820353  1
  Zr  Zr64  1  0.28636395  0.90077459  0.85803174  1
  Zr  Zr65  1  0.58427548  0.80277868  0.75431853  1
  Zr  Zr66  1  0.29871081  0.71320936  0.37487259  1
  Zr  Zr67  1  0.11320863  0.68898201  0.14131309  1
  Zr  Zr68  1  0.10396178  0.30730503  0.87998375  1
  Zr  Zr69  1  0.09921345  0.11614467  0.37872903  1
  Zr  Zr70  1  0.09152623  0.89141416  0.37141001  1
  Zr  Zr71  1  -0.00734017  0.00092315  0.24552055  1
  Zr  Zr72  1  0.50756981  0.13934549  0.59768209  1
  Zr  Zr73  1  0.80978564  0.41028931  0.24758020  1
  Zr  Zr74  1  0.30131796  0.09432852  0.12705091  1
  Zr  Zr75  1  0.80446136  0.20399986  0.75119443  1
  Zr  Zr76  1  -0.00668341  0.78470471  0.01086061  1
  Zr  Zr77  1  0.39789649  0.20786082  0.75941385  1
  Zr  Zr78  1  0.09156386  0.88944178  0.87107421  1
  Zr  Zr79  1  0.29042054  0.47962327  0.62253241  1
  Ta  Ta80  1  0.68424340  0.90618295  0.88858325  1
  Ta  Ta81  1  0.40582371  0.41959219  0.75609514  1
  Ta  Ta82  1  0.47742440  0.88495951  0.12090612  1
  Ta  Ta83  1  0.62249691  0.79495791  0.49968656  1
  Ta  Ta84  1  0.08693286  0.67886571  0.62553588  1
  Ta  Ta85  1  0.31873776  0.51069909  0.88689089  1
  Ta  Ta86  1  0.79191799  0.80491170  0.23281551  1
  Ta  Ta87  1  0.02372734  0.41200134  0.50942266  1
  Ta  Ta88  1  0.30359044  0.10207491  0.37787805  1
  Ta  Ta89  1  0.47874498  0.68183079  0.87188510  1
  Ta  Ta90  1  -0.00146239  0.58636627  0.24640297  1
  Ta  Ta91  1  0.17779354  0.78696836  0.50676812  1
  Ta  Ta92  1  0.91841553  0.51911424  0.61930408  1
  Ta  Ta93  1  0.30519529  0.31743847  0.89112806  1
  Ta  Ta94  1  0.19647593  0.21315361  0.24352440  1
  Ta  Ta95  1  0.19153666  -0.00776602  0.00198450  1
  Ta  Ta96  1  0.70911888  0.30346746  0.87562503  1
  Ta  Ta97  1  0.89928307  0.32352224  0.61878331  1
  Ta  Ta98  1  -0.00009087  -0.00358826  0.00244522  1
  Ta  Ta99  1  0.71538072  0.30342653  0.38181025  1
  Ta  Ta100  1  0.79420687  -0.00091413  0.24483696  1
  Ta  Ta101  1  0.91503482  0.50698224  0.11735526  1
  Ta  Ta102  1  0.09031007  0.88485595  0.63278157  1
  Ta  Ta103  1  0.10813675  0.09694516  0.87686820  1
  Ta  Ta104  1  0.90814516  0.30721554  0.87517648  1
  Ta  Ta105  1  0.89412755  0.90243784  0.12142638  1
  Ta  Ta106  1  0.69614218  0.49342172  0.87956725  1
  Ta  Ta107  1  0.42168286  0.42222117  0.01184308  1
  Ta  Ta108  1  0.11477285  0.48191251  0.11975545  1
  Ta  Ta109  1  0.09737615  0.69366054  0.35523001  1
  Ta  Ta110  1  0.60465994  0.39365234  0.25515828  1
  Ta  Ta111  1  0.77991565  0.00036459  0.76652734  1
  Ta  Ta112  1  0.30855043  0.71913627  0.13868025  1
  Ta  Ta113  1  0.58594977  0.58685146  -0.00251471  1
  Ta  Ta114  1  0.70230439  0.70773900  0.36086997  1
  Ta  Ta115  1  0.00663402  0.60963065  0.48901263  1
  Ta  Ta116  1  0.71155486  0.09214709  0.37022984  1
  Ta  Ta117  1  0.29010858  0.89084554  0.63840021  1
  Ta  Ta118  1  0.09530575  0.10441773  0.11923323  1
  Ta  Ta119  1  0.30386312  0.29171891  0.36321095  1
  Ti  Ti120  1  0.61007427  0.39171174  0.00729766  1
  Ti  Ti121  1  0.49307243  0.49219328  0.38931066  1
  Ti  Ti122  1  0.70041700  0.89118958  0.36510247  1
  Ti  Ti123  1  0.21420400  0.81356362  0.25178918  1
  Ti  Ti124  1  0.39535574  0.00276311  0.75743185  1
  Ti  Ti125  1  0.27792374  0.68465078  0.86988602  1
  Ti  Ti126  1  0.00772467  0.19893928  0.24675765  1
  Ti  Ti127  1  0.49275555  0.68607988  0.12269309  1
  Ti  Ti128  1  0.91773722  0.30437308  0.11687916  1
  Ti  Ti129  1  0.91759682  0.29668765  0.38634715  1
  Ti  Ti130  1  0.20425587  0.20213869  0.74292855  1
  Ti  Ti131  1  -0.00521720  0.80035940  0.23336668  1
  Ti  Ti132  1  0.29084640  0.48434292  0.36569512  1
  Ti  Ti133  1  0.58073987  0.79378065  0.24757434  1
  Ti  Ti134  1  0.88665493  0.90081340  0.36287303  1
  Ti  Ti135  1  0.81049979  0.40204818  0.75374925  1
  Ti  Ti136  1  0.38126036  0.38831432  0.49594503  1
  Ti  Ti137  1  0.19436032  0.00835931  0.73987167  1
  Ti  Ti138  1  0.89553670  0.10552871  0.63009640  1
  Ti  Ti139  1  0.49474202  0.29597199  0.37079580  1
  Ti  Ti140  1  0.21350465  0.39546510  0.76031250  1
  Ti  Ti141  1  0.10366836  0.90065418  0.12454303  1
  Ti  Ti142  1  0.18805790  0.79095064  0.00051081  1
  Ti  Ti143  1  0.49033128  0.89700812  0.87761469  1
  Ti  Ti144  1  0.90423759  0.09622519  0.37315159  1
  Ti  Ti145  1  0.58091440  0.01972194  -0.00747514  1
  Ti  Ti146  1  0.00256796  0.20298485  -0.00191867  1
  Ti  Ti147  1  0.37062204  0.81354368  0.50546885  1
  Ti  Ti148  1  0.69557506  0.89010808  0.63189078  1
  Ti  Ti149  1  0.40525910  0.19130507  0.23877978  1
  Ti  Ti150  1  0.57808938  0.79083521  -0.00506305  1
  Ti  Ti151  1  0.39193221  0.79351033  0.75112443  1
  Ti  Ti152  1  0.70976109  0.30030486  0.12741332  1
  Ti  Ti153  1  0.79481581  0.00197516  -0.00777831  1
  Ti  Ti154  1  0.02431678  0.59496184  0.00632017  1
  Ti  Ti155  1  0.58127516  0.59084205  0.75603619  1
  Ti  Ti156  1  0.11342221  0.31533623  0.37763211  1
  Ti  Ti157  1  0.51870049  0.29244233  0.12478254  1
  Ti  Ti158  1  0.29639960  0.10543338  0.87402824  1
  Ti  Ti159  1  0.80399970  -0.01618847  0.49160061  1
  Mo  Mo160  1  0.09071754  0.68369279  0.88220124  1
  Mo  Mo161  1  0.39223162  0.60399239  0.75135886  1
  Mo  Mo162  1  0.40490509  0.60967613  0.00668114  1
  Mo  Mo163  1  0.20574321  0.40050401  0.25053947  1
  Mo  Mo164  1  0.49301015  0.09489024  0.87561280  1
  Mo  Mo165  1  0.82032069  0.39658918  0.49774022  1
  Mo  Mo166  1  0.09850028  0.49780018  0.36648800  1
  Mo  Mo167  1  0.90518858  0.70296194  0.86744449  1
  Mo  Mo168  1  0.11864185  0.31452007  0.63413718  1
  Mo  Mo169  1  0.28394117  0.89162400  0.12164554  1
  Mo  Mo170  1  0.80409526  0.60444811  0.24456172  1
  Mo  Mo171  1  0.01718430  0.61323100  0.75864858  1
  Mo  Mo172  1  0.31352339  0.29820213  0.63436330  1
  Mo  Mo173  1  0.21196180  0.61508672  0.00397724  1
  Mo  Mo174  1  0.10606137  0.50491807  0.62420493  1
  Mo  Mo175  1  0.13090782  0.50588564  0.88888206  1
  Mo  Mo176  1  0.89850948  0.69426236  0.14024566  1
  Mo  Mo177  1  0.78307902  0.80615682  0.76235035  1
  Mo  Mo178  1  0.40852185  0.79820361  0.25240239  1
  Mo  Mo179  1  0.10663926  0.09534941  0.62982103  1
  Mo  Mo180  1  -0.00755138  0.79510099  0.75284136  1
  Mo  Mo181  1  0.19941408  0.59399420  0.25996764  1
  Mo  Mo182  1  0.47914175  0.32309141  0.63537679  1
  Mo  Mo183  1  0.29028034  0.90621530  0.38222275  1
  Mo  Mo184  1  0.79375936  0.81391164  0.49567808  1
  Mo  Mo185  1  0.19692758  0.57672497  0.75625362  1
  Mo  Mo186  1  0.61538033  0.19308070  0.46580440  1
  Mo  Mo187  1  0.39214845  0.58594403  0.48055254  1
  Mo  Mo188  1  0.50956841  0.49374987  0.13008620  1
  Mo  Mo189  1  0.60464526  0.59888730  0.49710870  1
  Mo  Mo190  1  0.09962013  0.29373695  0.11799857  1
  Mo  Mo191  1  0.50918067  0.50221328  0.87504830  1
  Mo  Mo192  1  0.19997522  0.38848916  0.49358869  1
  Mo  Mo193  1  0.39157729  0.00333686  0.50001310  1
  Mo  Mo194  1  0.40727873  0.21732654  0.49198367  1
  Mo  Mo195  1  0.01110787  0.39675118  0.00807293  1
  Mo  Mo196  1  0.60516166  0.20684849  -0.00231401  1
  Mo  Mo197  1  0.69219596  0.09961110  0.88614719  1
  Mo  Mo198  1  0.50206581  0.09530189  0.13276492  1
  Mo  Mo199  1  0.21056566  0.41053284  -0.00447856  1
