# generated using pymatgen
data_HfZrTaTiMo
_symmetry_space_group_name_H-M   'P 1'
_cell_length_a   15.21159674
_cell_length_b   15.21748021
_cell_length_c   16.83215336
_cell_angle_alpha   89.98337889
_cell_angle_beta   90.02766660
_cell_angle_gamma   90.11332143
_symmetry_Int_Tables_number   1
_chemical_formula_structural   HfZrTaTiMo
_chemical_formula_sum   'Hf40 Zr40 Ta40 Ti40 Mo40'
_cell_volume   3896.33518553
_cell_formula_units_Z   40
loop_
 _symmetry_equiv_pos_site_id
 _symmetry_equiv_pos_as_xyz
  1  'x, y, z'
loop_
 _atom_site_type_symbol
 _atom_site_label
 _atom_site_symmetry_multiplicity
 _atom_site_fract_x
 _atom_site_fract_y
 _atom_site_fract_z
 _atom_site_occupancy
  Hf  Hf0  1  0.19390132  0.80593025  0.50575502  1
  Hf  Hf1  1  0.50115745  0.29844511  0.13189450  1
  Hf  Hf2  1  0.28654939  0.90212450  0.13469008  1
  Hf  Hf3  1  0.39083491  0.78918195  0.00428129  1
  Hf  Hf4  1  0.20956842  0.60177736  0.01028578  1
  Hf  Hf5  1  0.49703075  0.49413578  0.13162920  1
  Hf  Hf6  1  0.59685911  0.80459099  0.74506982  1
  Hf  Hf7  1  0.89516473  0.69079386  0.39198297  1
  Hf  Hf8  1  0.20303914  0.01021454  0.74459043  1
  Hf  Hf9  1  0.91574095  0.31261596  0.13693047  1
  Hf  Hf10  1  0.82211212  0.20163999  0.74275707  1
  Hf  Hf11  1  0.80947742  -0.00169830  0.01861465  1
  Hf  Hf12  1  0.47908871  0.09707634  0.88258832  1
  Hf  Hf13  1  0.90271733  0.72499383  0.11372789  1
  Hf  Hf14  1  0.59796747  0.60331774  -0.00245024  1
  Hf  Hf15  1  0.70396157  0.70384053  0.39112789  1
  Hf  Hf16  1  -0.00084477  0.78330895  0.74662533  1
  Hf  Hf17  1  0.28481275  0.29489328  0.62103000  1
  Hf  Hf18  1  0.91120095  0.49997230  0.87750402  1
  Hf  Hf19  1  0.11199122  0.11466036  0.61280530  1
  Hf  Hf20  1  0.59982081  0.40229227  0.50471321  1
  Hf  Hf21  1  0.09092353  0.11068435  0.88677197  1
  Hf  Hf22  1  0.37904617  0.20447011  0.00740677  1
  Hf  Hf23  1  0.08547176  0.90924852  0.62471249  1
  Hf  Hf24  1  0.39520332  -0.00775844  0.73561655  1
  Hf  Hf25  1  0.40187950  -0.00824732  0.50812998  1
  Hf  Hf26  1  0.29336545  0.69240860  0.37361950  1
  Hf  Hf27  1  0.80301378  0.41191037  0.24717112  1
  Hf  Hf28  1  0.79710968  0.00228716  0.49016960  1
  Hf  Hf29  1  0.09253181  0.68992547  0.37770340  1
  Hf  Hf30  1  0.18667614  0.60088813  0.75052910  1
  Hf  Hf31  1  0.58943535  0.81412207  0.49689197  1
  Hf  Hf32  1  0.10311460  0.90117343  0.87235889  1
  Hf  Hf33  1  0.79957739  0.80013360  0.74049479  1
  Hf  Hf34  1  0.82019525  0.60621882  0.24229227  1
  Hf  Hf35  1  0.00947895  0.00558517  0.47852918  1
  Hf  Hf36  1  0.49346634  0.89174110  0.11978174  1
  Hf  Hf37  1  0.80992538  0.39242535  0.00714151  1
  Hf  Hf38  1  0.49256351  0.09736360  0.11947677  1
  Hf  Hf39  1  0.18366938  0.80019825  0.00132299  1
  Zr  Zr40  1  0.28411874  0.29123698  0.87162451  1
  Zr  Zr41  1  0.91011272  0.31213797  0.36534007  1
  Zr  Zr42  1  0.69615408  0.10181919  0.62656439  1
  Zr  Zr43  1  0.30513843  0.48948209  0.36456470  1
  Zr  Zr44  1  0.60402246  0.39355450  0.74731989  1
  Zr  Zr45  1  0.60576759  0.20313996  0.76634245  1
  Zr  Zr46  1  0.11206912  0.49630474  0.88203457  1
  Zr  Zr47  1  0.82432275  0.41545049  0.51845263  1
  Zr  Zr48  1  0.48397163  0.30313493  0.37346715  1
  Zr  Zr49  1  0.00840126  0.61804862  -0.00491849  1
  Zr  Zr50  1  0.38934707  0.79726279  0.51228813  1
  Zr  Zr51  1  0.21727157  0.38681619  0.01632021  1
  Zr  Zr52  1  0.59995140  0.00381863  0.75923387  1
  Zr  Zr53  1  0.70429312  0.89910689  0.87697997  1
  Zr  Zr54  1  0.59222750  0.19232452  0.49231218  1
  Zr  Zr55  1  0.60889096  0.59498912  0.25832053  1
  Zr  Zr56  1  0.08689568  0.31215751  0.61534200  1
  Zr  Zr57  1  0.48750813  0.49126800  0.63046375  1
  Zr  Zr58  1  0.29461334  0.70434467  0.86980053  1
  Zr  Zr59  1  0.81701685  0.60112519  0.73406125  1
  Zr  Zr60  1  0.80705813  0.39814470  0.73204545  1
  Zr  Zr61  1  0.91665061  0.09962840  0.61473718  1
  Zr  Zr62  1  0.59917031  -0.00321656  0.25038950  1
  Zr  Zr63  1  0.50024619  0.69602583  0.62278724  1
  Zr  Zr64  1  0.59898973  0.79437475  -0.00456720  1
  Zr  Zr65  1  0.39859882  0.58616539  0.00141052  1
  Zr  Zr66  1  0.20478744  0.80500646  0.73433681  1
  Zr  Zr67  1  0.80661288  0.20676550  0.50176827  1
  Zr  Zr68  1  0.59469321  0.39312650  -0.01028662  1
  Zr  Zr69  1  0.49362757  0.49915572  0.85976866  1
  Zr  Zr70  1  0.71036707  0.49400712  0.87507600  1
  Zr  Zr71  1  0.70331435  0.30122849  0.37469836  1
  Zr  Zr72  1  0.70327293  0.49778834  0.12063801  1
  Zr  Zr73  1  0.90294482  0.91531004  0.87414750  1
  Zr  Zr74  1  0.79682669  0.00182625  0.24558312  1
  Zr  Zr75  1  -0.00581351  0.00124152  0.25615558  1
  Zr  Zr76  1  0.59252151  0.79475406  0.25583890  1
  Zr  Zr77  1  0.59826382  0.00070840  -0.00359212  1
  Zr  Zr78  1  0.61421602  0.20403007  -0.01642829  1
  Zr  Zr79  1  0.27849697  0.28932492  0.36816605  1
  Ta  Ta80  1  0.79881404  0.80446458  0.25265670  1
  Ta  Ta81  1  0.08931781  0.49518659  0.11796668  1
  Ta  Ta82  1  0.60027550  0.59557610  0.50006167  1
  Ta  Ta83  1  0.47513442  0.30384807  0.86975760  1
  Ta  Ta84  1  0.60457639  0.19240930  0.25870144  1
  Ta  Ta85  1  0.39279756  0.60083361  0.74577903  1
  Ta  Ta86  1  0.29582390  0.08910299  0.36683763  1
  Ta  Ta87  1  0.10066423  0.70397821  0.13582035  1
  Ta  Ta88  1  0.38715762  0.19187345  0.74484229  1
  Ta  Ta89  1  0.18902817  0.58925244  0.24243684  1
  Ta  Ta90  1  0.18335858  0.20598074  0.75147784  1
  Ta  Ta91  1  0.48654037  0.28807977  0.62716101  1
  Ta  Ta92  1  0.39827071  -0.00702193  0.25369927  1
  Ta  Ta93  1  0.01175161  0.43175894  0.25890913  1
  Ta  Ta94  1  0.70825747  0.69516289  0.87223054  1
  Ta  Ta95  1  0.10946601  0.11907911  0.36030423  1
  Ta  Ta96  1  0.09194839  0.30349310  0.88533228  1
  Ta  Ta97  1  0.69811358  0.70465278  0.12318796  1
  Ta  Ta98  1  0.00397687  0.39418748  0.75201373  1
  Ta  Ta99  1  0.30158329  0.89716592  0.36888106  1
  Ta  Ta100  1  0.39599753  0.80274928  0.73506161  1
  Ta  Ta101  1  0.70557566  0.70368205  0.60785314  1
  Ta  Ta102  1  0.08524943  0.89509224  0.13277783  1
  Ta  Ta103  1  0.19580519  0.58007360  0.50163753  1
  Ta  Ta104  1  0.61291677  0.60241210  0.74104091  1
  Ta  Ta105  1  0.69625631  0.90366992  0.61698370  1
  Ta  Ta106  1  0.90607170  0.28971611  0.88253576  1
  Ta  Ta107  1  0.50064079  0.69891778  0.85875008  1
  Ta  Ta108  1  0.10857503  0.29783315  0.14844936  1
  Ta  Ta109  1  0.00227764  0.00572580  0.01731293  1
  Ta  Ta110  1  0.70001812  0.90260238  0.37832622  1
  Ta  Ta111  1  0.10177182  0.10011820  0.13878737  1
  Ta  Ta112  1  0.80350956  0.19587595  0.24373523  1
  Ta  Ta113  1  0.69925314  0.29396032  0.13524501  1
  Ta  Ta114  1  0.72040147  0.50737521  0.38628187  1
  Ta  Ta115  1  0.08854365  0.68507761  0.61197637  1
  Ta  Ta116  1  0.40670345  0.60473744  0.24764958  1
  Ta  Ta117  1  0.47473973  0.89360692  0.87796983  1
  Ta  Ta118  1  0.49178956  0.09171003  0.37300884  1
  Ta  Ta119  1  0.49082099  0.69401684  0.38432283  1
  Ti  Ti120  1  0.60150102  0.39735015  0.25993368  1
  Ti  Ti121  1  0.90502739  0.69567877  0.60552412  1
  Ti  Ti122  1  0.89556542  0.10998356  0.37020633  1
  Ti  Ti123  1  0.30314867  0.48979855  0.14157236  1
  Ti  Ti124  1  0.69651638  0.10545517  0.12371189  1
  Ti  Ti125  1  0.39673457  0.58789911  0.50154455  1
  Ti  Ti126  1  0.28802563  0.48785748  0.63199604  1
  Ti  Ti127  1  0.70777508  0.88809942  0.12165693  1
  Ti  Ti128  1  0.11101340  0.90388530  0.36555099  1
  Ti  Ti129  1  0.02278235  0.41829838  0.47993339  1
  Ti  Ti130  1  0.30409412  0.69642888  0.13809069  1
  Ti  Ti131  1  0.40355303  0.19085088  0.25228603  1
  Ti  Ti132  1  0.00422461  0.20617248  0.01711222  1
  Ti  Ti133  1  0.00937993  0.21474727  0.48124856  1
  Ti  Ti134  1  0.10069393  0.49972608  0.62855560  1
  Ti  Ti135  1  0.80275454  0.60610476  0.00495682  1
  Ti  Ti136  1  0.89582407  0.89017320  0.37940681  1
  Ti  Ti137  1  0.50360075  0.50128846  0.37548151  1
  Ti  Ti138  1  0.19996780  0.00546954  0.00640667  1
  Ti  Ti139  1  0.38887079  0.39578453  0.50312363  1
  Ti  Ti140  1  0.80372062  0.00095815  0.74223158  1
  Ti  Ti141  1  0.19569263  0.79568874  0.25196459  1
  Ti  Ti142  1  -0.00476805  0.02374682  0.75360239  1
  Ti  Ti143  1  0.38329013  0.18733795  0.50189986  1
  Ti  Ti144  1  0.29337694  0.09746843  0.13418030  1
  Ti  Ti145  1  0.49866903  0.10068807  0.62415226  1
  Ti  Ti146  1  -0.00223324  0.80424284  0.49836619  1
  Ti  Ti147  1  0.73386464  0.10423926  0.87686739  1
  Ti  Ti148  1  0.59511512  0.00318789  0.48878695  1
  Ti  Ti149  1  0.28911480  0.09061337  0.88256616  1
  Ti  Ti150  1  0.69549075  0.29960248  0.61930416  1
  Ti  Ti151  1  0.30662594  0.48179305  0.86401586  1
  Ti  Ti152  1  0.29135263  0.68444770  0.62123706  1
  Ti  Ti153  1  0.40173022  0.79560281  0.25264386  1
  Ti  Ti154  1  0.30644617  0.29797169  0.14759050  1
  Ti  Ti155  1  0.89256819  0.89692115  0.61623490  1
  Ti  Ti156  1  0.81367750  0.19528685  0.01408716  1
  Ti  Ti157  1  0.90145774  0.71241049  0.88464509  1
  Ti  Ti158  1  -0.00815680  0.79610148  0.25786089  1
  Ti  Ti159  1  0.20951136  0.00670754  0.49935972  1
  Mo  Mo160  1  0.38230605  -0.00669261  0.00042645  1
  Mo  Mo161  1  0.91313998  0.30078145  0.61584436  1
  Mo  Mo162  1  0.30414278  0.10857840  0.62063728  1
  Mo  Mo163  1  0.00566330  0.39554780  0.00408332  1
  Mo  Mo164  1  0.00005221  0.58886449  0.50180859  1
  Mo  Mo165  1  0.20735566  0.19072312  0.23910859  1
  Mo  Mo166  1  0.90677176  0.51310545  0.37730642  1
  Mo  Mo167  1  0.19847533  -0.00890081  0.25400693  1
  Mo  Mo168  1  0.19381696  0.19235304  0.49008680  1
  Mo  Mo169  1  0.39567238  0.39598712  0.00095936  1
  Mo  Mo170  1  0.80204976  0.80904254  0.50654399  1
  Mo  Mo171  1  0.40974981  0.39986046  0.25373860  1
  Mo  Mo172  1  -0.00249268  0.81891949  -0.00181503  1
  Mo  Mo173  1  0.48935181  0.89810800  0.37111258  1
  Mo  Mo174  1  0.00569744  0.20508258  0.75460810  1
  Mo  Mo175  1  0.00092382  0.59795188  0.75163985  1
  Mo  Mo176  1  0.30099589  0.91140819  0.88044783  1
  Mo  Mo177  1  0.00082786  0.20595430  0.25365490  1
  Mo  Mo178  1  0.49508916  0.69625860  0.13096950  1
  Mo  Mo179  1  0.90331616  0.10882603  0.88527085  1
  Mo  Mo180  1  0.00295896  0.61144241  0.24255348  1
  Mo  Mo181  1  0.11095021  0.50178114  0.37132698  1
  Mo  Mo182  1  0.10291113  0.30667703  0.35707236  1
  Mo  Mo183  1  0.69961657  0.09984109  0.37022722  1
  Mo  Mo184  1  0.20059326  0.40171143  0.49732894  1
  Mo  Mo185  1  0.69590203  0.50904113  0.61882810  1
  Mo  Mo186  1  0.50752158  0.90917942  0.62736525  1
  Mo  Mo187  1  0.90455431  0.11063226  0.12994710  1
  Mo  Mo188  1  0.93250960  0.50442826  0.62830147  1
  Mo  Mo189  1  0.90133209  0.90210781  0.13092801  1
  Mo  Mo190  1  0.09089640  0.70415384  0.87284722  1
  Mo  Mo191  1  0.72712690  0.28821521  0.87802527  1
  Mo  Mo192  1  0.79746331  0.79377399  -0.00334008  1
  Mo  Mo193  1  0.79955821  0.59788850  0.51704192  1
  Mo  Mo194  1  0.38946992  0.38860804  0.74207746  1
  Mo  Mo195  1  0.20320855  0.40234464  0.23736920  1
  Mo  Mo196  1  0.19305932  0.39849837  0.75199799  1
  Mo  Mo197  1  0.18895517  0.18994008  0.02150899  1
  Mo  Mo198  1  0.29112026  0.90109634  0.62031956  1
  Mo  Mo199  1  0.91027392  0.51098882  0.11531445  1
