# generated using pymatgen
data_HfZrTaTiMo
_symmetry_space_group_name_H-M   'P 1'
_cell_length_a   15.20827492
_cell_length_b   15.21291910
_cell_length_c   16.85319854
_cell_angle_alpha   89.97914411
_cell_angle_beta   89.91134037
_cell_angle_gamma   90.06314721
_symmetry_Int_Tables_number   1
_chemical_formula_structural   HfZrTaTiMo
_chemical_formula_sum   'Hf40 Zr40 Ta40 Ti40 Mo40'
_cell_volume   3899.18673590
_cell_formula_units_Z   40
loop_
 _symmetry_equiv_pos_site_id
 _symmetry_equiv_pos_as_xyz
  1  'x, y, z'
loop_
 _atom_site_type_symbol
 _atom_site_label
 _atom_site_symmetry_multiplicity
 _atom_site_fract_x
 _atom_site_fract_y
 _atom_site_fract_z
 _atom_site_occupancy
  Hf  Hf0  1  0.49906379  0.28867068  0.62541201  1
  Hf  Hf1  1  0.69706539  0.10163217  0.60017353  1
  Hf  Hf2  1  0.11742980  0.09451766  0.88924364  1
  Hf  Hf3  1  0.39356192  0.38649283  0.25016647  1
  Hf  Hf4  1  0.09822843  0.49959842  0.87661334  1
  Hf  Hf5  1  0.39395989  0.78074533  0.50000854  1
  Hf  Hf6  1  0.59012341  0.81532360  0.48477944  1
  Hf  Hf7  1  0.61361415  0.00016451  0.75074648  1
  Hf  Hf8  1  -0.00357803  0.80328243  0.73862323  1
  Hf  Hf9  1  0.49631090  0.88695495  0.13072373  1
  Hf  Hf10  1  0.01513734  -0.00835017  0.01725983  1
  Hf  Hf11  1  0.80404115  0.61276349  0.73776234  1
  Hf  Hf12  1  0.20059502  0.60973276  0.50670835  1
  Hf  Hf13  1  0.19429559  0.38840450  0.50992311  1
  Hf  Hf14  1  -0.00174709  0.78945329  0.24294277  1
  Hf  Hf15  1  0.70756385  0.91773039  0.37969294  1
  Hf  Hf16  1  0.80049259  0.81260804  0.74291912  1
  Hf  Hf17  1  0.09786505  0.28347740  0.37752926  1
  Hf  Hf18  1  0.19760748  0.19483441  0.23527209  1
  Hf  Hf19  1  0.69488221  0.71438548  0.61534642  1
  Hf  Hf20  1  0.77665415  0.40155338  0.26007911  1
  Hf  Hf21  1  0.19310922  0.60364190  0.00428825  1
  Hf  Hf22  1  0.88904254  0.29018653  0.13943398  1
  Hf  Hf23  1  0.21836962  0.01069769  0.49881322  1
  Hf  Hf24  1  0.30282507  0.49760420  0.11453993  1
  Hf  Hf25  1  0.50993132  0.69142366  0.87016820  1
  Hf  Hf26  1  0.79899737  0.61578059  0.25677077  1
  Hf  Hf27  1  0.18438245  0.81624204  -0.00820823  1
  Hf  Hf28  1  0.18793883  0.39634335  0.74657591  1
  Hf  Hf29  1  0.80145126  0.61601610  0.00413970  1
  Hf  Hf30  1  0.60110788  0.38772144  0.75034979  1
  Hf  Hf31  1  0.00871716  -0.00533524  0.24651368  1
  Hf  Hf32  1  0.48871313  0.49532263  0.64054479  1
  Hf  Hf33  1  0.90367421  0.50775669  0.86750346  1
  Hf  Hf34  1  0.09712417  0.49953487  0.38146629  1
  Hf  Hf35  1  0.69381655  0.51814939  0.85878587  1
  Hf  Hf36  1  0.69502225  0.50144617  0.62155690  1
  Hf  Hf37  1  0.20022542  0.80931679  0.50152939  1
  Hf  Hf38  1  0.90172420  0.50400324  0.38480289  1
  Hf  Hf39  1  0.90905312  0.89668614  0.38465404  1
  Zr  Zr40  1  0.70796402  0.90117960  0.89156916  1
  Zr  Zr41  1  0.50740710  0.10047610  0.88358622  1
  Zr  Zr42  1  0.81163926  0.00759499  0.74901679  1
  Zr  Zr43  1  -0.01230107  0.38605011  -0.00350941  1
  Zr  Zr44  1  0.18924656  0.60211156  0.23870355  1
  Zr  Zr45  1  0.92263544  0.89920085  0.88503665  1
  Zr  Zr46  1  0.40442492  0.39967469  0.49461094  1
  Zr  Zr47  1  0.89428366  0.50289673  0.12725585  1
  Zr  Zr48  1  0.59421954  0.39377194  -0.01590993  1
  Zr  Zr49  1  0.51028498  0.89903470  0.63229661  1
  Zr  Zr50  1  0.88478965  0.29466802  0.38127835  1
  Zr  Zr51  1  0.50911647  0.09028480  0.37487676  1
  Zr  Zr52  1  0.29469736  0.29239449  0.62810755  1
  Zr  Zr53  1  0.70174752  0.90789165  0.12400714  1
  Zr  Zr54  1  0.48703870  0.69709521  0.64443406  1
  Zr  Zr55  1  0.39825651  0.39234196  -0.00811146  1
  Zr  Zr56  1  0.20928802  0.00801729  0.74353814  1
  Zr  Zr57  1  0.30130379  0.71692338  0.12084239  1
  Zr  Zr58  1  0.69338890  0.30083408  0.12400044  1
  Zr  Zr59  1  0.49770732  0.28983699  0.12960462  1
  Zr  Zr60  1  0.69839324  0.28787341  0.87219106  1
  Zr  Zr61  1  0.38887084  0.18784912  0.48669765  1
  Zr  Zr62  1  0.80777092  0.00921051  0.01019746  1
  Zr  Zr63  1  0.29711700  0.50395490  0.37446514  1
  Zr  Zr64  1  0.40242919  0.60632897  0.24477704  1
  Zr  Zr65  1  0.90996319  0.12064282  0.60162324  1
  Zr  Zr66  1  0.50971188  0.48573149  0.36761847  1
  Zr  Zr67  1  0.80052922  0.20616519  0.74395751  1
  Zr  Zr68  1  0.79165148  0.40792543  -0.00805346  1
  Zr  Zr69  1  0.01228891  0.01098940  0.74266120  1
  Zr  Zr70  1  0.29059634  0.69623748  0.87416845  1
  Zr  Zr71  1  0.60431605  0.79321888  0.25808617  1
  Zr  Zr72  1  0.89578083  0.90724611  0.59694764  1
  Zr  Zr73  1  0.31441288  0.89959741  0.63266290  1
  Zr  Zr74  1  0.57643746  0.60367770  0.50036192  1
  Zr  Zr75  1  0.50764999  0.49774070  0.12708212  1
  Zr  Zr76  1  0.00231870  0.39608349  0.25045591  1
  Zr  Zr77  1  0.38121707  0.19036357  0.00443670  1
  Zr  Zr78  1  0.18953748  0.80241848  0.75782633  1
  Zr  Zr79  1  0.40075335  0.79707427  -0.00853560  1
  Ta  Ta80  1  0.09449886  0.70097693  0.37624207  1
  Ta  Ta81  1  0.81371903  0.20888453  -0.00521307  1
  Ta  Ta82  1  0.21908786  0.01292218  0.02324596  1
  Ta  Ta83  1  0.11067712  0.88843292  0.13170108  1
  Ta  Ta84  1  0.19531735  0.19827362  0.75342194  1
  Ta  Ta85  1  -0.00685915  0.18473800  0.25366223  1
  Ta  Ta86  1  0.67687027  0.30567544  0.39630438  1
  Ta  Ta87  1  0.29791168  0.50408097  0.63220112  1
  Ta  Ta88  1  0.70441000  0.30195238  0.60278991  1
  Ta  Ta89  1  0.07703720  0.70130287  0.88062351  1
  Ta  Ta90  1  0.91489120  0.11737773  0.87964855  1
  Ta  Ta91  1  0.50710347  0.90105444  0.88135275  1
  Ta  Ta92  1  0.49123948  0.49499115  0.85920600  1
  Ta  Ta93  1  0.90541597  0.09917083  0.38586138  1
  Ta  Ta94  1  0.00826171  0.60517518  0.73838419  1
  Ta  Ta95  1  0.90844550  0.69891374  0.60541004  1
  Ta  Ta96  1  0.29929258  0.92421065  0.87955054  1
  Ta  Ta97  1  0.29145036  0.70555901  0.36805376  1
  Ta  Ta98  1  0.69242157  0.50872491  0.12755294  1
  Ta  Ta99  1  0.38290785  0.59419185  0.75973025  1
  Ta  Ta100  1  0.31203474  0.89914907  0.36589847  1
  Ta  Ta101  1  0.89707806  0.70383760  0.87620905  1
  Ta  Ta102  1  0.60703115  0.80034648  0.75774169  1
  Ta  Ta103  1  0.61083527  0.00846532  0.25187925  1
  Ta  Ta104  1  0.02569647  0.00875362  0.48996723  1
  Ta  Ta105  1  0.51346109  0.09023875  0.12955727  1
  Ta  Ta106  1  0.39546707  0.19447284  0.75883134  1
  Ta  Ta107  1  0.29470045  0.49162639  0.87614891  1
  Ta  Ta108  1  0.70116051  0.50016174  0.39385863  1
  Ta  Ta109  1  0.00597472  0.21369023  0.74631048  1
  Ta  Ta110  1  0.79952580  0.60399229  0.50317855  1
  Ta  Ta111  1  0.90438860  0.70042681  0.39146890  1
  Ta  Ta112  1  -0.00248693  0.60190062  0.24591677  1
  Ta  Ta113  1  -0.00651457  0.39227206  0.51354671  1
  Ta  Ta114  1  0.39925569  0.18788562  0.25046305  1
  Ta  Ta115  1  0.49792881  0.09367945  0.61825427  1
  Ta  Ta116  1  0.19823653  0.38357037  0.00288417  1
  Ta  Ta117  1  0.48772320  0.69860519  0.36954976  1
  Ta  Ta118  1  0.09133568  0.28709308  0.11796067  1
  Ta  Ta119  1  0.09402204  0.49526343  0.11439505  1
  Ti  Ti120  1  0.40195380  -0.00763143  0.24553843  1
  Ti  Ti121  1  0.60753114  0.79738618  0.00175233  1
  Ti  Ti122  1  0.70259353  0.90898331  0.60340899  1
  Ti  Ti123  1  0.10332318  0.90636449  0.61917111  1
  Ti  Ti124  1  0.08937757  0.28814350  0.88438144  1
  Ti  Ti125  1  0.40609918  -0.00330739  0.01031401  1
  Ti  Ti126  1  0.20845465  -0.00074975  0.23339019  1
  Ti  Ti127  1  0.50452023  0.68940572  0.11774049  1
  Ti  Ti128  1  0.70820110  0.11307352  0.13159321  1
  Ti  Ti129  1  0.89823165  0.49984531  0.61805575  1
  Ti  Ti130  1  0.28836083  0.09522884  0.36251085  1
  Ti  Ti131  1  0.60640032  0.20786948  0.25921179  1
  Ti  Ti132  1  0.11441315  0.12355433  0.61367359  1
  Ti  Ti133  1  0.90728118  0.10353368  0.12691535  1
  Ti  Ti134  1  0.41024004  0.00473307  0.75954899  1
  Ti  Ti135  1  0.31213270  0.10180494  0.62549621  1
  Ti  Ti136  1  0.59473352  0.59578176  -0.00229083  1
  Ti  Ti137  1  0.70530832  0.70898143  0.87762035  1
  Ti  Ti138  1  0.80639868  0.39786574  0.74484396  1
  Ti  Ti139  1  0.11527568  0.90113501  0.36866017  1
  Ti  Ti140  1  -0.00731349  0.39837303  0.73790758  1
  Ti  Ti141  1  0.20479790  0.80339129  0.24863671  1
  Ti  Ti142  1  0.80985578  0.01579721  0.24921599  1
  Ti  Ti143  1  0.80674332  0.81110675  0.24579360  1
  Ti  Ti144  1  0.39926594  0.80809555  0.76770627  1
  Ti  Ti145  1  0.70836300  0.09644837  0.88376102  1
  Ti  Ti146  1  0.59691260  0.19117421  0.74683075  1
  Ti  Ti147  1  0.71047107  0.11416761  0.39051445  1
  Ti  Ti148  1  0.09648935  0.50875981  0.62264016  1
  Ti  Ti149  1  0.19581440  0.39458755  0.23792697  1
  Ti  Ti150  1  0.28883276  0.28951353  0.87195913  1
  Ti  Ti151  1  0.70405997  0.70294544  0.38637451  1
  Ti  Ti152  1  0.29565928  0.29390466  0.37223222  1
  Ti  Ti153  1  -0.01595187  0.78352387  0.02415614  1
  Ti  Ti154  1  0.41657813  -0.01911306  0.49211454  1
  Ti  Ti155  1  0.01364001  0.79464098  0.50254742  1
  Ti  Ti156  1  0.60606643  0.18711433  0.00301126  1
  Ti  Ti157  1  0.69858986  0.70282915  0.12505875  1
  Ti  Ti158  1  0.28634093  0.69460792  0.64263911  1
  Ti  Ti159  1  0.60901333  0.59361139  0.25791625  1
  Mo  Mo160  1  0.48859584  0.29387712  0.86047808  1
  Mo  Mo161  1  0.38987780  0.38997872  0.76140043  1
  Mo  Mo162  1  0.28997591  0.30184129  0.12869362  1
  Mo  Mo163  1  0.60210521  0.40080680  0.25398543  1
  Mo  Mo164  1  0.49795013  0.89554622  0.36047531  1
  Mo  Mo165  1  0.79984495  0.79766425  0.00837460  1
  Mo  Mo166  1  0.78978547  0.18607453  0.26099979  1
  Mo  Mo167  1  0.38655401  0.60157294  0.50125338  1
  Mo  Mo168  1  0.30461199  0.10156335  0.87706423  1
  Mo  Mo169  1  0.18980587  0.59572075  0.74737343  1
  Mo  Mo170  1  0.79727652  0.40898095  0.50163326  1
  Mo  Mo171  1  0.19821773  0.19133836  0.49258977  1
  Mo  Mo172  1  0.09912100  0.70379813  0.62451136  1
  Mo  Mo173  1  0.89851698  0.90070871  0.13320254  1
  Mo  Mo174  1  0.19477837  0.20157886  0.01258018  1
  Mo  Mo175  1  0.80784192  0.00480870  0.49003017  1
  Mo  Mo176  1  0.90646369  0.30242506  0.86453045  1
  Mo  Mo177  1  0.40558352  0.59098239  -0.01493356  1
  Mo  Mo178  1  0.59445448  0.00225072  0.00865511  1
  Mo  Mo179  1  0.89082849  0.70179096  0.13120560  1
  Mo  Mo180  1  0.10395726  0.08976637  0.36864874  1
  Mo  Mo181  1  0.30293501  0.90373453  0.12941431  1
  Mo  Mo182  1  0.59307790  0.39926090  0.50888230  1
  Mo  Mo183  1  0.31539054  0.09796215  0.13706731  1
  Mo  Mo184  1  0.59000319  0.20431309  0.49712658  1
  Mo  Mo185  1  0.59664830  0.00595192  0.49387350  1
  Mo  Mo186  1  0.09091906  0.29739864  0.62510470  1
  Mo  Mo187  1  0.59805755  0.60446632  0.74926187  1
  Mo  Mo188  1  0.49569345  0.29069189  0.36576108  1
  Mo  Mo189  1  0.10055369  0.09680945  0.12279019  1
  Mo  Mo190  1  -0.00076516  0.60202291  0.00233150  1
  Mo  Mo191  1  0.39685698  0.80031954  0.25396661  1
  Mo  Mo192  1  0.01068143  0.20285040  0.49430271  1
  Mo  Mo193  1  0.80223722  0.20883632  0.49560395  1
  Mo  Mo194  1  -0.00561561  0.19118999  0.00305219  1
  Mo  Mo195  1  0.79916968  0.79738397  0.49395761  1
  Mo  Mo196  1  0.10170292  0.90138544  0.88027969  1
  Mo  Mo197  1  0.09250944  0.69350461  0.12111164  1
  Mo  Mo198  1  0.00396646  0.59790855  0.50751382  1
  Mo  Mo199  1  0.89653987  0.31229042  0.62060071  1
