# generated using pymatgen
data_HfZrTaTiMo
_symmetry_space_group_name_H-M   'P 1'
_cell_length_a   15.18882843
_cell_length_b   15.18146583
_cell_length_c   16.82252997
_cell_angle_alpha   89.96823766
_cell_angle_beta   90.03346924
_cell_angle_gamma   89.89737345
_symmetry_Int_Tables_number   1
_chemical_formula_structural   HfZrTaTiMo
_chemical_formula_sum   'Hf40 Zr40 Ta40 Ti40 Mo40'
_cell_volume   3879.07749478
_cell_formula_units_Z   40
loop_
 _symmetry_equiv_pos_site_id
 _symmetry_equiv_pos_as_xyz
  1  'x, y, z'
loop_
 _atom_site_type_symbol
 _atom_site_label
 _atom_site_symmetry_multiplicity
 _atom_site_fract_x
 _atom_site_fract_y
 _atom_site_fract_z
 _atom_site_occupancy
  Hf  Hf0  1  0.29770595  0.50223393  0.38278580  1
  Hf  Hf1  1  0.48734306  0.71728758  0.63781427  1
  Hf  Hf2  1  0.18637623  0.81554815  0.27006474  1
  Hf  Hf3  1  0.02111090  0.60257050  0.73304871  1
  Hf  Hf4  1  0.01499328  -0.00196439  0.26010909  1
  Hf  Hf5  1  0.40287089  0.81113132  0.25914701  1
  Hf  Hf6  1  0.29945653  0.30760954  0.38205052  1
  Hf  Hf7  1  0.89087511  0.70729641  0.13532091  1
  Hf  Hf8  1  0.11131655  0.89117974  0.86953569  1
  Hf  Hf9  1  0.60629206  0.19441098  0.26844344  1
  Hf  Hf10  1  0.80080139  0.78931073  -0.01510473  1
  Hf  Hf11  1  0.80277302  0.58667885  0.73359013  1
  Hf  Hf12  1  0.39701570  0.59802448  0.24582133  1
  Hf  Hf13  1  0.00674239  0.38462713  0.23981770  1
  Hf  Hf14  1  0.28595576  0.70414361  0.12050330  1
  Hf  Hf15  1  0.27590074  0.70051376  0.88925536  1
  Hf  Hf16  1  0.40464462  0.40977334  0.52134636  1
  Hf  Hf17  1  0.69980905  0.29883415  0.12769324  1
  Hf  Hf18  1  0.71417101  0.48489498  0.86966748  1
  Hf  Hf19  1  0.08931433  0.89542082  0.61404766  1
  Hf  Hf20  1  0.29159852  0.10657976  0.39301608  1
  Hf  Hf21  1  0.19559356  0.59604392  0.24974925  1
  Hf  Hf22  1  0.09743641  0.09541010  0.86963981  1
  Hf  Hf23  1  0.48996227  0.09612365  0.86360140  1
  Hf  Hf24  1  0.28842648  0.10303627  0.62588240  1
  Hf  Hf25  1  0.49318486  0.91474822  0.12663896  1
  Hf  Hf26  1  0.91372776  0.30101533  0.38454352  1
  Hf  Hf27  1  0.30751703  0.09564431  0.13019449  1
  Hf  Hf28  1  0.09144813  0.48591166  0.37911527  1
  Hf  Hf29  1  0.08982963  0.69302298  0.37595987  1
  Hf  Hf30  1  0.48051896  0.70548036  0.86417343  1
  Hf  Hf31  1  0.19989147  0.77925363  0.73562984  1
  Hf  Hf32  1  0.00504139  0.39132347  0.51996390  1
  Hf  Hf33  1  0.41590038  -0.00430687  0.72660965  1
  Hf  Hf34  1  0.69714356  0.28413433  0.61762273  1
  Hf  Hf35  1  0.81999824  0.19913692  0.25498739  1
  Hf  Hf36  1  0.80862422  -0.00747749  0.75271350  1
  Hf  Hf37  1  0.59795913  0.40295384  0.26019709  1
  Hf  Hf38  1  0.60375806  0.60390812  -0.02060620  1
  Hf  Hf39  1  0.90129433  0.09938949  0.87383034  1
  Zr  Zr40  1  0.50286817  0.29887277  0.12528094  1
  Zr  Zr41  1  0.50165857  0.10345030  0.12448134  1
  Zr  Zr42  1  0.39580672  0.82294898  -0.00018879  1
  Zr  Zr43  1  0.70437904  0.29783625  0.39122193  1
  Zr  Zr44  1  0.69499587  0.09527608  0.12489388  1
  Zr  Zr45  1  0.61580381  0.39850357  0.74123320  1
  Zr  Zr46  1  0.81311782  0.40873947  0.24529584  1
  Zr  Zr47  1  0.31086080  0.90283021  0.85670196  1
  Zr  Zr48  1  0.69638242  0.88571424  0.11876713  1
  Zr  Zr49  1  0.70821679  0.50317044  0.38579869  1
  Zr  Zr50  1  0.60016792  0.81436465  0.76612927  1
  Zr  Zr51  1  -0.00015700  0.39436274  0.01027567  1
  Zr  Zr52  1  0.60533970  0.20485086  -0.02312963  1
  Zr  Zr53  1  0.69436145  0.71049604  0.37727071  1
  Zr  Zr54  1  0.91685545  0.50253385  0.86828644  1
  Zr  Zr55  1  0.80787005  -0.00349173  0.00524173  1
  Zr  Zr56  1  0.18864129  0.19650044  0.25369617  1
  Zr  Zr57  1  0.38704738  0.58854478  0.00160494  1
  Zr  Zr58  1  0.40384286  0.21022646  0.51827413  1
  Zr  Zr59  1  0.80633192  0.20423539  0.00045529  1
  Zr  Zr60  1  0.49815498  0.51513337  0.64268139  1
  Zr  Zr61  1  0.50636832  0.70931246  0.11477093  1
  Zr  Zr62  1  0.00268608  0.60217911  0.01552244  1
  Zr  Zr63  1  0.69500448  0.50557079  0.11752344  1
  Zr  Zr64  1  0.00188949  0.39532957  0.72900817  1
  Zr  Zr65  1  0.59413025  0.18198759  0.49819600  1
  Zr  Zr66  1  0.49274362  0.49129449  0.11499915  1
  Zr  Zr67  1  0.80131862  -0.00680665  0.24065499  1
  Zr  Zr68  1  0.20725216  -0.00600316  0.00080138  1
  Zr  Zr69  1  0.59645368  0.60309553  0.50869280  1
  Zr  Zr70  1  0.88993708  0.30594058  0.86235034  1
  Zr  Zr71  1  0.29383966  0.10539413  0.85388150  1
  Zr  Zr72  1  0.30477052  0.30604131  0.12806779  1
  Zr  Zr73  1  0.89990500  0.72014852  0.62250393  1
  Zr  Zr74  1  0.91864930  0.89711568  0.87539606  1
  Zr  Zr75  1  -0.00715222  0.81135686  0.48079447  1
  Zr  Zr76  1  0.39305437  0.20202536  -0.01046796  1
  Zr  Zr77  1  0.80562646  0.41307304  0.52249224  1
  Zr  Zr78  1  0.59326113  0.60541526  0.25221932  1
  Zr  Zr79  1  0.41827687  0.00545712  0.51326825  1
  Ta  Ta80  1  0.39088183  0.40976310  0.74192848  1
  Ta  Ta81  1  0.29478158  0.50144231  0.86860051  1
  Ta  Ta82  1  0.78904222  0.81260617  0.49475797  1
  Ta  Ta83  1  0.09039768  0.72005755  0.14207554  1
  Ta  Ta84  1  0.79530878  0.79175477  0.76439942  1
  Ta  Ta85  1  -0.01097225  0.58831256  0.24469797  1
  Ta  Ta86  1  0.79812066  0.60235497  0.25040749  1
  Ta  Ta87  1  0.80467461  0.59558937  -0.00211606  1
  Ta  Ta88  1  0.29035698  0.30926313  0.85819378  1
  Ta  Ta89  1  0.81752589  0.17693896  0.49983529  1
  Ta  Ta90  1  0.30339355  0.88740514  0.61686439  1
  Ta  Ta91  1  -0.01058471  0.59112595  0.50428514  1
  Ta  Ta92  1  0.10714891  0.28874224  0.38887796  1
  Ta  Ta93  1  0.59198989  -0.00614789  0.26150695  1
  Ta  Ta94  1  0.19212077  0.41614576  0.74229944  1
  Ta  Ta95  1  0.71259997  0.07675843  0.38371161  1
  Ta  Ta96  1  0.08892487  0.69696229  0.87902371  1
  Ta  Ta97  1  0.10119275  0.28825494  0.12025673  1
  Ta  Ta98  1  0.11520093  0.68948379  0.59922706  1
  Ta  Ta99  1  0.00651807  0.19367449  0.00153533  1
  Ta  Ta100  1  0.71221554  0.89085473  0.62759526  1
  Ta  Ta101  1  0.40260040  0.19657562  0.26362386  1
  Ta  Ta102  1  0.28769913  0.90446401  0.13621295  1
  Ta  Ta103  1  0.49041966  0.30392869  0.85084756  1
  Ta  Ta104  1  0.39000982  0.61097863  0.50332567  1
  Ta  Ta105  1  0.80045082  0.40084046  0.00728948  1
  Ta  Ta106  1  0.30954259  0.90847787  0.38749122  1
  Ta  Ta107  1  0.59598191  -0.00657148  -0.02084691  1
  Ta  Ta108  1  0.49258807  0.50056569  0.85908355  1
  Ta  Ta109  1  0.00895905  0.80496604  0.00711934  1
  Ta  Ta110  1  0.49507948  0.30578553  0.38020430  1
  Ta  Ta111  1  0.29292148  0.30805751  0.63615341  1
  Ta  Ta112  1  0.19567527  0.20751221  -0.00551389  1
  Ta  Ta113  1  -0.00585129  0.18739257  0.74227379  1
  Ta  Ta114  1  0.08351301  0.10148251  0.61492149  1
  Ta  Ta115  1  0.18395818  0.21062829  0.74322341  1
  Ta  Ta116  1  0.49502255  0.49983028  0.38456523  1
  Ta  Ta117  1  0.70246509  0.08013965  0.61902159  1
  Ta  Ta118  1  0.40808730  0.80207162  0.49571612  1
  Ta  Ta119  1  0.20859810  0.40765976  0.00096790  1
  Ti  Ti120  1  0.60990708  0.60944645  0.75850931  1
  Ti  Ti121  1  0.39902314  0.40144765  0.25399143  1
  Ti  Ti122  1  0.40139936  0.39555171  -0.01701295  1
  Ti  Ti123  1  0.30254531  0.70223858  0.37666590  1
  Ti  Ti124  1  0.61631968  0.00296938  0.76323643  1
  Ti  Ti125  1  0.89955088  0.27824622  0.62702614  1
  Ti  Ti126  1  0.10753364  0.09168523  0.12616136  1
  Ti  Ti127  1  0.49614614  0.70099685  0.38028581  1
  Ti  Ti128  1  0.88696018  0.90467486  0.36553680  1
  Ti  Ti129  1  0.69248782  0.70517855  0.62535995  1
  Ti  Ti130  1  0.59834220  0.19147690  0.74895019  1
  Ti  Ti131  1  0.59788174  0.39603983  -0.02032035  1
  Ti  Ti132  1  0.60512226  0.80222453  -0.02708157  1
  Ti  Ti133  1  0.00822880  -0.00236504  0.01212795  1
  Ti  Ti134  1  0.36946099  0.61464516  0.74703510  1
  Ti  Ti135  1  -0.02731756  0.00956676  0.49757799  1
  Ti  Ti136  1  0.20310937  0.39858469  0.24578020  1
  Ti  Ti137  1  0.20972977  0.00243542  0.26596967  1
  Ti  Ti138  1  0.90516651  0.69299402  0.86817427  1
  Ti  Ti139  1  0.49493324  0.09010420  0.37462620  1
  Ti  Ti140  1  0.20161413  0.40021925  0.51463351  1
  Ti  Ti141  1  0.59364896  0.39833448  0.51432508  1
  Ti  Ti142  1  0.91832620  0.10867775  0.12801994  1
  Ti  Ti143  1  -0.00246525  0.80650387  0.74420059  1
  Ti  Ti144  1  0.89067489  0.69513699  0.36819751  1
  Ti  Ti145  1  0.78765033  0.19645897  0.75031020  1
  Ti  Ti146  1  0.19107046  -0.00350007  0.50193366  1
  Ti  Ti147  1  0.80284407  0.60833736  0.51110030  1
  Ti  Ti148  1  0.09798154  0.30507716  0.87511829  1
  Ti  Ti149  1  0.60742107  0.80323949  0.25014806  1
  Ti  Ti150  1  0.11186284  0.50545210  0.88134409  1
  Ti  Ti151  1  0.28043171  0.52390300  0.62233543  1
  Ti  Ti152  1  0.51669714  0.89608311  0.38500293  1
  Ti  Ti153  1  0.20739800  0.79771666  0.48824222  1
  Ti  Ti154  1  0.08564652  0.10388276  0.39407174  1
  Ti  Ti155  1  0.10955486  0.50121700  0.12519383  1
  Ti  Ti156  1  0.18626523  -0.00402168  0.73381267  1
  Ti  Ti157  1  0.69862985  0.69938915  0.12312008  1
  Ti  Ti158  1  0.91833682  0.89404275  0.13635381  1
  Ti  Ti159  1  0.52635032  0.90648104  0.61701296  1
  Mo  Mo160  1  0.90665318  0.51400001  0.37767013  1
  Mo  Mo161  1  0.80553938  -0.01213592  0.50074727  1
  Mo  Mo162  1  0.00874242  -0.00217751  0.74098312  1
  Mo  Mo163  1  0.39265622  0.80443510  0.74321636  1
  Mo  Mo164  1  0.80008539  0.79560014  0.25049471  1
  Mo  Mo165  1  0.52034863  0.09970949  0.63755089  1
  Mo  Mo166  1  0.29840152  0.70352569  0.61038669  1
  Mo  Mo167  1  0.70792123  0.90234468  0.88100399  1
  Mo  Mo168  1  0.69833205  0.50902497  0.62156197  1
  Mo  Mo169  1  0.89724811  0.50123297  0.12456016  1
  Mo  Mo170  1  0.59699366  0.80219511  0.50616345  1
  Mo  Mo171  1  0.69711968  0.29467159  0.86626307  1
  Mo  Mo172  1  0.18616242  0.79780298  0.00875170  1
  Mo  Mo173  1  0.80394250  0.38730096  0.72780720  1
  Mo  Mo174  1  0.49758921  0.29806182  0.64389239  1
  Mo  Mo175  1  0.61548873  -0.01748272  0.49686170  1
  Mo  Mo176  1  0.70878836  0.68964686  0.86941834  1
  Mo  Mo177  1  0.10451629  0.91358897  0.39342614  1
  Mo  Mo178  1  0.10232000  0.90231347  0.13219696  1
  Mo  Mo179  1  0.18718264  0.59667227  0.01052722  1
  Mo  Mo180  1  0.10766223  0.50039630  0.61107504  1
  Mo  Mo181  1  0.89613752  0.90286644  0.62721144  1
  Mo  Mo182  1  0.39828271  0.00176134  0.26663051  1
  Mo  Mo183  1  -0.00173636  0.19508357  0.50711552  1
  Mo  Mo184  1  0.90710633  0.29268636  0.12190458  1
  Mo  Mo185  1  0.90299076  0.09822397  0.37308952  1
  Mo  Mo186  1  0.39786262  0.20791575  0.73560417  1
  Mo  Mo187  1  0.19292457  0.20526518  0.50942030  1
  Mo  Mo188  1  0.10679758  0.29080555  0.62269158  1
  Mo  Mo189  1  0.50022361  0.90620706  0.87073924  1
  Mo  Mo190  1  0.69913219  0.89656953  0.36860412  1
  Mo  Mo191  1  0.40220583  0.00346952  -0.00126692  1
  Mo  Mo192  1  0.19781354  0.59997659  0.48521874  1
  Mo  Mo193  1  0.90317688  0.50614464  0.62691195  1
  Mo  Mo194  1  0.00942007  0.19302140  0.24963292  1
  Mo  Mo195  1  -0.00943832  0.80198255  0.26743878  1
  Mo  Mo196  1  0.70197597  0.10035861  0.86838731  1
  Mo  Mo197  1  0.19628583  0.59707802  0.75049109  1
  Mo  Mo198  1  0.89073157  0.09555070  0.63277013  1
  Mo  Mo199  1  0.29450002  0.49352035  0.12875760  1
