# generated using pymatgen
data_HfZrTaTiMo
_symmetry_space_group_name_H-M   'P 1'
_cell_length_a   15.22506949
_cell_length_b   15.21738739
_cell_length_c   16.83162186
_cell_angle_alpha   90.04495059
_cell_angle_beta   90.00723023
_cell_angle_gamma   90.11038566
_symmetry_Int_Tables_number   1
_chemical_formula_structural   HfZrTaTiMo
_chemical_formula_sum   'Hf40 Zr40 Ta40 Ti40 Mo40'
_cell_volume   3899.63897920
_cell_formula_units_Z   40
loop_
 _symmetry_equiv_pos_site_id
 _symmetry_equiv_pos_as_xyz
  1  'x, y, z'
loop_
 _atom_site_type_symbol
 _atom_site_label
 _atom_site_symmetry_multiplicity
 _atom_site_fract_x
 _atom_site_fract_y
 _atom_site_fract_z
 _atom_site_occupancy
  Hf  Hf0  1  0.69653469  0.69366843  0.37776167  1
  Hf  Hf1  1  0.01252962  0.61089100  0.73992679  1
  Hf  Hf2  1  0.39714042  0.20881104  0.51446222  1
  Hf  Hf3  1  0.68585410  0.10508235  0.13671681  1
  Hf  Hf4  1  0.10817441  0.29686343  0.88582831  1
  Hf  Hf5  1  0.09773232  0.50043337  0.87405731  1
  Hf  Hf6  1  0.19072187  -0.01604971  0.50038045  1
  Hf  Hf7  1  0.41154237  0.41139392  0.00340641  1
  Hf  Hf8  1  0.10154572  0.10556040  0.87457108  1
  Hf  Hf9  1  0.90920391  0.30381621  0.88617266  1
  Hf  Hf10  1  0.01282532  0.41726191  0.25183471  1
  Hf  Hf11  1  0.91835995  0.69809495  0.37830022  1
  Hf  Hf12  1  0.29892309  0.90383807  0.87006314  1
  Hf  Hf13  1  0.20010015  0.59850003  0.00689758  1
  Hf  Hf14  1  -0.00037828  0.20994066  0.49284371  1
  Hf  Hf15  1  0.79623712  0.80480406  0.49222393  1
  Hf  Hf16  1  0.80279127  0.59006142  0.26134676  1
  Hf  Hf17  1  0.47818331  0.68185996  0.12960766  1
  Hf  Hf18  1  0.79174337  0.22660136  0.26485509  1
  Hf  Hf19  1  0.60188458  0.38783638  0.24988999  1
  Hf  Hf20  1  0.68984875  0.70310463  0.13898119  1
  Hf  Hf21  1  0.70042202  0.49873018  0.13290049  1
  Hf  Hf22  1  0.30370432  0.28679743  0.87176858  1
  Hf  Hf23  1  0.89446335  0.91247466  0.62272671  1
  Hf  Hf24  1  0.38318759  0.58187527  0.50447456  1
  Hf  Hf25  1  0.70923909  0.30031521  0.11427870  1
  Hf  Hf26  1  0.60029892  0.18570015  -0.01443671  1
  Hf  Hf27  1  0.90472281  0.31116959  0.12436678  1
  Hf  Hf28  1  0.58347018  0.00603172  0.25609477  1
  Hf  Hf29  1  0.89593471  0.70880580  0.13599515  1
  Hf  Hf30  1  0.70712741  0.10503556  0.62696044  1
  Hf  Hf31  1  0.50824283  0.28983025  0.11616992  1
  Hf  Hf32  1  0.59151987  0.79382558  0.26858913  1
  Hf  Hf33  1  0.30014972  0.49539357  0.85741569  1
  Hf  Hf34  1  0.20748234  0.19982802  0.50286135  1
  Hf  Hf35  1  0.61239348  0.20748854  0.50357164  1
  Hf  Hf36  1  0.58782873  0.59419074  0.49838984  1
  Hf  Hf37  1  0.69154363  0.90459888  0.62133155  1
  Hf  Hf38  1  0.89652938  0.09998355  0.36388821  1
  Hf  Hf39  1  0.02557851  0.80760138  0.50147675  1
  Zr  Zr40  1  0.89992385  0.70369714  0.61512140  1
  Zr  Zr41  1  0.00540760  0.20785395  0.74201024  1
  Zr  Zr42  1  0.88947619  0.10772836  0.13982654  1
  Zr  Zr43  1  0.10136652  0.09053519  0.37290047  1
  Zr  Zr44  1  0.28579815  0.68392225  0.62835764  1
  Zr  Zr45  1  0.50134125  0.29983587  0.87750480  1
  Zr  Zr46  1  0.39487252  0.78627375  0.27138727  1
  Zr  Zr47  1  0.69614930  0.69147421  0.62820683  1
  Zr  Zr48  1  0.89642620  0.91291129  0.87430699  1
  Zr  Zr49  1  -0.00349613  0.02055484  0.01100256  1
  Zr  Zr50  1  0.20321961  0.79150336  0.00378805  1
  Zr  Zr51  1  0.10410001  0.90836217  0.87982529  1
  Zr  Zr52  1  0.59799466  -0.00745262  -0.00973105  1
  Zr  Zr53  1  0.09189754  0.89350706  0.12910570  1
  Zr  Zr54  1  0.00306719  0.81273601  0.74257221  1
  Zr  Zr55  1  0.49758458  0.89918652  0.86739987  1
  Zr  Zr56  1  0.70165714  0.90220813  0.13597770  1
  Zr  Zr57  1  0.89368622  0.50576998  0.62175895  1
  Zr  Zr58  1  0.70026065  0.48117414  0.62986239  1
  Zr  Zr59  1  0.60469888  0.19259485  0.76046430  1
  Zr  Zr60  1  0.79531480  0.60916961  0.00267884  1
  Zr  Zr61  1  0.12456511  0.32150259  0.37213636  1
  Zr  Zr62  1  0.21259220  0.19987947  0.24918344  1
  Zr  Zr63  1  0.49233598  0.10491689  0.38331405  1
  Zr  Zr64  1  -0.00560867  0.79356676  0.00000636  1
  Zr  Zr65  1  0.29334217  0.09827282  0.86147443  1
  Zr  Zr66  1  0.39693625  -0.00615636  0.50939228  1
  Zr  Zr67  1  0.89854894  0.10679311  0.62506040  1
  Zr  Zr68  1  0.29274117  0.88346629  0.61897103  1
  Zr  Zr69  1  0.58886385  0.59530216  -0.00474057  1
  Zr  Zr70  1  0.21054324  0.40238892  0.01289912  1
  Zr  Zr71  1  0.40159899  0.79685020  -0.00505039  1
  Zr  Zr72  1  0.01506591  0.41701320  0.49979248  1
  Zr  Zr73  1  0.50072375  0.89598862  0.12666743  1
  Zr  Zr74  1  0.51403780  0.30831105  0.62649638  1
  Zr  Zr75  1  0.70635604  0.50592370  0.85746827  1
  Zr  Zr76  1  0.89385918  0.69653089  0.86699099  1
  Zr  Zr77  1  0.30076314  0.89435523  0.13293654  1
  Zr  Zr78  1  0.00250850  0.40226566  0.73847361  1
  Zr  Zr79  1  0.19061799  0.78451875  0.26457934  1
  Ta  Ta80  1  0.69162287  0.70671312  0.86025349  1
  Ta  Ta81  1  0.50758502  0.30944823  0.38317620  1
  Ta  Ta82  1  0.91135581  0.90439183  0.37546147  1
  Ta  Ta83  1  0.30279298  0.10032132  0.37365991  1
  Ta  Ta84  1  0.79102533  0.80858379  0.74959907  1
  Ta  Ta85  1  0.79560118  0.00825392  0.48873586  1
  Ta  Ta86  1  0.10530614  0.09735686  0.62267435  1
  Ta  Ta87  1  0.88828315  0.90527370  0.12944640  1
  Ta  Ta88  1  0.68722436  0.48683527  0.37625775  1
  Ta  Ta89  1  0.90108621  0.50026400  0.86867211  1
  Ta  Ta90  1  0.49989255  0.50554699  0.85175014  1
  Ta  Ta91  1  0.80714319  0.41233256  -0.00254940  1
  Ta  Ta92  1  0.49211738  0.70306314  0.62867933  1
  Ta  Ta93  1  0.40400245  0.38626901  0.74653762  1
  Ta  Ta94  1  -0.00261926  -0.00808400  0.24805149  1
  Ta  Ta95  1  0.39392413  0.02296044  0.00871419  1
  Ta  Ta96  1  0.80321415  0.20508828  0.48477674  1
  Ta  Ta97  1  0.30147502  0.48670448  0.64123026  1
  Ta  Ta98  1  0.78741846  0.81167362  -0.00520757  1
  Ta  Ta99  1  0.80622419  0.80988153  0.26514466  1
  Ta  Ta100  1  0.50580895  0.09238075  0.62727440  1
  Ta  Ta101  1  0.79705104  0.39174249  0.48283506  1
  Ta  Ta102  1  0.00418815  0.21042208  0.25811011  1
  Ta  Ta103  1  0.29804676  0.69442521  0.85887276  1
  Ta  Ta104  1  0.69961081  0.90916160  0.37377760  1
  Ta  Ta105  1  0.58596350  0.80191751  0.49111944  1
  Ta  Ta106  1  0.39175386  0.59993501  -0.00927620  1
  Ta  Ta107  1  0.88346575  0.30628122  0.61918509  1
  Ta  Ta108  1  0.09303931  0.68399510  0.13745200  1
  Ta  Ta109  1  0.20882005  0.18726894  0.01656679  1
  Ta  Ta110  1  0.60329683  0.78940790  -0.00782992  1
  Ta  Ta111  1  0.40111812  0.00002898  0.73354365  1
  Ta  Ta112  1  0.47705730  0.49307138  0.37679423  1
  Ta  Ta113  1  0.57499933  0.58925411  0.26043131  1
  Ta  Ta114  1  0.49950679  0.50821392  0.64429280  1
  Ta  Ta115  1  0.79044797  0.00813985  -0.00626184  1
  Ta  Ta116  1  0.69317194  0.10502917  0.36705095  1
  Ta  Ta117  1  0.10205228  0.29854692  0.12546102  1
  Ta  Ta118  1  0.19115145  0.79233489  0.74948333  1
  Ta  Ta119  1  0.31109277  0.29586268  0.12699170  1
  Ti  Ti120  1  0.39962355  0.78358754  0.48347082  1
  Ti  Ti121  1  0.39967472  0.41328195  0.23704036  1
  Ti  Ti122  1  0.19646015  0.38743895  0.74291325  1
  Ti  Ti123  1  0.61346515  0.38985172  0.75506868  1
  Ti  Ti124  1  0.29151853  0.65451065  0.37194590  1
  Ti  Ti125  1  0.09883434  0.10481039  0.13547995  1
  Ti  Ti126  1  0.29418166  0.90708682  0.37382657  1
  Ti  Ti127  1  0.60047817  -0.00108731  0.49583095  1
  Ti  Ti128  1  0.20282188  0.00240573  0.01370731  1
  Ti  Ti129  1  0.71356120  0.30150541  0.88405573  1
  Ti  Ti130  1  0.32349513  0.30959214  0.36927025  1
  Ti  Ti131  1  0.19884196  0.57167065  0.23945478  1
  Ti  Ti132  1  0.90811390  0.50939606  0.13071655  1
  Ti  Ti133  1  -0.00224453  0.00308959  0.50019984  1
  Ti  Ti134  1  0.91358016  0.50065688  0.37856264  1
  Ti  Ti135  1  0.49120299  0.90298232  0.38090119  1
  Ti  Ti136  1  0.00034428  0.00815501  0.74677006  1
  Ti  Ti137  1  0.10802442  0.30514545  0.61720320  1
  Ti  Ti138  1  0.60382710  -0.00149675  0.75912498  1
  Ti  Ti139  1  0.80006473  0.21401004  0.75697532  1
  Ti  Ti140  1  0.20673371  0.77652223  0.47595538  1
  Ti  Ti141  1  0.11647444  0.51742195  0.62281291  1
  Ti  Ti142  1  0.50089546  0.89358181  0.62284776  1
  Ti  Ti143  1  0.22823045  0.40618103  0.50616538  1
  Ti  Ti144  1  0.80886936  0.19606710  -0.00291660  1
  Ti  Ti145  1  0.60933027  0.40633427  -0.00620357  1
  Ti  Ti146  1  -0.00303377  0.59638516  0.00266518  1
  Ti  Ti147  1  0.39670940  0.79941229  0.74610431  1
  Ti  Ti148  1  0.90103979  0.11037738  0.87462610  1
  Ti  Ti149  1  0.79252373  0.00867009  0.76242108  1
  Ti  Ti150  1  0.10216201  0.69772821  0.87550282  1
  Ti  Ti151  1  0.80206745  0.58988669  0.48914042  1
  Ti  Ti152  1  0.59548462  0.80369104  0.74873742  1
  Ti  Ti153  1  0.49509033  0.69309284  0.85907557  1
  Ti  Ti154  1  0.00442329  0.40889255  0.00893557  1
  Ti  Ti155  1  0.19830951  -0.00304065  0.25152582  1
  Ti  Ti156  1  0.38931927  0.00859783  0.24546654  1
  Ti  Ti157  1  0.48143895  0.10163718  0.86600877  1
  Ti  Ti158  1  0.41726052  0.20019241  0.24857153  1
  Ti  Ti159  1  0.19537939  -0.00437197  0.73454372  1
  Mo  Mo160  1  0.29848300  0.09861842  0.63405214  1
  Mo  Mo161  1  0.01143218  0.60625802  0.50521328  1
  Mo  Mo162  1  0.39931522  0.19121144  0.73156716  1
  Mo  Mo163  1  0.18709002  0.58730400  0.49789799  1
  Mo  Mo164  1  0.90777792  0.30996751  0.37292928  1
  Mo  Mo165  1  0.19437587  0.59440795  0.75421658  1
  Mo  Mo166  1  0.71377750  0.10139145  0.87228088  1
  Mo  Mo167  1  0.21287373  0.39944843  0.23087259  1
  Mo  Mo168  1  0.69581320  0.30202927  0.37813945  1
  Mo  Mo169  1  0.71339396  0.29783772  0.62673950  1
  Mo  Mo170  1  0.50499867  0.49651888  0.12488018  1
  Mo  Mo171  1  0.38740591  0.58835061  0.25456096  1
  Mo  Mo172  1  -0.00490143  0.80170972  0.25218699  1
  Mo  Mo173  1  0.29068762  0.68751881  0.13264862  1
  Mo  Mo174  1  0.10015755  0.89588809  0.36716281  1
  Mo  Mo175  1  0.48900472  0.68965172  0.38348793  1
  Mo  Mo176  1  0.80540522  0.39045142  0.75785865  1
  Mo  Mo177  1  0.80735529  0.40839302  0.26676525  1
  Mo  Mo178  1  0.79726038  0.00071946  0.26274719  1
  Mo  Mo179  1  0.59607520  0.40618497  0.49890508  1
  Mo  Mo180  1  0.00782619  0.20591055  0.01028334  1
  Mo  Mo181  1  0.09548047  0.90802874  0.63108121  1
  Mo  Mo182  1  0.80397409  0.60538355  0.75281372  1
  Mo  Mo183  1  0.39987369  0.60075540  0.74689791  1
  Mo  Mo184  1  0.20001105  0.20024108  0.73222347  1
  Mo  Mo185  1  0.40587995  0.40089664  0.50859447  1
  Mo  Mo186  1  0.28922279  0.47448015  0.37101614  1
  Mo  Mo187  1  0.39479275  0.19883734  0.00336319  1
  Mo  Mo188  1  0.59807392  0.60868677  0.74422760  1
  Mo  Mo189  1  0.10148696  0.68593491  0.36669655  1
  Mo  Mo190  1  0.11090302  0.70808891  0.61964602  1
  Mo  Mo191  1  0.31441804  0.51157723  0.12369866  1
  Mo  Mo192  1  0.29955309  0.10036520  0.13448112  1
  Mo  Mo193  1  0.11462091  0.51485979  0.37380725  1
  Mo  Mo194  1  0.48938408  0.10190261  0.12606275  1
  Mo  Mo195  1  0.09476978  0.49642189  0.11840079  1
  Mo  Mo196  1  0.00672294  0.60435856  0.24933359  1
  Mo  Mo197  1  0.29679049  0.29976720  0.63398382  1
  Mo  Mo198  1  0.59072859  0.20209913  0.25462373  1
  Mo  Mo199  1  0.70033429  0.89610692  0.86887951  1
