# generated using pymatgen
data_HfZrTaTiMo
_symmetry_space_group_name_H-M   'P 1'
_cell_length_a   15.22552114
_cell_length_b   15.21967636
_cell_length_c   16.82027753
_cell_angle_alpha   89.99497623
_cell_angle_beta   89.97151485
_cell_angle_gamma   89.93205757
_symmetry_Int_Tables_number   1
_chemical_formula_structural   HfZrTaTiMo
_chemical_formula_sum   'Hf40 Zr40 Ta40 Ti40 Mo40'
_cell_volume   3897.71769415
_cell_formula_units_Z   40
loop_
 _symmetry_equiv_pos_site_id
 _symmetry_equiv_pos_as_xyz
  1  'x, y, z'
loop_
 _atom_site_type_symbol
 _atom_site_label
 _atom_site_symmetry_multiplicity
 _atom_site_fract_x
 _atom_site_fract_y
 _atom_site_fract_z
 _atom_site_occupancy
  Hf  Hf0  1  0.89701527  0.69404523  0.86193603  1
  Hf  Hf1  1  -0.00356046  0.40073690  0.01546065  1
  Hf  Hf2  1  0.09150171  0.70533289  0.12048276  1
  Hf  Hf3  1  0.80113816  0.80040160  -0.00382852  1
  Hf  Hf4  1  0.60276048  0.18786410  0.73919964  1
  Hf  Hf5  1  0.00219593  0.80650877  -0.01470390  1
  Hf  Hf6  1  0.80041337  0.20496719  0.73287590  1
  Hf  Hf7  1  0.20657689  0.40132186  0.49156899  1
  Hf  Hf8  1  0.29775010  0.90315013  0.37971919  1
  Hf  Hf9  1  0.19807084  -0.00097813  0.24739071  1
  Hf  Hf10  1  0.39455871  0.40615520  0.76089236  1
  Hf  Hf11  1  0.47412449  0.69376745  0.88176930  1
  Hf  Hf12  1  0.08904698  0.90978400  0.38401428  1
  Hf  Hf13  1  0.81249624  0.19607228  0.00508312  1
  Hf  Hf14  1  0.00516234  0.78974371  0.73847475  1
  Hf  Hf15  1  0.39810090  -0.02738233  0.00035737  1
  Hf  Hf16  1  0.49587031  0.09821012  0.37103132  1
  Hf  Hf17  1  0.11781159  0.89680140  0.85369464  1
  Hf  Hf18  1  0.79232343  0.78302636  0.25055008  1
  Hf  Hf19  1  0.40378367  0.20845346  0.00854126  1
  Hf  Hf20  1  0.49839754  0.29373854  0.62122898  1
  Hf  Hf21  1  0.00413058  0.21438582  0.74650235  1
  Hf  Hf22  1  0.70316158  0.50124370  0.86453797  1
  Hf  Hf23  1  0.08989793  0.70347139  0.38008537  1
  Hf  Hf24  1  0.40339939  0.80632791  0.51804616  1
  Hf  Hf25  1  0.70789279  0.49890864  0.37013125  1
  Hf  Hf26  1  0.40170662  0.20465913  0.76388963  1
  Hf  Hf27  1  0.89715039  0.91593808  0.61946703  1
  Hf  Hf28  1  -0.00763825  0.00072781  -0.00953417  1
  Hf  Hf29  1  0.90171720  0.10471670  0.14409611  1
  Hf  Hf30  1  0.58673849  0.60745235  0.73543742  1
  Hf  Hf31  1  0.61001905  0.21189399  0.01874422  1
  Hf  Hf32  1  0.09946920  0.10482689  0.87670148  1
  Hf  Hf33  1  0.29181674  0.31933704  0.62859540  1
  Hf  Hf34  1  0.73123234  0.29600963  0.15303834  1
  Hf  Hf35  1  0.70430387  0.89776281  0.12469830  1
  Hf  Hf36  1  0.59873857  0.38914639  0.74710366  1
  Hf  Hf37  1  0.19324646  0.41023859  0.76564316  1
  Hf  Hf38  1  0.29561448  0.69021084  0.12143705  1
  Hf  Hf39  1  0.69480645  0.69271774  0.38824676  1
  Zr  Zr40  1  0.29782425  0.11452653  0.63199382  1
  Zr  Zr41  1  0.19569334  0.61624689  0.75433984  1
  Zr  Zr42  1  0.81503102  0.20539925  0.50232084  1
  Zr  Zr43  1  0.60570828  -0.00150246  0.00062860  1
  Zr  Zr44  1  -0.00649092  0.59369108  0.51383745  1
  Zr  Zr45  1  0.68561042  0.48757963  0.13925744  1
  Zr  Zr46  1  -0.01437504  0.81573302  0.25104198  1
  Zr  Zr47  1  0.59073276  0.80514344  0.24138976  1
  Zr  Zr48  1  0.70653865  0.09447169  0.37983115  1
  Zr  Zr49  1  0.90760604  0.29458339  0.35269652  1
  Zr  Zr50  1  0.68742183  0.89709372  0.62144044  1
  Zr  Zr51  1  0.39337117  0.21374930  0.48713376  1
  Zr  Zr52  1  0.29729833  0.09474661  0.11468563  1
  Zr  Zr53  1  0.49248838  0.70230492  0.37276010  1
  Zr  Zr54  1  0.39714507  0.00662624  0.50461145  1
  Zr  Zr55  1  0.18946321  0.59588079  0.24804418  1
  Zr  Zr56  1  0.90558371  0.48852582  0.85850557  1
  Zr  Zr57  1  0.39604841  0.59391321  0.50255634  1
  Zr  Zr58  1  0.58856376  0.80124786  0.00675686  1
  Zr  Zr59  1  0.81128746  -0.02045873  0.25289183  1
  Zr  Zr60  1  0.39255766  0.21451362  0.24231662  1
  Zr  Zr61  1  0.69749779  0.89243103  0.39252262  1
  Zr  Zr62  1  0.70827798  0.09195585  0.87219535  1
  Zr  Zr63  1  0.59857105  0.38962412  0.48744281  1
  Zr  Zr64  1  -0.01369550  0.60115662  0.00317922  1
  Zr  Zr65  1  0.59712992  0.19919320  0.24940818  1
  Zr  Zr66  1  0.09463040  0.31306466  0.88715643  1
  Zr  Zr67  1  0.29352133  0.70583058  0.37346397  1
  Zr  Zr68  1  0.00391269  0.38336516  0.49725214  1
  Zr  Zr69  1  0.70192190  0.30038029  0.87591154  1
  Zr  Zr70  1  0.70110203  0.47602619  0.62718198  1
  Zr  Zr71  1  0.91643763  0.08590676  0.37207230  1
  Zr  Zr72  1  0.68852900  0.70286967  0.86809695  1
  Zr  Zr73  1  0.09788074  0.10277602  0.11793229  1
  Zr  Zr74  1  0.30500116  0.49749346  0.36023510  1
  Zr  Zr75  1  0.50261776  0.09904833  0.88371175  1
  Zr  Zr76  1  0.79703216  0.40164090  0.00515845  1
  Zr  Zr77  1  0.01447657  0.41355051  0.23781443  1
  Zr  Zr78  1  0.29477529  0.91251961  0.64418737  1
  Zr  Zr79  1  0.59281053  0.58708649  0.00936711  1
  Ta  Ta80  1  0.40052262  -0.00578046  0.24289451  1
  Ta  Ta81  1  0.19466134  0.80521881  0.51468252  1
  Ta  Ta82  1  0.49542872  0.89925657  0.37424792  1
  Ta  Ta83  1  0.19422217  0.60030350  0.50636660  1
  Ta  Ta84  1  0.29436046  0.69758310  0.62437907  1
  Ta  Ta85  1  0.50098340  0.49750545  0.87771916  1
  Ta  Ta86  1  0.30647314  0.52032784  0.89024646  1
  Ta  Ta87  1  0.19378279  0.80655109  0.24523058  1
  Ta  Ta88  1  0.21950117  0.39116923  0.23411971  1
  Ta  Ta89  1  0.59538947  0.59397324  0.51268156  1
  Ta  Ta90  1  0.00133869  0.79709273  0.51880552  1
  Ta  Ta91  1  0.09714196  0.10735287  0.62911584  1
  Ta  Ta92  1  0.70895510  0.09267530  0.60891962  1
  Ta  Ta93  1  0.20296756  0.20680107  0.76042700  1
  Ta  Ta94  1  0.21374248  0.41037091  0.00562663  1
  Ta  Ta95  1  0.10874268  0.48675487  0.62718323  1
  Ta  Ta96  1  0.09890419  0.90156828  0.11956939  1
  Ta  Ta97  1  0.09720436  0.50096867  0.37367693  1
  Ta  Ta98  1  0.21141010  0.79915782  -0.00672659  1
  Ta  Ta99  1  0.80224653  0.78322325  0.51999427  1
  Ta  Ta100  1  0.10185328  0.91096311  0.63413412  1
  Ta  Ta101  1  0.89170678  0.69579562  0.38579222  1
  Ta  Ta102  1  0.79281706  0.79638869  0.73452282  1
  Ta  Ta103  1  -0.00339132  0.00975967  0.74828087  1
  Ta  Ta104  1  0.50413726  0.09033330  0.12590660  1
  Ta  Ta105  1  0.50483949  0.50050691  0.35572079  1
  Ta  Ta106  1  0.80778347  -0.00464146  0.00279054  1
  Ta  Ta107  1  0.11019369  0.29984158  0.12019435  1
  Ta  Ta108  1  0.79838815  0.59293045  0.51764224  1
  Ta  Ta109  1  0.28971073  0.10734852  0.37092561  1
  Ta  Ta110  1  0.10049994  0.11136721  0.37055131  1
  Ta  Ta111  1  0.48303141  0.49200214  0.62341564  1
  Ta  Ta112  1  0.60061256  0.19396227  0.50019935  1
  Ta  Ta113  1  0.50673082  0.88931517  0.85886044  1
  Ta  Ta114  1  0.48853060  0.69592703  0.12342952  1
  Ta  Ta115  1  0.60014938  0.60719208  0.24129889  1
  Ta  Ta116  1  0.80147151  0.60102171  0.72817916  1
  Ta  Ta117  1  0.40654635  0.78804471  0.73821048  1
  Ta  Ta118  1  0.18845050  0.01438718  0.50133253  1
  Ta  Ta119  1  0.29465880  0.09116222  0.87831553  1
  Ti  Ti120  1  0.79893740  0.00579000  0.74328232  1
  Ti  Ti121  1  0.11676596  0.50938483  0.11373020  1
  Ti  Ti122  1  0.80542212  0.39902885  0.49622696  1
  Ti  Ti123  1  0.11257512  0.29989685  0.36149572  1
  Ti  Ti124  1  0.89741252  0.30074771  0.86760887  1
  Ti  Ti125  1  0.70312187  0.29829868  0.36139298  1
  Ti  Ti126  1  0.70374698  0.89694914  0.86424642  1
  Ti  Ti127  1  0.70549252  0.09571300  0.13614458  1
  Ti  Ti128  1  0.39011903  0.80703417  0.23980989  1
  Ti  Ti129  1  0.30486780  0.30661512  0.88787605  1
  Ti  Ti130  1  0.40250733  0.40047418  0.48590597  1
  Ti  Ti131  1  0.50497257  0.30841467  0.88858872  1
  Ti  Ti132  1  0.19965944  -0.01194278  -0.00402516  1
  Ti  Ti133  1  -0.00337564  0.20590453  0.00211946  1
  Ti  Ti134  1  0.40579616  0.00399446  0.75674687  1
  Ti  Ti135  1  0.00695619  0.59337727  0.73865335  1
  Ti  Ti136  1  0.90254776  0.50541337  0.37255202  1
  Ti  Ti137  1  0.90483710  0.48702690  0.63519822  1
  Ti  Ti138  1  0.89627260  0.89267991  0.40385574  1
  Ti  Ti139  1  0.79144431  0.60216230  0.00891892  1
  Ti  Ti140  1  -0.01163986  0.60923539  0.24892391  1
  Ti  Ti141  1  0.20391160  0.20514694  -0.00417272  1
  Ti  Ti142  1  0.89232982  0.90503658  0.85748968  1
  Ti  Ti143  1  0.88971086  0.70546589  0.12246523  1
  Ti  Ti144  1  0.58925763  -0.00737686  0.50326624  1
  Ti  Ti145  1  0.41140505  0.41481895  0.01188683  1
  Ti  Ti146  1  0.10091152  0.51829683  0.88693623  1
  Ti  Ti147  1  0.50289700  0.08825635  0.62421984  1
  Ti  Ti148  1  0.59562145  -0.00587569  0.24876491  1
  Ti  Ti149  1  0.20218807  0.20512365  0.24316083  1
  Ti  Ti150  1  0.59009596  0.78928559  0.51444282  1
  Ti  Ti151  1  0.80100777  0.59814624  0.24616375  1
  Ti  Ti152  1  0.60018066  -0.00874875  0.74588206  1
  Ti  Ti153  1  0.88885140  0.49451739  0.13529939  1
  Ti  Ti154  1  0.89753972  0.10340413  0.86968654  1
  Ti  Ti155  1  0.19069071  0.20975747  0.49736761  1
  Ti  Ti156  1  0.51201952  0.32459681  0.13073353  1
  Ti  Ti157  1  0.39023248  0.59641539  0.74329259  1
  Ti  Ti158  1  0.90966061  0.30383665  0.62510865  1
  Ti  Ti159  1  0.31085348  0.88642104  0.85868259  1
  Mo  Mo160  1  0.90603717  0.10135094  0.62385117  1
  Mo  Mo161  1  0.29016797  0.89056998  0.12569990  1
  Mo  Mo162  1  0.01922567  0.19163677  0.50417349  1
  Mo  Mo163  1  0.59685640  0.79954490  0.74979526  1
  Mo  Mo164  1  0.29061400  0.70993675  0.87389354  1
  Mo  Mo165  1  0.49977441  0.30756011  0.36957504  1
  Mo  Mo166  1  0.80660790  0.19225498  0.25996825  1
  Mo  Mo167  1  0.10563525  0.29811143  0.62752211  1
  Mo  Mo168  1  0.80907192  0.39390093  0.74198470  1
  Mo  Mo169  1  0.40531111  0.40239324  0.24184142  1
  Mo  Mo170  1  0.90711006  0.89783638  0.11671937  1
  Mo  Mo171  1  0.20092244  0.01422306  0.75653963  1
  Mo  Mo172  1  0.10112907  0.69981581  0.87913278  1
  Mo  Mo173  1  0.30269603  0.30406595  0.10994825  1
  Mo  Mo174  1  0.10295200  0.69958743  0.61854872  1
  Mo  Mo175  1  0.79967744  -0.00492807  0.50143188  1
  Mo  Mo176  1  0.19382379  0.60383260  -0.00456817  1
  Mo  Mo177  1  0.48797665  0.50623296  0.14274875  1
  Mo  Mo178  1  0.39462968  0.79781110  -0.00035743  1
  Mo  Mo179  1  0.30772485  0.49912440  0.12267248  1
  Mo  Mo180  1  0.29691745  0.50321850  0.62410492  1
  Mo  Mo181  1  0.39285523  0.59788064  0.00328102  1
  Mo  Mo182  1  0.00612068  0.00435063  0.51047835  1
  Mo  Mo183  1  0.01132115  -0.00688114  0.24690595  1
  Mo  Mo184  1  0.59903660  0.39703255  0.26450203  1
  Mo  Mo185  1  0.69621898  0.69257260  0.61949123  1
  Mo  Mo186  1  0.70265881  0.28784452  0.61311528  1
  Mo  Mo187  1  0.20417148  0.80340564  0.73948684  1
  Mo  Mo188  1  0.81026850  0.40878874  0.25865985  1
  Mo  Mo189  1  0.91883323  0.29776616  0.14112306  1
  Mo  Mo190  1  0.59208520  0.39782472  0.00037349  1
  Mo  Mo191  1  0.70212230  0.69134782  0.12353341  1
  Mo  Mo192  1  0.40414039  0.60868637  0.24714216  1
  Mo  Mo193  1  0.01964863  0.20172574  0.24488854  1
  Mo  Mo194  1  0.00381968  0.40528306  0.74436706  1
  Mo  Mo195  1  0.90007769  0.69647012  0.63285120  1
  Mo  Mo196  1  0.48993497  0.90108222  0.13204617  1
  Mo  Mo197  1  0.49789539  0.90368298  0.64325408  1
  Mo  Mo198  1  0.49529715  0.69559958  0.62574135  1
  Mo  Mo199  1  0.29364800  0.29742002  0.36880477  1
