# generated using pymatgen
data_HfZrTaTiMo
_symmetry_space_group_name_H-M   'P 1'
_cell_length_a   15.20921033
_cell_length_b   15.22640567
_cell_length_c   16.84106636
_cell_angle_alpha   90.01717727
_cell_angle_beta   90.03317382
_cell_angle_gamma   90.10692428
_symmetry_Int_Tables_number   1
_chemical_formula_structural   HfZrTaTiMo
_chemical_formula_sum   'Hf40 Zr40 Ta40 Ti40 Mo40'
_cell_volume   3900.07357938
_cell_formula_units_Z   40
loop_
 _symmetry_equiv_pos_site_id
 _symmetry_equiv_pos_as_xyz
  1  'x, y, z'
loop_
 _atom_site_type_symbol
 _atom_site_label
 _atom_site_symmetry_multiplicity
 _atom_site_fract_x
 _atom_site_fract_y
 _atom_site_fract_z
 _atom_site_occupancy
  Hf  Hf0  1  0.01206176  0.39632943  0.51015501  1
  Hf  Hf1  1  0.69537130  0.50871143  0.86234376  1
  Hf  Hf2  1  0.59447714  0.19571853  0.23860340  1
  Hf  Hf3  1  0.60450637  0.60530134  0.25813995  1
  Hf  Hf4  1  0.10090922  0.48689556  0.87058175  1
  Hf  Hf5  1  0.40716968  0.80966742  -0.00130680  1
  Hf  Hf6  1  0.61690812  0.00009403  0.49322305  1
  Hf  Hf7  1  0.61936615  0.80500971  0.74300681  1
  Hf  Hf8  1  0.80979987  0.19822841  -0.00594342  1
  Hf  Hf9  1  0.39861391  0.39750132  0.23922867  1
  Hf  Hf10  1  0.11765446  0.71694158  0.37501052  1
  Hf  Hf11  1  0.80110522  0.79058092  0.01213405  1
  Hf  Hf12  1  0.28991808  0.11525366  0.60840584  1
  Hf  Hf13  1  0.48749701  0.29404199  0.38705744  1
  Hf  Hf14  1  0.21147503  0.59860552  0.49330176  1
  Hf  Hf15  1  0.48959049  0.50340345  0.37683676  1
  Hf  Hf16  1  0.70765876  0.09237017  0.63767566  1
  Hf  Hf17  1  0.89921608  0.89629900  0.88360429  1
  Hf  Hf18  1  0.40708982  0.60486726  0.00165770  1
  Hf  Hf19  1  0.59232112  0.40181569  0.50711271  1
  Hf  Hf20  1  0.10933722  0.70773881  0.13554665  1
  Hf  Hf21  1  0.71068411  0.69895247  0.61155565  1
  Hf  Hf22  1  0.59197820  0.19576611  0.75624090  1
  Hf  Hf23  1  0.19779637  0.40467139  0.24561330  1
  Hf  Hf24  1  0.69414457  0.30267844  0.88410026  1
  Hf  Hf25  1  0.38503592  0.20539181  0.74875043  1
  Hf  Hf26  1  0.80190029  0.38909787  0.51510782  1
  Hf  Hf27  1  0.27973425  0.09969466  0.87465883  1
  Hf  Hf28  1  0.49775385  0.89258324  0.36065591  1
  Hf  Hf29  1  0.51068022  0.69706199  0.86570123  1
  Hf  Hf30  1  0.30323088  0.90685119  0.87591593  1
  Hf  Hf31  1  0.38678086  0.79858443  0.50256499  1
  Hf  Hf32  1  0.10586857  0.91743842  0.88457907  1
  Hf  Hf33  1  0.39307454  -0.00212217  0.48419402  1
  Hf  Hf34  1  0.37646773  0.40644267  0.50949528  1
  Hf  Hf35  1  0.20191043  0.61443215  -0.00782024  1
  Hf  Hf36  1  0.81227012  0.58561213  0.25927067  1
  Hf  Hf37  1  0.40138947  0.80824629  0.74221081  1
  Hf  Hf38  1  0.30410791  0.91249992  0.12843465  1
  Hf  Hf39  1  0.89708753  0.29766059  0.37343979  1
  Zr  Zr40  1  0.50903038  0.10422047  0.37478584  1
  Zr  Zr41  1  0.79957613  0.00214360  0.23187272  1
  Zr  Zr42  1  0.61428706  0.39202963  0.25339591  1
  Zr  Zr43  1  0.19445943  -0.00055669  0.27447274  1
  Zr  Zr44  1  0.90673119  0.52303036  0.61907465  1
  Zr  Zr45  1  0.28936896  0.28704937  0.12470322  1
  Zr  Zr46  1  0.29420095  0.30315433  0.88888068  1
  Zr  Zr47  1  0.69811838  0.09106034  0.88044842  1
  Zr  Zr48  1  -0.02524552  0.00251086  0.50700691  1
  Zr  Zr49  1  0.79664732  -0.01716349  0.75157064  1
  Zr  Zr50  1  0.00778870  0.79553599  0.00190765  1
  Zr  Zr51  1  0.90137877  0.27498925  0.63112307  1
  Zr  Zr52  1  0.10425171  0.91266469  0.11456559  1
  Zr  Zr53  1  0.91722854  0.10252451  0.12194008  1
  Zr  Zr54  1  0.71431023  0.48800482  0.11868957  1
  Zr  Zr55  1  0.19261852  -0.01189114  0.47841328  1
  Zr  Zr56  1  0.89803854  0.90280253  0.36446782  1
  Zr  Zr57  1  0.01901580  0.19602640  0.75116397  1
  Zr  Zr58  1  0.40609751  0.60116328  0.74377007  1
  Zr  Zr59  1  0.10259480  0.50460550  0.12358076  1
  Zr  Zr60  1  0.48794139  0.09444318  0.88723098  1
  Zr  Zr61  1  0.49979878  0.09921760  0.61645264  1
  Zr  Zr62  1  0.47938487  0.08520283  0.12413781  1
  Zr  Zr63  1  0.40803828  0.60586309  0.51018494  1
  Zr  Zr64  1  0.80379305  0.82227582  0.50469627  1
  Zr  Zr65  1  0.69906601  0.50515162  0.62831476  1
  Zr  Zr66  1  0.00110681  -0.00262586  0.73862390  1
  Zr  Zr67  1  0.88775171  0.30682324  0.13444086  1
  Zr  Zr68  1  -0.00377266  0.59450435  -0.01095826  1
  Zr  Zr69  1  0.30693684  0.70445250  0.13268185  1
  Zr  Zr70  1  0.70538562  0.50051003  0.39223260  1
  Zr  Zr71  1  0.30251066  0.50214313  0.87379037  1
  Zr  Zr72  1  0.58956896  0.39665590  0.74676666  1
  Zr  Zr73  1  0.89482841  0.49306298  0.85909598  1
  Zr  Zr74  1  0.09808484  0.69268503  0.62165464  1
  Zr  Zr75  1  0.70392026  0.69182897  0.13060984  1
  Zr  Zr76  1  0.91255267  0.50299359  0.39150021  1
  Zr  Zr77  1  0.39710035  0.39778480  0.74339440  1
  Zr  Zr78  1  0.69676475  0.27529282  0.38728166  1
  Zr  Zr79  1  0.50884986  0.50342298  0.12474363  1
  Ta  Ta80  1  0.69137733  0.89408743  0.12769527  1
  Ta  Ta81  1  0.17756649  0.19344637  0.00253805  1
  Ta  Ta82  1  -0.00428825  0.40588770  0.25430158  1
  Ta  Ta83  1  0.80215349  -0.00809766  0.00973005  1
  Ta  Ta84  1  0.59370452  0.80001053  0.50034916  1
  Ta  Ta85  1  0.70997626  0.70457393  0.87500881  1
  Ta  Ta86  1  0.00657005  0.80726567  0.25040437  1
  Ta  Ta87  1  0.50087731  0.70428511  0.37035244  1
  Ta  Ta88  1  0.80518322  0.62329998  0.74698170  1
  Ta  Ta89  1  0.90114568  0.29454634  0.86184548  1
  Ta  Ta90  1  0.00395366  0.60436354  0.75579624  1
  Ta  Ta91  1  0.59876904  0.79468995  0.00144561  1
  Ta  Ta92  1  0.10447810  0.89945519  0.62173672  1
  Ta  Ta93  1  0.19488309  0.38339413  0.74367717  1
  Ta  Ta94  1  -0.00241150  0.38415884  -0.00304325  1
  Ta  Ta95  1  0.11222365  0.10555468  0.13138773  1
  Ta  Ta96  1  0.90868419  0.70255594  0.37986510  1
  Ta  Ta97  1  0.59141480  -0.01602379  0.00888589  1
  Ta  Ta98  1  0.00887045  0.80287758  0.50283563  1
  Ta  Ta99  1  0.39476083  0.40538554  0.01461718  1
  Ta  Ta100  1  0.19693163  0.60139108  0.75422688  1
  Ta  Ta101  1  0.70553072  0.70632028  0.38440857  1
  Ta  Ta102  1  0.09784895  0.30414196  0.37945868  1
  Ta  Ta103  1  0.09282642  0.10899150  0.60324239  1
  Ta  Ta104  1  0.69274172  0.28390254  0.62536204  1
  Ta  Ta105  1  0.69189410  0.10091720  0.10830569  1
  Ta  Ta106  1  0.08504179  0.29426806  0.12793404  1
  Ta  Ta107  1  0.49081444  0.29061812  0.61080719  1
  Ta  Ta108  1  0.29502314  0.90847106  0.62638049  1
  Ta  Ta109  1  0.60859922  0.60274521  -0.00321104  1
  Ta  Ta110  1  0.90744069  0.49903651  0.12565693  1
  Ta  Ta111  1  0.50280034  0.29271987  0.10620310  1
  Ta  Ta112  1  0.50495022  0.90383455  0.62357326  1
  Ta  Ta113  1  0.69128123  0.29700937  0.10348580  1
  Ta  Ta114  1  0.69683797  0.89996116  0.36113673  1
  Ta  Ta115  1  0.91025476  0.69089613  0.13668437  1
  Ta  Ta116  1  0.69600384  0.89327429  0.88647804  1
  Ta  Ta117  1  -0.01008158  0.79695335  0.74356402  1
  Ta  Ta118  1  0.88569617  0.10542623  0.36818888  1
  Ta  Ta119  1  0.28940862  0.30849465  0.37852766  1
  Ti  Ti120  1  0.80594875  0.59770417  -0.00290033  1
  Ti  Ti121  1  0.21238096  0.60050950  0.26066493  1
  Ti  Ti122  1  0.28760003  0.50114926  0.63438625  1
  Ti  Ti123  1  0.50829022  0.70842666  0.13597213  1
  Ti  Ti124  1  0.00562977  0.00614891  0.25736991  1
  Ti  Ti125  1  0.49557315  0.29873446  0.90221206  1
  Ti  Ti126  1  0.90066593  0.70047748  0.87274988  1
  Ti  Ti127  1  0.01109577  0.60116533  0.25833030  1
  Ti  Ti128  1  0.78682168  0.20188375  0.24280586  1
  Ti  Ti129  1  0.29095216  0.70649129  0.63328546  1
  Ti  Ti130  1  0.19262398  0.81123685  0.74672160  1
  Ti  Ti131  1  0.19684855  0.19664265  0.26382855  1
  Ti  Ti132  1  0.50734139  0.90493633  0.86759719  1
  Ti  Ti133  1  0.11039533  0.49971378  0.37858617  1
  Ti  Ti134  1  0.80058554  0.17397319  0.50276424  1
  Ti  Ti135  1  0.40109322  0.00565143  0.74234156  1
  Ti  Ti136  1  0.39603876  0.59864381  0.24864214  1
  Ti  Ti137  1  0.00395032  0.20082973  0.25621670  1
  Ti  Ti138  1  0.79845836  0.38758613  0.74033589  1
  Ti  Ti139  1  0.60362314  0.00091623  0.24501574  1
  Ti  Ti140  1  0.29677049  0.71136793  0.86730806  1
  Ti  Ti141  1  0.08416177  0.11175206  0.38900862  1
  Ti  Ti142  1  0.10130236  0.28983221  0.87643570  1
  Ti  Ti143  1  0.49911924  0.89038006  0.14347831  1
  Ti  Ti144  1  0.10621096  0.49893732  0.62740051  1
  Ti  Ti145  1  0.51303714  0.70013336  0.62746998  1
  Ti  Ti146  1  0.38253786  0.18592927  0.00862822  1
  Ti  Ti147  1  0.19477768  0.01798533  0.73919814  1
  Ti  Ti148  1  0.38636582  0.19483902  0.25043840  1
  Ti  Ti149  1  0.90630325  0.89464442  0.12649610  1
  Ti  Ti150  1  0.50615705  0.50820104  0.62483223  1
  Ti  Ti151  1  0.80196259  0.79224863  0.24714349  1
  Ti  Ti152  1  0.00391515  0.39875566  0.73738772  1
  Ti  Ti153  1  0.12127720  0.29170964  0.61137108  1
  Ti  Ti154  1  0.10385697  0.71200938  0.86730289  1
  Ti  Ti155  1  0.50380126  0.49148590  0.88315864  1
  Ti  Ti156  1  0.19585297  0.40078242  0.01077343  1
  Ti  Ti157  1  0.38285593  0.00326564  0.27028814  1
  Ti  Ti158  1  0.91371554  0.09571168  0.88102824  1
  Ti  Ti159  1  0.80595470  0.40515393  -0.00958311  1
  Mo  Mo160  1  0.40214691  0.79598415  0.25029379  1
  Mo  Mo161  1  0.60853933  0.80120935  0.25234949  1
  Mo  Mo162  1  0.29345498  0.30370442  0.61997972  1
  Mo  Mo163  1  0.29157466  0.86687908  0.36514657  1
  Mo  Mo164  1  0.00300267  0.01785090  0.00008699  1
  Mo  Mo165  1  0.19347793  0.20813661  0.48536848  1
  Mo  Mo166  1  0.20776009  0.79965623  -0.00993587  1
  Mo  Mo167  1  0.60729257  0.19926918  0.50732733  1
  Mo  Mo168  1  0.31294694  0.69540077  0.36523733  1
  Mo  Mo169  1  0.89730369  0.89151614  0.62785611  1
  Mo  Mo170  1  0.58624499  -0.00892355  0.75294128  1
  Mo  Mo171  1  0.80627249  0.61107011  0.49226131  1
  Mo  Mo172  1  0.00811781  0.60809279  0.49036386  1
  Mo  Mo173  1  0.40190097  -0.00345933  0.00028628  1
  Mo  Mo174  1  -0.00614882  0.20087541  0.49403753  1
  Mo  Mo175  1  0.80393061  0.39318426  0.25066234  1
  Mo  Mo176  1  0.60396963  0.60368202  0.75113373  1
  Mo  Mo177  1  0.28785388  0.09726781  0.13178541  1
  Mo  Mo178  1  0.89863527  0.09705624  0.62901507  1
  Mo  Mo179  1  0.79456283  0.00193412  0.49889470  1
  Mo  Mo180  1  0.69037726  0.89943559  0.62395844  1
  Mo  Mo181  1  0.20143375  0.80418482  0.25035945  1
  Mo  Mo182  1  0.59435023  0.40487564  -0.00721380  1
  Mo  Mo183  1  0.29777213  0.50108463  0.36850073  1
  Mo  Mo184  1  -0.00064893  0.20644030  -0.00612672  1
  Mo  Mo185  1  0.19707852  0.20054584  0.74449887  1
  Mo  Mo186  1  0.59379157  0.19445851  0.00172526  1
  Mo  Mo187  1  0.08883654  0.89867223  0.37722868  1
  Mo  Mo188  1  0.39638634  0.20382786  0.49573397  1
  Mo  Mo189  1  0.20539795  0.80181863  0.50931479  1
  Mo  Mo190  1  0.20939327  0.00923086  0.00596965  1
  Mo  Mo191  1  0.19586712  0.40755980  0.50006502  1
  Mo  Mo192  1  0.80258586  0.19702691  0.76672680  1
  Mo  Mo193  1  0.90719862  0.70481198  0.61774380  1
  Mo  Mo194  1  0.80956263  0.79881440  0.74858990  1
  Mo  Mo195  1  0.59793530  0.61293771  0.49255235  1
  Mo  Mo196  1  0.70891399  0.09120078  0.36553427  1
  Mo  Mo197  1  0.09803571  0.09904347  0.87785877  1
  Mo  Mo198  1  0.30015600  0.50353628  0.12141598  1
  Mo  Mo199  1  0.30109559  0.12455909  0.38340254  1
