# generated using pymatgen
data_HfZrTaTiMo
_symmetry_space_group_name_H-M   'P 1'
_cell_length_a   15.21810825
_cell_length_b   15.20646262
_cell_length_c   16.81103653
_cell_angle_alpha   90.00989176
_cell_angle_beta   90.01765683
_cell_angle_gamma   89.94780567
_symmetry_Int_Tables_number   1
_chemical_formula_structural   HfZrTaTiMo
_chemical_formula_sum   'Hf40 Zr40 Ta40 Ti40 Mo40'
_cell_volume   3890.30053205
_cell_formula_units_Z   40
loop_
 _symmetry_equiv_pos_site_id
 _symmetry_equiv_pos_as_xyz
  1  'x, y, z'
loop_
 _atom_site_type_symbol
 _atom_site_label
 _atom_site_symmetry_multiplicity
 _atom_site_fract_x
 _atom_site_fract_y
 _atom_site_fract_z
 _atom_site_occupancy
  Hf  Hf0  1  0.68342995  0.10239191  0.88547286  1
  Hf  Hf1  1  0.28850431  0.10558974  0.86295743  1
  Hf  Hf2  1  0.08804368  0.28119766  0.12360342  1
  Hf  Hf3  1  0.18602550  0.01082652  0.24206821  1
  Hf  Hf4  1  0.49704365  0.70277462  0.13201871  1
  Hf  Hf5  1  0.20588612  0.59684048  0.24001542  1
  Hf  Hf6  1  0.70296873  0.31027443  0.61198669  1
  Hf  Hf7  1  0.08977219  0.09999578  0.38501862  1
  Hf  Hf8  1  0.30995276  0.90776300  0.63650991  1
  Hf  Hf9  1  0.09115804  0.70427214  0.12463166  1
  Hf  Hf10  1  0.40261621  0.00252851  0.48631555  1
  Hf  Hf11  1  -0.00251984  0.38915828  0.76106813  1
  Hf  Hf12  1  0.40003588  0.20597804  -0.00964741  1
  Hf  Hf13  1  0.78793121  0.59583010  0.75490476  1
  Hf  Hf14  1  0.39756478  0.80331449  0.00183354  1
  Hf  Hf15  1  0.50669888  0.09943824  0.34862887  1
  Hf  Hf16  1  0.20916621  -0.00193421  0.50043447  1
  Hf  Hf17  1  0.69861113  0.71580555  0.62387430  1
  Hf  Hf18  1  0.89184346  0.89887342  0.63113753  1
  Hf  Hf19  1  0.28713446  0.51248868  0.38502545  1
  Hf  Hf20  1  0.90912043  0.70490453  0.36581786  1
  Hf  Hf21  1  0.89829383  0.69646856  0.63155667  1
  Hf  Hf22  1  0.50571401  0.69786420  0.35889109  1
  Hf  Hf23  1  0.59237630  0.40680411  0.48615200  1
  Hf  Hf24  1  0.69837000  0.10296185  0.63176446  1
  Hf  Hf25  1  0.38314568  0.39598172  0.26901951  1
  Hf  Hf26  1  0.59603945  0.41955161  0.75233951  1
  Hf  Hf27  1  0.89011201  0.48929196  0.61597326  1
  Hf  Hf28  1  0.17994957  0.40334571  0.26721922  1
  Hf  Hf29  1  0.29988237  0.28296247  0.61927694  1
  Hf  Hf30  1  0.79487752  -0.00453751  0.77312195  1
  Hf  Hf31  1  0.29020421  0.32249396  0.12649832  1
  Hf  Hf32  1  0.39628744  0.79821677  0.49265578  1
  Hf  Hf33  1  0.40386104  0.19977475  0.75714775  1
  Hf  Hf34  1  0.40960684  0.59297366  0.50339375  1
  Hf  Hf35  1  0.80171963  -0.00260490  -0.00245850  1
  Hf  Hf36  1  0.90721444  0.48856869  0.38536691  1
  Hf  Hf37  1  0.20542444  0.59914765  0.00104521  1
  Hf  Hf38  1  0.31075332  0.11591126  0.14186698  1
  Hf  Hf39  1  0.10640157  0.48878132  0.11541662  1
  Zr  Zr40  1  -0.00188899  0.17622375  -0.02096094  1
  Zr  Zr41  1  0.29684959  0.50157722  0.85391437  1
  Zr  Zr42  1  0.50972520  0.89864720  0.62268450  1
  Zr  Zr43  1  -0.00032994  0.18692456  0.25648594  1
  Zr  Zr44  1  0.89863502  0.92378586  0.36000962  1
  Zr  Zr45  1  0.60276750  0.21351848  0.75358110  1
  Zr  Zr46  1  0.80233953  0.60062883  0.00231701  1
  Zr  Zr47  1  0.31184440  0.49212230  0.63951590  1
  Zr  Zr48  1  0.10566578  0.10558957  0.62511181  1
  Zr  Zr49  1  0.49034727  0.10278248  0.62110878  1
  Zr  Zr50  1  0.30967366  0.70345747  0.85604082  1
  Zr  Zr51  1  0.89641947  0.10058062  0.63975116  1
  Zr  Zr52  1  -0.01638079  0.38711020  0.25119675  1
  Zr  Zr53  1  0.19637538  0.20388722  -0.00405819  1
  Zr  Zr54  1  0.20024346  0.80162024  0.51667376  1
  Zr  Zr55  1  0.10978119  0.68748850  0.37546518  1
  Zr  Zr56  1  0.59895204  0.40022350  0.24973763  1
  Zr  Zr57  1  0.79181984  0.81545484  0.48518388  1
  Zr  Zr58  1  -0.00190823  0.38367690  -0.01506664  1
  Zr  Zr59  1  0.50324190  0.69456960  0.62458839  1
  Zr  Zr60  1  0.70390549  0.50936060  0.36927118  1
  Zr  Zr61  1  0.80076595  0.60959738  0.49413306  1
  Zr  Zr62  1  0.09862402  0.89004423  0.36826310  1
  Zr  Zr63  1  -0.00722679  -0.00167807  0.50663398  1
  Zr  Zr64  1  0.79363287  0.39439695  0.75834620  1
  Zr  Zr65  1  0.89641217  0.49432330  0.12018677  1
  Zr  Zr66  1  0.71221183  0.10083294  0.35439718  1
  Zr  Zr67  1  0.59053086  0.79577062  0.76826415  1
  Zr  Zr68  1  0.10364931  0.69938351  0.86804517  1
  Zr  Zr69  1  0.40367013  0.59360173  -0.00277030  1
  Zr  Zr70  1  0.90629086  0.29022351  0.61830195  1
  Zr  Zr71  1  0.60803341  0.81011803  0.00708191  1
  Zr  Zr72  1  0.20927115  0.60761545  0.52592982  1
  Zr  Zr73  1  0.71193307  0.69799178  0.12667331  1
  Zr  Zr74  1  0.40440202  0.00874600  0.00136798  1
  Zr  Zr75  1  0.50267387  0.90092520  0.35582757  1
  Zr  Zr76  1  0.19504219  0.00583033  0.01277754  1
  Zr  Zr77  1  0.28828355  0.90161347  0.86733459  1
  Zr  Zr78  1  0.48821598  0.29323671  0.13255432  1
  Zr  Zr79  1  0.00393612  -0.03114302  -0.01590176  1
  Ta  Ta80  1  0.79504379  0.80147526  0.76555811  1
  Ta  Ta81  1  0.80742955  0.81080049  0.24247678  1
  Ta  Ta82  1  0.60133041  0.61375762  0.48861502  1
  Ta  Ta83  1  0.69921100  0.70215587  0.88622487  1
  Ta  Ta84  1  0.90274850  0.69930502  0.87285075  1
  Ta  Ta85  1  0.00449636  0.58856583  0.25085355  1
  Ta  Ta86  1  0.09997588  0.29927689  0.61445952  1
  Ta  Ta87  1  0.01281513  0.19582436  0.77190707  1
  Ta  Ta88  1  0.59576711  0.19613039  0.01230228  1
  Ta  Ta89  1  0.69718122  0.30685862  0.89492225  1
  Ta  Ta90  1  0.59977675  0.19691947  0.49205094  1
  Ta  Ta91  1  0.39682758  0.59662719  0.24409301  1
  Ta  Ta92  1  0.08926006  0.30781293  0.40037806  1
  Ta  Ta93  1  0.60951029  0.00293403  0.49173017  1
  Ta  Ta94  1  0.49779802  0.31102456  0.61531142  1
  Ta  Ta95  1  0.69707268  0.90898666  0.62960245  1
  Ta  Ta96  1  0.39438237  0.39165112  0.48739752  1
  Ta  Ta97  1  0.00104828  0.79416510  0.51083242  1
  Ta  Ta98  1  0.59681268  0.59514873  0.00751431  1
  Ta  Ta99  1  0.43818431  0.59431383  0.75783145  1
  Ta  Ta100  1  0.89867662  0.50171915  0.87830198  1
  Ta  Ta101  1  0.00178481  -0.00534766  0.76854734  1
  Ta  Ta102  1  0.18690085  0.80838487  0.00582178  1
  Ta  Ta103  1  0.01129767  0.59495841  0.50778600  1
  Ta  Ta104  1  0.29749930  0.89898688  0.13416676  1
  Ta  Ta105  1  0.59952820  0.00559565  0.02014067  1
  Ta  Ta106  1  0.09640667  0.49086372  0.63719677  1
  Ta  Ta107  1  0.80443642  0.20248151  -0.00236341  1
  Ta  Ta108  1  0.59298882  0.40489666  0.00958221  1
  Ta  Ta109  1  0.20508354  0.39886237  -0.01914091  1
  Ta  Ta110  1  0.29780329  0.70223367  0.12459204  1
  Ta  Ta111  1  0.40928001  0.39096399  0.75694115  1
  Ta  Ta112  1  -0.00086884  0.80501914  0.75012768  1
  Ta  Ta113  1  0.49724155  0.91292413  0.13900569  1
  Ta  Ta114  1  0.68312720  0.51252412  0.61472218  1
  Ta  Ta115  1  0.79868301  0.19158473  0.49442684  1
  Ta  Ta116  1  0.19603521  0.79999732  0.73275457  1
  Ta  Ta117  1  0.61014752  0.80694967  0.23595066  1
  Ta  Ta118  1  0.59368666  0.00201642  0.76107277  1
  Ta  Ta119  1  0.70655010  0.30336121  0.11462249  1
  Ti  Ti120  1  0.19603904  0.80331640  0.24271549  1
  Ti  Ti121  1  0.90725727  0.09997721  0.12370870  1
  Ti  Ti122  1  0.20845019  0.19705019  0.49276774  1
  Ti  Ti123  1  0.50377663  0.90644134  0.88180891  1
  Ti  Ti124  1  0.80958762  0.20301978  0.77517905  1
  Ti  Ti125  1  0.81028620  0.21207937  0.24343207  1
  Ti  Ti126  1  0.79349743  0.40016304  0.24124736  1
  Ti  Ti127  1  0.90791355  0.70259248  0.13075114  1
  Ti  Ti128  1  0.69715013  0.91153607  0.35147369  1
  Ti  Ti129  1  0.20081515  0.21462454  0.26525291  1
  Ti  Ti130  1  0.09580998  0.69524878  0.63727499  1
  Ti  Ti131  1  0.89638206  0.29154234  0.39243883  1
  Ti  Ti132  1  0.10060734  0.49991844  0.86369512  1
  Ti  Ti133  1  -0.00290600  0.59451537  0.75091798  1
  Ti  Ti134  1  0.79806838  0.40043777  0.00069745  1
  Ti  Ti135  1  0.70647602  0.30154029  0.37783813  1
  Ti  Ti136  1  0.00175987  0.59885234  -0.00596777  1
  Ti  Ti137  1  0.39130681  0.80234780  0.24715080  1
  Ti  Ti138  1  0.30180846  0.71241862  0.36670803  1
  Ti  Ti139  1  0.70806059  0.10303630  0.12865215  1
  Ti  Ti140  1  0.60320294  0.80973611  0.48697870  1
  Ti  Ti141  1  0.69080074  0.50302708  0.88533292  1
  Ti  Ti142  1  0.70131425  0.70985204  0.35739061  1
  Ti  Ti143  1  0.19446364  0.40674859  0.50295660  1
  Ti  Ti144  1  0.60734699  0.20511248  0.23742444  1
  Ti  Ti145  1  0.39708693  0.40501875  -0.00982010  1
  Ti  Ti146  1  0.60542767  0.59466502  0.23699907  1
  Ti  Ti147  1  0.81697683  0.80691680  -0.00203945  1
  Ti  Ti148  1  0.79251857  0.00611213  0.49768381  1
  Ti  Ti149  1  0.40206393  0.19789053  0.48693425  1
  Ti  Ti150  1  0.18978621  0.00216101  0.74168209  1
  Ti  Ti151  1  0.49960756  0.29101351  0.36980890  1
  Ti  Ti152  1  0.91527136  0.89694097  0.13224744  1
  Ti  Ti153  1  0.19900662  0.37776715  0.75443993  1
  Ti  Ti154  1  0.40785575  -0.00291217  0.75927868  1
  Ti  Ti155  1  0.48796727  0.49495819  0.13084600  1
  Ti  Ti156  1  0.50700267  0.30430572  0.88316004  1
  Ti  Ti157  1  0.30419678  0.10196668  0.36071391  1
  Ti  Ti158  1  0.49753820  0.50541735  0.36640421  1
  Ti  Ti159  1  0.80733744  0.59776750  0.24664045  1
  Mo  Mo160  1  -0.00001294  0.79221500  0.24753657  1
  Mo  Mo161  1  0.89568785  0.09624464  0.87111659  1
  Mo  Mo162  1  0.19137878  0.59433278  0.73533369  1
  Mo  Mo163  1  0.50669979  0.49230731  0.61909835  1
  Mo  Mo164  1  -0.00041786  0.19896154  0.49862311  1
  Mo  Mo165  1  0.79098548  0.39264634  0.49536495  1
  Mo  Mo166  1  0.60798910  0.00400241  0.22640965  1
  Mo  Mo167  1  0.30520652  0.30568097  0.87112862  1
  Mo  Mo168  1  0.80839452  0.01063750  0.22738703  1
  Mo  Mo169  1  0.89296046  0.29980346  0.87807310  1
  Mo  Mo170  1  0.61290545  0.60132608  0.75833441  1
  Mo  Mo171  1  0.40251483  0.80217954  0.75534478  1
  Mo  Mo172  1  -0.00411393  -0.00347273  0.23997041  1
  Mo  Mo173  1  0.50678125  0.49709295  0.88398674  1
  Mo  Mo174  1  0.09759836  0.89290512  0.13146885  1
  Mo  Mo175  1  0.89352050  0.10990560  0.37418423  1
  Mo  Mo176  1  0.50856574  0.69753747  0.88496650  1
  Mo  Mo177  1  0.50534781  0.10434846  0.14153917  1
  Mo  Mo178  1  0.10778682  0.08625250  0.86344889  1
  Mo  Mo179  1  0.30401390  0.09757825  0.63296524  1
  Mo  Mo180  1  0.11161357  0.29627974  0.86917266  1
  Mo  Mo181  1  0.09204820  0.09069255  0.12731952  1
  Mo  Mo182  1  0.29808226  0.89982114  0.35595895  1
  Mo  Mo183  1  0.89831826  0.88431810  0.87296785  1
  Mo  Mo184  1  0.71513893  0.90700707  0.12921660  1
  Mo  Mo185  1  0.69125193  0.49465890  0.12476193  1
  Mo  Mo186  1  0.30208672  0.49665005  0.12232549  1
  Mo  Mo187  1  0.88691515  0.28733073  0.12024797  1
  Mo  Mo188  1  0.39062441  -0.00315626  0.25095648  1
  Mo  Mo189  1  0.19897149  0.20074287  0.74569889  1
  Mo  Mo190  1  0.39174279  0.20574172  0.26448089  1
  Mo  Mo191  1  0.09441101  0.50422474  0.38416465  1
  Mo  Mo192  1  0.31125798  0.70002543  0.65304405  1
  Mo  Mo193  1  0.00258117  0.40283353  0.50780827  1
  Mo  Mo194  1  -0.00390224  0.78553203  -0.00187872  1
  Mo  Mo195  1  0.49986242  0.09699404  0.87851535  1
  Mo  Mo196  1  0.69488398  0.89666857  0.88572137  1
  Mo  Mo197  1  0.10761426  0.88836544  0.86623839  1
  Mo  Mo198  1  0.09161830  0.89611094  0.63133086  1
  Mo  Mo199  1  0.28955465  0.29590992  0.39177325  1
