# generated using pymatgen
data_HfZrTaTiMo
_symmetry_space_group_name_H-M   'P 1'
_cell_length_a   15.20574444
_cell_length_b   15.20548104
_cell_length_c   16.87024315
_cell_angle_alpha   90.04328469
_cell_angle_beta   89.92671662
_cell_angle_gamma   89.84604200
_symmetry_Int_Tables_number   1
_chemical_formula_structural   HfZrTaTiMo
_chemical_formula_sum   'Hf40 Zr40 Ta40 Ti40 Mo40'
_cell_volume   3900.56163631
_cell_formula_units_Z   40
loop_
 _symmetry_equiv_pos_site_id
 _symmetry_equiv_pos_as_xyz
  1  'x, y, z'
loop_
 _atom_site_type_symbol
 _atom_site_label
 _atom_site_symmetry_multiplicity
 _atom_site_fract_x
 _atom_site_fract_y
 _atom_site_fract_z
 _atom_site_occupancy
  Hf  Hf0  1  0.80791847  0.20357221  0.50589682  1
  Hf  Hf1  1  0.20978982  0.00024872  0.75951047  1
  Hf  Hf2  1  0.60460153  0.79101602  0.26440603  1
  Hf  Hf3  1  0.89826983  0.70618464  0.38724025  1
  Hf  Hf4  1  0.69326042  0.50689372  0.13012292  1
  Hf  Hf5  1  0.39233453  0.60973495  0.50931230  1
  Hf  Hf6  1  0.30018192  0.72744201  0.64446460  1
  Hf  Hf7  1  0.80371315  0.00011244  0.24148421  1
  Hf  Hf8  1  0.00141541  0.60402219  0.25852122  1
  Hf  Hf9  1  0.08058574  0.70730264  0.86611123  1
  Hf  Hf10  1  0.19944399  0.60259997  0.75354791  1
  Hf  Hf11  1  0.10750666  0.49707190  0.38019703  1
  Hf  Hf12  1  0.91449642  0.49503114  0.88004914  1
  Hf  Hf13  1  0.48675685  0.29253961  0.63600659  1
  Hf  Hf14  1  0.40106790  0.81818283  0.50066127  1
  Hf  Hf15  1  0.08924346  0.70478124  0.12006969  1
  Hf  Hf16  1  0.20170383  -0.00313871  0.24569758  1
  Hf  Hf17  1  0.31205268  0.08129494  0.37890542  1
  Hf  Hf18  1  0.49406555  0.93029039  0.37178724  1
  Hf  Hf19  1  0.39839948  0.79046726  0.25390137  1
  Hf  Hf20  1  0.50221672  0.29332936  0.86240311  1
  Hf  Hf21  1  0.61586307  -0.01079153  0.76321506  1
  Hf  Hf22  1  0.29470015  0.29550593  0.85554502  1
  Hf  Hf23  1  0.88692381  0.29706985  0.36385364  1
  Hf  Hf24  1  0.79297021  0.60492073  0.26149281  1
  Hf  Hf25  1  0.00695373  0.00265258  0.25068175  1
  Hf  Hf26  1  0.39083388  0.19832414  0.50142644  1
  Hf  Hf27  1  0.49411238  0.08067077  0.62898614  1
  Hf  Hf28  1  0.89027508  0.30951839  0.12935206  1
  Hf  Hf29  1  0.89037042  0.91403926  0.62022003  1
  Hf  Hf30  1  0.50871260  0.49234943  0.87063642  1
  Hf  Hf31  1  0.78302875  0.81542692  0.49753585  1
  Hf  Hf32  1  0.40568353  0.59946936  -0.00927546  1
  Hf  Hf33  1  0.38984448  -0.01242525  -0.02167915  1
  Hf  Hf34  1  0.60566349  0.79885193  -0.01040136  1
  Hf  Hf35  1  0.61257333  -0.01701162  0.50573289  1
  Hf  Hf36  1  0.48895395  0.89032300  0.11512928  1
  Hf  Hf37  1  0.19735081  0.79333618  0.24641226  1
  Hf  Hf38  1  0.48367084  0.49717861  0.12922772  1
  Hf  Hf39  1  0.60608361  0.19369781  0.73915887  1
  Zr  Zr40  1  0.79282763  0.81130099  0.73934860  1
  Zr  Zr41  1  0.09670058  0.30368890  0.12646737  1
  Zr  Zr42  1  0.40775007  0.19460052  -0.01092484  1
  Zr  Zr43  1  0.11155248  0.89502903  0.63569537  1
  Zr  Zr44  1  0.11821015  0.69621889  0.39033463  1
  Zr  Zr45  1  0.38985522  0.40016331  0.26406134  1
  Zr  Zr46  1  0.61064388  0.60701634  0.76072771  1
  Zr  Zr47  1  0.30743990  0.30585187  0.12559439  1
  Zr  Zr48  1  0.90026905  0.10184802  0.11238933  1
  Zr  Zr49  1  0.70607423  0.09178520  0.37952991  1
  Zr  Zr50  1  0.19899262  0.38087142  0.49960827  1
  Zr  Zr51  1  0.89820297  0.09226290  0.88251162  1
  Zr  Zr52  1  0.69624291  0.88864695  0.12695243  1
  Zr  Zr53  1  0.70281757  0.11679961  0.88536007  1
  Zr  Zr54  1  0.59477994  0.78486247  0.47993964  1
  Zr  Zr55  1  -0.00514707  0.80587805  0.25623329  1
  Zr  Zr56  1  0.09131379  0.49214516  0.61089974  1
  Zr  Zr57  1  0.88876937  0.29401813  0.88385304  1
  Zr  Zr58  1  0.00596939  0.19777533  0.25117714  1
  Zr  Zr59  1  0.79477221  0.41035780  0.01019481  1
  Zr  Zr60  1  0.39441436  0.40140580  0.50044170  1
  Zr  Zr61  1  0.59487889  0.39345506  0.50753419  1
  Zr  Zr62  1  0.41830305  0.18913162  0.25694178  1
  Zr  Zr63  1  0.69557603  0.31248832  0.87508038  1
  Zr  Zr64  1  0.20353709  0.19765694  -0.00849852  1
  Zr  Zr65  1  0.80155912  0.60507361  0.74921786  1
  Zr  Zr66  1  0.01650968  0.01375604  0.50479005  1
  Zr  Zr67  1  -0.00692143  0.59225313  0.74235832  1
  Zr  Zr68  1  0.19453128  0.40604729  -0.01074766  1
  Zr  Zr69  1  0.50995565  0.70379667  0.63277557  1
  Zr  Zr70  1  0.10465104  0.91116045  0.38708638  1
  Zr  Zr71  1  0.09309665  0.69939707  0.61892405  1
  Zr  Zr72  1  0.67547866  0.29329601  0.37271243  1
  Zr  Zr73  1  0.20197026  0.80914128  -0.01074355  1
  Zr  Zr74  1  0.31342296  0.68869781  0.12087758  1
  Zr  Zr75  1  0.20054289  0.60272549  -0.01342685  1
  Zr  Zr76  1  0.79379457  -0.01620431  0.00189177  1
  Zr  Zr77  1  0.10946860  0.50301111  0.13435112  1
  Zr  Zr78  1  0.59500270  0.01642902  0.24407560  1
  Zr  Zr79  1  0.10706277  0.28703706  0.63346628  1
  Ta  Ta80  1  0.08204188  0.31408530  0.86766348  1
  Ta  Ta81  1  0.61111932  0.59826352  -0.00520009  1
  Ta  Ta82  1  0.10631950  0.09430054  0.11140656  1
  Ta  Ta83  1  0.00906901  -0.01026184  -0.00821899  1
  Ta  Ta84  1  0.29824193  0.88980269  0.37525216  1
  Ta  Ta85  1  0.30554948  0.50113047  0.86325727  1
  Ta  Ta86  1  0.50040857  0.50461896  0.63163798  1
  Ta  Ta87  1  -0.00410526  0.20107769  0.75325088  1
  Ta  Ta88  1  0.50442164  0.49286869  0.37347091  1
  Ta  Ta89  1  0.71083368  0.30343400  0.62447427  1
  Ta  Ta90  1  0.20604668  0.19126205  0.24468084  1
  Ta  Ta91  1  0.21189624  0.80050660  0.50407932  1
  Ta  Ta92  1  0.89005472  0.91471826  0.38454128  1
  Ta  Ta93  1  0.90880264  0.30969771  0.62184869  1
  Ta  Ta94  1  0.49822684  0.09523074  0.11214906  1
  Ta  Ta95  1  0.39506839  0.40513089  0.74181879  1
  Ta  Ta96  1  0.28110169  0.28279207  0.37334922  1
  Ta  Ta97  1  0.79424783  0.40981422  0.48940626  1
  Ta  Ta98  1  0.30203543  0.09055618  0.11965483  1
  Ta  Ta99  1  0.58860755  0.00534797  -0.01595062  1
  Ta  Ta100  1  0.01764022  0.20887212  0.48885085  1
  Ta  Ta101  1  0.80690736  0.40336880  0.74341860  1
  Ta  Ta102  1  0.80515138  0.61603626  0.00190754  1
  Ta  Ta103  1  -0.01318521  0.39549820  0.48096654  1
  Ta  Ta104  1  0.18795795  0.40751557  0.75222044  1
  Ta  Ta105  1  0.09702556  0.10787117  0.86999712  1
  Ta  Ta106  1  0.29789328  0.11774049  0.64206717  1
  Ta  Ta107  1  0.60776794  0.40479797  0.73674219  1
  Ta  Ta108  1  0.71854135  0.08122341  0.62493062  1
  Ta  Ta109  1  0.90857491  0.88995356  0.12094261  1
  Ta  Ta110  1  0.40302186  0.60296266  0.75163835  1
  Ta  Ta111  1  -0.00983972  -0.00120295  0.75143789  1
  Ta  Ta112  1  0.89796233  0.87980260  0.87085999  1
  Ta  Ta113  1  0.00200947  0.20703222  -0.00085201  1
  Ta  Ta114  1  0.90969008  0.10116999  0.37820129  1
  Ta  Ta115  1  0.09968286  0.90369243  0.11490328  1
  Ta  Ta116  1  0.69993167  0.50642106  0.62017527  1
  Ta  Ta117  1  0.88919614  0.49884033  0.61006732  1
  Ta  Ta118  1  -0.00911154  0.40780484  0.26443644  1
  Ta  Ta119  1  0.80670107  0.19710043  0.73803056  1
  Ti  Ti120  1  0.40879443  -0.00319489  0.77173378  1
  Ti  Ti121  1  0.39329050  -0.00732042  0.23694942  1
  Ti  Ti122  1  0.39534977  0.40013944  -0.00565817  1
  Ti  Ti123  1  0.51911521  0.69204993  0.12512433  1
  Ti  Ti124  1  0.10409959  0.09950863  0.63706478  1
  Ti  Ti125  1  0.72122322  0.71433330  0.87970941  1
  Ti  Ti126  1  0.78265837  0.20046041  0.24029069  1
  Ti  Ti127  1  0.30632817  0.71295271  0.86375575  1
  Ti  Ti128  1  0.79631829  0.80091250  0.26257599  1
  Ti  Ti129  1  0.51217399  0.28987427  0.12213124  1
  Ti  Ti130  1  0.29581167  0.50105138  0.62884417  1
  Ti  Ti131  1  0.49828740  0.89174365  0.63836399  1
  Ti  Ti132  1  0.91230730  0.11004685  0.62312835  1
  Ti  Ti133  1  0.22760916  -0.00028784  0.51740308  1
  Ti  Ti134  1  0.19522778  0.39483326  0.25787145  1
  Ti  Ti135  1  0.59880616  0.19148010  0.51456316  1
  Ti  Ti136  1  0.29497871  0.89637622  0.11520002  1
  Ti  Ti137  1  0.60075105  0.58960534  0.49118537  1
  Ti  Ti138  1  0.19928600  0.00346412  -0.01884036  1
  Ti  Ti139  1  0.49728782  0.70304639  0.87480770  1
  Ti  Ti140  1  -0.00877596  0.59250924  0.49364854  1
  Ti  Ti141  1  -0.00071970  0.80764633  0.50055892  1
  Ti  Ti142  1  0.30092408  0.51564554  0.38405352  1
  Ti  Ti143  1  -0.01784687  0.79110279  -0.00151969  1
  Ti  Ti144  1  0.78779172  0.59981239  0.48669813  1
  Ti  Ti145  1  -0.00004932  0.59203030  0.00024631  1
  Ti  Ti146  1  0.22751146  0.59300434  0.25037996  1
  Ti  Ti147  1  0.09253717  0.89946831  0.86265188  1
  Ti  Ti148  1  0.69069027  0.11750603  0.10858578  1
  Ti  Ti149  1  0.48437697  0.68482381  0.37247392  1
  Ti  Ti150  1  0.88297691  0.70263302  0.13020477  1
  Ti  Ti151  1  0.89531883  0.70035090  0.60904169  1
  Ti  Ti152  1  0.59842972  0.80331668  0.76752989  1
  Ti  Ti153  1  0.59221673  0.39631678  0.00700724  1
  Ti  Ti154  1  0.70807946  0.50334596  0.87849695  1
  Ti  Ti155  1  0.59564150  0.59400163  0.26081112  1
  Ti  Ti156  1  0.78916293  0.40886402  0.25572953  1
  Ti  Ti157  1  0.69888860  0.70293390  0.61838736  1
  Ti  Ti158  1  0.59247448  0.38744565  0.24996989  1
  Ti  Ti159  1  0.90658345  0.50768001  0.12675227  1
  Mo  Mo160  1  0.31977028  0.91984501  0.63394658  1
  Mo  Mo161  1  0.40459400  0.00140954  0.51062118  1
  Mo  Mo162  1  0.68731526  0.89493488  0.62797316  1
  Mo  Mo163  1  0.80700147  0.00869113  0.75150371  1
  Mo  Mo164  1  0.40380898  0.79103271  -0.00697327  1
  Mo  Mo165  1  0.50065938  0.89052839  0.87468379  1
  Mo  Mo166  1  0.09932998  0.29666309  0.36504045  1
  Mo  Mo167  1  -0.00731729  0.80589616  0.74547538  1
  Mo  Mo168  1  0.29554718  0.30288470  0.64368574  1
  Mo  Mo169  1  0.89942303  0.69819451  0.87680948  1
  Mo  Mo170  1  0.19007385  0.19982464  0.76139909  1
  Mo  Mo171  1  0.20012885  0.80465310  0.76159204  1
  Mo  Mo172  1  0.79691573  0.20431600  0.01589239  1
  Mo  Mo173  1  0.40723020  0.80906798  0.76180472  1
  Mo  Mo174  1  0.30189990  0.49367059  0.12584716  1
  Mo  Mo175  1  0.40602908  0.59637014  0.25706783  1
  Mo  Mo176  1  0.69105498  0.30564645  0.13420928  1
  Mo  Mo177  1  0.69377217  0.69108930  0.37842631  1
  Mo  Mo178  1  0.30085136  0.69849839  0.37924893  1
  Mo  Mo179  1  0.30086945  0.10092994  0.86210155  1
  Mo  Mo180  1  0.29575269  0.89223540  0.86965217  1
  Mo  Mo181  1  -0.00917836  0.39734405  0.74419349  1
  Mo  Mo182  1  0.19687904  0.18191710  0.50227493  1
  Mo  Mo183  1  0.49265484  0.29134852  0.37911385  1
  Mo  Mo184  1  0.20749916  0.59981139  0.51008760  1
  Mo  Mo185  1  0.10255726  0.49901019  0.87157555  1
  Mo  Mo186  1  0.80819839  0.00849569  0.49919220  1
  Mo  Mo187  1  0.60238203  0.20011537  0.23895207  1
  Mo  Mo188  1  0.69168984  0.49639676  0.36948208  1
  Mo  Mo189  1  0.80441099  0.79334960  0.00426839  1
  Mo  Mo190  1  0.59831793  0.20579381  0.00498746  1
  Mo  Mo191  1  0.70706434  0.90219026  0.88081830  1
  Mo  Mo192  1  0.39772597  0.18875226  0.75489495  1
  Mo  Mo193  1  0.89508777  0.50092675  0.37931445  1
  Mo  Mo194  1  -0.00014436  0.40581776  0.00670790  1
  Mo  Mo195  1  0.12267770  0.11465632  0.37764438  1
  Mo  Mo196  1  0.69533478  0.69335023  0.12487849  1
  Mo  Mo197  1  0.51547359  0.12012857  0.39300484  1
  Mo  Mo198  1  0.70548588  0.89962545  0.36171048  1
  Mo  Mo199  1  0.50328470  0.09923473  0.86885559  1
