# generated using pymatgen
data_HfZrTaTiMo
_symmetry_space_group_name_H-M   'P 1'
_cell_length_a   15.21127887
_cell_length_b   15.21205047
_cell_length_c   16.84121072
_cell_angle_alpha   90.03324964
_cell_angle_beta   90.00404451
_cell_angle_gamma   90.00074355
_symmetry_Int_Tables_number   1
_chemical_formula_structural   HfZrTaTiMo
_chemical_formula_sum   'Hf40 Zr40 Ta40 Ti40 Mo40'
_cell_volume   3896.96694284
_cell_formula_units_Z   40
loop_
 _symmetry_equiv_pos_site_id
 _symmetry_equiv_pos_as_xyz
  1  'x, y, z'
loop_
 _atom_site_type_symbol
 _atom_site_label
 _atom_site_symmetry_multiplicity
 _atom_site_fract_x
 _atom_site_fract_y
 _atom_site_fract_z
 _atom_site_occupancy
  Hf  Hf0  1  0.09014019  0.10709271  0.62662552  1
  Hf  Hf1  1  0.58833724  0.01436968  -0.00722535  1
  Hf  Hf2  1  0.61382366  0.79277639  0.23948647  1
  Hf  Hf3  1  0.58908293  0.79942597  0.50218910  1
  Hf  Hf4  1  0.50024287  0.30441414  0.63265187  1
  Hf  Hf5  1  0.49245821  0.69486535  0.64279006  1
  Hf  Hf6  1  -0.00292756  0.59543457  -0.01228191  1
  Hf  Hf7  1  0.28314351  0.69952411  0.63721508  1
  Hf  Hf8  1  0.10177604  0.49629732  0.11740887  1
  Hf  Hf9  1  0.61022181  0.40810313  -0.00378962  1
  Hf  Hf10  1  0.49891373  0.09494912  0.62194498  1
  Hf  Hf11  1  0.90427793  0.30717098  0.12359243  1
  Hf  Hf12  1  0.11459379  0.70932271  0.88658384  1
  Hf  Hf13  1  0.40499184  0.79574338  -0.00220181  1
  Hf  Hf14  1  0.49688767  0.89709227  0.64149970  1
  Hf  Hf15  1  0.60879371  0.20997369  0.75256869  1
  Hf  Hf16  1  0.20255586  0.17225896  0.24263429  1
  Hf  Hf17  1  0.60531053  0.21176819  0.50358541  1
  Hf  Hf18  1  0.30197025  0.69106915  0.87668502  1
  Hf  Hf19  1  0.69141486  0.90854021  0.38426861  1
  Hf  Hf20  1  0.51145716  0.30287242  0.37505020  1
  Hf  Hf21  1  0.19191500  0.79775381  0.26054641  1
  Hf  Hf22  1  0.79600816  0.20767465  -0.00121431  1
  Hf  Hf23  1  0.40812042  0.19961214  0.23341527  1
  Hf  Hf24  1  0.79680570  0.39614288  0.25999461  1
  Hf  Hf25  1  0.89053232  0.91036981  0.88029129  1
  Hf  Hf26  1  -0.00295049  0.39898887  -0.01236340  1
  Hf  Hf27  1  0.20242829  0.59349863  0.24982211  1
  Hf  Hf28  1  0.01186750  0.80490660  0.75229334  1
  Hf  Hf29  1  0.40124913  0.39775763  0.50283954  1
  Hf  Hf30  1  0.81302487  0.19360272  0.75263745  1
  Hf  Hf31  1  0.38984129  0.38047767  0.77075754  1
  Hf  Hf32  1  0.41581937  0.18712169  0.00030526  1
  Hf  Hf33  1  0.79562061  0.61188005  0.24575035  1
  Hf  Hf34  1  0.60563605  0.19634310  0.24482530  1
  Hf  Hf35  1  -0.01152586  0.00931199  0.75122282  1
  Hf  Hf36  1  0.11014304  0.70498594  0.11272036  1
  Hf  Hf37  1  0.20401672  0.21084373  0.75180178  1
  Hf  Hf38  1  0.89386178  0.70254472  0.87245742  1
  Hf  Hf39  1  0.78989005  0.79741681  0.01278686  1
  Zr  Zr40  1  0.19958110  0.39188552  0.24930994  1
  Zr  Zr41  1  0.40548486  0.40786094  0.23984863  1
  Zr  Zr42  1  0.81453370  0.79457677  0.50992898  1
  Zr  Zr43  1  0.30045985  0.30342533  0.10652181  1
  Zr  Zr44  1  -0.00452559  -0.00051926  0.25157561  1
  Zr  Zr45  1  0.38302782  0.01135611  0.25543574  1
  Zr  Zr46  1  0.30474573  0.28983492  0.36971744  1
  Zr  Zr47  1  0.90091679  0.48865958  0.62362199  1
  Zr  Zr48  1  0.80136917  0.59064669  0.73869255  1
  Zr  Zr49  1  0.79084388  0.39072667  0.48929360  1
  Zr  Zr50  1  0.38763981  0.57734929  0.75764800  1
  Zr  Zr51  1  0.79284880  0.59796336  0.51275524  1
  Zr  Zr52  1  0.19678267  0.19758046  0.50066737  1
  Zr  Zr53  1  0.70667550  0.11152967  0.38536329  1
  Zr  Zr54  1  0.39019809  0.79794862  0.50068548  1
  Zr  Zr55  1  0.00443607  0.39565667  0.76367370  1
  Zr  Zr56  1  0.00143955  0.81092780  -0.00336619  1
  Zr  Zr57  1  0.29821669  0.08860280  0.86610577  1
  Zr  Zr58  1  0.80735842  0.19667580  0.24484317  1
  Zr  Zr59  1  0.91306718  0.28597219  0.62641728  1
  Zr  Zr60  1  0.38617480  -0.00735078  0.00220389  1
  Zr  Zr61  1  0.21053216  0.00033790  0.50337169  1
  Zr  Zr62  1  0.90511646  0.51493922  0.37829621  1
  Zr  Zr63  1  0.69248808  0.90143015  0.86748965  1
  Zr  Zr64  1  0.68133926  0.50244149  0.36816513  1
  Zr  Zr65  1  0.68776273  0.50554489  0.13379928  1
  Zr  Zr66  1  0.09953027  0.50968467  0.62516018  1
  Zr  Zr67  1  0.50391336  0.71080177  0.85590593  1
  Zr  Zr68  1  0.70211971  0.69818916  0.86121676  1
  Zr  Zr69  1  0.50696190  0.91410588  0.14419976  1
  Zr  Zr70  1  0.59587520  0.80636498  0.01081548  1
  Zr  Zr71  1  0.20263671  0.39939948  0.49474000  1
  Zr  Zr72  1  0.69792004  0.91268264  0.61966253  1
  Zr  Zr73  1  0.78753370  0.00286929  0.24738439  1
  Zr  Zr74  1  0.19802920  0.17596867  0.00597223  1
  Zr  Zr75  1  0.29513583  0.89061539  0.13575513  1
  Zr  Zr76  1  0.70114912  0.70101214  0.38152833  1
  Zr  Zr77  1  0.19915873  0.60304083  0.49364428  1
  Zr  Zr78  1  0.10300851  0.91575545  0.12497953  1
  Zr  Zr79  1  0.81988000  0.80686237  0.24545163  1
  Ta  Ta80  1  0.59730570  0.41086804  0.50439970  1
  Ta  Ta81  1  0.90402003  0.29126804  0.37485077  1
  Ta  Ta82  1  0.60029754  0.60876652  -0.00314515  1
  Ta  Ta83  1  0.40298550  0.60127417  0.24072632  1
  Ta  Ta84  1  0.39511806  0.18678836  0.50197790  1
  Ta  Ta85  1  0.30664951  0.69878670  0.37128015  1
  Ta  Ta86  1  0.00370699  0.01606428  -0.00090170  1
  Ta  Ta87  1  0.59889348  0.01487964  0.75557560  1
  Ta  Ta88  1  0.87606864  0.48940147  0.87281704  1
  Ta  Ta89  1  0.09186518  0.28620442  0.37105016  1
  Ta  Ta90  1  0.90526675  0.69628667  0.11921610  1
  Ta  Ta91  1  0.00511426  0.19878532  0.24655337  1
  Ta  Ta92  1  0.50282337  0.09174259  0.38189534  1
  Ta  Ta93  1  0.69084776  0.70291399  0.63717579  1
  Ta  Ta94  1  0.49614656  0.89534486  0.36016614  1
  Ta  Ta95  1  0.29954632  0.90180390  0.63862352  1
  Ta  Ta96  1  0.49829913  0.69521679  0.36684995  1
  Ta  Ta97  1  0.09000388  0.90360761  0.38348283  1
  Ta  Ta98  1  0.30557264  0.69338641  0.11671915  1
  Ta  Ta99  1  0.00081364  0.61257051  0.24705432  1
  Ta  Ta100  1  0.00388997  0.59851605  0.76604703  1
  Ta  Ta101  1  0.00503348  0.39228758  0.49070115  1
  Ta  Ta102  1  0.19279486  -0.00283990  0.73871317  1
  Ta  Ta103  1  0.49336129  0.50911997  0.37725933  1
  Ta  Ta104  1  0.89998896  0.50190693  0.12741126  1
  Ta  Ta105  1  0.70494325  0.10723585  0.61617834  1
  Ta  Ta106  1  0.10883650  0.91455357  0.87792165  1
  Ta  Ta107  1  0.80803746  0.00483182  0.49850448  1
  Ta  Ta108  1  0.80744035  0.80819893  0.73406300  1
  Ta  Ta109  1  0.19105293  0.79704363  0.49502789  1
  Ta  Ta110  1  0.79169675  0.58990901  0.00376651  1
  Ta  Ta111  1  0.30697719  0.50554710  0.37348586  1
  Ta  Ta112  1  0.00218343  0.20266535  -0.00497678  1
  Ta  Ta113  1  0.70694685  0.30912354  0.63343066  1
  Ta  Ta114  1  0.30395371  0.50273822  0.10268138  1
  Ta  Ta115  1  0.70103491  0.10757274  0.88107891  1
  Ta  Ta116  1  0.10298835  0.30767993  0.62811561  1
  Ta  Ta117  1  0.00100726  0.40208409  0.25508224  1
  Ta  Ta118  1  0.29409989  0.88623631  0.85757069  1
  Ta  Ta119  1  0.51163682  0.29225270  0.88319071  1
  Ti  Ti120  1  0.29721149  0.89941719  0.37077031  1
  Ti  Ti121  1  0.50604524  0.49500354  0.87509186  1
  Ti  Ti122  1  0.18660229  0.59685897  0.75763976  1
  Ti  Ti123  1  0.50420838  0.68713060  0.13060610  1
  Ti  Ti124  1  -0.00035131  0.61576344  0.49945139  1
  Ti  Ti125  1  0.70200252  0.30121577  0.11948651  1
  Ti  Ti126  1  0.41312206  0.58993061  -0.00291008  1
  Ti  Ti127  1  0.10042655  0.89053609  0.61736139  1
  Ti  Ti128  1  0.51023245  0.30596100  0.10713483  1
  Ti  Ti129  1  0.20138211  0.40906581  0.75861436  1
  Ti  Ti130  1  0.90056371  0.10089071  0.11464465  1
  Ti  Ti131  1  0.09411775  0.10525647  0.86700217  1
  Ti  Ti132  1  0.40696516  0.18612769  0.75808478  1
  Ti  Ti133  1  0.40574617  -0.00692661  0.49492761  1
  Ti  Ti134  1  0.71274808  0.32245088  0.86918480  1
  Ti  Ti135  1  0.49580539  0.49562338  0.63356335  1
  Ti  Ti136  1  0.39918071  0.59774463  0.50503793  1
  Ti  Ti137  1  0.29854144  0.48992928  0.62796332  1
  Ti  Ti138  1  0.89681071  0.10088430  0.88449195  1
  Ti  Ti139  1  0.90153293  0.29422504  0.87190027  1
  Ti  Ti140  1  0.91176453  0.90605842  0.61655259  1
  Ti  Ti141  1  0.91812862  0.69997894  0.63281054  1
  Ti  Ti142  1  0.59978294  0.58586276  0.75214085  1
  Ti  Ti143  1  0.81134883  0.20385745  0.49993346  1
  Ti  Ti144  1  0.28430484  0.48663465  0.90059763  1
  Ti  Ti145  1  0.59152532  0.40092841  0.24213447  1
  Ti  Ti146  1  0.58848137  0.59987436  0.51130200  1
  Ti  Ti147  1  0.09886010  0.50001353  0.37374233  1
  Ti  Ti148  1  0.48686194  0.91004207  0.85197753  1
  Ti  Ti149  1  0.68547641  0.49167978  0.63183186  1
  Ti  Ti150  1  0.92568681  0.09801563  0.38839490  1
  Ti  Ti151  1  0.30219107  0.29048133  0.62630285  1
  Ti  Ti152  1  0.90004416  0.09428188  0.61373508  1
  Ti  Ti153  1  0.89609800  0.90949775  0.11503585  1
  Ti  Ti154  1  0.90746895  0.89219636  0.38660480  1
  Ti  Ti155  1  0.11833730  0.30424944  0.88308412  1
  Ti  Ti156  1  0.08518483  0.70383017  0.37324856  1
  Ti  Ti157  1  0.79396076  0.00421392  0.74353576  1
  Ti  Ti158  1  0.68823561  0.09427412  0.11626363  1
  Ti  Ti159  1  0.09749396  0.29526440  0.12223375  1
  Mo  Mo160  1  0.30921004  0.09389039  0.38148110  1
  Mo  Mo161  1  0.50100313  0.10996125  0.12595767  1
  Mo  Mo162  1  -0.00142941  0.79508942  0.24640540  1
  Mo  Mo163  1  0.30521514  0.09978546  0.63631951  1
  Mo  Mo164  1  0.20683648  0.60004501  0.00172871  1
  Mo  Mo165  1  0.00195310  -0.00515212  0.50287343  1
  Mo  Mo166  1  0.09392142  0.70124832  0.62940788  1
  Mo  Mo167  1  0.59338445  0.00312783  0.49875652  1
  Mo  Mo168  1  0.30535423  0.29822725  0.88907086  1
  Mo  Mo169  1  0.91287753  0.70700177  0.37412817  1
  Mo  Mo170  1  0.39435214  0.00418343  0.74889518  1
  Mo  Mo171  1  0.19337022  -0.01074632  -0.00557750  1
  Mo  Mo172  1  0.70571840  0.91205534  0.12066596  1
  Mo  Mo173  1  0.69449408  0.50390881  0.87416063  1
  Mo  Mo174  1  0.59521477  0.40516605  0.75732462  1
  Mo  Mo175  1  0.59451083  0.00686092  0.25215964  1
  Mo  Mo176  1  0.70067586  0.69900764  0.12148324  1
  Mo  Mo177  1  0.08724368  0.10408237  0.12310457  1
  Mo  Mo178  1  0.19293229  0.80217051  0.74704892  1
  Mo  Mo179  1  0.80389375  0.40726450  0.00359127  1
  Mo  Mo180  1  0.10235422  0.09472741  0.37750209  1
  Mo  Mo181  1  0.60876817  0.20619507  -0.00346648  1
  Mo  Mo182  1  0.00053334  0.20001582  0.49623853  1
  Mo  Mo183  1  0.50761525  0.09878967  0.86596600  1
  Mo  Mo184  1  0.79021090  0.39181426  0.74758651  1
  Mo  Mo185  1  0.39220524  0.79858727  0.75015095  1
  Mo  Mo186  1  0.10125401  0.50258927  0.87699414  1
  Mo  Mo187  1  0.00789693  0.19970974  0.76598671  1
  Mo  Mo188  1  0.00851026  0.79717129  0.50592220  1
  Mo  Mo189  1  0.29095006  0.08542151  0.11955822  1
  Mo  Mo190  1  0.60552441  0.80629441  0.74396731  1
  Mo  Mo191  1  0.70106289  0.30360049  0.37570138  1
  Mo  Mo192  1  0.40507826  0.39712660  -0.01646048  1
  Mo  Mo193  1  0.19369238  0.39252921  0.00024712  1
  Mo  Mo194  1  0.49125105  0.50082724  0.11098961  1
  Mo  Mo195  1  0.21559458  0.81048989  -0.00152203  1
  Mo  Mo196  1  0.79734399  0.00452473  0.00876505  1
  Mo  Mo197  1  0.39954900  0.79073011  0.25757778  1
  Mo  Mo198  1  0.58497513  0.59551819  0.24714913  1
  Mo  Mo199  1  0.19038241  -0.00244129  0.26837742  1
