# generated using pymatgen
data_HfZrTaTiMo
_symmetry_space_group_name_H-M   'P 1'
_cell_length_a   15.21834424
_cell_length_b   15.21036332
_cell_length_c   16.84731463
_cell_angle_alpha   89.99352984
_cell_angle_beta   89.99419968
_cell_angle_gamma   89.91946366
_symmetry_Int_Tables_number   1
_chemical_formula_structural   HfZrTaTiMo
_chemical_formula_sum   'Hf40 Zr40 Ta40 Ti40 Mo40'
_cell_volume   3899.75428592
_cell_formula_units_Z   40
loop_
 _symmetry_equiv_pos_site_id
 _symmetry_equiv_pos_as_xyz
  1  'x, y, z'
loop_
 _atom_site_type_symbol
 _atom_site_label
 _atom_site_symmetry_multiplicity
 _atom_site_fract_x
 _atom_site_fract_y
 _atom_site_fract_z
 _atom_site_occupancy
  Hf  Hf0  1  0.40401649  -0.00159037  0.24773269  1
  Hf  Hf1  1  0.69467506  0.49755540  0.64366385  1
  Hf  Hf2  1  -0.00066305  0.19822173  0.49430781  1
  Hf  Hf3  1  0.59646724  -0.00253994  0.73617731  1
  Hf  Hf4  1  0.10830601  0.30107917  0.12077088  1
  Hf  Hf5  1  0.69616563  0.10540210  0.61277733  1
  Hf  Hf6  1  0.81791482  0.82370163  0.72361226  1
  Hf  Hf7  1  0.39446671  0.60428361  0.24197393  1
  Hf  Hf8  1  0.28908927  0.69862288  0.37912619  1
  Hf  Hf9  1  0.80605640  -0.01930349  0.00968672  1
  Hf  Hf10  1  0.11500466  0.70237196  0.63420109  1
  Hf  Hf11  1  0.00387396  0.19731735  0.00395403  1
  Hf  Hf12  1  0.00259012  0.60269508  -0.00956351  1
  Hf  Hf13  1  0.81461867  0.59647537  0.52059474  1
  Hf  Hf14  1  0.30972558  0.89705799  0.88087445  1
  Hf  Hf15  1  0.19490345  0.79052414  -0.01055747  1
  Hf  Hf16  1  0.49312992  0.70978070  0.39101406  1
  Hf  Hf17  1  0.88368491  0.30466863  0.63187866  1
  Hf  Hf18  1  0.41023136  0.58453432  0.77177561  1
  Hf  Hf19  1  0.69976369  0.70313368  0.85239058  1
  Hf  Hf20  1  0.31163324  0.89141781  0.62368520  1
  Hf  Hf21  1  0.10039846  0.29850524  0.86606864  1
  Hf  Hf22  1  0.48979568  0.69046859  0.62525194  1
  Hf  Hf23  1  0.49783279  0.71639375  0.88130322  1
  Hf  Hf24  1  0.38966397  0.39096829  0.23290268  1
  Hf  Hf25  1  0.19939878  -0.00791073  0.74591222  1
  Hf  Hf26  1  0.68235064  0.30689964  0.62738237  1
  Hf  Hf27  1  0.39486837  0.19398254  0.23487576  1
  Hf  Hf28  1  0.89912671  0.08831654  0.62135491  1
  Hf  Hf29  1  0.79104916  0.19218523  0.75331498  1
  Hf  Hf30  1  0.51304429  0.49787842  0.37118074  1
  Hf  Hf31  1  0.09952600  0.29711686  0.63321072  1
  Hf  Hf32  1  0.11616296  0.10022419  0.37179200  1
  Hf  Hf33  1  0.27069830  0.50378516  0.11825756  1
  Hf  Hf34  1  0.50304984  0.71223806  0.10687400  1
  Hf  Hf35  1  0.89857010  0.89575009  0.14537920  1
  Hf  Hf36  1  0.57666405  0.19522072  0.74878078  1
  Hf  Hf37  1  0.68220145  0.09960155  0.88039422  1
  Hf  Hf38  1  0.72110807  0.50914211  0.11697775  1
  Hf  Hf39  1  0.10069562  0.09459763  0.87242687  1
  Zr  Zr40  1  0.57431403  0.41665840  0.76207576  1
  Zr  Zr41  1  0.59838323  0.58137919  0.50777425  1
  Zr  Zr42  1  0.58659188  0.20229368  0.01892277  1
  Zr  Zr43  1  0.69315733  0.88385546  0.38291641  1
  Zr  Zr44  1  0.60603776  0.40073155  0.23821290  1
  Zr  Zr45  1  0.70743320  0.09004066  0.13387518  1
  Zr  Zr46  1  0.21005304  0.00621759  0.50629781  1
  Zr  Zr47  1  0.89813461  0.32204388  0.13129817  1
  Zr  Zr48  1  0.48643213  0.28909742  0.87642014  1
  Zr  Zr49  1  0.89716965  0.08118209  0.87103483  1
  Zr  Zr50  1  0.79719142  0.20062060  0.00316301  1
  Zr  Zr51  1  0.39849880  0.40315305  0.00486642  1
  Zr  Zr52  1  0.11904313  0.49827343  0.63427238  1
  Zr  Zr53  1  0.62928962  0.80489827  0.00202229  1
  Zr  Zr54  1  0.00561759  0.60625204  0.51281844  1
  Zr  Zr55  1  0.79096976  0.21024869  0.47828770  1
  Zr  Zr56  1  0.79545857  0.21195123  0.26664077  1
  Zr  Zr57  1  0.50784382  0.92014579  0.88057474  1
  Zr  Zr58  1  0.80050645  0.00689008  0.27835418  1
  Zr  Zr59  1  0.18048150  0.39487808  0.25873982  1
  Zr  Zr60  1  0.31091874  0.89677240  0.38289976  1
  Zr  Zr61  1  0.81000387  0.00858237  0.47126426  1
  Zr  Zr62  1  0.40746176  0.39443521  0.49790253  1
  Zr  Zr63  1  0.39965435  0.80140942  0.24122228  1
  Zr  Zr64  1  0.61179147  0.61408729  0.24749273  1
  Zr  Zr65  1  0.81538784  0.60290289  0.73685020  1
  Zr  Zr66  1  0.50214407  0.50980820  0.11535848  1
  Zr  Zr67  1  0.08706174  0.50210776  0.37707360  1
  Zr  Zr68  1  0.00552148  -0.00866178  0.26262843  1
  Zr  Zr69  1  0.72236928  0.90388731  0.86165327  1
  Zr  Zr70  1  0.31662901  0.10088563  0.86936076  1
  Zr  Zr71  1  0.10838344  0.88299637  0.38055473  1
  Zr  Zr72  1  -0.01154370  0.40417939  0.50962761  1
  Zr  Zr73  1  0.29911375  0.29946073  0.63305057  1
  Zr  Zr74  1  0.30363812  0.49951387  0.37294885  1
  Zr  Zr75  1  0.38295315  0.20339700  0.01903359  1
  Zr  Zr76  1  0.90567642  0.72399101  0.86918205  1
  Zr  Zr77  1  0.71341135  0.68806962  0.38997197  1
  Zr  Zr78  1  0.89796312  0.30161703  0.87190393  1
  Zr  Zr79  1  0.49161365  0.28857519  0.36814982  1
  Ta  Ta80  1  0.20282671  0.79478309  0.76206937  1
  Ta  Ta81  1  0.21030900  -0.00528161  0.24542698  1
  Ta  Ta82  1  0.89877101  0.50378145  0.86855609  1
  Ta  Ta83  1  0.38782338  0.60927893  -0.01481946  1
  Ta  Ta84  1  0.00895657  0.21238658  0.25559402  1
  Ta  Ta85  1  0.00381444  -0.00474207  0.01270447  1
  Ta  Ta86  1  0.19696229  0.39179090  -0.00992699  1
  Ta  Ta87  1  0.81356682  0.79572693  0.51562065  1
  Ta  Ta88  1  0.08717347  0.89638066  0.87625977  1
  Ta  Ta89  1  0.70411084  0.91059729  0.60805179  1
  Ta  Ta90  1  0.19663266  0.00246321  0.00116153  1
  Ta  Ta91  1  0.10045831  0.09604605  0.13278530  1
  Ta  Ta92  1  0.32073408  0.50253404  0.62691487  1
  Ta  Ta93  1  0.29444344  0.70126632  0.11245098  1
  Ta  Ta94  1  0.19862603  0.39248321  0.49096952  1
  Ta  Ta95  1  0.90899512  0.10377118  0.13823761  1
  Ta  Ta96  1  0.89036075  0.69368946  0.11920981  1
  Ta  Ta97  1  0.00437130  0.77263199  0.24374274  1
  Ta  Ta98  1  0.81507958  0.59277107  0.25009533  1
  Ta  Ta99  1  0.10031982  0.68785867  0.11802499  1
  Ta  Ta100  1  0.69568580  0.70697712  0.62769922  1
  Ta  Ta101  1  0.59484238  0.00809745  0.48829023  1
  Ta  Ta102  1  0.00004550  0.19215521  0.74414864  1
  Ta  Ta103  1  0.01397573  0.60565976  0.75345069  1
  Ta  Ta104  1  -0.00778315  0.40714408  0.74688774  1
  Ta  Ta105  1  0.28519350  0.09610969  0.12146664  1
  Ta  Ta106  1  0.09798294  0.90181304  0.61982761  1
  Ta  Ta107  1  0.20385517  0.20500567  0.49576512  1
  Ta  Ta108  1  -0.00658794  0.80657194  0.00822477  1
  Ta  Ta109  1  0.19803471  0.79715871  0.23869184  1
  Ta  Ta110  1  0.59104969  0.19405284  0.23853040  1
  Ta  Ta111  1  0.18590948  0.60879852  0.24555594  1
  Ta  Ta112  1  0.69488435  0.30666510  0.87291263  1
  Ta  Ta113  1  0.90479868  0.86185621  0.37299644  1
  Ta  Ta114  1  0.60760159  0.40255838  -0.00360441  1
  Ta  Ta115  1  0.57861182  0.20643559  0.50124063  1
  Ta  Ta116  1  0.70172832  0.50403264  0.86762094  1
  Ta  Ta117  1  0.70161413  0.88719768  0.14527587  1
  Ta  Ta118  1  0.79752231  0.61341467  -0.01106405  1
  Ta  Ta119  1  0.59455220  0.00089935  0.26648587  1
  Ti  Ti120  1  0.30292491  0.69199344  0.62907170  1
  Ti  Ti121  1  0.21080292  0.59216463  0.50393740  1
  Ti  Ti122  1  0.79697765  0.77924645  0.25495687  1
  Ti  Ti123  1  0.90592358  0.32028670  0.36679233  1
  Ti  Ti124  1  0.59657721  0.80410882  0.73407903  1
  Ti  Ti125  1  0.21248411  0.41072243  0.75930439  1
  Ti  Ti126  1  0.20286280  0.79117288  0.50665385  1
  Ti  Ti127  1  0.01002958  0.80656045  0.74173737  1
  Ti  Ti128  1  0.30345162  0.10006939  0.63351619  1
  Ti  Ti129  1  0.40738265  0.00552817  0.01248444  1
  Ti  Ti130  1  0.09930078  0.49690364  0.86693363  1
  Ti  Ti131  1  0.29539993  0.29744597  0.86687804  1
  Ti  Ti132  1  0.68621186  0.32087453  0.37599301  1
  Ti  Ti133  1  -0.00013354  -0.00731407  0.48567979  1
  Ti  Ti134  1  0.20010749  0.19454335  0.74752461  1
  Ti  Ti135  1  0.19666151  0.59388135  -0.02206157  1
  Ti  Ti136  1  0.48533076  0.30658186  0.63148477  1
  Ti  Ti137  1  0.78550829  0.40961555  0.49711737  1
  Ti  Ti138  1  0.30134580  0.89689198  0.11194156  1
  Ti  Ti139  1  -0.00200041  0.58182759  0.23571818  1
  Ti  Ti140  1  -0.01020954  -0.00941615  0.74235829  1
  Ti  Ti141  1  0.41315595  -0.00969065  0.49590496  1
  Ti  Ti142  1  0.40243597  0.80556655  0.74977830  1
  Ti  Ti143  1  0.80350317  0.41097304  -0.00986896  1
  Ti  Ti144  1  0.89006419  0.50611383  0.37508155  1
  Ti  Ti145  1  0.48506066  0.09437107  0.61975389  1
  Ti  Ti146  1  0.60296862  0.00533210  0.01203491  1
  Ti  Ti147  1  0.50839371  0.90701660  0.12123696  1
  Ti  Ti148  1  0.59383559  0.80409416  0.25244887  1
  Ti  Ti149  1  -0.00066984  0.79478082  0.50913237  1
  Ti  Ti150  1  0.08958151  0.69716801  0.37401283  1
  Ti  Ti151  1  0.00125830  0.40960664  -0.00374601  1
  Ti  Ti152  1  0.58842664  0.80964217  0.51407879  1
  Ti  Ti153  1  0.10642049  0.89514782  0.12572293  1
  Ti  Ti154  1  0.38682486  0.18484714  0.49229930  1
  Ti  Ti155  1  0.60436551  0.59958565  -0.00920165  1
  Ti  Ti156  1  0.20797310  0.20019881  0.25524413  1
  Ti  Ti157  1  0.21475302  0.60452824  0.77204095  1
  Ti  Ti158  1  0.70167104  0.30620240  0.12494153  1
  Ti  Ti159  1  0.10122670  0.09726241  0.62294185  1
  Mo  Mo160  1  0.92418929  0.12373612  0.36866430  1
  Mo  Mo161  1  0.19286917  0.19389731  -0.00220210  1
  Mo  Mo162  1  0.80876640  0.79761966  0.00513369  1
  Mo  Mo163  1  0.39032691  0.39810790  0.75866838  1
  Mo  Mo164  1  0.10091484  0.70206228  0.86688602  1
  Mo  Mo165  1  0.49156556  0.09380352  0.37807539  1
  Mo  Mo166  1  0.09094547  0.29490262  0.37783006  1
  Mo  Mo167  1  0.80030300  0.41224363  0.25717976  1
  Mo  Mo168  1  0.90586691  0.50719593  0.11255686  1
  Mo  Mo169  1  0.91216190  0.68927058  0.37273405  1
  Mo  Mo170  1  0.50672758  0.50531334  0.89551177  1
  Mo  Mo171  1  -0.01418877  0.40785455  0.25018060  1
  Mo  Mo172  1  0.90523075  0.49484511  0.63841566  1
  Mo  Mo173  1  0.40017897  0.80931596  0.00953946  1
  Mo  Mo174  1  0.91317508  0.90748766  0.60674075  1
  Mo  Mo175  1  0.91464340  0.70605835  0.63344032  1
  Mo  Mo176  1  0.39711137  0.79501771  0.50870182  1
  Mo  Mo177  1  0.50296157  0.89474172  0.38025910  1
  Mo  Mo178  1  0.29457724  0.49045375  0.88300324  1
  Mo  Mo179  1  0.91398140  0.90661354  0.87462357  1
  Mo  Mo180  1  0.30762943  0.10500852  0.37394499  1
  Mo  Mo181  1  0.40546516  0.00126467  0.74018132  1
  Mo  Mo182  1  0.49594098  0.09338408  0.88019725  1
  Mo  Mo183  1  0.28808585  0.28807713  0.37756998  1
  Mo  Mo184  1  0.79809243  0.00392836  0.73706574  1
  Mo  Mo185  1  0.50459885  0.90071516  0.62145857  1
  Mo  Mo186  1  0.08966133  0.49889205  0.11504223  1
  Mo  Mo187  1  0.79541631  0.39835760  0.76341576  1
  Mo  Mo188  1  0.49818580  0.08703994  0.12917869  1
  Mo  Mo189  1  0.28731453  0.29785391  0.12236128  1
  Mo  Mo190  1  0.50510821  0.30171759  0.12729943  1
  Mo  Mo191  1  0.60213251  0.38962367  0.50302398  1
  Mo  Mo192  1  0.60012670  0.61401280  0.75136968  1
  Mo  Mo193  1  0.66799066  0.12405240  0.37633046  1
  Mo  Mo194  1  0.70663520  0.70282821  0.12870352  1
  Mo  Mo195  1  0.30348140  0.70350138  0.87637098  1
  Mo  Mo196  1  0.71046151  0.49463809  0.37686086  1
  Mo  Mo197  1  0.49553008  0.49170843  0.62686983  1
  Mo  Mo198  1  0.39371842  0.19375665  0.74344794  1
  Mo  Mo199  1  0.39145483  0.60023963  0.50347965  1
