# generated using pymatgen
data_HfZrTaTiMo
_symmetry_space_group_name_H-M   'P 1'
_cell_length_a   15.21121273
_cell_length_b   15.21341447
_cell_length_c   16.86459036
_cell_angle_alpha   90.06201252
_cell_angle_beta   90.06775384
_cell_angle_gamma   90.07955779
_symmetry_Int_Tables_number   1
_chemical_formula_structural   HfZrTaTiMo
_chemical_formula_sum   'Hf40 Zr40 Ta40 Ti40 Mo40'
_cell_volume   3902.70169192
_cell_formula_units_Z   40
loop_
 _symmetry_equiv_pos_site_id
 _symmetry_equiv_pos_as_xyz
  1  'x, y, z'
loop_
 _atom_site_type_symbol
 _atom_site_label
 _atom_site_symmetry_multiplicity
 _atom_site_fract_x
 _atom_site_fract_y
 _atom_site_fract_z
 _atom_site_occupancy
  Hf  Hf0  1  0.00382161  0.39508496  0.50757248  1
  Hf  Hf1  1  0.69897620  0.50792985  0.88353745  1
  Hf  Hf2  1  0.79473917  0.59931976  0.74724258  1
  Hf  Hf3  1  0.10343529  0.30921478  0.37558085  1
  Hf  Hf4  1  0.80953569  0.59122593  0.01646718  1
  Hf  Hf5  1  0.40601273  0.78707928  0.75599469  1
  Hf  Hf6  1  0.38943166  0.60334863  0.26218172  1
  Hf  Hf7  1  0.09108870  0.90313216  0.64186058  1
  Hf  Hf8  1  0.38589627  0.01343044  0.51198425  1
  Hf  Hf9  1  0.70963973  0.70904280  0.62053884  1
  Hf  Hf10  1  0.79555037  0.20407936  0.74486482  1
  Hf  Hf11  1  -0.00714415  0.79885632  0.00931240  1
  Hf  Hf12  1  0.30304373  0.10921108  0.37576079  1
  Hf  Hf13  1  0.29748670  0.68575598  0.88118939  1
  Hf  Hf14  1  0.51961974  0.11179095  0.36751615  1
  Hf  Hf15  1  0.30837163  0.31552803  0.85701913  1
  Hf  Hf16  1  0.50801025  0.30559549  0.14207550  1
  Hf  Hf17  1  0.19950083  0.20177385  -0.01434290  1
  Hf  Hf18  1  0.28902991  0.50013830  0.38841637  1
  Hf  Hf19  1  0.58865649  0.58959286  0.25606121  1
  Hf  Hf20  1  0.00546848  0.59899799  0.51470084  1
  Hf  Hf21  1  0.31090415  0.49252266  0.60832440  1
  Hf  Hf22  1  0.69750843  0.12668081  0.60857754  1
  Hf  Hf23  1  0.59861161  0.79232863  0.48551360  1
  Hf  Hf24  1  0.30115551  0.90501725  0.11893927  1
  Hf  Hf25  1  0.59520383  0.39470407  0.00033172  1
  Hf  Hf26  1  0.49947695  0.10199923  0.13742821  1
  Hf  Hf27  1  0.90050899  0.48993974  0.87305188  1
  Hf  Hf28  1  0.47373176  0.49853681  0.88874549  1
  Hf  Hf29  1  0.10008935  0.51880021  0.86746248  1
  Hf  Hf30  1  0.19790653  0.60622700  0.72961577  1
  Hf  Hf31  1  -0.01185893  0.79414888  0.50106508  1
  Hf  Hf32  1  0.51036412  0.90270754  0.86663101  1
  Hf  Hf33  1  0.31198283  0.71160476  0.61250479  1
  Hf  Hf34  1  0.69918782  0.48144161  0.36945145  1
  Hf  Hf35  1  0.48881623  0.11489971  0.62080258  1
  Hf  Hf36  1  0.39969941  0.00795757  -0.00752465  1
  Hf  Hf37  1  0.10436698  0.28355337  0.63446712  1
  Hf  Hf38  1  0.80319074  -0.00266051  0.50611323  1
  Hf  Hf39  1  -0.01009107  0.82037612  0.24302246  1
  Zr  Zr40  1  0.09546225  0.91960488  0.11965783  1
  Zr  Zr41  1  0.21233951  0.21478500  0.25544339  1
  Zr  Zr42  1  0.39732762  -0.00347746  0.74522863  1
  Zr  Zr43  1  0.49441479  0.88860425  0.61747170  1
  Zr  Zr44  1  0.39466259  0.00207418  0.24775816  1
  Zr  Zr45  1  0.21117931  0.20214598  0.50104954  1
  Zr  Zr46  1  0.00070560  0.21509094  -0.01081825  1
  Zr  Zr47  1  0.58973334  0.80072573  0.26140560  1
  Zr  Zr48  1  0.80396415  0.60679627  0.49514658  1
  Zr  Zr49  1  0.80707314  0.17965204  0.25351282  1
  Zr  Zr50  1  0.60029352  0.60667999  0.00510904  1
  Zr  Zr51  1  -0.01790905  -0.00598033  0.76238165  1
  Zr  Zr52  1  0.10345998  0.69276432  0.14542126  1
  Zr  Zr53  1  0.48954367  0.90618635  0.38379411  1
  Zr  Zr54  1  0.49555906  0.70144198  0.12126773  1
  Zr  Zr55  1  0.71426492  0.08792088  0.11822659  1
  Zr  Zr56  1  0.30219202  0.70527463  0.12130830  1
  Zr  Zr57  1  0.92093778  0.07970376  0.11645328  1
  Zr  Zr58  1  0.18372997  0.00964313  0.51031584  1
  Zr  Zr59  1  0.01336941  0.19113991  0.25105642  1
  Zr  Zr60  1  0.87958358  0.10782262  0.89097676  1
  Zr  Zr61  1  0.60680146  0.41171810  0.75559739  1
  Zr  Zr62  1  -0.00974938  0.20860935  0.76242556  1
  Zr  Zr63  1  0.52188758  0.30627394  0.62998487  1
  Zr  Zr64  1  0.10342270  0.70077659  0.36360874  1
  Zr  Zr65  1  0.20886288  0.40719175  -0.00605426  1
  Zr  Zr66  1  0.90686136  0.49094857  0.37224062  1
  Zr  Zr67  1  0.68501069  0.08530599  0.87676911  1
  Zr  Zr68  1  0.28678622  0.90052416  0.38052545  1
  Zr  Zr69  1  -0.00167282  0.61153116  0.72719500  1
  Zr  Zr70  1  0.40198180  0.21146833  -0.00517583  1
  Zr  Zr71  1  0.00460797  0.41726360  0.01561973  1
  Zr  Zr72  1  0.40250010  0.58385763  0.74434910  1
  Zr  Zr73  1  0.59875955  0.19355348  -0.00321414  1
  Zr  Zr74  1  0.31939098  0.28687843  0.64035935  1
  Zr  Zr75  1  0.72249877  0.29741887  0.88299483  1
  Zr  Zr76  1  0.78496223  -0.00581988  0.74025653  1
  Zr  Zr77  1  0.60078632  -0.01628061  0.00493665  1
  Zr  Zr78  1  0.17669821  0.01440183  0.25153523  1
  Zr  Zr79  1  0.79447176  0.78399073  -0.00526850  1
  Ta  Ta80  1  0.68973369  0.48857641  0.13418610  1
  Ta  Ta81  1  0.89297476  0.28984791  0.61242894  1
  Ta  Ta82  1  0.19495456  0.80127762  -0.00690091  1
  Ta  Ta83  1  0.18845908  0.60179435  0.00385957  1
  Ta  Ta84  1  0.40600070  0.80409999  -0.01067285  1
  Ta  Ta85  1  0.42251037  0.22965491  0.47888850  1
  Ta  Ta86  1  0.30171792  0.10344292  0.85833636  1
  Ta  Ta87  1  0.09410651  0.88308276  0.86862732  1
  Ta  Ta88  1  0.28840676  0.50599167  0.13017762  1
  Ta  Ta89  1  0.11432705  0.30007275  0.12734008  1
  Ta  Ta90  1  0.30176393  0.70664459  0.39068605  1
  Ta  Ta91  1  0.88626385  0.87759689  0.62540896  1
  Ta  Ta92  1  0.59887933  0.00847522  0.49991802  1
  Ta  Ta93  1  0.80679501  0.39047142  0.02012493  1
  Ta  Ta94  1  0.80163616  0.38762853  0.24355023  1
  Ta  Ta95  1  0.90199611  0.69696516  0.35806258  1
  Ta  Ta96  1  0.70273542  0.29057923  0.13106601  1
  Ta  Ta97  1  0.49337162  0.48943823  0.38678774  1
  Ta  Ta98  1  0.08244898  0.91332492  0.37782481  1
  Ta  Ta99  1  0.70058709  0.69619407  0.14203856  1
  Ta  Ta100  1  0.31065719  0.31374962  0.12596961  1
  Ta  Ta101  1  0.50736096  0.50167211  0.60571514  1
  Ta  Ta102  1  0.51231779  0.69102227  0.61775176  1
  Ta  Ta103  1  0.00726782  -0.00346585  -0.02074110  1
  Ta  Ta104  1  0.50260508  0.89670363  0.12697657  1
  Ta  Ta105  1  0.71151404  0.88760345  0.13734312  1
  Ta  Ta106  1  0.20157773  0.41109677  0.74174063  1
  Ta  Ta107  1  0.18858975  0.80314694  0.50578523  1
  Ta  Ta108  1  0.88937369  0.89362674  0.37800457  1
  Ta  Ta109  1  0.89473984  0.28924674  0.37923645  1
  Ta  Ta110  1  0.50141749  0.29719750  0.86004835  1
  Ta  Ta111  1  0.80168448  0.58839366  0.24498002  1
  Ta  Ta112  1  0.59783644  0.60839082  0.75008332  1
  Ta  Ta113  1  0.70967056  0.70188491  0.36314516  1
  Ta  Ta114  1  0.88556614  0.48769662  0.61922362  1
  Ta  Ta115  1  0.69217325  0.49762848  0.61395406  1
  Ta  Ta116  1  0.19280585  0.60264271  0.51119812  1
  Ta  Ta117  1  0.47801213  0.49656819  0.11855150  1
  Ta  Ta118  1  0.70265279  0.90933481  0.37297354  1
  Ta  Ta119  1  0.28899614  0.11249737  0.12128104  1
  Ti  Ti120  1  0.39849390  0.40537600  0.25841983  1
  Ti  Ti121  1  0.91286882  0.08551645  0.38038676  1
  Ti  Ti122  1  0.29450709  0.89712188  0.87195906  1
  Ti  Ti123  1  0.60439117  0.59610108  0.48429346  1
  Ti  Ti124  1  0.20572775  0.80635643  0.25410381  1
  Ti  Ti125  1  0.91752058  0.69786331  0.87450071  1
  Ti  Ti126  1  0.80922051  -0.02481819  -0.00345499  1
  Ti  Ti127  1  0.10779726  0.09436722  0.85979263  1
  Ti  Ti128  1  0.09507580  0.31865696  0.86159711  1
  Ti  Ti129  1  0.00237724  0.60567885  0.01454008  1
  Ti  Ti130  1  0.20238559  0.41162392  0.25008107  1
  Ti  Ti131  1  0.28838832  0.90058065  0.63301632  1
  Ti  Ti132  1  0.61697915  0.00480346  0.24890126  1
  Ti  Ti133  1  0.26191816  0.09864326  0.66040856  1
  Ti  Ti134  1  0.20144107  0.39553356  0.50660248  1
  Ti  Ti135  1  0.90448326  0.29267848  0.12977455  1
  Ti  Ti136  1  -0.00223614  -0.00372808  0.50948160  1
  Ti  Ti137  1  0.80544981  0.39683241  0.74280566  1
  Ti  Ti138  1  0.60577441  0.79733547  0.00165305  1
  Ti  Ti139  1  0.90848385  0.09781855  0.62252433  1
  Ti  Ti140  1  0.61203387  0.79655561  0.74916724  1
  Ti  Ti141  1  -0.00197981  0.40667571  0.73385519  1
  Ti  Ti142  1  0.89418144  0.69994142  0.14286444  1
  Ti  Ti143  1  0.19976846  0.00236249  -0.01307939  1
  Ti  Ti144  1  0.71316816  0.10595250  0.38460237  1
  Ti  Ti145  1  0.00180557  0.40317247  0.23810532  1
  Ti  Ti146  1  0.39768085  0.79972225  0.25750065  1
  Ti  Ti147  1  0.41015343  0.61056375  0.49195883  1
  Ti  Ti148  1  0.40379987  0.21339333  0.25992421  1
  Ti  Ti149  1  0.59670413  0.37949852  0.48962187  1
  Ti  Ti150  1  0.00682522  0.18673343  0.49883229  1
  Ti  Ti151  1  0.81467570  0.79359298  0.76210825  1
  Ti  Ti152  1  0.69261280  0.90012051  0.61545538  1
  Ti  Ti153  1  0.70715698  0.88662159  0.87052652  1
  Ti  Ti154  1  0.60009364  0.19551126  0.75529853  1
  Ti  Ti155  1  0.19226493  0.79469537  0.75291020  1
  Ti  Ti156  1  0.09662070  0.50851544  0.36742223  1
  Ti  Ti157  1  0.59567326  0.00333595  0.73501183  1
  Ti  Ti158  1  0.79027255  0.38233380  0.49626564  1
  Ti  Ti159  1  0.50945060  0.69796974  0.88097656  1
  Mo  Mo160  1  0.49588645  0.10184688  0.86032965  1
  Mo  Mo161  1  -0.00484397  0.79389169  0.75108835  1
  Mo  Mo162  1  0.38338750  0.59607617  0.00387146  1
  Mo  Mo163  1  0.79601998  0.79494867  0.25273202  1
  Mo  Mo164  1  0.39417540  0.80225293  0.50122208  1
  Mo  Mo165  1  0.19219268  0.20396420  0.76787101  1
  Mo  Mo166  1  0.31113907  0.31718592  0.37468799  1
  Mo  Mo167  1  0.11194424  0.10895556  0.10839124  1
  Mo  Mo168  1  0.08524618  0.09904492  0.63905454  1
  Mo  Mo169  1  0.80864994  -0.01362299  0.25758458  1
  Mo  Mo170  1  0.09232658  0.10280622  0.38455389  1
  Mo  Mo171  1  0.80525128  0.20420705  0.01477250  1
  Mo  Mo172  1  0.81582370  0.19812372  0.49012935  1
  Mo  Mo173  1  0.10617653  0.71157922  0.61873501  1
  Mo  Mo174  1  0.40713015  0.40610762  0.74411354  1
  Mo  Mo175  1  0.51434380  0.30978331  0.35511967  1
  Mo  Mo176  1  -0.00407244  0.59349814  0.24710041  1
  Mo  Mo177  1  0.28708117  0.50043145  0.87156523  1
  Mo  Mo178  1  0.61102221  0.19595902  0.24899971  1
  Mo  Mo179  1  0.89967768  0.31652549  0.87671497  1
  Mo  Mo180  1  0.89131058  0.90014420  0.12083564  1
  Mo  Mo181  1  0.89711085  0.89120788  0.87697546  1
  Mo  Mo182  1  -0.01322139  0.00638757  0.25797785  1
  Mo  Mo183  1  0.10470297  0.49794247  0.13745949  1
  Mo  Mo184  1  0.89816176  0.49694763  0.13949305  1
  Mo  Mo185  1  0.40486892  0.40134898  0.49536671  1
  Mo  Mo186  1  0.40648616  0.19731853  0.75497765  1
  Mo  Mo187  1  0.71369054  0.31743915  0.62108823  1
  Mo  Mo188  1  0.49493090  0.69409305  0.38031545  1
  Mo  Mo189  1  0.39838837  0.39907341  0.00548158  1
  Mo  Mo190  1  0.79454805  0.80252918  0.49023057  1
  Mo  Mo191  1  0.69584882  0.70243425  0.86729809  1
  Mo  Mo192  1  0.10273230  0.49041189  0.62345135  1
  Mo  Mo193  1  0.89480384  0.70104725  0.62623631  1
  Mo  Mo194  1  0.20231280  0.59892529  0.26002649  1
  Mo  Mo195  1  0.19537751  -0.01109561  0.76395639  1
  Mo  Mo196  1  0.61221950  0.20727253  0.49031890  1
  Mo  Mo197  1  0.69983526  0.28820894  0.36529497  1
  Mo  Mo198  1  0.59990305  0.39973322  0.24792909  1
  Mo  Mo199  1  0.09925124  0.70253281  0.88006458  1
