# generated using pymatgen
data_HfZrTaTiMo
_symmetry_space_group_name_H-M   'P 1'
_cell_length_a   15.21541888
_cell_length_b   15.20769380
_cell_length_c   16.87237143
_cell_angle_alpha   89.98302112
_cell_angle_beta   89.96445367
_cell_angle_gamma   89.94185159
_symmetry_Int_Tables_number   1
_chemical_formula_structural   HfZrTaTiMo
_chemical_formula_sum   'Hf40 Zr40 Ta40 Ti40 Mo40'
_cell_volume   3904.11924218
_cell_formula_units_Z   40
loop_
 _symmetry_equiv_pos_site_id
 _symmetry_equiv_pos_as_xyz
  1  'x, y, z'
loop_
 _atom_site_type_symbol
 _atom_site_label
 _atom_site_symmetry_multiplicity
 _atom_site_fract_x
 _atom_site_fract_y
 _atom_site_fract_z
 _atom_site_occupancy
  Hf  Hf0  1  0.50766331  0.09794934  0.61952905  1
  Hf  Hf1  1  0.59519515  0.40644905  0.75191674  1
  Hf  Hf2  1  0.80003973  0.41567369  0.75171360  1
  Hf  Hf3  1  0.58466688  0.02278500  -0.00085802  1
  Hf  Hf4  1  0.08701575  0.89899067  0.13404814  1
  Hf  Hf5  1  0.30451361  0.29728005  0.38120584  1
  Hf  Hf6  1  0.39543476  -0.00429166  0.74810501  1
  Hf  Hf7  1  0.40526430  0.81364062  0.24587333  1
  Hf  Hf8  1  0.51945009  0.29141001  0.12285514  1
  Hf  Hf9  1  0.70196165  0.29937385  0.39142838  1
  Hf  Hf10  1  0.90395149  0.29887005  0.86883546  1
  Hf  Hf11  1  0.10272049  0.09082991  0.87227031  1
  Hf  Hf12  1  0.19871993  0.20469095  0.00450691  1
  Hf  Hf13  1  0.49534449  0.90132358  0.88350146  1
  Hf  Hf14  1  0.68059084  0.11705449  0.12359172  1
  Hf  Hf15  1  0.41034844  0.19987623  0.74999908  1
  Hf  Hf16  1  0.11735481  0.31229658  0.62193435  1
  Hf  Hf17  1  0.90489254  0.51717587  0.61735963  1
  Hf  Hf18  1  0.60831943  0.81269262  0.24059724  1
  Hf  Hf19  1  0.19002437  0.57980208  0.75422396  1
  Hf  Hf20  1  0.91129321  0.28157231  0.37716835  1
  Hf  Hf21  1  0.41255251  0.18862829  0.00181321  1
  Hf  Hf22  1  0.90862823  0.51962796  0.88228015  1
  Hf  Hf23  1  0.01612614  0.59401862  0.01573798  1
  Hf  Hf24  1  0.81373001  0.63709532  0.75107431  1
  Hf  Hf25  1  0.67982573  0.90329730  0.61603357  1
  Hf  Hf26  1  0.30101619  0.50278961  0.38453743  1
  Hf  Hf27  1  0.18295622  0.80516684  0.75111295  1
  Hf  Hf28  1  0.00386157  0.19042951  0.52467166  1
  Hf  Hf29  1  0.57687820  0.01034639  0.25176834  1
  Hf  Hf30  1  0.11252444  0.30877205  0.86752016  1
  Hf  Hf31  1  0.79859091  0.19908995  0.74369262  1
  Hf  Hf32  1  0.59822857  0.00186056  0.75741860  1
  Hf  Hf33  1  0.18886321  0.21741397  0.24677091  1
  Hf  Hf34  1  0.89314750  0.48847101  0.12455334  1
  Hf  Hf35  1  0.30304039  0.31857419  0.12735859  1
  Hf  Hf36  1  0.50448889  0.70016126  0.88218452  1
  Hf  Hf37  1  0.00164120  0.18878027  0.73422529  1
  Hf  Hf38  1  0.07531115  0.10117611  0.36800743  1
  Hf  Hf39  1  0.07964940  0.69784374  0.86922138  1
  Zr  Zr40  1  0.11268740  0.69331828  0.36555218  1
  Zr  Zr41  1  0.39165578  0.79192151  0.00385360  1
  Zr  Zr42  1  0.59968057  0.41884556  0.25703693  1
  Zr  Zr43  1  0.71250098  0.71652850  0.89328321  1
  Zr  Zr44  1  0.69402808  0.70439510  0.37393851  1
  Zr  Zr45  1  0.01078415  0.79844926  0.50263227  1
  Zr  Zr46  1  0.78904415  0.59440374  0.25838893  1
  Zr  Zr47  1  0.19777264  0.00063907  0.25835633  1
  Zr  Zr48  1  0.21251220  0.19713307  0.74254501  1
  Zr  Zr49  1  0.30144981  0.49105107  0.61765629  1
  Zr  Zr50  1  0.10344993  0.30867930  0.39267331  1
  Zr  Zr51  1  0.80265684  0.39153575  0.25781412  1
  Zr  Zr52  1  0.20672593  0.18587087  0.50387209  1
  Zr  Zr53  1  0.80783205  0.17941582  0.50878362  1
  Zr  Zr54  1  0.90796180  0.70266820  0.12802049  1
  Zr  Zr55  1  0.41120922  0.18822433  0.25334324  1
  Zr  Zr56  1  -0.00938330  -0.01276569  -0.00886109  1
  Zr  Zr57  1  0.01619601  0.41880390  0.75054490  1
  Zr  Zr58  1  0.50313365  0.50879150  0.62111196  1
  Zr  Zr59  1  0.50699521  0.69350415  0.12552239  1
  Zr  Zr60  1  0.30050207  0.69455245  0.63305941  1
  Zr  Zr61  1  0.29728798  0.09287839  0.12932839  1
  Zr  Zr62  1  0.56295947  0.80548242  0.48820818  1
  Zr  Zr63  1  0.69457209  0.30333743  0.61091483  1
  Zr  Zr64  1  0.69722245  0.70644980  0.60996107  1
  Zr  Zr65  1  0.88200694  0.07899823  0.11570033  1
  Zr  Zr66  1  0.88207956  0.87893681  0.63770245  1
  Zr  Zr67  1  0.50464028  0.29840400  0.88124384  1
  Zr  Zr68  1  -0.02755755  -0.00240681  0.50993693  1
  Zr  Zr69  1  0.18242868  -0.01424492  0.50518987  1
  Zr  Zr70  1  0.01383803  0.58724789  0.24434265  1
  Zr  Zr71  1  0.31333376  0.70317554  0.37371036  1
  Zr  Zr72  1  0.01021073  0.39055825  0.00769034  1
  Zr  Zr73  1  0.81127546  0.81471178  0.24525008  1
  Zr  Zr74  1  0.00693364  -0.01947302  0.74380541  1
  Zr  Zr75  1  0.70089989  0.50768846  0.61082610  1
  Zr  Zr76  1  0.89640494  0.87194921  0.86297738  1
  Zr  Zr77  1  0.02382207  0.38316048  0.23934435  1
  Zr  Zr78  1  0.79813595  0.20591081  -0.00538003  1
  Zr  Zr79  1  0.49119043  0.49332391  0.11524933  1
  Ta  Ta80  1  0.41114572  0.19157051  0.49791735  1
  Ta  Ta81  1  0.69098119  0.11084621  0.87753605  1
  Ta  Ta82  1  0.91168208  0.70739883  0.36480783  1
  Ta  Ta83  1  0.08112879  0.10748728  0.13188443  1
  Ta  Ta84  1  0.91103247  0.27921998  0.12862963  1
  Ta  Ta85  1  0.40330554  -0.01651763  0.50196944  1
  Ta  Ta86  1  0.39960208  0.79895994  0.75564824  1
  Ta  Ta87  1  0.20070082  -0.00275823  0.73875239  1
  Ta  Ta88  1  0.69424766  0.91251369  0.38061639  1
  Ta  Ta89  1  0.39785241  0.40004063  0.25851392  1
  Ta  Ta90  1  0.20533904  0.79817738  0.24770000  1
  Ta  Ta91  1  -0.02879733  -0.00867556  0.25339524  1
  Ta  Ta92  1  0.40875468  0.59723289  0.76022708  1
  Ta  Ta93  1  0.69592337  0.50809872  0.11661623  1
  Ta  Ta94  1  0.77688271  -0.00030217  0.24993316  1
  Ta  Ta95  1  0.20902954  0.60609995  -0.00651966  1
  Ta  Ta96  1  0.70173717  0.30928454  0.87334709  1
  Ta  Ta97  1  0.29627153  0.69734600  0.86671181  1
  Ta  Ta98  1  0.90230591  0.31312291  0.62338259  1
  Ta  Ta99  1  0.10808968  0.49545007  0.39082993  1
  Ta  Ta100  1  0.08337596  0.69238466  0.63199663  1
  Ta  Ta101  1  0.30221881  0.88918199  0.62017611  1
  Ta  Ta102  1  0.50696364  0.30497850  0.38410503  1
  Ta  Ta103  1  0.10162823  0.50142228  0.60404666  1
  Ta  Ta104  1  0.12094039  0.69885044  0.13203059  1
  Ta  Ta105  1  0.00281202  0.19287482  -0.00358069  1
  Ta  Ta106  1  0.80651099  0.60737343  0.48140397  1
  Ta  Ta107  1  0.31891568  0.29740712  0.61376943  1
  Ta  Ta108  1  0.20075255  0.61432248  0.50473924  1
  Ta  Ta109  1  0.08678477  0.89077498  0.36397191  1
  Ta  Ta110  1  0.91203392  0.49315886  0.37992285  1
  Ta  Ta111  1  0.30298940  0.09433746  0.87843315  1
  Ta  Ta112  1  0.38508259  -0.00448644  -0.00104915  1
  Ta  Ta113  1  0.60556520  0.60908704  0.75809396  1
  Ta  Ta114  1  0.60434324  0.20201173  0.74899325  1
  Ta  Ta115  1  0.60489329  0.59965860  -0.00349659  1
  Ta  Ta116  1  0.20565122  0.41602358  0.00082835  1
  Ta  Ta117  1  0.59456246  0.00818080  0.49255767  1
  Ta  Ta118  1  0.29012663  0.89144646  0.12216672  1
  Ta  Ta119  1  0.80663776  0.80883944  0.48409375  1
  Ti  Ti120  1  0.70162919  0.91050843  0.88359529  1
  Ti  Ti121  1  0.30392979  0.68848815  0.13121376  1
  Ti  Ti122  1  0.50654896  0.30305120  0.61293221  1
  Ti  Ti123  1  0.30060198  0.49302199  0.87043321  1
  Ti  Ti124  1  0.69935643  0.10405921  0.37900665  1
  Ti  Ti125  1  0.81122469  0.40555370  0.49427104  1
  Ti  Ti126  1  0.30608561  0.08741623  0.37782799  1
  Ti  Ti127  1  0.28538349  0.89970434  0.87651953  1
  Ti  Ti128  1  0.88939683  0.09058490  0.87664916  1
  Ti  Ti129  1  0.50544386  0.68825997  0.35927971  1
  Ti  Ti130  1  0.80062066  0.40805132  -0.00532626  1
  Ti  Ti131  1  0.70251753  0.51250607  0.88063674  1
  Ti  Ti132  1  -0.00170244  0.60245095  0.49023431  1
  Ti  Ti133  1  0.29562329  0.89354528  0.38519058  1
  Ti  Ti134  1  0.60953844  0.21049521  0.26022348  1
  Ti  Ti135  1  0.60883176  0.81646512  0.01746460  1
  Ti  Ti136  1  0.30399521  0.30005568  0.87761147  1
  Ti  Ti137  1  0.70582420  0.69926393  0.11861598  1
  Ti  Ti138  1  0.39833419  0.40091008  -0.00583105  1
  Ti  Ti139  1  0.39403307  0.39847104  0.75004809  1
  Ti  Ti140  1  0.48932553  0.91909137  0.11982496  1
  Ti  Ti141  1  0.39319629  0.59275472  -0.00837096  1
  Ti  Ti142  1  0.41795507  0.61227403  0.49661943  1
  Ti  Ti143  1  0.79370314  0.00180408  0.75251031  1
  Ti  Ti144  1  0.71472476  0.31368200  0.12234960  1
  Ti  Ti145  1  0.49869853  0.09975786  0.38292751  1
  Ti  Ti146  1  0.80642143  0.18885756  0.25267037  1
  Ti  Ti147  1  0.68211320  0.50525875  0.39207515  1
  Ti  Ti148  1  0.70216264  0.09581659  0.62152831  1
  Ti  Ti149  1  0.19538939  0.79950001  -0.00387754  1
  Ti  Ti150  1  0.59972316  0.80151165  0.75194863  1
  Ti  Ti151  1  0.60997656  0.40128544  -0.00499806  1
  Ti  Ti152  1  0.40609718  0.58714126  0.24918468  1
  Ti  Ti153  1  0.80877421  0.81654370  0.01636658  1
  Ti  Ti154  1  0.49666859  0.71158023  0.63119650  1
  Ti  Ti155  1  0.50314121  0.50127550  0.87860039  1
  Ti  Ti156  1  0.30375830  0.09292274  0.61844799  1
  Ti  Ti157  1  0.00661712  0.79649338  0.00417866  1
  Ti  Ti158  1  0.19143682  -0.00385335  0.00289903  1
  Ti  Ti159  1  0.41223264  0.40218243  0.49420872  1
  Mo  Mo160  1  0.59391581  0.60437673  0.49410258  1
  Mo  Mo161  1  -0.00707231  0.18933002  0.24542541  1
  Mo  Mo162  1  0.49071664  0.10384460  0.13046981  1
  Mo  Mo163  1  -0.00262962  0.40281910  0.50402876  1
  Mo  Mo164  1  0.88098562  0.08649178  0.36796023  1
  Mo  Mo165  1  0.30523112  0.51094394  0.12202780  1
  Mo  Mo166  1  0.21988699  0.39522800  0.74992167  1
  Mo  Mo167  1  0.89745831  0.69935561  0.89751913  1
  Mo  Mo168  1  0.78365156  -0.00482439  -0.01039438  1
  Mo  Mo169  1  0.89514459  0.90261273  0.37537649  1
  Mo  Mo170  1  0.89445666  0.89958988  0.12239489  1
  Mo  Mo171  1  0.69930315  0.91455860  0.11625313  1
  Mo  Mo172  1  0.60521705  0.21521028  -0.00382238  1
  Mo  Mo173  1  0.10609301  0.09095965  0.63308650  1
  Mo  Mo174  1  -0.00208084  0.60045078  0.74769589  1
  Mo  Mo175  1  0.89185841  0.69477759  0.60712005  1
  Mo  Mo176  1  0.11390177  0.50340301  0.88215359  1
  Mo  Mo177  1  0.10322636  0.88718347  0.62676417  1
  Mo  Mo178  1  0.49460238  0.50624557  0.37701782  1
  Mo  Mo179  1  0.21462138  0.58937101  0.24682610  1
  Mo  Mo180  1  0.59637393  0.19752329  0.49597344  1
  Mo  Mo181  1  0.10558798  0.29452876  0.11753795  1
  Mo  Mo182  1  0.21150211  0.40286639  0.50231236  1
  Mo  Mo183  1  0.19897299  0.79700597  0.50486049  1
  Mo  Mo184  1  -0.01855217  0.77295627  0.74023527  1
  Mo  Mo185  1  0.77525315  0.81006815  0.75086440  1
  Mo  Mo186  1  0.48596859  0.90665230  0.37239083  1
  Mo  Mo187  1  0.48996414  0.89421081  0.63057558  1
  Mo  Mo188  1  0.78546697  -0.00655736  0.49974116  1
  Mo  Mo189  1  0.38955853  -0.00958720  0.25841565  1
  Mo  Mo190  1  0.00942895  0.80073361  0.25004024  1
  Mo  Mo191  1  0.79901254  0.59856237  0.00806986  1
  Mo  Mo192  1  0.49559114  0.09931791  0.86915237  1
  Mo  Mo193  1  0.59998043  0.60456352  0.24128491  1
  Mo  Mo194  1  0.13009321  0.49717510  0.12770623  1
  Mo  Mo195  1  0.20923068  0.41477244  0.25044316  1
  Mo  Mo196  1  0.38521163  0.79571124  0.50196117  1
  Mo  Mo197  1  0.11052799  0.89617740  0.88379855  1
  Mo  Mo198  1  0.59638907  0.40498861  0.49338977  1
  Mo  Mo199  1  0.88970809  0.09419296  0.63841299  1
