# generated using pymatgen
data_HfZrTaTiMo
_symmetry_space_group_name_H-M   'P 1'
_cell_length_a   15.17084115
_cell_length_b   15.16681062
_cell_length_c   16.83208308
_cell_angle_alpha   89.93917745
_cell_angle_beta   90.00413831
_cell_angle_gamma   89.90595701
_symmetry_Int_Tables_number   1
_chemical_formula_structural   HfZrTaTiMo
_chemical_formula_sum   'Hf40 Zr40 Ta40 Ti40 Mo40'
_cell_volume   3872.94170553
_cell_formula_units_Z   40
loop_
 _symmetry_equiv_pos_site_id
 _symmetry_equiv_pos_as_xyz
  1  'x, y, z'
loop_
 _atom_site_type_symbol
 _atom_site_label
 _atom_site_symmetry_multiplicity
 _atom_site_fract_x
 _atom_site_fract_y
 _atom_site_fract_z
 _atom_site_occupancy
  Hf  Hf0  1  0.90916510  0.09562772  0.36133554  1
  Hf  Hf1  1  0.21549966  -0.01145598  0.48311717  1
  Hf  Hf2  1  0.71251949  0.71083125  0.11936437  1
  Hf  Hf3  1  0.58835861  0.59866576  0.49510930  1
  Hf  Hf4  1  0.20005058  0.18625386  0.75616838  1
  Hf  Hf5  1  0.61091665  0.01854577  0.50732491  1
  Hf  Hf6  1  0.09992963  0.48563764  0.63380194  1
  Hf  Hf7  1  0.49012862  0.30826461  0.37717516  1
  Hf  Hf8  1  0.38174631  0.61470618  0.74898379  1
  Hf  Hf9  1  0.77781162  0.38651149  -0.00856464  1
  Hf  Hf10  1  0.09734471  0.31789157  0.38028363  1
  Hf  Hf11  1  0.79456016  0.39622697  0.25742073  1
  Hf  Hf12  1  0.70150404  0.50928791  0.62307852  1
  Hf  Hf13  1  0.27875416  0.49060827  0.37010058  1
  Hf  Hf14  1  0.49871627  0.10608460  0.87419749  1
  Hf  Hf15  1  0.80132610  0.79485400  0.51927185  1
  Hf  Hf16  1  0.48485565  0.70894939  0.62109458  1
  Hf  Hf17  1  0.38391322  0.59774493  -0.00147323  1
  Hf  Hf18  1  0.39326839  0.20877629  0.74507842  1
  Hf  Hf19  1  0.40216636  0.41219482  0.50402308  1
  Hf  Hf20  1  0.00979717  -0.01501726  -0.00407785  1
  Hf  Hf21  1  0.21047891  -0.00160206  0.00841490  1
  Hf  Hf22  1  0.48065885  0.32145133  0.87659159  1
  Hf  Hf23  1  0.00830715  0.60007404  -0.00314418  1
  Hf  Hf24  1  0.79624234  0.40151232  0.48987460  1
  Hf  Hf25  1  0.11670037  0.68474136  0.63223583  1
  Hf  Hf26  1  0.28440252  0.30369503  0.61529451  1
  Hf  Hf27  1  0.90302281  0.69364098  0.37813352  1
  Hf  Hf28  1  0.58400405  0.40322407  0.25390471  1
  Hf  Hf29  1  0.60536177  0.21107567  -0.00810874  1
  Hf  Hf30  1  0.00354232  0.79808875  0.51373938  1
  Hf  Hf31  1  0.39873775  0.83148366  0.24098057  1
  Hf  Hf32  1  0.61239608  0.00818629  0.75595996  1
  Hf  Hf33  1  -0.00310911  0.80329969  0.73867700  1
  Hf  Hf34  1  0.10266001  0.68805346  0.12770323  1
  Hf  Hf35  1  0.47735927  0.50758127  0.13285117  1
  Hf  Hf36  1  0.00642851  0.18643952  0.00479773  1
  Hf  Hf37  1  0.91924251  0.07801189  0.13862096  1
  Hf  Hf38  1  0.39560107  0.80574710  0.01933068  1
  Hf  Hf39  1  0.11990093  0.89963309  0.63643328  1
  Zr  Zr40  1  0.89269433  0.28959017  0.12141888  1
  Zr  Zr41  1  0.10850917  0.09300303  0.62485388  1
  Zr  Zr42  1  0.50290788  0.70999056  0.36583222  1
  Zr  Zr43  1  0.90003633  0.49855892  0.12014838  1
  Zr  Zr44  1  0.68756698  0.28294155  0.38055912  1
  Zr  Zr45  1  0.10398228  0.29777907  0.87542741  1
  Zr  Zr46  1  0.29739085  0.88993464  0.86882852  1
  Zr  Zr47  1  -0.00515706  0.39455534  0.51049240  1
  Zr  Zr48  1  0.11148726  0.10817898  0.36622997  1
  Zr  Zr49  1  0.89717311  0.49189086  0.87372486  1
  Zr  Zr50  1  0.58994222  0.61277218  -0.00170660  1
  Zr  Zr51  1  0.60991116  0.81578288  0.24461814  1
  Zr  Zr52  1  0.79975560  0.60348550  0.25542189  1
  Zr  Zr53  1  0.89662603  0.72042417  0.87303278  1
  Zr  Zr54  1  0.58062297  0.41405611  -0.00297488  1
  Zr  Zr55  1  0.40948738  -0.00083043  -0.00286693  1
  Zr  Zr56  1  0.48537420  0.71501710  0.87274189  1
  Zr  Zr57  1  0.60056535  0.21831141  0.76025665  1
  Zr  Zr58  1  0.79553842  0.60539191  -0.00999431  1
  Zr  Zr59  1  0.71690957  0.10382284  0.11134267  1
  Zr  Zr60  1  0.59571313  0.80956905  0.73882988  1
  Zr  Zr61  1  0.68889760  0.50314552  0.12924885  1
  Zr  Zr62  1  0.30094079  0.69305507  0.14065044  1
  Zr  Zr63  1  0.91022815  0.89252911  0.37408193  1
  Zr  Zr64  1  0.79237928  -0.01112197  0.25020409  1
  Zr  Zr65  1  0.51608099  0.11043117  0.37645422  1
  Zr  Zr66  1  0.79460236  0.79265379  0.73035602  1
  Zr  Zr67  1  0.40041425  0.80996278  0.48247117  1
  Zr  Zr68  1  0.68316278  0.30861716  0.61799560  1
  Zr  Zr69  1  0.81880248  -0.00655625  0.74649439  1
  Zr  Zr70  1  0.29922617  0.48670176  0.87135925  1
  Zr  Zr71  1  0.20147768  0.78997408  0.48570898  1
  Zr  Zr72  1  0.48262847  0.29691172  0.12678323  1
  Zr  Zr73  1  0.22715293  0.00270338  0.25127626  1
  Zr  Zr74  1  0.81600096  -0.00218454  0.51064177  1
  Zr  Zr75  1  0.31709563  0.88203277  0.63571269  1
  Zr  Zr76  1  0.29039106  0.28790096  0.38105705  1
  Zr  Zr77  1  0.89304808  0.28576901  0.87854269  1
  Zr  Zr78  1  0.80029967  0.19212465  0.49961767  1
  Zr  Zr79  1  0.18917914  0.81061137  0.25850780  1
  Ta  Ta80  1  0.12124886  0.11233350  0.13504615  1
  Ta  Ta81  1  0.38985423  0.20175389  -0.00354578  1
  Ta  Ta82  1  0.01090045  0.58399237  0.24553852  1
  Ta  Ta83  1  0.89084769  0.29816267  0.63638030  1
  Ta  Ta84  1  0.01369491  -0.00100595  0.49918126  1
  Ta  Ta85  1  0.30466388  0.08642917  0.62532958  1
  Ta  Ta86  1  0.08426780  0.28435528  0.63316056  1
  Ta  Ta87  1  -0.00494880  0.38839231  0.75082289  1
  Ta  Ta88  1  0.27274268  0.29795789  0.12916722  1
  Ta  Ta89  1  -0.00332634  0.59428611  0.50603473  1
  Ta  Ta90  1  0.40568068  0.19770237  0.51460250  1
  Ta  Ta91  1  0.51239745  0.09352533  0.11959468  1
  Ta  Ta92  1  0.90422220  0.29330117  0.36587805  1
  Ta  Ta93  1  0.29562461  0.69588721  0.35910840  1
  Ta  Ta94  1  0.38548445  0.60563634  0.48963459  1
  Ta  Ta95  1  0.60074785  0.81268578  0.50902332  1
  Ta  Ta96  1  0.01566818  0.21251686  0.24202027  1
  Ta  Ta97  1  0.70233001  0.70903885  0.38478283  1
  Ta  Ta98  1  0.09405944  0.68759477  0.36886628  1
  Ta  Ta99  1  0.69183570  0.29777493  0.13035294  1
  Ta  Ta100  1  0.80130374  0.59503625  0.49528787  1
  Ta  Ta101  1  0.60150787  0.18861293  0.24253667  1
  Ta  Ta102  1  0.91169885  0.49316355  0.37125666  1
  Ta  Ta103  1  0.50610521  0.10817147  0.63243295  1
  Ta  Ta104  1  0.10792849  0.69578395  0.87047616  1
  Ta  Ta105  1  0.69802786  0.90397741  0.38437079  1
  Ta  Ta106  1  0.61466425  -0.00164440  -0.01165266  1
  Ta  Ta107  1  -0.00959766  0.79416099  0.23876039  1
  Ta  Ta108  1  0.71844418  0.89528473  0.87985758  1
  Ta  Ta109  1  0.91704001  0.10902965  0.63481601  1
  Ta  Ta110  1  0.72012883  0.10767283  0.88289149  1
  Ta  Ta111  1  0.10251547  0.49827280  0.86839407  1
  Ta  Ta112  1  0.78861853  0.59274453  0.75851196  1
  Ta  Ta113  1  0.40323203  0.00133862  0.75319933  1
  Ta  Ta114  1  0.59818870  0.60983499  0.74515598  1
  Ta  Ta115  1  0.31531571  0.10788217  0.12774262  1
  Ta  Ta116  1  0.80106658  0.20314203  0.75260038  1
  Ta  Ta117  1  0.41328013  0.00306623  0.50724993  1
  Ta  Ta118  1  -0.00360152  0.59638446  0.75356590  1
  Ta  Ta119  1  0.29323439  0.51301577  0.62347814  1
  Ti  Ti120  1  0.91164749  0.09122800  0.87148188  1
  Ti  Ti121  1  0.32276106  0.09702053  0.37534796  1
  Ti  Ti122  1  -0.01396244  0.79866097  0.01248317  1
  Ti  Ti123  1  0.16315288  0.40422357  0.24113596  1
  Ti  Ti124  1  0.37035688  0.39475378  0.00939051  1
  Ti  Ti125  1  0.27139511  0.50040474  0.12967121  1
  Ti  Ti126  1  0.69803188  0.90867396  0.62324118  1
  Ti  Ti127  1  0.60174494  0.81129854  0.00265413  1
  Ti  Ti128  1  0.50525267  0.92012901  0.37060684  1
  Ti  Ti129  1  0.37520356  0.39665056  0.24792001  1
  Ti  Ti130  1  0.70851638  0.11215646  0.63331526  1
  Ti  Ti131  1  0.89418438  0.67769889  0.62845949  1
  Ti  Ti132  1  0.79710681  0.19498259  0.25362210  1
  Ti  Ti133  1  0.80300324  0.79779074  0.25006109  1
  Ti  Ti134  1  0.01528834  0.00089434  0.75637799  1
  Ti  Ti135  1  0.20607485  0.39172560  0.74988540  1
  Ti  Ti136  1  0.50241466  0.49916936  0.62746435  1
  Ti  Ti137  1  0.20658580  0.20474685  -0.00693790  1
  Ti  Ti138  1  0.21977012  0.77279231  0.75466076  1
  Ti  Ti139  1  0.69013983  0.70481822  0.87562060  1
  Ti  Ti140  1  0.39748757  0.19753283  0.24816434  1
  Ti  Ti141  1  0.19305472  0.58824426  0.49342170  1
  Ti  Ti142  1  0.81852631  -0.00948063  -0.00546399  1
  Ti  Ti143  1  -0.00389579  0.19498945  0.49789725  1
  Ti  Ti144  1  0.50954787  0.90103573  0.87327812  1
  Ti  Ti145  1  0.68583647  0.50099333  0.37802497  1
  Ti  Ti146  1  0.39803244  0.59314199  0.26099352  1
  Ti  Ti147  1  0.50577455  0.70475867  0.13494545  1
  Ti  Ti148  1  0.59915274  0.60482847  0.25811092  1
  Ti  Ti149  1  0.40300999  0.40378440  0.73411122  1
  Ti  Ti150  1  0.70550674  0.90731144  0.11220948  1
  Ti  Ti151  1  0.09862611  0.88590043  0.86944570  1
  Ti  Ti152  1  0.19592412  0.19449589  0.50396106  1
  Ti  Ti153  1  0.00888207  0.39574441  0.00121305  1
  Ti  Ti154  1  0.19220613  0.79039895  0.00287507  1
  Ti  Ti155  1  0.50008667  0.51475296  0.86358094  1
  Ti  Ti156  1  0.09361294  0.90710185  0.13188284  1
  Ti  Ti157  1  0.11313688  0.08509907  0.87376164  1
  Ti  Ti158  1  0.60729035  0.41565018  0.75822062  1
  Ti  Ti159  1  0.89352419  0.49114659  0.63822401  1
  Mo  Mo160  1  0.19775686  0.59302918  0.25565321  1
  Mo  Mo161  1  0.09998631  0.49028714  0.11788826  1
  Mo  Mo162  1  0.31454146  0.90844989  0.37380116  1
  Mo  Mo163  1  0.50458221  0.91811093  0.62466582  1
  Mo  Mo164  1  0.29961374  0.10190824  0.87529218  1
  Mo  Mo165  1  0.08923956  0.50502121  0.37985254  1
  Mo  Mo166  1  0.19302908  0.58792621  0.75370547  1
  Mo  Mo167  1  0.49247711  0.31211766  0.62548584  1
  Mo  Mo168  1  0.40335687  0.80475193  0.75340993  1
  Mo  Mo169  1  0.79314877  0.39774532  0.75358066  1
  Mo  Mo170  1  0.79564390  0.80980343  -0.00210066  1
  Mo  Mo171  1  0.89637845  0.88696999  0.12530385  1
  Mo  Mo172  1  0.91230369  0.90219840  0.87486332  1
  Mo  Mo173  1  0.20853814  0.21185754  0.24997650  1
  Mo  Mo174  1  0.09481968  0.29869374  0.11558137  1
  Mo  Mo175  1  0.19543764  0.39981228  0.50958864  1
  Mo  Mo176  1  0.69620813  0.30585648  0.86885622  1
  Mo  Mo177  1  0.60246352  0.00086661  0.24543628  1
  Mo  Mo178  1  0.19607570  0.59723252  -0.00427231  1
  Mo  Mo179  1  0.59102527  0.40980693  0.49407947  1
  Mo  Mo180  1  0.20869624  -0.00824704  0.75955006  1
  Mo  Mo181  1  0.01817200  -0.00974116  0.24784442  1
  Mo  Mo182  1  0.80573247  0.18716364  -0.00219377  1
  Mo  Mo183  1  0.59117596  0.20760808  0.51385584  1
  Mo  Mo184  1  0.19427213  0.40237044  0.00258377  1
  Mo  Mo185  1  0.42400621  0.01558999  0.24203850  1
  Mo  Mo186  1  0.91979837  0.91326106  0.62303459  1
  Mo  Mo187  1  0.70385439  0.09322767  0.37120757  1
  Mo  Mo188  1  -0.01097897  0.39750417  0.24656130  1
  Mo  Mo189  1  -0.00323528  0.18915198  0.75701735  1
  Mo  Mo190  1  0.48780468  0.50544529  0.36613410  1
  Mo  Mo191  1  0.29628545  0.69129867  0.61520667  1
  Mo  Mo192  1  0.90281165  0.70296486  0.12563689  1
  Mo  Mo193  1  0.09464841  0.89913301  0.36920505  1
  Mo  Mo194  1  0.28701837  0.69679147  0.88563908  1
  Mo  Mo195  1  0.68938569  0.50867967  0.86587717  1
  Mo  Mo196  1  0.69524031  0.69453814  0.61354273  1
  Mo  Mo197  1  0.29926014  0.29537090  0.87584681  1
  Mo  Mo198  1  0.29879053  0.90971673  0.11891173  1
  Mo  Mo199  1  0.51622977  0.90621105  0.11613560  1
