# generated using pymatgen
data_HfZrTaTiMo
_symmetry_space_group_name_H-M   'P 1'
_cell_length_a   15.20044486
_cell_length_b   15.20833582
_cell_length_c   16.88138688
_cell_angle_alpha   90.04753116
_cell_angle_beta   89.92681090
_cell_angle_gamma   89.88221530
_symmetry_Int_Tables_number   1
_chemical_formula_structural   HfZrTaTiMo
_chemical_formula_sum   'Hf40 Zr40 Ta40 Ti40 Mo40'
_cell_volume   3902.51600177
_cell_formula_units_Z   40
loop_
 _symmetry_equiv_pos_site_id
 _symmetry_equiv_pos_as_xyz
  1  'x, y, z'
loop_
 _atom_site_type_symbol
 _atom_site_label
 _atom_site_symmetry_multiplicity
 _atom_site_fract_x
 _atom_site_fract_y
 _atom_site_fract_z
 _atom_site_occupancy
  Hf  Hf0  1  0.68586947  0.51141773  0.12209564  1
  Hf  Hf1  1  -0.00220386  0.59968593  0.26557594  1
  Hf  Hf2  1  0.30672598  0.47800650  0.12992165  1
  Hf  Hf3  1  -0.00598509  0.59548477  0.48824894  1
  Hf  Hf4  1  0.49983523  0.51691777  0.38669329  1
  Hf  Hf5  1  0.79623291  0.01522429  0.49286906  1
  Hf  Hf6  1  0.61590383  0.18591693  0.49839882  1
  Hf  Hf7  1  0.61210668  0.40577439  0.26683936  1
  Hf  Hf8  1  0.30156632  0.89184578  0.12998127  1
  Hf  Hf9  1  0.29369224  0.69361565  0.87063850  1
  Hf  Hf10  1  0.10663457  0.10160067  0.36516431  1
  Hf  Hf11  1  0.40598731  0.60225843  0.25026149  1
  Hf  Hf12  1  0.50649408  0.89034124  0.64044076  1
  Hf  Hf13  1  0.50043440  0.28348843  0.38302745  1
  Hf  Hf14  1  0.39794552  0.39642896  0.26632476  1
  Hf  Hf15  1  0.69722508  0.91585176  0.13687678  1
  Hf  Hf16  1  0.00022073  0.79938859  0.00639333  1
  Hf  Hf17  1  0.08788310  0.69840472  0.13196236  1
  Hf  Hf18  1  0.60901471  0.19061416  0.24189995  1
  Hf  Hf19  1  0.77488312  0.81080582  0.49525276  1
  Hf  Hf20  1  0.19228187  0.58979586  0.00413907  1
  Hf  Hf21  1  0.61380226  0.39784725  0.48306511  1
  Hf  Hf22  1  0.10243974  0.89391119  0.62988241  1
  Hf  Hf23  1  0.30251087  0.89325285  0.36635758  1
  Hf  Hf24  1  0.09888041  0.48955527  0.13096033  1
  Hf  Hf25  1  0.30242120  0.48662591  0.86648546  1
  Hf  Hf26  1  0.19213098  0.17845854  0.00661022  1
  Hf  Hf27  1  0.50306880  0.07664431  0.37529508  1
  Hf  Hf28  1  0.39579271  0.61675608  0.50698875  1
  Hf  Hf29  1  0.49327229  0.09262120  0.11139406  1
  Hf  Hf30  1  0.00589794  0.20562099  0.25134713  1
  Hf  Hf31  1  0.09727501  0.69461695  0.86585058  1
  Hf  Hf32  1  0.89998054  0.31432521  0.61864590  1
  Hf  Hf33  1  0.40905365  0.38721517  0.74193103  1
  Hf  Hf34  1  0.09964414  0.29074318  0.11964421  1
  Hf  Hf35  1  0.48951227  0.90452799  0.88042233  1
  Hf  Hf36  1  0.09212981  0.48969358  0.63039534  1
  Hf  Hf37  1  0.79639490  0.60401875  0.26113107  1
  Hf  Hf38  1  0.01051191  0.01304172  0.49806062  1
  Hf  Hf39  1  0.61943118  0.00532036  -0.00916883  1
  Zr  Zr40  1  0.39525920  0.60149341  0.73966898  1
  Zr  Zr41  1  -0.01608773  0.40225277  0.76003511  1
  Zr  Zr42  1  0.80750731  0.41751976  0.47429521  1
  Zr  Zr43  1  0.10063591  0.28711425  0.88378745  1
  Zr  Zr44  1  0.88950043  0.90765908  0.62093843  1
  Zr  Zr45  1  0.90581156  0.11458151  0.62686489  1
  Zr  Zr46  1  0.89662969  0.91731396  0.88103699  1
  Zr  Zr47  1  0.89200503  0.70221115  0.61133982  1
  Zr  Zr48  1  0.59361298  0.21568271  -0.00094446  1
  Zr  Zr49  1  0.20059094  0.59618395  0.50355934  1
  Zr  Zr50  1  0.39083059  0.39749708  0.49980130  1
  Zr  Zr51  1  0.59924682  -0.02390499  0.50885596  1
  Zr  Zr52  1  0.78613783  0.42190758  0.76642191  1
  Zr  Zr53  1  0.71085917  0.51524496  0.61621938  1
  Zr  Zr54  1  0.51097226  0.49975332  0.61673057  1
  Zr  Zr55  1  0.70153712  0.30162964  0.63167709  1
  Zr  Zr56  1  0.60863869  0.59493867  0.75541647  1
  Zr  Zr57  1  0.41494474  0.57936420  0.00006283  1
  Zr  Zr58  1  0.20185916  0.37316004  0.73827096  1
  Zr  Zr59  1  0.89766355  0.32033937  0.12466430  1
  Zr  Zr60  1  0.50188171  0.09649621  0.63079659  1
  Zr  Zr61  1  0.68240511  0.90608072  0.35563253  1
  Zr  Zr62  1  0.91095579  0.11359636  0.88373301  1
  Zr  Zr63  1  0.89861252  0.52932172  0.11271535  1
  Zr  Zr64  1  0.78768352  0.40945960  -0.00877526  1
  Zr  Zr65  1  0.10345926  0.49964085  0.86524799  1
  Zr  Zr66  1  0.39515745  0.18997651  0.25098392  1
  Zr  Zr67  1  0.30349739  0.08440042  0.88152618  1
  Zr  Zr68  1  0.01281211  0.20587464  0.74648126  1
  Zr  Zr69  1  0.78823628  0.81963909  0.75586473  1
  Zr  Zr70  1  0.10547262  0.89433354  0.86618712  1
  Zr  Zr71  1  0.20430004  0.17349012  0.50170060  1
  Zr  Zr72  1  0.49842586  0.31534353  0.13239093  1
  Zr  Zr73  1  0.10932948  0.70609218  0.37468820  1
  Zr  Zr74  1  0.90069378  0.11257487  0.11815475  1
  Zr  Zr75  1  0.49970290  0.28868614  0.61396132  1
  Zr  Zr76  1  0.60174113  0.79186054  -0.00608589  1
  Zr  Zr77  1  0.89871958  0.90341494  0.12866050  1
  Zr  Zr78  1  0.01048529  0.39268835  0.47930454  1
  Zr  Zr79  1  0.30044068  0.69060445  0.12730873  1
  Ta  Ta80  1  0.68545497  0.72186034  0.62600473  1
  Ta  Ta81  1  0.49553528  0.89308640  0.10835805  1
  Ta  Ta82  1  0.19431140  0.37955541  0.26259820  1
  Ta  Ta83  1  0.38185204  0.00638493  0.50546432  1
  Ta  Ta84  1  0.71244833  0.71102561  0.13133148  1
  Ta  Ta85  1  0.88965530  0.71277217  0.38289455  1
  Ta  Ta86  1  0.20982693  0.38792544  -0.00140220  1
  Ta  Ta87  1  -0.01026386  0.60469321  0.74559534  1
  Ta  Ta88  1  0.89524758  0.52842273  0.89067630  1
  Ta  Ta89  1  0.10420231  0.69634989  0.63122634  1
  Ta  Ta90  1  -0.00651602  0.79547154  0.74635395  1
  Ta  Ta91  1  0.28972887  0.08579917  0.13198964  1
  Ta  Ta92  1  0.29615505  0.90561606  0.63437452  1
  Ta  Ta93  1  0.79914714  0.21112306  0.76048242  1
  Ta  Ta94  1  0.00494816  0.40986624  -0.00699969  1
  Ta  Ta95  1  0.19839235  0.79494732  0.00423340  1
  Ta  Ta96  1  0.49695454  0.11056385  0.87952967  1
  Ta  Ta97  1  -0.00206568  -0.00179645  0.74646802  1
  Ta  Ta98  1  0.39183723  0.79367486  -0.00454949  1
  Ta  Ta99  1  0.57902413  0.80595626  0.24004466  1
  Ta  Ta100  1  0.61210643  -0.00386630  0.76355493  1
  Ta  Ta101  1  0.40307695  0.37678540  -0.00736422  1
  Ta  Ta102  1  0.20044544  0.39054275  0.49753216  1
  Ta  Ta103  1  0.81023132  0.20802404  0.48842072  1
  Ta  Ta104  1  0.01937680  0.01540201  0.00872201  1
  Ta  Ta105  1  0.71213756  0.69333755  0.88159536  1
  Ta  Ta106  1  0.58709862  0.41664889  -0.00402983  1
  Ta  Ta107  1  0.39903950  0.81255927  0.50752883  1
  Ta  Ta108  1  0.39923611  0.00049731  0.75131346  1
  Ta  Ta109  1  0.79474146  0.81576119  -0.00199284  1
  Ta  Ta110  1  0.89927579  0.90854992  0.37136986  1
  Ta  Ta111  1  0.10276762  0.90395947  0.36972325  1
  Ta  Ta112  1  -0.01197152  0.80368541  0.25493820  1
  Ta  Ta113  1  0.10794184  0.08828067  0.86456197  1
  Ta  Ta114  1  0.78947339  0.19912126  -0.00095767  1
  Ta  Ta115  1  0.59747983  0.60955411  0.25469370  1
  Ta  Ta116  1  0.41636977  -0.02173567  0.24489186  1
  Ta  Ta117  1  0.29088737  0.49918405  0.37562670  1
  Ta  Ta118  1  0.51193087  0.68865326  0.11833776  1
  Ta  Ta119  1  0.80156306  0.01746368  0.25427473  1
  Ti  Ti120  1  0.59719047  0.79693022  0.76906705  1
  Ti  Ti121  1  0.61295027  0.61891176  0.49440911  1
  Ti  Ti122  1  0.10452398  0.90759284  0.13628797  1
  Ti  Ti123  1  0.49929565  0.68950445  0.87766609  1
  Ti  Ti124  1  0.09807693  0.28119365  0.61176321  1
  Ti  Ti125  1  0.29175989  0.50044137  0.62882387  1
  Ti  Ti126  1  0.68922435  0.70890403  0.36758046  1
  Ti  Ti127  1  0.80634063  0.40714290  0.26544792  1
  Ti  Ti128  1  0.89715406  0.50833966  0.62035639  1
  Ti  Ti129  1  0.80583099  0.61644894  0.75163544  1
  Ti  Ti130  1  0.20445326  -0.01825283  0.00394382  1
  Ti  Ti131  1  0.29981348  0.28348378  0.12441020  1
  Ti  Ti132  1  0.68260884  0.30740338  0.87104368  1
  Ti  Ti133  1  0.70306785  0.30366062  0.12524291  1
  Ti  Ti134  1  0.29976864  0.08620455  0.36214858  1
  Ti  Ti135  1  0.30608559  0.28036573  0.87807388  1
  Ti  Ti136  1  0.12446515  0.08723813  0.63856340  1
  Ti  Ti137  1  0.49936448  0.70263339  0.62740661  1
  Ti  Ti138  1  0.89489311  0.30631346  0.88661298  1
  Ti  Ti139  1  0.70869791  0.09618514  0.64096259  1
  Ti  Ti140  1  0.59534320  0.20279973  0.75908425  1
  Ti  Ti141  1  0.00431806  0.80619308  0.49459787  1
  Ti  Ti142  1  0.70733362  0.10912955  0.36720129  1
  Ti  Ti143  1  0.49659077  0.72323988  0.37607368  1
  Ti  Ti144  1  0.50970746  0.48485838  0.86447086  1
  Ti  Ti145  1  0.00129412  0.40385081  0.27012485  1
  Ti  Ti146  1  0.20671686  0.80368051  0.50307063  1
  Ti  Ti147  1  0.30018253  0.27693442  0.61495636  1
  Ti  Ti148  1  0.19622325  0.79749015  0.24870132  1
  Ti  Ti149  1  0.80122677  0.21132841  0.25293678  1
  Ti  Ti150  1  0.29425902  0.88976536  0.86975340  1
  Ti  Ti151  1  0.90622665  0.28758954  0.37278011  1
  Ti  Ti152  1  0.20049865  0.58697558  0.25487004  1
  Ti  Ti153  1  0.39451302  0.79767761  0.75123307  1
  Ti  Ti154  1  0.00108376  0.00274412  0.25038935  1
  Ti  Ti155  1  0.30559091  0.70040672  0.36907034  1
  Ti  Ti156  1  0.39350170  0.19468231  0.75041241  1
  Ti  Ti157  1  0.90291968  0.70988758  0.87949331  1
  Ti  Ti158  1  0.71219526  0.09919120  0.86800842  1
  Ti  Ti159  1  0.29055127  0.28144171  0.38110014  1
  Mo  Mo160  1  0.58421989  0.79021926  0.50110278  1
  Mo  Mo161  1  0.21380555  0.18853762  0.74506375  1
  Mo  Mo162  1  0.71134712  0.29631180  0.36643292  1
  Mo  Mo163  1  0.69285494  0.90776770  0.63205775  1
  Mo  Mo164  1  0.79251816  0.61445671  0.48528744  1
  Mo  Mo165  1  0.89324884  0.71412586  0.13150098  1
  Mo  Mo166  1  0.20454221  -0.00748601  0.75301666  1
  Mo  Mo167  1  0.90349837  0.50681797  0.36775738  1
  Mo  Mo168  1  0.59946140  0.39273948  0.75679070  1
  Mo  Mo169  1  0.39815594  -0.00988994  0.00201301  1
  Mo  Mo170  1  0.38961114  0.19705191  0.00432773  1
  Mo  Mo171  1  0.69914380  0.90389200  0.87642234  1
  Mo  Mo172  1  0.80039566  0.01895647  0.75014541  1
  Mo  Mo173  1  0.80129313  0.00905347  0.00272630  1
  Mo  Mo174  1  0.20044193  -0.00631452  0.24716071  1
  Mo  Mo175  1  0.20356029  -0.02053538  0.49831748  1
  Mo  Mo176  1  0.40439245  0.79018444  0.24358456  1
  Mo  Mo177  1  0.59588384  0.00404196  0.24027535  1
  Mo  Mo178  1  0.20579309  0.78958454  0.74301304  1
  Mo  Mo179  1  0.49974022  0.49986797  0.12857363  1
  Mo  Mo180  1  0.60589259  0.59778452  -0.00722093  1
  Mo  Mo181  1  0.30555401  0.09468742  0.63274711  1
  Mo  Mo182  1  0.69834280  0.51569593  0.37357409  1
  Mo  Mo183  1  0.79783484  0.80405710  0.25920870  1
  Mo  Mo184  1  0.70662117  0.11237328  0.12603077  1
  Mo  Mo185  1  -0.00149892  0.20660350  -0.00037919  1
  Mo  Mo186  1  0.10213391  0.08899448  0.13494703  1
  Mo  Mo187  1  -0.00107234  0.60499678  -0.00153233  1
  Mo  Mo188  1  0.48924082  0.89450857  0.37570264  1
  Mo  Mo189  1  0.79730939  0.62688265  0.00318421  1
  Mo  Mo190  1  0.89986563  0.09900350  0.36857957  1
  Mo  Mo191  1  0.20606194  0.19631954  0.24701665  1
  Mo  Mo192  1  0.10714367  0.29385347  0.37640664  1
  Mo  Mo193  1  0.19547232  0.59603286  0.73497817  1
  Mo  Mo194  1  0.11088149  0.49589184  0.36885009  1
  Mo  Mo195  1  0.69703688  0.50930699  0.88382437  1
  Mo  Mo196  1  0.39856088  0.18670605  0.48993433  1
  Mo  Mo197  1  0.29632337  0.71472434  0.62821151  1
  Mo  Mo198  1  0.49202837  0.29505786  0.87033123  1
  Mo  Mo199  1  -0.00163366  0.19773589  0.49536215  1
