# generated using pymatgen
data_HfZrTaTiMo
_symmetry_space_group_name_H-M   'P 1'
_cell_length_a   15.20464997
_cell_length_b   15.20749126
_cell_length_c   16.84065148
_cell_angle_alpha   90.03731276
_cell_angle_beta   90.00585383
_cell_angle_gamma   90.01476027
_symmetry_Int_Tables_number   1
_chemical_formula_structural   HfZrTaTiMo
_chemical_formula_sum   'Hf40 Zr40 Ta40 Ti40 Mo40'
_cell_volume   3893.97161759
_cell_formula_units_Z   40
loop_
 _symmetry_equiv_pos_site_id
 _symmetry_equiv_pos_as_xyz
  1  'x, y, z'
loop_
 _atom_site_type_symbol
 _atom_site_label
 _atom_site_symmetry_multiplicity
 _atom_site_fract_x
 _atom_site_fract_y
 _atom_site_fract_z
 _atom_site_occupancy
  Hf  Hf0  1  0.79700598  0.59972661  0.74721264  1
  Hf  Hf1  1  0.19729850  0.18842840  -0.00101533  1
  Hf  Hf2  1  0.70044669  0.70915025  0.38831713  1
  Hf  Hf3  1  0.59839612  0.58586089  0.75351813  1
  Hf  Hf4  1  0.68885381  0.49209789  0.37727908  1
  Hf  Hf5  1  0.09625476  0.10294246  0.63320134  1
  Hf  Hf6  1  0.20788218  0.19601430  0.50929441  1
  Hf  Hf7  1  0.30086112  0.29203930  0.12366206  1
  Hf  Hf8  1  0.90194176  0.89078518  0.88351193  1
  Hf  Hf9  1  0.40342275  0.18645593  -0.00103521  1
  Hf  Hf10  1  0.30171515  0.89646227  0.36156040  1
  Hf  Hf11  1  0.10171243  0.49479308  0.11119041  1
  Hf  Hf12  1  0.20877147  -0.00760590  0.73200049  1
  Hf  Hf13  1  0.28378358  0.71391312  0.14007769  1
  Hf  Hf14  1  -0.00186515  -0.00755448  0.74627325  1
  Hf  Hf15  1  0.60850238  -0.00320274  0.73560574  1
  Hf  Hf16  1  0.29890307  0.10339372  0.36634493  1
  Hf  Hf17  1  -0.01252792  0.39077116  0.49951556  1
  Hf  Hf18  1  0.49239420  0.90854651  0.14323975  1
  Hf  Hf19  1  0.39487728  0.58581612  0.22915041  1
  Hf  Hf20  1  0.89259806  0.48981578  0.62797348  1
  Hf  Hf21  1  0.79979732  0.58922234  0.50057578  1
  Hf  Hf22  1  0.52344000  0.30906293  0.63913135  1
  Hf  Hf23  1  0.21433502  -0.00517627  0.00857740  1
  Hf  Hf24  1  0.39328843  0.62380711  0.74840801  1
  Hf  Hf25  1  0.31275757  0.30217521  0.36699858  1
  Hf  Hf26  1  0.29326109  0.50056239  0.63250367  1
  Hf  Hf27  1  0.70365392  0.90818295  0.87838654  1
  Hf  Hf28  1  0.79726872  0.20604526  0.24541487  1
  Hf  Hf29  1  0.00040556  0.77356818  0.25398859  1
  Hf  Hf30  1  0.09800014  0.49776953  0.63523046  1
  Hf  Hf31  1  0.80134153  0.60958716  0.24950364  1
  Hf  Hf32  1  0.09527394  0.30121569  0.63538513  1
  Hf  Hf33  1  0.50067186  0.09956491  0.85751240  1
  Hf  Hf34  1  0.31140561  0.50187203  0.37228526  1
  Hf  Hf35  1  0.80308362  0.80631827  0.74226422  1
  Hf  Hf36  1  0.50207134  0.90370011  0.38176592  1
  Hf  Hf37  1  0.10087801  0.89012512  0.13355394  1
  Hf  Hf38  1  0.61011542  0.80644089  0.25399809  1
  Hf  Hf39  1  0.89482114  0.09809644  0.87936304  1
  Zr  Zr40  1  0.50796666  0.29792946  0.87406361  1
  Zr  Zr41  1  0.08976385  0.48625973  0.87896724  1
  Zr  Zr42  1  0.00136458  0.39281626  0.24813734  1
  Zr  Zr43  1  0.20515239  0.39966560  0.49909113  1
  Zr  Zr44  1  0.30214650  0.08633960  0.86304433  1
  Zr  Zr45  1  0.49674934  0.90376598  0.87270049  1
  Zr  Zr46  1  0.48152368  0.70619095  0.88460308  1
  Zr  Zr47  1  0.90707885  0.50920900  0.12578173  1
  Zr  Zr48  1  0.17935281  0.60438233  0.25110687  1
  Zr  Zr49  1  0.79024960  0.00849580  0.25528760  1
  Zr  Zr50  1  0.69876671  0.11735854  0.86891796  1
  Zr  Zr51  1  0.49474488  0.50656769  0.62370694  1
  Zr  Zr52  1  0.60743223  0.39993073  0.23322235  1
  Zr  Zr53  1  0.80919382  0.81218279  0.24794713  1
  Zr  Zr54  1  0.21543404  0.79167581  0.73809539  1
  Zr  Zr55  1  0.39302281  0.60365274  0.01625629  1
  Zr  Zr56  1  0.19515107  -0.00167346  0.50676802  1
  Zr  Zr57  1  0.39672139  0.00633800  0.51139421  1
  Zr  Zr58  1  0.41303411  0.39587645  0.22922352  1
  Zr  Zr59  1  -0.01546904  -0.01786928  0.25026741  1
  Zr  Zr60  1  0.00638501  0.17843712  0.24781931  1
  Zr  Zr61  1  0.00747832  0.59906285  0.49711392  1
  Zr  Zr62  1  0.89760385  0.09957421  0.11431811  1
  Zr  Zr63  1  0.41101690  0.20928062  0.51088733  1
  Zr  Zr64  1  0.58916540  0.79213631  0.74294406  1
  Zr  Zr65  1  0.00582327  0.79942760  0.74745668  1
  Zr  Zr66  1  0.19947012  0.80005741  -0.00233584  1
  Zr  Zr67  1  0.00071789  0.21780903  -0.00837071  1
  Zr  Zr68  1  0.68541780  0.69772974  0.60749636  1
  Zr  Zr69  1  0.01647026  0.00141924  -0.00043732  1
  Zr  Zr70  1  0.48851037  0.69089853  0.36344638  1
  Zr  Zr71  1  0.89405244  0.29850800  0.37279463  1
  Zr  Zr72  1  0.10745012  0.28481774  0.37483875  1
  Zr  Zr73  1  0.79239630  0.60226452  0.00185737  1
  Zr  Zr74  1  0.59110858  0.01479633  0.00344948  1
  Zr  Zr75  1  0.59945089  0.80112167  0.01144910  1
  Zr  Zr76  1  0.69972821  0.70041587  0.87923581  1
  Zr  Zr77  1  0.19845927  0.79527262  0.50510667  1
  Zr  Zr78  1  0.30560454  0.50036633  0.87702950  1
  Zr  Zr79  1  0.71684127  0.90783992  0.59968817  1
  Ta  Ta80  1  0.31285071  0.88340562  0.86722132  1
  Ta  Ta81  1  0.59914770  0.01628360  0.26025048  1
  Ta  Ta82  1  -0.00814844  0.60286782  0.75839204  1
  Ta  Ta83  1  0.20623883  0.40229748  0.24195663  1
  Ta  Ta84  1  0.19525344  0.60166513  -0.00390107  1
  Ta  Ta85  1  0.19186627  0.60102096  0.76053940  1
  Ta  Ta86  1  0.30456652  0.30404308  0.63911477  1
  Ta  Ta87  1  0.70244874  0.31304053  0.88292931  1
  Ta  Ta88  1  0.89558220  0.50030724  0.36837457  1
  Ta  Ta89  1  0.18216132  0.01233375  0.25497949  1
  Ta  Ta90  1  0.20392777  0.60139269  0.49196296  1
  Ta  Ta91  1  0.10096602  0.69050147  0.62756149  1
  Ta  Ta92  1  0.19948019  0.38718937  -0.00611507  1
  Ta  Ta93  1  0.09838853  0.70279857  0.87542647  1
  Ta  Ta94  1  0.68558026  0.11041782  0.12095146  1
  Ta  Ta95  1  0.09795386  0.49739852  0.37155500  1
  Ta  Ta96  1  0.40667996  0.40582871  0.75878873  1
  Ta  Ta97  1  0.09535285  0.29676315  0.12251886  1
  Ta  Ta98  1  0.89587483  0.09360050  0.38921526  1
  Ta  Ta99  1  -0.00975287  0.60561475  -0.01628442  1
  Ta  Ta100  1  0.51195747  0.31402544  0.37607109  1
  Ta  Ta101  1  0.89275361  0.10245460  0.62203590  1
  Ta  Ta102  1  0.40331011  0.39686573  0.00777062  1
  Ta  Ta103  1  0.68928355  0.47927229  0.61500333  1
  Ta  Ta104  1  0.78557843  0.39260034  0.75061041  1
  Ta  Ta105  1  0.79899645  0.20670259  0.50360355  1
  Ta  Ta106  1  0.51204925  0.49733689  0.88871887  1
  Ta  Ta107  1  -0.01559498  0.39424895  0.75538292  1
  Ta  Ta108  1  0.70171019  0.91252493  0.12435268  1
  Ta  Ta109  1  0.09306752  0.89318133  0.37605797  1
  Ta  Ta110  1  0.81138544  0.39857759  0.00822147  1
  Ta  Ta111  1  0.49914573  0.70604104  0.13633263  1
  Ta  Ta112  1  0.89530402  0.89381056  0.39982585  1
  Ta  Ta113  1  0.51301901  0.89079778  0.60449332  1
  Ta  Ta114  1  0.70254246  0.91634715  0.39633763  1
  Ta  Ta115  1  0.90191263  0.71069885  0.61345731  1
  Ta  Ta116  1  -0.00987218  0.20084983  0.75613675  1
  Ta  Ta117  1  0.39721894  0.19919820  0.74123386  1
  Ta  Ta118  1  0.80671011  0.00646429  0.74330784  1
  Ta  Ta119  1  0.39809637  0.78876072  0.50796448  1
  Ti  Ti120  1  0.30318052  0.90520115  0.15760114  1
  Ti  Ti121  1  0.41193707  0.40507690  0.50114120  1
  Ti  Ti122  1  0.30346759  0.09175690  0.14202747  1
  Ti  Ti123  1  0.70170138  0.70239003  0.12760461  1
  Ti  Ti124  1  0.39154257  0.60280906  0.50090031  1
  Ti  Ti125  1  0.60809191  0.21538675  0.50190053  1
  Ti  Ti126  1  0.60217179  0.20252577  0.25414868  1
  Ti  Ti127  1  -0.00483691  0.79414221  0.00162175  1
  Ti  Ti128  1  0.19718457  0.20177031  0.24286963  1
  Ti  Ti129  1  0.90848216  0.70049601  0.38907748  1
  Ti  Ti130  1  0.08025057  0.68847919  0.11749965  1
  Ti  Ti131  1  0.61130941  0.40650189  0.01095748  1
  Ti  Ti132  1  0.70108854  0.29963521  0.37690274  1
  Ti  Ti133  1  0.10547867  0.10423830  0.85938949  1
  Ti  Ti134  1  0.60808808  0.02593260  0.49989823  1
  Ti  Ti135  1  0.79386088  0.20486276  0.00401416  1
  Ti  Ti136  1  0.88371983  0.49703441  0.87434347  1
  Ti  Ti137  1  0.89634377  0.30490079  0.87509902  1
  Ti  Ti138  1  0.70153273  0.12382354  0.63455003  1
  Ti  Ti139  1  0.79907109  -0.00288606  0.00709790  1
  Ti  Ti140  1  0.70859168  0.30181793  0.11642445  1
  Ti  Ti141  1  0.11431271  0.90447383  0.87198550  1
  Ti  Ti142  1  0.59813084  0.59725890  0.01380213  1
  Ti  Ti143  1  0.59728516  0.59063374  0.23726661  1
  Ti  Ti144  1  0.80630270  0.79877088  0.01301444  1
  Ti  Ti145  1  -0.00032772  0.18993615  0.50108243  1
  Ti  Ti146  1  -0.00093705  -0.00584953  0.50813622  1
  Ti  Ti147  1  0.51534181  0.28589508  0.11138193  1
  Ti  Ti148  1  0.58135613  0.59295224  0.49305777  1
  Ti  Ti149  1  0.40411642  -0.01576299  0.72478891  1
  Ti  Ti150  1  0.41344810  0.19685635  0.25017216  1
  Ti  Ti151  1  0.49553296  0.10147216  0.13349317  1
  Ti  Ti152  1  0.50634633  0.11209972  0.37752027  1
  Ti  Ti153  1  0.50681629  0.10600587  0.63162194  1
  Ti  Ti154  1  0.79970303  0.40437148  0.23568481  1
  Ti  Ti155  1  0.29115346  0.70543993  0.36081648  1
  Ti  Ti156  1  0.39165075  0.80635912  0.01424114  1
  Ti  Ti157  1  0.39817971  -0.00810171  0.00514434  1
  Ti  Ti158  1  0.29878308  0.29155298  0.86952281  1
  Ti  Ti159  1  0.19926237  0.39033665  0.76171422  1
  Mo  Mo160  1  -0.00723439  0.59236109  0.26113839  1
  Mo  Mo161  1  0.00560446  0.80247668  0.50582973  1
  Mo  Mo162  1  0.49660783  0.69859693  0.61257808  1
  Mo  Mo163  1  0.80316035  0.01697807  0.50129189  1
  Mo  Mo164  1  0.59376966  0.80120920  0.48696473  1
  Mo  Mo165  1  0.60937756  0.20582832  0.74591228  1
  Mo  Mo166  1  0.49728317  0.49711957  0.37531873  1
  Mo  Mo167  1  0.70128278  0.50533271  0.12736531  1
  Mo  Mo168  1  0.28954427  0.49316882  0.11006887  1
  Mo  Mo169  1  0.69746915  0.49105637  0.88155628  1
  Mo  Mo170  1  0.90339357  0.70544251  0.11984900  1
  Mo  Mo171  1  0.40457671  0.01278545  0.25908379  1
  Mo  Mo172  1  0.79416858  0.39386593  0.49784577  1
  Mo  Mo173  1  0.90986713  0.90391990  0.61157611  1
  Mo  Mo174  1  -0.00382252  0.40176585  -0.00889173  1
  Mo  Mo175  1  0.71358517  0.30154408  0.62435639  1
  Mo  Mo176  1  0.18995391  0.80837460  0.25862491  1
  Mo  Mo177  1  0.69334702  0.11464545  0.38189343  1
  Mo  Mo178  1  0.11342138  0.10025488  0.12589698  1
  Mo  Mo179  1  0.89860396  0.30262750  0.12058788  1
  Mo  Mo180  1  0.30725992  0.10697845  0.63494044  1
  Mo  Mo181  1  0.29200869  0.70226563  0.87859417  1
  Mo  Mo182  1  0.80875494  0.20768734  0.75075226  1
  Mo  Mo183  1  0.20069099  0.20285837  0.75052214  1
  Mo  Mo184  1  0.40096149  0.79668280  0.25013184  1
  Mo  Mo185  1  0.90278214  0.69798299  0.87416627  1
  Mo  Mo186  1  0.29746943  0.68631120  0.61729051  1
  Mo  Mo187  1  0.60457987  0.20967190  0.00334605  1
  Mo  Mo188  1  0.50557323  0.49864001  0.10595182  1
  Mo  Mo189  1  0.59916853  0.39634219  0.49550005  1
  Mo  Mo190  1  0.10141923  0.69716555  0.38097172  1
  Mo  Mo191  1  0.10421715  0.29324038  0.86142513  1
  Mo  Mo192  1  0.40065067  0.81001648  0.72630499  1
  Mo  Mo193  1  0.09079008  0.08762772  0.38321113  1
  Mo  Mo194  1  0.30891897  0.89550659  0.61831655  1
  Mo  Mo195  1  0.80500429  0.79881541  0.49950816  1
  Mo  Mo196  1  0.09475085  0.89278738  0.62005659  1
  Mo  Mo197  1  0.89694695  0.89182710  0.11211729  1
  Mo  Mo198  1  0.60432762  0.40519534  0.75996387  1
  Mo  Mo199  1  0.89642789  0.29179641  0.63011380  1
