# generated using pymatgen
data_HfZrTaTiMo
_symmetry_space_group_name_H-M   'P 1'
_cell_length_a   15.20198439
_cell_length_b   15.22538125
_cell_length_c   16.80323091
_cell_angle_alpha   90.02776704
_cell_angle_beta   89.98962405
_cell_angle_gamma   89.93213209
_symmetry_Int_Tables_number   1
_chemical_formula_structural   HfZrTaTiMo
_chemical_formula_sum   'Hf40 Zr40 Ta40 Ti40 Mo40'
_cell_volume   3889.20549943
_cell_formula_units_Z   40
loop_
 _symmetry_equiv_pos_site_id
 _symmetry_equiv_pos_as_xyz
  1  'x, y, z'
loop_
 _atom_site_type_symbol
 _atom_site_label
 _atom_site_symmetry_multiplicity
 _atom_site_fract_x
 _atom_site_fract_y
 _atom_site_fract_z
 _atom_site_occupancy
  Hf  Hf0  1  0.69625340  0.29931432  0.38631140  1
  Hf  Hf1  1  -0.00607408  0.40979872  0.26321175  1
  Hf  Hf2  1  0.00348058  0.81308090  0.76513724  1
  Hf  Hf3  1  0.90222510  0.30881227  0.63235629  1
  Hf  Hf4  1  0.08602098  0.30362445  0.87873231  1
  Hf  Hf5  1  0.88783422  0.30948432  0.85980173  1
  Hf  Hf6  1  0.71863876  0.50082692  0.87576739  1
  Hf  Hf7  1  0.49605715  0.10680167  0.13408753  1
  Hf  Hf8  1  0.39865360  0.39941563  0.75263079  1
  Hf  Hf9  1  0.30429708  0.50132198  0.62118657  1
  Hf  Hf10  1  0.00220199  0.00922080  0.76262220  1
  Hf  Hf11  1  0.31814938  0.69655764  0.88536707  1
  Hf  Hf12  1  -0.00559929  0.00113797  -0.01582359  1
  Hf  Hf13  1  -0.00524731  0.01334262  0.49814576  1
  Hf  Hf14  1  0.09713273  0.09337234  0.36744371  1
  Hf  Hf15  1  0.57505559  0.18694097  0.73683504  1
  Hf  Hf16  1  0.61239239  0.80482131  0.01622579  1
  Hf  Hf17  1  0.29349445  0.50293267  0.88254488  1
  Hf  Hf18  1  0.29854067  0.09238663  0.13386826  1
  Hf  Hf19  1  0.50790350  0.09038014  0.36472627  1
  Hf  Hf20  1  0.09459378  0.90035623  0.12229652  1
  Hf  Hf21  1  0.30384654  0.29789586  0.12246769  1
  Hf  Hf22  1  0.19436076  0.38745752  0.75409506  1
  Hf  Hf23  1  0.79158420  -0.00261565  0.24893939  1
  Hf  Hf24  1  0.11002820  0.91444970  0.62278437  1
  Hf  Hf25  1  0.18531106  0.41182776  0.00526181  1
  Hf  Hf26  1  0.63192599  0.79947080  0.23528387  1
  Hf  Hf27  1  0.10790853  0.11122123  0.87697326  1
  Hf  Hf28  1  0.60633505  0.79207963  0.74730649  1
  Hf  Hf29  1  0.89011245  0.10695739  0.11892578  1
  Hf  Hf30  1  0.37009729  0.19903221  0.76914774  1
  Hf  Hf31  1  0.79671979  0.19945034  -0.00521884  1
  Hf  Hf32  1  0.09493325  0.10539195  0.12119865  1
  Hf  Hf33  1  -0.00464960  0.60133939  0.49379290  1
  Hf  Hf34  1  0.40972901  0.00672978  0.76438480  1
  Hf  Hf35  1  0.41623031  0.60093274  0.74440146  1
  Hf  Hf36  1  0.69099466  0.07860096  0.61869725  1
  Hf  Hf37  1  0.19966030  0.79677726  0.01088116  1
  Hf  Hf38  1  0.69210329  0.29250163  0.86545672  1
  Hf  Hf39  1  0.90117030  0.70068503  0.12909181  1
  Zr  Zr40  1  0.49701216  0.90283700  0.13930820  1
  Zr  Zr41  1  -0.01955643  0.40641622  0.00360204  1
  Zr  Zr42  1  0.69930718  0.69264337  0.37520013  1
  Zr  Zr43  1  0.08750478  0.30076394  0.12714995  1
  Zr  Zr44  1  0.11484447  0.70361092  0.87298337  1
  Zr  Zr45  1  0.60088889  0.40829419  0.73462529  1
  Zr  Zr46  1  0.50329278  0.69773337  0.36287473  1
  Zr  Zr47  1  0.39623201  0.39600473  -0.00403070  1
  Zr  Zr48  1  0.19466703  0.19068926  0.49023313  1
  Zr  Zr49  1  0.01215801  0.60617424  0.25230756  1
  Zr  Zr50  1  0.60922323  0.39783414  0.00973499  1
  Zr  Zr51  1  0.28919786  0.29359283  0.62077816  1
  Zr  Zr52  1  0.70954967  0.88937026  0.63122259  1
  Zr  Zr53  1  0.29899221  0.69732971  0.37180700  1
  Zr  Zr54  1  0.29638526  0.08575180  0.62488799  1
  Zr  Zr55  1  0.51063547  0.51655428  0.88350460  1
  Zr  Zr56  1  0.49657011  0.50330506  0.12360735  1
  Zr  Zr57  1  0.20106742  0.60126002  0.74406861  1
  Zr  Zr58  1  0.10383343  0.30852734  0.37295134  1
  Zr  Zr59  1  0.89754344  0.68148923  0.86862048  1
  Zr  Zr60  1  0.49798519  0.30002789  0.87560289  1
  Zr  Zr61  1  -0.00516762  -0.00160791  0.25001065  1
  Zr  Zr62  1  0.40395336  0.80605054  0.75106511  1
  Zr  Zr63  1  0.81030341  0.57180587  0.73251275  1
  Zr  Zr64  1  0.40087601  -0.00340928  -0.00708816  1
  Zr  Zr65  1  0.59765037  0.80281269  0.50142350  1
  Zr  Zr66  1  0.69911482  0.29402049  0.61530722  1
  Zr  Zr67  1  0.19054537  0.78904095  0.24202973  1
  Zr  Zr68  1  0.89850359  0.70823764  0.63653404  1
  Zr  Zr69  1  0.88565912  0.89297058  0.11587617  1
  Zr  Zr70  1  0.39075187  0.39950306  0.26057661  1
  Zr  Zr71  1  0.20539342  0.20723222  0.25561416  1
  Zr  Zr72  1  0.79513791  0.59814611  0.51055239  1
  Zr  Zr73  1  0.81206332  0.18904486  0.49123503  1
  Zr  Zr74  1  0.10181585  0.71145526  0.62547169  1
  Zr  Zr75  1  0.49732568  0.70208203  0.61417638  1
  Zr  Zr76  1  0.60235284  0.39994073  0.24800400  1
  Zr  Zr77  1  0.89595409  0.10111933  0.63611250  1
  Zr  Zr78  1  0.39131345  0.19858618  0.48478530  1
  Zr  Zr79  1  0.39875699  -0.00858136  0.49039752  1
  Ta  Ta80  1  0.31241444  0.69336252  0.12173831  1
  Ta  Ta81  1  0.60598410  0.00430819  0.00309734  1
  Ta  Ta82  1  0.01825212  0.60295144  0.01327646  1
  Ta  Ta83  1  0.39897853  0.40708139  0.48819819  1
  Ta  Ta84  1  -0.01835761  0.20513106  0.26317889  1
  Ta  Ta85  1  0.20216672  0.60291311  0.50339654  1
  Ta  Ta86  1  0.70051904  0.88373523  0.87290449  1
  Ta  Ta87  1  0.80707263  0.80321109  0.49826213  1
  Ta  Ta88  1  0.69532192  0.90416088  0.38109435  1
  Ta  Ta89  1  0.71129183  0.50762500  0.13528752  1
  Ta  Ta90  1  0.09245944  0.49666068  0.61955641  1
  Ta  Ta91  1  0.50485650  0.30119729  0.38228430  1
  Ta  Ta92  1  0.29708844  0.70979030  0.61812760  1
  Ta  Ta93  1  0.09833277  0.11511059  0.63139130  1
  Ta  Ta94  1  0.28949084  0.89391622  0.87517923  1
  Ta  Ta95  1  -0.00088252  0.81010590  0.49632742  1
  Ta  Ta96  1  -0.01026832  0.42366677  0.75015992  1
  Ta  Ta97  1  0.89590827  0.90552212  0.37891383  1
  Ta  Ta98  1  0.59663829  0.19239191  0.00448922  1
  Ta  Ta99  1  0.89996044  0.70520592  0.37277666  1
  Ta  Ta100  1  0.79126317  -0.00655056  -0.01408876  1
  Ta  Ta101  1  0.90280407  0.90392353  0.62730159  1
  Ta  Ta102  1  0.19940255  0.41734641  0.24619748  1
  Ta  Ta103  1  0.58895701  0.18611724  0.50526479  1
  Ta  Ta104  1  0.79533644  0.19816132  0.26134513  1
  Ta  Ta105  1  0.30212619  0.89836740  0.13884892  1
  Ta  Ta106  1  0.50777447  0.69311190  0.13789500  1
  Ta  Ta107  1  0.39582224  0.80368246  0.49580134  1
  Ta  Ta108  1  0.10074937  0.70871059  0.38523307  1
  Ta  Ta109  1  0.70533890  0.28994057  0.13148499  1
  Ta  Ta110  1  0.20016433  0.40615932  0.49474365  1
  Ta  Ta111  1  0.10892196  0.90125558  0.37806389  1
  Ta  Ta112  1  0.39571067  0.19145183  -0.01414486  1
  Ta  Ta113  1  0.50559518  0.50278306  0.37934135  1
  Ta  Ta114  1  0.49822617  0.89415000  0.35318304  1
  Ta  Ta115  1  0.62231687  0.61094394  0.01139596  1
  Ta  Ta116  1  0.40833131  0.79607859  0.00712663  1
  Ta  Ta117  1  -0.00778385  0.40587228  0.48639229  1
  Ta  Ta118  1  0.60695944  0.19816432  0.25085173  1
  Ta  Ta119  1  0.61444534  0.60006572  0.72978050  1
  Ti  Ti120  1  0.11340771  0.51335256  0.37888733  1
  Ti  Ti121  1  0.69024550  0.09342954  0.86991804  1
  Ti  Ti122  1  0.20458862  0.00084599  0.76132563  1
  Ti  Ti123  1  0.90333389  0.49916009  0.13426046  1
  Ti  Ti124  1  0.60959445  0.00421673  0.23985254  1
  Ti  Ti125  1  0.89833247  0.11334010  0.87088216  1
  Ti  Ti126  1  0.30224920  0.89519274  0.62955359  1
  Ti  Ti127  1  0.29430958  0.08046534  0.36066966  1
  Ti  Ti128  1  0.49019813  0.30310753  0.61032096  1
  Ti  Ti129  1  0.29748902  0.50887534  0.11379706  1
  Ti  Ti130  1  0.60008224  -0.00547515  0.75850839  1
  Ti  Ti131  1  0.80376805  0.40746948  0.49443940  1
  Ti  Ti132  1  0.80464033  -0.01720374  0.76882779  1
  Ti  Ti133  1  0.79000982  0.19106464  0.74832897  1
  Ti  Ti134  1  0.30250793  0.89572297  0.35422376  1
  Ti  Ti135  1  0.79566479  0.40196552  0.01007632  1
  Ti  Ti136  1  0.20353101  0.20159150  -0.00076967  1
  Ti  Ti137  1  -0.00250095  0.21124157  0.48974137  1
  Ti  Ti138  1  -0.00548329  0.80253286  0.25831578  1
  Ti  Ti139  1  0.80310696  0.39787980  0.26014155  1
  Ti  Ti140  1  0.89341231  0.30013216  0.13147288  1
  Ti  Ti141  1  -0.00434888  0.79994670  -0.01443280  1
  Ti  Ti142  1  0.50011173  0.29518502  0.12569139  1
  Ti  Ti143  1  0.69602668  0.49989234  0.37444868  1
  Ti  Ti144  1  0.79645626  0.78498727  -0.01046706  1
  Ti  Ti145  1  0.70182218  0.08956832  0.38645935  1
  Ti  Ti146  1  0.09233787  0.30386712  0.62237369  1
  Ti  Ti147  1  0.08626976  0.51201341  0.87252862  1
  Ti  Ti148  1  0.20295439  -0.00112912  -0.00360729  1
  Ti  Ti149  1  0.20236859  0.59654551  0.24043116  1
  Ti  Ti150  1  0.20714786  0.81274356  0.49547377  1
  Ti  Ti151  1  0.39563949  0.59405631  0.25346779  1
  Ti  Ti152  1  0.81353307  0.59337739  0.00647981  1
  Ti  Ti153  1  0.79892687  0.60350141  0.25293676  1
  Ti  Ti154  1  0.52300978  0.70466386  0.88342897  1
  Ti  Ti155  1  0.39880387  0.60060414  0.49643611  1
  Ti  Ti156  1  0.40346603  0.20341219  0.26409729  1
  Ti  Ti157  1  0.59884726  0.58112576  0.51662247  1
  Ti  Ti158  1  0.50543581  0.89797202  0.88229708  1
  Ti  Ti159  1  0.50387970  0.92335103  0.62212799  1
  Mo  Mo160  1  0.10185710  0.50438494  0.13116826  1
  Mo  Mo161  1  0.10087598  0.70151943  0.12067140  1
  Mo  Mo162  1  0.81251581  0.80247757  0.26092524  1
  Mo  Mo163  1  0.70149715  0.69561877  0.61954583  1
  Mo  Mo164  1  0.28057543  0.29280493  0.88674502  1
  Mo  Mo165  1  0.89356056  0.10130683  0.37288475  1
  Mo  Mo166  1  0.49625871  0.49343733  0.61092139  1
  Mo  Mo167  1  0.29723736  0.50523444  0.37961370  1
  Mo  Mo168  1  0.40173663  0.79189722  0.24080188  1
  Mo  Mo169  1  0.00330962  0.21057022  0.74764813  1
  Mo  Mo170  1  0.59587847  0.39811265  0.49918486  1
  Mo  Mo171  1  0.90824094  0.49857269  0.88248085  1
  Mo  Mo172  1  0.10698465  0.90405696  0.88141040  1
  Mo  Mo173  1  0.20928347  0.81380925  0.74943353  1
  Mo  Mo174  1  0.79987527  0.79653628  0.75963952  1
  Mo  Mo175  1  0.69992328  0.48727644  0.61470160  1
  Mo  Mo176  1  0.20478472  0.60138781  0.00921430  1
  Mo  Mo177  1  0.60639480  0.59312370  0.24437636  1
  Mo  Mo178  1  -0.00944620  0.20112395  0.00065901  1
  Mo  Mo179  1  0.00909449  0.59796534  0.74490553  1
  Mo  Mo180  1  0.90948705  0.49119207  0.61411631  1
  Mo  Mo181  1  0.69662573  0.10279710  0.12278338  1
  Mo  Mo182  1  0.51035717  0.09667109  0.88153312  1
  Mo  Mo183  1  0.80050339  -0.01219402  0.49743693  1
  Mo  Mo184  1  0.89365436  0.89728433  0.88186487  1
  Mo  Mo185  1  0.30270764  0.30874194  0.37466138  1
  Mo  Mo186  1  0.41443774  0.61113779  0.00530545  1
  Mo  Mo187  1  0.49374922  0.10110613  0.62199533  1
  Mo  Mo188  1  0.71785962  0.69707596  0.12673187  1
  Mo  Mo189  1  0.18111613  0.19405163  0.74846515  1
  Mo  Mo190  1  0.79674314  0.39014998  0.74407314  1
  Mo  Mo191  1  0.19706421  -0.00712124  0.24694648  1
  Mo  Mo192  1  0.89365083  0.30751731  0.37549449  1
  Mo  Mo193  1  0.39753024  0.00051341  0.25655149  1
  Mo  Mo194  1  0.20017647  -0.00778329  0.49443917  1
  Mo  Mo195  1  0.29480699  0.09401587  0.88204052  1
  Mo  Mo196  1  0.59739844  -0.00346444  0.49333226  1
  Mo  Mo197  1  0.70963108  0.90727961  0.11517952  1
  Mo  Mo198  1  0.69599696  0.68837304  0.87485063  1
  Mo  Mo199  1  0.88715552  0.50628814  0.37105878  1
