# generated using pymatgen
data_HfZrTaTiMo
_symmetry_space_group_name_H-M   'P 1'
_cell_length_a   15.20546529
_cell_length_b   15.20142599
_cell_length_c   16.84418639
_cell_angle_alpha   90.06099755
_cell_angle_beta   89.92638052
_cell_angle_gamma   89.89903990
_symmetry_Int_Tables_number   1
_chemical_formula_structural   HfZrTaTiMo
_chemical_formula_sum   'Hf40 Zr40 Ta40 Ti40 Mo40'
_cell_volume   3893.43386390
_cell_formula_units_Z   40
loop_
 _symmetry_equiv_pos_site_id
 _symmetry_equiv_pos_as_xyz
  1  'x, y, z'
loop_
 _atom_site_type_symbol
 _atom_site_label
 _atom_site_symmetry_multiplicity
 _atom_site_fract_x
 _atom_site_fract_y
 _atom_site_fract_z
 _atom_site_occupancy
  Hf  Hf0  1  0.81036193  0.19026766  0.24852792  1
  Hf  Hf1  1  0.00353628  0.40597428  0.24588538  1
  Hf  Hf2  1  0.69461331  0.09927266  0.87956733  1
  Hf  Hf3  1  0.38827915  0.20442838  0.25005996  1
  Hf  Hf4  1  0.91040798  0.70541887  0.62266804  1
  Hf  Hf5  1  0.79092898  0.39485649  0.76620876  1
  Hf  Hf6  1  0.30312680  0.50064872  0.38484706  1
  Hf  Hf7  1  0.49236990  0.30191172  0.62904602  1
  Hf  Hf8  1  0.49379334  0.69197914  0.37974254  1
  Hf  Hf9  1  0.89002675  0.52024746  0.88865249  1
  Hf  Hf10  1  0.39831445  0.79928440  0.25161528  1
  Hf  Hf11  1  0.59027689  0.01132634  0.74592298  1
  Hf  Hf12  1  0.48906529  0.09888977  0.89075538  1
  Hf  Hf13  1  0.91653427  0.90856562  0.86407598  1
  Hf  Hf14  1  0.70628814  0.09027425  0.61637215  1
  Hf  Hf15  1  0.01945721  0.60491978  -0.00322017  1
  Hf  Hf16  1  0.59142369  0.39151505  0.49836529  1
  Hf  Hf17  1  0.47962681  0.30349511  0.37725816  1
  Hf  Hf18  1  0.80656196  0.40295802  0.48506834  1
  Hf  Hf19  1  0.48721022  0.89299539  0.87329453  1
  Hf  Hf20  1  0.69560979  0.28247401  0.61823031  1
  Hf  Hf21  1  -0.00718397  0.19405537  0.77264088  1
  Hf  Hf22  1  0.49853417  0.10752043  0.60495562  1
  Hf  Hf23  1  0.37638347  -0.01879800  0.74181295  1
  Hf  Hf24  1  0.71981173  0.68359234  0.87095915  1
  Hf  Hf25  1  0.89433787  0.51271147  0.11344103  1
  Hf  Hf26  1  0.49220944  0.30101413  0.11923263  1
  Hf  Hf27  1  0.08222238  0.88950359  0.36457987  1
  Hf  Hf28  1  0.61613897  0.58823350  0.00203980  1
  Hf  Hf29  1  0.28491154  0.31577571  0.87667847  1
  Hf  Hf30  1  0.49686374  0.10330356  0.11966958  1
  Hf  Hf31  1  0.38562396  0.41141709  0.24218916  1
  Hf  Hf32  1  0.41643612  0.60964053  0.73938557  1
  Hf  Hf33  1  0.01759435  0.80307850  -0.00683051  1
  Hf  Hf34  1  0.11946422  0.49320282  0.86397112  1
  Hf  Hf35  1  0.91089857  0.91572613  0.64443751  1
  Hf  Hf36  1  0.60660319  0.80073903  0.25899092  1
  Hf  Hf37  1  0.69952233  0.09449583  0.12489727  1
  Hf  Hf38  1  0.51025580  0.69917930  0.88115699  1
  Hf  Hf39  1  0.81219558  0.80174167  -0.00815225  1
  Zr  Zr40  1  0.49545381  0.30070018  0.87629764  1
  Zr  Zr41  1  0.10239758  0.48253548  0.63334499  1
  Zr  Zr42  1  0.68923180  0.29858764  0.14003257  1
  Zr  Zr43  1  0.01304165  0.61181715  0.24616253  1
  Zr  Zr44  1  0.39523257  0.19266315  0.75238873  1
  Zr  Zr45  1  0.71111888  0.48727172  0.62263017  1
  Zr  Zr46  1  0.60170097  -0.01379235  0.00209010  1
  Zr  Zr47  1  0.17625335  0.00890113  0.48903842  1
  Zr  Zr48  1  0.76547694  0.40613595  -0.01064483  1
  Zr  Zr49  1  0.49583451  0.88670814  0.62093979  1
  Zr  Zr50  1  -0.00662188  0.39278788  0.76407452  1
  Zr  Zr51  1  0.81081577  0.39901959  0.25855339  1
  Zr  Zr52  1  0.38015887  0.61382386  -0.00409062  1
  Zr  Zr53  1  0.19164066  0.78684744  0.25439279  1
  Zr  Zr54  1  0.29173499  0.09263315  0.88873845  1
  Zr  Zr55  1  0.20169838  0.60184596  0.51850271  1
  Zr  Zr56  1  0.59417547  0.60249859  0.24767128  1
  Zr  Zr57  1  0.71509951  0.69794857  0.12103846  1
  Zr  Zr58  1  0.81367741  0.59138591  0.73778530  1
  Zr  Zr59  1  0.70462317  0.89661604  0.85735300  1
  Zr  Zr60  1  0.09495312  0.27427866  0.38064799  1
  Zr  Zr61  1  0.92732006  0.71763710  0.38135702  1
  Zr  Zr62  1  0.60903550  -0.01450008  0.49603227  1
  Zr  Zr63  1  0.79165648  0.19682817  0.76081681  1
  Zr  Zr64  1  0.19603167  0.39080552  0.25026256  1
  Zr  Zr65  1  0.28183642  0.10511353  0.61915366  1
  Zr  Zr66  1  0.08820132  0.27777719  0.61854908  1
  Zr  Zr67  1  0.80902473  0.82474412  0.49695471  1
  Zr  Zr68  1  0.71626836  0.07743550  0.37564939  1
  Zr  Zr69  1  0.28403241  0.30877025  0.63609876  1
  Zr  Zr70  1  0.49287999  0.50386249  0.11909825  1
  Zr  Zr71  1  0.39208700  0.00611495  0.24975777  1
  Zr  Zr72  1  0.61174290  0.78990635  0.48791355  1
  Zr  Zr73  1  0.90157044  0.11348159  0.62130000  1
  Zr  Zr74  1  0.00160721  0.20210737  0.22934948  1
  Zr  Zr75  1  0.59733120  0.59320583  0.51245746  1
  Zr  Zr76  1  0.69357292  0.50539854  0.36980173  1
  Zr  Zr77  1  0.22473696  0.78932384  0.00280327  1
  Zr  Zr78  1  0.68705878  0.28073606  0.36848010  1
  Zr  Zr79  1  0.30568949  0.72971894  0.63381242  1
  Ta  Ta80  1  0.91137044  0.50977274  0.37932608  1
  Ta  Ta81  1  0.49638690  0.90728359  0.37430767  1
  Ta  Ta82  1  0.38791478  0.41927759  0.75165263  1
  Ta  Ta83  1  0.60114913  0.21293066  -0.00160367  1
  Ta  Ta84  1  0.92335582  0.10935026  0.37780129  1
  Ta  Ta85  1  0.38770654  0.00014333  0.49019950  1
  Ta  Ta86  1  0.00832783  0.60513285  0.74903876  1
  Ta  Ta87  1  0.18002797  0.19911710  0.76913078  1
  Ta  Ta88  1  0.89484719  0.30512281  0.10742770  1
  Ta  Ta89  1  0.38851050  -0.01656242  0.01322857  1
  Ta  Ta90  1  0.80744164  0.60980634  0.26078912  1
  Ta  Ta91  1  0.29422209  0.90290278  0.37417156  1
  Ta  Ta92  1  0.79273755  0.20012105  0.00018249  1
  Ta  Ta93  1  0.80300448  0.61187169  0.49596534  1
  Ta  Ta94  1  0.80850958  0.80364935  0.25527629  1
  Ta  Ta95  1  0.09437335  0.89576402  0.13123198  1
  Ta  Ta96  1  0.49577784  0.71059659  0.11721011  1
  Ta  Ta97  1  0.70024815  0.49601388  0.13874517  1
  Ta  Ta98  1  0.70986703  0.90018812  0.13253676  1
  Ta  Ta99  1  0.50334553  0.10767631  0.38233667  1
  Ta  Ta100  1  -0.00372215  0.19992372  0.00093173  1
  Ta  Ta101  1  0.20178728  0.80509791  0.49503621  1
  Ta  Ta102  1  0.18497892  0.00072887  0.75309122  1
  Ta  Ta103  1  0.10040305  0.30477835  0.10800678  1
  Ta  Ta104  1  0.89491005  0.31446031  0.62048223  1
  Ta  Ta105  1  0.38820684  0.40779607  -0.00246189  1
  Ta  Ta106  1  0.20444501  0.59165379  0.25609965  1
  Ta  Ta107  1  0.29616290  0.69782143  0.38431038  1
  Ta  Ta108  1  0.49957491  0.49900200  0.87800293  1
  Ta  Ta109  1  0.19654889  0.18961768  0.23623740  1
  Ta  Ta110  1  0.88932725  0.92374096  0.36090025  1
  Ta  Ta111  1  0.70482235  0.70661881  0.63120206  1
  Ta  Ta112  1  0.71098537  0.89600655  0.64431023  1
  Ta  Ta113  1  0.20292368  0.38727947  0.49288907  1
  Ta  Ta114  1  0.09965545  0.09324917  0.10878937  1
  Ta  Ta115  1  0.89251909  0.08990826  0.89487877  1
  Ta  Ta116  1  0.48919249  0.50113658  0.37578515  1
  Ta  Ta117  1  0.00137019  0.59458561  0.51090273  1
  Ta  Ta118  1  0.08898189  0.08682207  0.89376522  1
  Ta  Ta119  1  0.02538078  0.80038715  0.75091219  1
  Ti  Ti120  1  0.91319469  0.71390628  0.12733797  1
  Ti  Ti121  1  0.50802720  0.90093180  0.13150902  1
  Ti  Ti122  1  0.39400706  0.41379813  0.51333466  1
  Ti  Ti123  1  -0.01368517  -0.00726575  0.49690307  1
  Ti  Ti124  1  0.21476511  0.59403503  0.73839434  1
  Ti  Ti125  1  0.11999195  0.69772068  0.86251867  1
  Ti  Ti126  1  0.30879950  0.71500141  0.85666724  1
  Ti  Ti127  1  0.60467319  0.79801148  0.00353244  1
  Ti  Ti128  1  0.11846074  0.89369110  0.63229282  1
  Ti  Ti129  1  0.60240954  0.00384205  0.25496588  1
  Ti  Ti130  1  0.38982625  0.60691129  0.24416116  1
  Ti  Ti131  1  0.10207472  0.50623845  0.38532365  1
  Ti  Ti132  1  -0.00151058  0.39293473  0.49291048  1
  Ti  Ti133  1  0.81332191  0.20188389  0.48775656  1
  Ti  Ti134  1  0.38031391  0.21129289  0.49401687  1
  Ti  Ti135  1  0.29494510  0.29892942  0.10986034  1
  Ti  Ti136  1  0.59457044  0.78456675  0.74492909  1
  Ti  Ti137  1  0.28750715  0.11330535  0.37640849  1
  Ti  Ti138  1  0.02170931  0.79851110  0.51450105  1
  Ti  Ti139  1  0.19399206  0.00363153  0.24753149  1
  Ti  Ti140  1  0.39906834  0.80451989  0.49366752  1
  Ti  Ti141  1  0.19338421  -0.01514252  0.00689243  1
  Ti  Ti142  1  0.89864779  0.09090094  0.10428575  1
  Ti  Ti143  1  0.00238150  0.40119045  -0.00395055  1
  Ti  Ti144  1  0.29666134  0.89347863  0.13294447  1
  Ti  Ti145  1  0.58676867  0.39649794  0.25589722  1
  Ti  Ti146  1  0.40566621  0.60333426  0.52236532  1
  Ti  Ti147  1  0.60641716  0.58828030  0.74027639  1
  Ti  Ti148  1  0.81814910  0.79117465  0.75525103  1
  Ti  Ti149  1  0.11975561  0.68924973  0.12070271  1
  Ti  Ti150  1  0.89953211  0.90505266  0.12453971  1
  Ti  Ti151  1  -0.00444028  0.00581168  0.23928507  1
  Ti  Ti152  1  0.29410927  0.10271618  0.11065760  1
  Ti  Ti153  1  0.27755862  0.51507045  0.12039641  1
  Ti  Ti154  1  0.19500858  0.20548412  -0.00367290  1
  Ti  Ti155  1  0.11914368  0.89771047  0.87267908  1
  Ti  Ti156  1  0.59409347  0.39460461  0.75107002  1
  Ti  Ti157  1  0.19435715  0.41925855  0.00518395  1
  Ti  Ti158  1  0.89200235  0.29758431  0.89492762  1
  Ti  Ti159  1  0.08643777  0.08836675  0.62965272  1
  Mo  Mo160  1  0.50012173  0.49362051  0.63270836  1
  Mo  Mo161  1  0.68473716  0.29525823  0.87320823  1
  Mo  Mo162  1  0.10154366  0.08345774  0.35880717  1
  Mo  Mo163  1  0.29546301  0.91050990  0.60947360  1
  Mo  Mo164  1  0.30567120  0.51346955  0.86972928  1
  Mo  Mo165  1  0.80088258  -0.00122617  0.75379521  1
  Mo  Mo166  1  0.80905569  0.60820727  0.00373108  1
  Mo  Mo167  1  0.20053115  0.60278896  -0.00971620  1
  Mo  Mo168  1  0.10475358  0.70342580  0.63936588  1
  Mo  Mo169  1  0.30395459  0.69680834  0.13498325  1
  Mo  Mo170  1  0.21606018  0.81381329  0.75699483  1
  Mo  Mo171  1  0.68252499  0.50070460  0.86423874  1
  Mo  Mo172  1  0.59275166  0.19603282  0.49403235  1
  Mo  Mo173  1  0.38805088  0.20087320  0.00780435  1
  Mo  Mo174  1  0.90280187  0.29995485  0.37919180  1
  Mo  Mo175  1  0.19837453  0.39396051  0.75361922  1
  Mo  Mo176  1  0.92415855  0.70578359  0.86520686  1
  Mo  Mo177  1  0.58686623  0.40224489  -0.00036179  1
  Mo  Mo178  1  0.30552215  0.50011273  0.62307844  1
  Mo  Mo179  1  0.71565258  0.69830678  0.37393330  1
  Mo  Mo180  1  0.00189809  -0.00910763  0.00716797  1
  Mo  Mo181  1  0.51459942  0.70043029  0.62296877  1
  Mo  Mo182  1  0.59501960  0.20298585  0.75103283  1
  Mo  Mo183  1  -0.00360592  0.80741380  0.23689506  1
  Mo  Mo184  1  0.58792419  0.19063318  0.25523779  1
  Mo  Mo185  1  0.29711660  0.90088333  0.88069435  1
  Mo  Mo186  1  0.10144429  0.49840216  0.11974810  1
  Mo  Mo187  1  0.10784092  0.68821765  0.38695078  1
  Mo  Mo188  1  0.00285533  0.18599400  0.49977647  1
  Mo  Mo189  1  0.09589732  0.29602704  0.89782819  1
  Mo  Mo190  1  0.00996782  0.00807690  0.75700033  1
  Mo  Mo191  1  0.81148965  0.00046850  0.50081564  1
  Mo  Mo192  1  0.19777124  0.19683724  0.49641313  1
  Mo  Mo193  1  0.29391509  0.29920524  0.37788248  1
  Mo  Mo194  1  0.70234747  0.89776163  0.35873412  1
  Mo  Mo195  1  0.81071310  0.00145123  0.23684735  1
  Mo  Mo196  1  0.41309198  0.80996971  0.01290503  1
  Mo  Mo197  1  0.80192268  -0.00551070  0.00525994  1
  Mo  Mo198  1  0.90858458  0.49377787  0.61453176  1
  Mo  Mo199  1  0.41003525  0.80266302  0.75095740  1
