# generated using pymatgen
data_HfZrTaTiMo
_symmetry_space_group_name_H-M   'P 1'
_cell_length_a   15.19225999
_cell_length_b   15.22084985
_cell_length_c   16.86531288
_cell_angle_alpha   89.95964634
_cell_angle_beta   90.02800131
_cell_angle_gamma   90.06951848
_symmetry_Int_Tables_number   1
_chemical_formula_structural   HfZrTaTiMo
_chemical_formula_sum   'Hf40 Zr40 Ta40 Ti40 Mo40'
_cell_volume   3899.91560442
_cell_formula_units_Z   40
loop_
 _symmetry_equiv_pos_site_id
 _symmetry_equiv_pos_as_xyz
  1  'x, y, z'
loop_
 _atom_site_type_symbol
 _atom_site_label
 _atom_site_symmetry_multiplicity
 _atom_site_fract_x
 _atom_site_fract_y
 _atom_site_fract_z
 _atom_site_occupancy
  Hf  Hf0  1  0.28270272  0.69321462  0.86548498  1
  Hf  Hf1  1  0.69377677  0.91836101  0.87561912  1
  Hf  Hf2  1  0.79846026  0.81126338  0.50721323  1
  Hf  Hf3  1  0.51640024  0.49340628  0.62580369  1
  Hf  Hf4  1  0.69797019  0.71278442  0.62309925  1
  Hf  Hf5  1  0.49142307  0.28240994  0.62744544  1
  Hf  Hf6  1  0.89967319  0.30921558  0.38161486  1
  Hf  Hf7  1  0.31228292  0.09325134  0.63151725  1
  Hf  Hf8  1  0.10193091  0.30125038  0.39141835  1
  Hf  Hf9  1  0.01268680  0.61880831  0.75227626  1
  Hf  Hf10  1  0.59312632  0.80917850  0.00270371  1
  Hf  Hf11  1  0.37723682  0.39533167  0.23761012  1
  Hf  Hf12  1  0.47240198  0.91179939  0.12431956  1
  Hf  Hf13  1  0.00971924  0.00049191  0.74949894  1
  Hf  Hf14  1  0.81501720  0.58949659  0.51386856  1
  Hf  Hf15  1  0.70081105  0.28107583  0.35796912  1
  Hf  Hf16  1  -0.00226498  0.40040929  -0.00428202  1
  Hf  Hf17  1  0.90058421  0.70433500  0.88299337  1
  Hf  Hf18  1  0.69442298  0.32146639  0.62442163  1
  Hf  Hf19  1  0.50027584  0.89713765  0.37034603  1
  Hf  Hf20  1  0.30729068  0.27603551  0.86903859  1
  Hf  Hf21  1  0.39981301  -0.00187952  0.49685623  1
  Hf  Hf22  1  0.50167162  0.28427347  0.12428713  1
  Hf  Hf23  1  0.69885554  0.10028624  0.63082755  1
  Hf  Hf24  1  0.59367719  0.40420846  0.76672517  1
  Hf  Hf25  1  0.89405880  0.90429866  0.86933420  1
  Hf  Hf26  1  0.38879618  0.39328933  0.01101542  1
  Hf  Hf27  1  0.30081210  0.48255895  0.86945131  1
  Hf  Hf28  1  0.60033706  0.80942794  0.23394819  1
  Hf  Hf29  1  0.39912082  0.19756012  0.25593898  1
  Hf  Hf30  1  0.51242395  0.49937515  0.12292022  1
  Hf  Hf31  1  0.60692854  0.20122299  0.75962110  1
  Hf  Hf32  1  0.89700950  0.31011433  0.62437799  1
  Hf  Hf33  1  0.10010067  0.50200508  0.38619962  1
  Hf  Hf34  1  0.20068505  0.38642658  0.72945410  1
  Hf  Hf35  1  0.79580124  0.00505901  0.50588569  1
  Hf  Hf36  1  0.49964205  0.71289283  0.62866082  1
  Hf  Hf37  1  0.49750533  0.70422364  0.87135414  1
  Hf  Hf38  1  -0.00283574  -0.00801861  0.50819904  1
  Hf  Hf39  1  0.19688589  0.21511847  0.24443566  1
  Zr  Zr40  1  0.70156625  0.68978517  0.12038657  1
  Zr  Zr41  1  0.21258264  0.59259628  0.24685686  1
  Zr  Zr42  1  0.71874094  0.51014730  0.88028402  1
  Zr  Zr43  1  -0.01103949  -0.00293465  -0.00352014  1
  Zr  Zr44  1  0.61449473  0.60821871  0.75722285  1
  Zr  Zr45  1  0.37878658  0.80802018  -0.00957630  1
  Zr  Zr46  1  0.59851213  0.39450703  0.47752038  1
  Zr  Zr47  1  0.21356331  -0.01499888  0.00768993  1
  Zr  Zr48  1  0.60558458  0.60140849  0.49296405  1
  Zr  Zr49  1  0.00007551  0.41019697  0.74774070  1
  Zr  Zr50  1  0.79931261  0.20606355  0.50231201  1
  Zr  Zr51  1  0.38707808  -0.00080869  0.25578178  1
  Zr  Zr52  1  0.19442263  0.00136445  0.24366723  1
  Zr  Zr53  1  0.39913755  0.39030425  0.49980620  1
  Zr  Zr54  1  -0.00705958  0.20028935  0.24938928  1
  Zr  Zr55  1  0.59303362  0.01298687  0.00953016  1
  Zr  Zr56  1  0.50120273  0.10965708  0.86740129  1
  Zr  Zr57  1  0.01273536  0.60297008  -0.00015614  1
  Zr  Zr58  1  0.29353890  0.48962274  0.38309303  1
  Zr  Zr59  1  0.77917624  0.00996591  0.22859351  1
  Zr  Zr60  1  0.12350389  0.09605564  0.87965424  1
  Zr  Zr61  1  0.80787177  0.59821735  0.24619607  1
  Zr  Zr62  1  0.40261172  0.58743559  0.74628737  1
  Zr  Zr63  1  0.91902716  0.71572160  0.11580050  1
  Zr  Zr64  1  0.71797867  0.49060893  0.36921830  1
  Zr  Zr65  1  0.60646318  0.60017427  -0.00537728  1
  Zr  Zr66  1  0.01006009  0.60727464  0.24936721  1
  Zr  Zr67  1  0.10109712  0.10867954  0.11177196  1
  Zr  Zr68  1  0.11866584  0.47471115  0.12722203  1
  Zr  Zr69  1  0.70792874  0.71127018  0.37614238  1
  Zr  Zr70  1  0.21398765  0.58820247  0.00623464  1
  Zr  Zr71  1  0.59376900  0.18830998  0.49599184  1
  Zr  Zr72  1  0.71584781  0.30348836  0.87752201  1
  Zr  Zr73  1  0.29644876  0.70492004  0.38659581  1
  Zr  Zr74  1  0.01011425  0.20503352  0.75217280  1
  Zr  Zr75  1  -0.01024456  -0.00782738  0.24509120  1
  Zr  Zr76  1  0.81286824  0.81107687  0.23785770  1
  Zr  Zr77  1  0.41038423  0.59637163  0.25589838  1
  Zr  Zr78  1  0.40381638  0.59577970  0.50216569  1
  Zr  Zr79  1  0.29279412  0.70647101  0.62768721  1
  Ta  Ta80  1  0.19745830  0.39542733  0.52738461  1
  Ta  Ta81  1  0.08341924  0.88509876  0.12238858  1
  Ta  Ta82  1  0.00815178  0.39645214  0.24923480  1
  Ta  Ta83  1  0.19076372  0.80132546  0.25537374  1
  Ta  Ta84  1  0.89389849  0.10161752  0.37327903  1
  Ta  Ta85  1  0.58920784  0.39463046  0.25674211  1
  Ta  Ta86  1  0.38509609  0.81248867  0.75638054  1
  Ta  Ta87  1  0.69781857  0.08682521  0.36953602  1
  Ta  Ta88  1  0.50882498  0.09688190  0.36968551  1
  Ta  Ta89  1  0.59388776  0.82021402  0.75638780  1
  Ta  Ta90  1  0.40483758  -0.00553815  0.76158600  1
  Ta  Ta91  1  0.91902466  0.71929417  0.62560224  1
  Ta  Ta92  1  0.90536469  0.10315333  0.63381588  1
  Ta  Ta93  1  0.09119168  0.88158377  0.62944788  1
  Ta  Ta94  1  0.39789083  0.19330817  0.48684192  1
  Ta  Ta95  1  0.49306666  0.70222282  0.12350786  1
  Ta  Ta96  1  0.60323250  0.59666840  0.25489962  1
  Ta  Ta97  1  0.10918091  0.50089947  0.87134721  1
  Ta  Ta98  1  0.11209255  0.30281842  0.88115382  1
  Ta  Ta99  1  0.50596125  0.70627136  0.37444186  1
  Ta  Ta100  1  0.89279395  0.90221188  0.37505249  1
  Ta  Ta101  1  0.91268051  0.70836422  0.38220314  1
  Ta  Ta102  1  0.19587324  -0.00354521  0.51352349  1
  Ta  Ta103  1  0.89945044  0.49134182  0.12676569  1
  Ta  Ta104  1  0.60566595  0.20464098  -0.00373123  1
  Ta  Ta105  1  0.09725437  0.09727838  0.38407191  1
  Ta  Ta106  1  0.80188178  0.81945953  0.00986806  1
  Ta  Ta107  1  0.00422175  0.19279344  0.51040258  1
  Ta  Ta108  1  0.38776385  0.79650023  0.24938332  1
  Ta  Ta109  1  0.81380797  0.60576336  0.73752800  1
  Ta  Ta110  1  0.79595783  0.80284871  0.74652112  1
  Ta  Ta111  1  0.50404056  0.08917406  0.63590644  1
  Ta  Ta112  1  0.20095304  0.19405176  0.51728566  1
  Ta  Ta113  1  0.40288683  0.60007570  0.00161660  1
  Ta  Ta114  1  0.18966192  0.80573773  0.50616201  1
  Ta  Ta115  1  0.11589077  0.70677739  0.12684584  1
  Ta  Ta116  1  -0.00028551  0.20469426  -0.01009572  1
  Ta  Ta117  1  0.69368103  0.90477423  0.37167789  1
  Ta  Ta118  1  0.61068864  0.39527425  0.00133747  1
  Ta  Ta119  1  -0.00853730  0.41257823  0.51280318  1
  Ti  Ti120  1  0.39570164  0.00189093  -0.02609171  1
  Ti  Ti121  1  0.09841780  0.88210260  0.87227622  1
  Ti  Ti122  1  0.80804963  0.58784997  0.01209826  1
  Ti  Ti123  1  0.20163320  0.59639360  0.51490491  1
  Ti  Ti124  1  0.31302426  0.10007949  0.11913122  1
  Ti  Ti125  1  0.09148529  0.89812955  0.37928857  1
  Ti  Ti126  1  0.79137357  0.00979007  0.75057314  1
  Ti  Ti127  1  0.60537318  0.18101766  0.23881744  1
  Ti  Ti128  1  0.49794062  0.90369916  0.62837924  1
  Ti  Ti129  1  0.20183730  0.18943370  0.73323939  1
  Ti  Ti130  1  0.30469501  0.70040327  0.12548956  1
  Ti  Ti131  1  0.00830754  0.61457895  0.50851321  1
  Ti  Ti132  1  0.88825202  0.10950514  0.87331008  1
  Ti  Ti133  1  0.90312824  0.30807781  0.87263245  1
  Ti  Ti134  1  0.18559461  0.79082778  -0.00520593  1
  Ti  Ti135  1  0.80024209  0.41624334  0.74428368  1
  Ti  Ti136  1  0.90960493  0.50345633  0.37548052  1
  Ti  Ti137  1  0.09354974  0.50675084  0.62243530  1
  Ti  Ti138  1  0.60102305  -0.01669638  0.50537935  1
  Ti  Ti139  1  0.88957682  0.90601626  0.63878121  1
  Ti  Ti140  1  0.28653556  0.90058569  0.38054029  1
  Ti  Ti141  1  0.89031658  0.11068252  0.11897337  1
  Ti  Ti142  1  0.39856303  0.38549306  0.74317278  1
  Ti  Ti143  1  0.80136985  0.20873539  0.00100356  1
  Ti  Ti144  1  0.90311361  0.50282010  0.87535606  1
  Ti  Ti145  1  0.40133388  0.80618999  0.50263629  1
  Ti  Ti146  1  0.49725211  0.49017236  0.88708639  1
  Ti  Ti147  1  0.80568629  0.20694190  0.74954905  1
  Ti  Ti148  1  0.09827272  0.70808521  0.38248515  1
  Ti  Ti149  1  0.70956442  0.71503940  0.87910377  1
  Ti  Ti150  1  0.18003339  0.79013803  0.74814585  1
  Ti  Ti151  1  0.40062087  0.18960876  -0.00019576  1
  Ti  Ti152  1  0.20139272  0.58824432  0.73713140  1
  Ti  Ti153  1  0.28601837  0.09933028  0.38239271  1
  Ti  Ti154  1  0.80609509  0.39091437  0.24134888  1
  Ti  Ti155  1  0.90539883  0.29858062  0.12277994  1
  Ti  Ti156  1  0.29309053  0.29491865  0.38200063  1
  Ti  Ti157  1  0.78814378  0.01520575  0.00929283  1
  Ti  Ti158  1  0.70705697  0.30241026  0.12937014  1
  Ti  Ti159  1  0.21035757  -0.02008214  0.74010053  1
  Mo  Mo160  1  0.28239224  0.29221165  0.11576826  1
  Mo  Mo161  1  0.30340865  0.28827447  0.62504072  1
  Mo  Mo162  1  0.80397071  0.39822642  0.01405423  1
  Mo  Mo163  1  0.19830525  0.38777544  -0.00898325  1
  Mo  Mo164  1  0.89711379  0.91244190  0.11390599  1
  Mo  Mo165  1  0.49935635  0.30761591  0.88839710  1
  Mo  Mo166  1  0.80116309  0.20217621  0.24520362  1
  Mo  Mo167  1  0.00536015  0.80514808  -0.00660798  1
  Mo  Mo168  1  0.69364373  0.90701116  0.11417116  1
  Mo  Mo169  1  0.71612897  0.10689426  0.87560696  1
  Mo  Mo170  1  0.30974387  0.49876373  0.12217940  1
  Mo  Mo171  1  0.70846419  0.50183237  0.63162369  1
  Mo  Mo172  1  0.10191799  0.08812345  0.62609840  1
  Mo  Mo173  1  0.90450682  0.51310794  0.63070651  1
  Mo  Mo174  1  0.50409449  0.49891484  0.36125176  1
  Mo  Mo175  1  0.09091725  0.29370120  0.11234301  1
  Mo  Mo176  1  0.19136524  0.39017072  0.25657900  1
  Mo  Mo177  1  0.09442171  0.29218302  0.61518129  1
  Mo  Mo178  1  0.59062035  0.00450818  0.23976254  1
  Mo  Mo179  1  0.30310176  0.49357417  0.62629396  1
  Mo  Mo180  1  0.49112293  0.10389262  0.12074738  1
  Mo  Mo181  1  -0.00607255  0.80682817  0.75220877  1
  Mo  Mo182  1  0.69159300  0.90627789  0.63683581  1
  Mo  Mo183  1  0.30291881  0.89527431  0.62496803  1
  Mo  Mo184  1  0.10216380  0.69708662  0.87441616  1
  Mo  Mo185  1  0.80500677  0.40458879  0.49862337  1
  Mo  Mo186  1  0.49296824  0.29021079  0.35935104  1
  Mo  Mo187  1  0.49438492  0.90047835  0.87283970  1
  Mo  Mo188  1  0.00501986  0.80280375  0.25918484  1
  Mo  Mo189  1  0.21100746  0.20164340  0.00324239  1
  Mo  Mo190  1  0.27646985  0.87535364  0.13055655  1
  Mo  Mo191  1  0.40020180  0.19845085  0.74834519  1
  Mo  Mo192  1  0.28274247  0.90164274  0.86543137  1
  Mo  Mo193  1  0.29727264  0.09210181  0.85953356  1
  Mo  Mo194  1  0.10116069  0.69869427  0.61881413  1
  Mo  Mo195  1  0.69363964  0.12158067  0.11788267  1
  Mo  Mo196  1  -0.00302650  0.80492495  0.49612826  1
  Mo  Mo197  1  0.59104007  0.81050050  0.50031631  1
  Mo  Mo198  1  0.70588448  0.48424738  0.13331114  1
  Mo  Mo199  1  0.60112010  0.00025717  0.74857211  1
