# generated using pymatgen
data_HfZrTaTiMo
_symmetry_space_group_name_H-M   'P 1'
_cell_length_a   15.22400690
_cell_length_b   15.19240092
_cell_length_c   16.86619545
_cell_angle_alpha   90.00551966
_cell_angle_beta   90.00592798
_cell_angle_gamma   89.95817926
_symmetry_Int_Tables_number   1
_chemical_formula_structural   HfZrTaTiMo
_chemical_formula_sum   'Hf40 Zr40 Ta40 Ti40 Mo40'
_cell_volume   3900.96805321
_cell_formula_units_Z   40
loop_
 _symmetry_equiv_pos_site_id
 _symmetry_equiv_pos_as_xyz
  1  'x, y, z'
loop_
 _atom_site_type_symbol
 _atom_site_label
 _atom_site_symmetry_multiplicity
 _atom_site_fract_x
 _atom_site_fract_y
 _atom_site_fract_z
 _atom_site_occupancy
  Hf  Hf0  1  0.91466451  0.49471683  0.10621281  1
  Hf  Hf1  1  0.80222457  0.38179621  0.23244876  1
  Hf  Hf2  1  0.29692564  0.49468450  0.37536482  1
  Hf  Hf3  1  0.11992609  0.30671797  0.87371290  1
  Hf  Hf4  1  0.79701125  0.59098503  0.50032310  1
  Hf  Hf5  1  0.09895396  0.10318834  0.37567240  1
  Hf  Hf6  1  0.00001144  0.39311297  0.51232309  1
  Hf  Hf7  1  0.48639163  0.31114844  0.87948446  1
  Hf  Hf8  1  0.69248022  0.89637928  0.62500432  1
  Hf  Hf9  1  0.47957054  0.90660292  0.61430968  1
  Hf  Hf10  1  0.19914783  0.80696624  0.76023169  1
  Hf  Hf11  1  0.19973866  0.60422194  0.74551457  1
  Hf  Hf12  1  0.29188314  0.89895924  0.11840961  1
  Hf  Hf13  1  0.59186006  0.00874211  -0.00107501  1
  Hf  Hf14  1  0.51096420  0.31886531  0.13308863  1
  Hf  Hf15  1  0.59795513  0.60776412  0.49171880  1
  Hf  Hf16  1  0.22023629  0.19460328  0.74633761  1
  Hf  Hf17  1  0.39309197  0.58875422  0.74620057  1
  Hf  Hf18  1  0.69278762  0.49837504  0.12279339  1
  Hf  Hf19  1  0.50939823  0.29564179  0.62865154  1
  Hf  Hf20  1  0.71116731  0.30063821  0.37188884  1
  Hf  Hf21  1  0.90538939  0.48450272  0.37122887  1
  Hf  Hf22  1  0.12351211  0.28890725  0.12615510  1
  Hf  Hf23  1  0.18959997  0.79075006  -0.00633067  1
  Hf  Hf24  1  -0.01233276  -0.00099659  -0.00920190  1
  Hf  Hf25  1  0.22182789  0.40578845  0.73796692  1
  Hf  Hf26  1  0.68598759  0.90271574  0.85740685  1
  Hf  Hf27  1  0.57693577  0.00863166  0.74754479  1
  Hf  Hf28  1  0.70481953  0.70987089  0.86183402  1
  Hf  Hf29  1  0.69936559  0.10434403  0.13346674  1
  Hf  Hf30  1  0.19516739  0.80192843  0.25492461  1
  Hf  Hf31  1  0.37146340  0.00401327  0.75281160  1
  Hf  Hf32  1  -0.02534042  -0.00295074  0.74750603  1
  Hf  Hf33  1  0.90432097  0.70729560  0.62111745  1
  Hf  Hf34  1  0.59674241  0.61866800  0.00177393  1
  Hf  Hf35  1  0.71324513  0.30784145  0.63772218  1
  Hf  Hf36  1  0.69869496  0.49632870  0.35807242  1
  Hf  Hf37  1  0.79830445  -0.01715395  0.26633868  1
  Hf  Hf38  1  0.50654830  0.50312565  0.62555761  1
  Hf  Hf39  1  0.29275316  0.91661265  0.89471855  1
  Zr  Zr40  1  0.39550601  0.80196957  0.76178824  1
  Zr  Zr41  1  0.79019308  0.38732468  -0.01071502  1
  Zr  Zr42  1  0.49560429  0.90922921  0.12094245  1
  Zr  Zr43  1  0.20383376  0.40270693  0.51468988  1
  Zr  Zr44  1  0.20673163  0.20282056  0.50903817  1
  Zr  Zr45  1  0.39394562  0.60394555  0.24534132  1
  Zr  Zr46  1  0.50951457  0.28851283  0.35604001  1
  Zr  Zr47  1  -0.01802908  0.78762389  -0.01113325  1
  Zr  Zr48  1  0.81583220  0.60082482  0.25035395  1
  Zr  Zr49  1  0.10379531  0.30373751  0.37132152  1
  Zr  Zr50  1  0.91730967  0.50039863  0.88909885  1
  Zr  Zr51  1  0.61232820  0.21680265  -0.00128051  1
  Zr  Zr52  1  0.69293715  0.69002888  0.63665150  1
  Zr  Zr53  1  0.10223112  0.09995367  0.85938312  1
  Zr  Zr54  1  0.83016821  0.18872984  0.75177031  1
  Zr  Zr55  1  0.39033032  0.00228875  0.24688138  1
  Zr  Zr56  1  0.08078614  0.89724413  0.12801454  1
  Zr  Zr57  1  0.49919629  0.71062371  0.62973386  1
  Zr  Zr58  1  0.81590782  0.18536126  -0.01505798  1
  Zr  Zr59  1  -0.00117807  0.59996566  0.49994316  1
  Zr  Zr60  1  0.60206948  0.40818439  0.75871476  1
  Zr  Zr61  1  0.09973810  0.08072954  0.63613556  1
  Zr  Zr62  1  -0.02329478  0.79360438  0.26302256  1
  Zr  Zr63  1  0.58956122  0.02079448  0.26974129  1
  Zr  Zr64  1  0.80450468  0.19855761  0.50918673  1
  Zr  Zr65  1  0.91720922  0.29278657  0.11124952  1
  Zr  Zr66  1  0.81336864  0.39514759  0.77176008  1
  Zr  Zr67  1  0.61580231  0.40420655  0.50440377  1
  Zr  Zr68  1  0.70815270  0.71046636  0.36286723  1
  Zr  Zr69  1  0.19648309  0.60002263  0.50530749  1
  Zr  Zr70  1  0.48133371  0.10501687  0.88662427  1
  Zr  Zr71  1  0.69941255  0.09809572  0.63203575  1
  Zr  Zr72  1  0.19282736  -0.00645773  0.49611109  1
  Zr  Zr73  1  0.29612637  0.69632833  0.12091723  1
  Zr  Zr74  1  0.90945328  0.08417915  0.13085021  1
  Zr  Zr75  1  0.69934143  0.71281941  0.13603538  1
  Zr  Zr76  1  0.49962047  0.49883762  0.37200464  1
  Zr  Zr77  1  0.90016341  0.69645417  0.11991633  1
  Zr  Zr78  1  0.59808796  0.00243892  0.48555268  1
  Zr  Zr79  1  0.78665679  -0.01476736  -0.00218652  1
  Ta  Ta80  1  0.41148605  0.20179706  0.74859265  1
  Ta  Ta81  1  0.81328577  0.18812437  0.25369097  1
  Ta  Ta82  1  0.18870522  0.79831192  0.49199227  1
  Ta  Ta83  1  0.10226433  0.49694851  0.36766655  1
  Ta  Ta84  1  0.59150482  0.80335645  0.48439248  1
  Ta  Ta85  1  0.39568845  0.60299924  0.50087326  1
  Ta  Ta86  1  0.88448059  0.89046069  0.87046036  1
  Ta  Ta87  1  0.80328264  0.59626048  0.75423034  1
  Ta  Ta88  1  0.29802978  0.70710953  0.61812151  1
  Ta  Ta89  1  0.59585286  0.20243940  0.49546776  1
  Ta  Ta90  1  0.69016317  0.89939586  0.13519743  1
  Ta  Ta91  1  0.09838755  0.68778477  0.12743881  1
  Ta  Ta92  1  0.00969371  0.59137067  0.25015942  1
  Ta  Ta93  1  0.30912996  0.28747510  0.37442074  1
  Ta  Ta94  1  0.69884965  0.10576069  0.85700021  1
  Ta  Ta95  1  0.30416451  0.68261560  0.88657908  1
  Ta  Ta96  1  0.22733743  0.19459979  -0.00203888  1
  Ta  Ta97  1  0.40561238  0.39337771  0.49766411  1
  Ta  Ta98  1  0.09934732  0.71488487  0.62635179  1
  Ta  Ta99  1  0.30156617  0.90619479  0.37413304  1
  Ta  Ta100  1  0.31039525  0.09461814  0.61689310  1
  Ta  Ta101  1  0.09088114  0.90128344  0.87391062  1
  Ta  Ta102  1  0.00136779  0.19324068  0.51447471  1
  Ta  Ta103  1  0.58772491  0.41782626  -0.00573482  1
  Ta  Ta104  1  0.90467203  0.09152722  0.38637443  1
  Ta  Ta105  1  0.29497371  0.70476436  0.37517231  1
  Ta  Ta106  1  0.69346355  0.51004731  0.88042211  1
  Ta  Ta107  1  0.49385521  0.10577604  0.61249405  1
  Ta  Ta108  1  0.40488229  0.59194534  0.00542050  1
  Ta  Ta109  1  0.02958996  0.18950852  0.00114819  1
  Ta  Ta110  1  0.21245504  0.39330948  0.24636111  1
  Ta  Ta111  1  0.58583876  0.81843738  0.26660228  1
  Ta  Ta112  1  0.40792231  0.79231101  -0.00768495  1
  Ta  Ta113  1  0.18150141  0.01378342  0.01002138  1
  Ta  Ta114  1  0.49730205  0.71545431  0.13246462  1
  Ta  Ta115  1  0.49325525  0.51356570  0.87335150  1
  Ta  Ta116  1  0.20056531  0.58148883  -0.00289824  1
  Ta  Ta117  1  -0.00235400  0.59912636  0.74820245  1
  Ta  Ta118  1  0.80972649  0.81020953  0.73832997  1
  Ta  Ta119  1  0.91090134  0.28479242  0.37221705  1
  Ti  Ti120  1  0.27580769  0.89756309  0.62140465  1
  Ti  Ti121  1  0.89045092  0.49315932  0.63344388  1
  Ti  Ti122  1  0.80521321  0.61575087  -0.01109827  1
  Ti  Ti123  1  0.37952781  0.02842037  0.01570928  1
  Ti  Ti124  1  0.93193959  0.28778464  0.88444032  1
  Ti  Ti125  1  0.80980418  0.39698830  0.50599514  1
  Ti  Ti126  1  0.30747544  0.48828624  0.12275364  1
  Ti  Ti127  1  0.70481057  0.10849191  0.37590367  1
  Ti  Ti128  1  -0.00074480  0.79692474  0.75488485  1
  Ti  Ti129  1  0.09535711  0.69209371  0.87079007  1
  Ti  Ti130  1  0.48487330  0.71018444  0.36775430  1
  Ti  Ti131  1  0.59030916  0.60296653  0.24571853  1
  Ti  Ti132  1  0.00885242  0.19385173  0.24649036  1
  Ti  Ti133  1  0.30960961  0.47946563  0.88073218  1
  Ti  Ti134  1  0.09419427  0.50455070  0.63332548  1
  Ti  Ti135  1  -0.00181085  -0.00184974  0.25698124  1
  Ti  Ti136  1  0.22161742  0.38962068  0.00366219  1
  Ti  Ti137  1  0.90319526  0.90922602  0.60414974  1
  Ti  Ti138  1  0.19531280  0.01433277  0.24820253  1
  Ti  Ti139  1  0.32043632  0.30009806  0.62217426  1
  Ti  Ti140  1  0.00437323  0.39610266  0.74661951  1
  Ti  Ti141  1  0.60587914  0.80997322  -0.00023586  1
  Ti  Ti142  1  0.19604712  0.59352460  0.24941866  1
  Ti  Ti143  1  0.79329056  0.79880596  0.50034396  1
  Ti  Ti144  1  0.89326781  0.88993017  0.39361516  1
  Ti  Ti145  1  0.00784263  0.39553981  0.24389835  1
  Ti  Ti146  1  0.38156590  0.19986589  0.24127179  1
  Ti  Ti147  1  0.49450298  0.11966186  0.12712319  1
  Ti  Ti148  1  0.09242224  0.69591370  0.37302920  1
  Ti  Ti149  1  0.10900648  0.49372922  0.12434495  1
  Ti  Ti150  1  0.49317132  0.89929912  0.88156729  1
  Ti  Ti151  1  0.50643782  0.70425600  0.86672219  1
  Ti  Ti152  1  0.87746483  0.88493552  0.12380436  1
  Ti  Ti153  1  0.08923510  0.90034470  0.37526510  1
  Ti  Ti154  1  0.38807895  0.80426738  0.49313994  1
  Ti  Ti155  1  0.01751141  0.59776180  -0.00348233  1
  Ti  Ti156  1  0.11134590  0.49829074  0.87158772  1
  Ti  Ti157  1  0.09957762  0.29506084  0.63868658  1
  Ti  Ti158  1  0.40260361  0.40240878  0.24814893  1
  Ti  Ti159  1  0.46199496  0.09806303  0.39305869  1
  Mo  Mo160  1  0.69444494  0.29812166  0.86554843  1
  Mo  Mo161  1  0.90304830  0.69782487  0.38491609  1
  Mo  Mo162  1  0.79619411  -0.00597426  0.74784041  1
  Mo  Mo163  1  0.62752421  0.21686726  0.23832993  1
  Mo  Mo164  1  0.31015725  0.29574359  0.87392000  1
  Mo  Mo165  1  0.69783516  0.90395451  0.38510716  1
  Mo  Mo166  1  0.60191945  0.20241261  0.75791259  1
  Mo  Mo167  1  0.48659019  0.89755340  0.38220304  1
  Mo  Mo168  1  0.39450578  0.80245925  0.25698042  1
  Mo  Mo169  1  0.90482824  0.09410612  0.87681131  1
  Mo  Mo170  1  0.03534795  0.40519779  -0.00190918  1
  Mo  Mo171  1  0.71111514  0.50193070  0.63227897  1
  Mo  Mo172  1  0.39693741  0.39590854  0.74575260  1
  Mo  Mo173  1  0.40153752  0.21299133  0.01777614  1
  Mo  Mo174  1  0.31091524  0.50245268  0.61369456  1
  Mo  Mo175  1  0.70714349  0.30001165  0.12300394  1
  Mo  Mo176  1  0.08758871  0.88418019  0.62506485  1
  Mo  Mo177  1  0.00655537  0.20839117  0.74295490  1
  Mo  Mo178  1  0.79786553  -0.00661851  0.48699086  1
  Mo  Mo179  1  0.59217622  0.80856089  0.75060857  1
  Mo  Mo180  1  0.49946476  0.51554460  0.12651607  1
  Mo  Mo181  1  0.31197601  0.30162019  0.13050262  1
  Mo  Mo182  1  0.90139800  0.69805481  0.86087039  1
  Mo  Mo183  1  0.90032328  0.09277884  0.60910959  1
  Mo  Mo184  1  0.38695704  -0.00316265  0.50175113  1
  Mo  Mo185  1  0.00071393  0.80097257  0.48967801  1
  Mo  Mo186  1  0.40403371  0.20453860  0.50146508  1
  Mo  Mo187  1  0.20479438  0.19827755  0.25500235  1
  Mo  Mo188  1  0.60017249  0.60246095  0.75967876  1
  Mo  Mo189  1  0.29127141  0.10459485  0.37451963  1
  Mo  Mo190  1  0.10055835  0.09593951  0.13076381  1
  Mo  Mo191  1  0.39921078  0.40844220  0.00670983  1
  Mo  Mo192  1  0.78492128  0.79592660  -0.00484571  1
  Mo  Mo193  1  0.79175555  0.80735850  0.25636066  1
  Mo  Mo194  1  0.19325947  -0.01126453  0.74813479  1
  Mo  Mo195  1  0.29819637  0.10771011  0.87979410  1
  Mo  Mo196  1  0.91437387  0.30122413  0.63012641  1
  Mo  Mo197  1  0.60218236  0.40910376  0.24596864  1
  Mo  Mo198  1  0.28837093  0.10613981  0.12980941  1
  Mo  Mo199  1  -0.00472464  -0.00288936  0.49873136  1
