# generated using pymatgen
data_HfZrTaTiMo
_symmetry_space_group_name_H-M   'P 1'
_cell_length_a   15.21328676
_cell_length_b   15.21074196
_cell_length_c   16.85249146
_cell_angle_alpha   90.02981293
_cell_angle_beta   89.88223028
_cell_angle_gamma   90.07329585
_symmetry_Int_Tables_number   1
_chemical_formula_structural   HfZrTaTiMo
_chemical_formula_sum   'Hf40 Zr40 Ta40 Ti40 Mo40'
_cell_volume   3899.74522568
_cell_formula_units_Z   40
loop_
 _symmetry_equiv_pos_site_id
 _symmetry_equiv_pos_as_xyz
  1  'x, y, z'
loop_
 _atom_site_type_symbol
 _atom_site_label
 _atom_site_symmetry_multiplicity
 _atom_site_fract_x
 _atom_site_fract_y
 _atom_site_fract_z
 _atom_site_occupancy
  Hf  Hf0  1  0.80616510  0.38393072  0.74933011  1
  Hf  Hf1  1  0.89170201  0.89353624  0.37814185  1
  Hf  Hf2  1  0.79636419  -0.00575084  0.50220743  1
  Hf  Hf3  1  0.70116300  0.69504778  0.87677845  1
  Hf  Hf4  1  0.71647704  0.52461869  0.38416162  1
  Hf  Hf5  1  0.28529833  0.29481431  0.63638183  1
  Hf  Hf6  1  0.20788782  0.40085890  0.24146058  1
  Hf  Hf7  1  0.48461815  0.70272581  0.12093120  1
  Hf  Hf8  1  0.40166624  0.40207434  0.25701055  1
  Hf  Hf9  1  0.47503082  0.91543362  0.87758224  1
  Hf  Hf10  1  0.00445467  0.02416452  0.76699346  1
  Hf  Hf11  1  0.89522285  0.90198739  0.89160042  1
  Hf  Hf12  1  0.80131974  -0.00508634  0.75077112  1
  Hf  Hf13  1  0.00419702  0.40441197  0.50083989  1
  Hf  Hf14  1  0.39869127  0.80265773  0.25643835  1
  Hf  Hf15  1  0.09804188  0.09519894  0.37083903  1
  Hf  Hf16  1  0.59163759  0.00221646  0.48661121  1
  Hf  Hf17  1  0.90465719  0.69427555  0.88430984  1
  Hf  Hf18  1  0.18537081  0.19522348  0.76764532  1
  Hf  Hf19  1  0.38678833  0.60481655  -0.00821472  1
  Hf  Hf20  1  0.10759083  0.47703326  0.64174270  1
  Hf  Hf21  1  0.90652820  0.29402036  0.37187466  1
  Hf  Hf22  1  0.11393884  0.90563226  0.88156290  1
  Hf  Hf23  1  0.40059902  0.61044212  0.50691300  1
  Hf  Hf24  1  0.50673490  0.91524862  0.11564108  1
  Hf  Hf25  1  0.51000568  0.11656962  0.12975483  1
  Hf  Hf26  1  0.90030462  0.48868200  0.87489220  1
  Hf  Hf27  1  0.89370542  0.27291209  0.88681630  1
  Hf  Hf28  1  0.40778816  0.00677455  0.26583732  1
  Hf  Hf29  1  0.20512860  0.81052609  0.74593339  1
  Hf  Hf30  1  0.10099803  0.91502720  0.62383168  1
  Hf  Hf31  1  0.70950636  0.10035221  0.37394907  1
  Hf  Hf32  1  0.91276843  0.29253180  0.62759554  1
  Hf  Hf33  1  0.11703772  0.29306740  0.37433550  1
  Hf  Hf34  1  0.78763262  0.77269099  0.50604396  1
  Hf  Hf35  1  0.49886780  0.50499679  0.63800967  1
  Hf  Hf36  1  0.68813489  0.88955843  0.62631705  1
  Hf  Hf37  1  0.69397088  0.48602569  0.86507996  1
  Hf  Hf38  1  0.90168043  0.89474890  0.62410156  1
  Hf  Hf39  1  0.00809555  0.39195466  0.24241208  1
  Zr  Zr40  1  0.70097667  0.30351591  0.38350963  1
  Zr  Zr41  1  0.60285872  0.01479234  0.76064072  1
  Zr  Zr42  1  0.71147431  0.49523606  0.62874153  1
  Zr  Zr43  1  -0.00209403  0.59844472  0.74229008  1
  Zr  Zr44  1  0.19273121  0.59104108  0.51531431  1
  Zr  Zr45  1  0.09510830  0.69395963  0.11731717  1
  Zr  Zr46  1  0.80402177  0.40776596  0.24805128  1
  Zr  Zr47  1  0.89719900  0.50449696  0.11686140  1
  Zr  Zr48  1  0.28598322  0.90883797  0.38020141  1
  Zr  Zr49  1  0.39717140  0.39939311  0.50432230  1
  Zr  Zr50  1  0.21055754  0.61249545  0.74760257  1
  Zr  Zr51  1  0.59452774  0.80132035  -0.01165452  1
  Zr  Zr52  1  0.29258969  0.49775485  0.38029103  1
  Zr  Zr53  1  0.39870847  0.01865862  0.49302654  1
  Zr  Zr54  1  0.10903224  0.49975165  0.11254475  1
  Zr  Zr55  1  0.09379480  0.70023644  0.38344398  1
  Zr  Zr56  1  0.49455222  0.91627279  0.63391635  1
  Zr  Zr57  1  0.31015842  0.09573346  0.12643054  1
  Zr  Zr58  1  0.20770164  0.20284322  0.23482514  1
  Zr  Zr59  1  0.08956270  0.90779589  0.11515681  1
  Zr  Zr60  1  0.60397019  0.02690669  -0.01268608  1
  Zr  Zr61  1  -0.00045628  0.40347061  -0.00160902  1
  Zr  Zr62  1  0.10334511  0.29796766  0.89141861  1
  Zr  Zr63  1  0.50174423  0.71796156  0.63300801  1
  Zr  Zr64  1  0.29510005  0.70058983  0.38021320  1
  Zr  Zr65  1  0.89038736  0.67691750  0.37756484  1
  Zr  Zr66  1  0.61462172  0.62081174  0.50987900  1
  Zr  Zr67  1  0.79108969  0.58795634  0.00158127  1
  Zr  Zr68  1  0.09293150  0.89713253  0.37876001  1
  Zr  Zr69  1  0.78180804  0.17271538  0.01358281  1
  Zr  Zr70  1  0.80050638  0.19241323  0.23553938  1
  Zr  Zr71  1  0.60104964  0.39877491  0.50414900  1
  Zr  Zr72  1  0.19773363  0.80092622  0.23718950  1
  Zr  Zr73  1  0.69019437  0.70012041  0.11842274  1
  Zr  Zr74  1  0.00118712  0.80288297  0.75600610  1
  Zr  Zr75  1  0.90080020  0.29178584  0.11347658  1
  Zr  Zr76  1  0.60374660  0.80941399  0.25778014  1
  Zr  Zr77  1  0.59969927  0.40723714  0.25876903  1
  Zr  Zr78  1  0.09816613  0.12243338  0.62594109  1
  Zr  Zr79  1  0.79773332  -0.01183663  0.23148756  1
  Ta  Ta80  1  0.40017889  0.59944263  0.24919322  1
  Ta  Ta81  1  0.89874120  0.70244712  0.11432366  1
  Ta  Ta82  1  0.41734526  0.40227447  -0.01249347  1
  Ta  Ta83  1  0.40550900  0.19914826  -0.00661074  1
  Ta  Ta84  1  0.00536645  0.19931616  0.49628897  1
  Ta  Ta85  1  0.39692255  0.39599050  0.75115274  1
  Ta  Ta86  1  0.77386184  0.38312559  0.00011245  1
  Ta  Ta87  1  0.21198217  0.19040368  -0.00564690  1
  Ta  Ta88  1  0.00758185  0.18557050  0.23113069  1
  Ta  Ta89  1  0.31616509  0.29080310  0.87024496  1
  Ta  Ta90  1  0.29126452  0.11858212  0.37396294  1
  Ta  Ta91  1  0.68449670  0.27903603  0.86785167  1
  Ta  Ta92  1  -0.00736266  0.59672269  0.24915240  1
  Ta  Ta93  1  0.80500943  0.19769874  0.50460384  1
  Ta  Ta94  1  0.30225177  0.90278954  0.61964135  1
  Ta  Ta95  1  0.60039615  0.80464336  0.76726901  1
  Ta  Ta96  1  0.10652343  0.50518848  0.87052464  1
  Ta  Ta97  1  0.58345979  0.58333488  -0.01027358  1
  Ta  Ta98  1  0.21044896  -0.00140676  0.00251833  1
  Ta  Ta99  1  0.19984454  0.59871445  0.24698731  1
  Ta  Ta100  1  0.79850346  0.79542022  0.24522842  1
  Ta  Ta101  1  0.60311088  0.60631727  0.75084275  1
  Ta  Ta102  1  0.49614306  0.50226308  0.85760251  1
  Ta  Ta103  1  0.30446545  0.08179999  0.86767347  1
  Ta  Ta104  1  0.09796969  0.70831861  0.61860456  1
  Ta  Ta105  1  0.50611667  0.51192812  0.37796668  1
  Ta  Ta106  1  0.08830632  0.50290952  0.37191556  1
  Ta  Ta107  1  0.79744660  0.18330060  0.74994833  1
  Ta  Ta108  1  0.19835843  0.01519959  0.50462207  1
  Ta  Ta109  1  0.40826653  0.21317081  0.26430107  1
  Ta  Ta110  1  0.79730416  0.79081407  0.74934927  1
  Ta  Ta111  1  0.59731515  0.38650900  0.74301886  1
  Ta  Ta112  1  0.40797402  0.81046545  0.49277594  1
  Ta  Ta113  1  -0.00394429  0.00687045  0.49984240  1
  Ta  Ta114  1  0.49838781  0.50268488  0.12313414  1
  Ta  Ta115  1  0.11240579  0.29111152  0.10605722  1
  Ta  Ta116  1  0.49787109  0.31159625  0.12361273  1
  Ta  Ta117  1  0.49722163  0.13103792  0.85997255  1
  Ta  Ta118  1  -0.01473420  0.79691742  0.24301139  1
  Ta  Ta119  1  0.21514019  0.79369104  0.00356804  1
  Ti  Ti120  1  0.70008223  0.28685519  0.62191341  1
  Ti  Ti121  1  0.59509703  0.20365296  0.26127750  1
  Ti  Ti122  1  0.30022365  0.09648160  0.63880019  1
  Ti  Ti123  1  0.49461216  0.29329306  0.62896508  1
  Ti  Ti124  1  0.50687416  0.69676808  0.37014025  1
  Ti  Ti125  1  0.89876605  0.09955559  0.62296406  1
  Ti  Ti126  1  0.59312272  0.22431529  -0.00166551  1
  Ti  Ti127  1  -0.00255129  -0.00598361  0.24540451  1
  Ti  Ti128  1  -0.00506138  0.79550631  0.50582688  1
  Ti  Ti129  1  0.20693882  0.79968263  0.51291427  1
  Ti  Ti130  1  0.01285744  0.37760173  0.75866133  1
  Ti  Ti131  1  0.39702983  0.20910077  0.49099305  1
  Ti  Ti132  1  0.19926545  0.38548014  0.50246976  1
  Ti  Ti133  1  0.49040243  0.69956748  0.86834879  1
  Ti  Ti134  1  0.89170656  0.88647736  0.10344485  1
  Ti  Ti135  1  0.49260669  0.11248043  0.63723328  1
  Ti  Ti136  1  0.90564944  0.09801777  0.37166797  1
  Ti  Ti137  1  0.78923604  0.60566732  0.24004570  1
  Ti  Ti138  1  0.68327973  0.29497216  0.13019472  1
  Ti  Ti139  1  0.31492781  0.89043123  0.11419890  1
  Ti  Ti140  1  0.31370146  0.30560906  0.11143952  1
  Ti  Ti141  1  0.91491208  0.07866792  0.10863030  1
  Ti  Ti142  1  -0.01307199  0.59524309  0.51797913  1
  Ti  Ti143  1  0.39361418  0.80089509  0.75077984  1
  Ti  Ti144  1  0.59064632  0.19849836  0.49954614  1
  Ti  Ti145  1  0.60173438  0.00339712  0.26429197  1
  Ti  Ti146  1  0.59918871  0.81048511  0.47699289  1
  Ti  Ti147  1  0.81453851  0.40502493  0.50478640  1
  Ti  Ti148  1  0.19573450  0.00237391  0.23959620  1
  Ti  Ti149  1  0.22230326  0.40274647  -0.00885905  1
  Ti  Ti150  1  0.30792712  0.50558285  0.11901820  1
  Ti  Ti151  1  0.29966716  0.71367393  0.87448643  1
  Ti  Ti152  1  0.70455131  0.90309449  0.88248623  1
  Ti  Ti153  1  0.30255144  0.49912191  0.86244144  1
  Ti  Ti154  1  0.00943880  0.79244329  -0.00687455  1
  Ti  Ti155  1  0.69337977  0.10096937  0.61847352  1
  Ti  Ti156  1  0.19493928  0.60164395  -0.01320027  1
  Ti  Ti157  1  0.30493636  0.50310419  0.64064131  1
  Ti  Ti158  1  0.68359341  0.49548470  0.12393644  1
  Ti  Ti159  1  0.80578579  0.59968353  0.73933245  1
  Mo  Mo160  1  0.68281193  0.09783817  0.13825449  1
  Mo  Mo161  1  0.21013273  0.19757785  0.50145945  1
  Mo  Mo162  1  0.29594625  0.68897948  0.12480627  1
  Mo  Mo163  1  0.59139677  0.59975463  0.25054748  1
  Mo  Mo164  1  0.20558760  0.00185943  0.74904774  1
  Mo  Mo165  1  0.70029475  0.70238382  0.64458641  1
  Mo  Mo166  1  0.90814405  0.49085296  0.63668542  1
  Mo  Mo167  1  0.40250013  0.60819640  0.75595020  1
  Mo  Mo168  1  0.20583416  0.39954158  0.76681013  1
  Mo  Mo169  1  0.39395539  0.80322827  -0.00217942  1
  Mo  Mo170  1  0.30147654  0.89687484  0.88110563  1
  Mo  Mo171  1  0.09895116  0.10006794  0.89354200  1
  Mo  Mo172  1  0.89621047  0.09233884  0.89140730  1
  Mo  Mo173  1  0.10839941  0.69893127  0.88435034  1
  Mo  Mo174  1  0.60039196  0.40258469  -0.00072523  1
  Mo  Mo175  1  0.30361941  0.71204334  0.62128606  1
  Mo  Mo176  1  0.38724059  0.00242584  0.74516927  1
  Mo  Mo177  1  0.10234050  0.09813869  0.11551041  1
  Mo  Mo178  1  0.00124370  -0.00022029  -0.00927297  1
  Mo  Mo179  1  0.49928838  0.30379549  0.38311326  1
  Mo  Mo180  1  0.79634987  0.79714940  0.00147758  1
  Mo  Mo181  1  0.39573484  0.01372328  0.00000055  1
  Mo  Mo182  1  0.49726125  0.90157119  0.37556374  1
  Mo  Mo183  1  0.30242637  0.30172642  0.37901863  1
  Mo  Mo184  1  0.00673977  0.18667100  0.01328653  1
  Mo  Mo185  1  0.69702046  0.70340913  0.36408635  1
  Mo  Mo186  1  0.90077127  0.69951073  0.62700450  1
  Mo  Mo187  1  0.60623433  0.20460195  0.73504675  1
  Mo  Mo188  1  0.79118504  -0.01236611  0.01410170  1
  Mo  Mo189  1  0.50311108  0.31064486  0.86740685  1
  Mo  Mo190  1  0.81569653  0.58731351  0.52368267  1
  Mo  Mo191  1  0.90746292  0.49617995  0.37400212  1
  Mo  Mo192  1  0.70307087  0.89732909  0.37671152  1
  Mo  Mo193  1  0.10114454  0.29922332  0.62589908  1
  Mo  Mo194  1  0.70724376  0.10002775  0.87267538  1
  Mo  Mo195  1  0.50332440  0.11515415  0.37220072  1
  Mo  Mo196  1  0.00653071  0.60247612  -0.01464377  1
  Mo  Mo197  1  -0.01606576  0.19970470  0.75825412  1
  Mo  Mo198  1  0.69965025  0.90205153  0.11600401  1
  Mo  Mo199  1  0.40084353  0.20000808  0.74629069  1
