# generated using pymatgen
data_HfZrTaTiMo
_symmetry_space_group_name_H-M   'P 1'
_cell_length_a   15.21434334
_cell_length_b   15.21690358
_cell_length_c   16.80548613
_cell_angle_alpha   89.93793825
_cell_angle_beta   90.01957642
_cell_angle_gamma   89.91598564
_symmetry_Int_Tables_number   1
_chemical_formula_structural   HfZrTaTiMo
_chemical_formula_sum   'Hf40 Zr40 Ta40 Ti40 Mo40'
_cell_volume   3890.71871389
_cell_formula_units_Z   40
loop_
 _symmetry_equiv_pos_site_id
 _symmetry_equiv_pos_as_xyz
  1  'x, y, z'
loop_
 _atom_site_type_symbol
 _atom_site_label
 _atom_site_symmetry_multiplicity
 _atom_site_fract_x
 _atom_site_fract_y
 _atom_site_fract_z
 _atom_site_occupancy
  Hf  Hf0  1  0.89265144  0.28854127  0.11800740  1
  Hf  Hf1  1  0.88202860  0.69188626  0.87665725  1
  Hf  Hf2  1  0.89716791  0.09717335  0.87241981  1
  Hf  Hf3  1  0.70341646  0.91780284  0.39158521  1
  Hf  Hf4  1  0.51341835  0.29377606  0.62967502  1
  Hf  Hf5  1  0.29124402  0.09777109  0.60009502  1
  Hf  Hf6  1  0.00285297  0.79284890  0.75404087  1
  Hf  Hf7  1  0.81210297  0.80560979  0.50471430  1
  Hf  Hf8  1  0.60387139  0.42072109  0.51133144  1
  Hf  Hf9  1  0.91672987  0.48551487  0.12924307  1
  Hf  Hf10  1  0.30292012  0.30520545  0.63655367  1
  Hf  Hf11  1  0.92304771  0.49238202  0.37056162  1
  Hf  Hf12  1  0.50561924  0.51178532  0.11330900  1
  Hf  Hf13  1  0.38842376  0.80927214  0.00953367  1
  Hf  Hf14  1  0.29535719  0.10428750  0.36796263  1
  Hf  Hf15  1  0.28324215  0.70766054  0.88512918  1
  Hf  Hf16  1  0.21183755  0.60592062  0.22226880  1
  Hf  Hf17  1  -0.00797907  0.79395270  0.01034228  1
  Hf  Hf18  1  0.49600683  0.09850516  0.87777323  1
  Hf  Hf19  1  0.61581253  0.40636005  -0.00682137  1
  Hf  Hf20  1  0.10330514  0.88741496  0.87967777  1
  Hf  Hf21  1  0.18272703  0.79948519  0.47793627  1
  Hf  Hf22  1  0.80778918  0.59256283  0.50628870  1
  Hf  Hf23  1  0.39928952  -0.01629615  0.47252732  1
  Hf  Hf24  1  0.50463463  0.70248335  0.88176876  1
  Hf  Hf25  1  0.49425004  0.09545772  0.60973014  1
  Hf  Hf26  1  0.79075280  0.80203688  0.74012575  1
  Hf  Hf27  1  0.10699935  0.29656312  0.87342139  1
  Hf  Hf28  1  0.00219342  0.40304227  0.51539460  1
  Hf  Hf29  1  0.69544386  0.89879512  0.87292828  1
  Hf  Hf30  1  0.70171319  0.70077099  0.38940369  1
  Hf  Hf31  1  0.60088140  0.61162820  0.24425430  1
  Hf  Hf32  1  0.50537798  0.50063335  0.65384432  1
  Hf  Hf33  1  0.79034214  0.20843293  0.74403191  1
  Hf  Hf34  1  0.28782534  0.30994985  0.36882379  1
  Hf  Hf35  1  0.50498314  0.30756687  0.37464602  1
  Hf  Hf36  1  0.80444868  0.38429924  0.24965499  1
  Hf  Hf37  1  0.81188379  0.60158759  0.25671482  1
  Hf  Hf38  1  0.60423985  0.01154812  0.25883446  1
  Hf  Hf39  1  0.39405878  0.01567688  0.00577210  1
  Zr  Zr40  1  0.40885866  0.59182734  0.50718255  1
  Zr  Zr41  1  0.62436745  0.38716406  0.76298784  1
  Zr  Zr42  1  0.00329212  0.19405467  0.73978068  1
  Zr  Zr43  1  0.20438523  0.59740462  0.50726950  1
  Zr  Zr44  1  0.20236596  0.18244842  0.75189213  1
  Zr  Zr45  1  0.20146857  0.00048252  0.00590268  1
  Zr  Zr46  1  0.60657026  0.20164994  0.00170578  1
  Zr  Zr47  1  -0.00576627  -0.00769095  0.26913020  1
  Zr  Zr48  1  0.38088412  0.78991944  0.47656135  1
  Zr  Zr49  1  0.91080565  0.09368840  0.12331920  1
  Zr  Zr50  1  0.39668795  0.40096645  0.50410659  1
  Zr  Zr51  1  0.48959900  0.90653246  0.14223786  1
  Zr  Zr52  1  0.41275067  0.20239554  0.25601571  1
  Zr  Zr53  1  0.22163710  0.20064604  0.00570166  1
  Zr  Zr54  1  0.48583140  0.89939395  0.62118111  1
  Zr  Zr55  1  0.20082359  0.41160081  0.00799467  1
  Zr  Zr56  1  0.39071133  0.77548329  0.25593922  1
  Zr  Zr57  1  0.60168687  0.40257279  0.23782232  1
  Zr  Zr58  1  -0.00827774  0.78057417  0.23511510  1
  Zr  Zr59  1  0.70638760  0.29841912  0.39186873  1
  Zr  Zr60  1  -0.00106651  -0.00101648  0.74898245  1
  Zr  Zr61  1  0.77003216  0.78949757  0.00395263  1
  Zr  Zr62  1  0.69911066  0.50121284  0.37569446  1
  Zr  Zr63  1  0.19468801  0.60709223  0.74971594  1
  Zr  Zr64  1  -0.00003973  -0.03195918  0.48673505  1
  Zr  Zr65  1  0.49772140  0.90128563  0.87356189  1
  Zr  Zr66  1  0.49989490  0.29942394  0.87300992  1
  Zr  Zr67  1  -0.00530103  0.21006724  0.25919908  1
  Zr  Zr68  1  0.88300439  0.09716348  0.40085773  1
  Zr  Zr69  1  0.19535808  -0.01036875  0.74341774  1
  Zr  Zr70  1  0.50262319  0.70008933  0.62574287  1
  Zr  Zr71  1  0.09872273  0.12009164  0.39136965  1
  Zr  Zr72  1  0.80771735  0.40391499  -0.01570492  1
  Zr  Zr73  1  0.71517679  0.09286606  0.11907729  1
  Zr  Zr74  1  0.39554523  0.39075156  0.00589470  1
  Zr  Zr75  1  0.29842112  0.51385579  0.36298553  1
  Zr  Zr76  1  0.79378433  0.80277507  0.25140326  1
  Zr  Zr77  1  0.38256232  0.80431949  0.75222478  1
  Zr  Zr78  1  0.68979901  0.10965333  0.60765642  1
  Zr  Zr79  1  0.00219495  0.00344350  -0.00417087  1
  Ta  Ta80  1  0.39222721  0.59896521  -0.00013045  1
  Ta  Ta81  1  0.18931747  0.79786451  0.24661300  1
  Ta  Ta82  1  0.71724820  0.51343546  0.11982325  1
  Ta  Ta83  1  0.91812490  0.70337935  0.38273788  1
  Ta  Ta84  1  0.88045591  0.68131728  0.11317940  1
  Ta  Ta85  1  0.38998292  0.40813987  0.23097169  1
  Ta  Ta86  1  0.09106284  0.30481006  0.12232903  1
  Ta  Ta87  1  0.01003275  0.59853591  0.50466794  1
  Ta  Ta88  1  0.19753414  0.40286235  0.50532101  1
  Ta  Ta89  1  0.30509609  0.49647600  0.86674136  1
  Ta  Ta90  1  0.80584125  0.19935026  -0.01293785  1
  Ta  Ta91  1  0.71357727  0.52253199  0.85934720  1
  Ta  Ta92  1  0.50268713  0.10194981  0.12775861  1
  Ta  Ta93  1  -0.00083812  0.58685346  0.00082909  1
  Ta  Ta94  1  0.71048399  0.50739618  0.64520665  1
  Ta  Ta95  1  0.61532083  0.20723751  0.24211159  1
  Ta  Ta96  1  0.90101918  0.90006897  0.62602048  1
  Ta  Ta97  1  0.08991158  0.68883213  0.88645848  1
  Ta  Ta98  1  0.68873342  0.90363876  0.61144858  1
  Ta  Ta99  1  0.90186067  0.09748552  0.61039965  1
  Ta  Ta100  1  0.90831680  0.50615480  0.64621938  1
  Ta  Ta101  1  0.09158198  0.90821060  0.13773307  1
  Ta  Ta102  1  0.88848549  0.89909013  0.87916757  1
  Ta  Ta103  1  0.29314372  0.70783850  0.62824766  1
  Ta  Ta104  1  0.59957412  0.00051060  0.74382124  1
  Ta  Ta105  1  0.39056076  0.01137585  0.74817651  1
  Ta  Ta106  1  0.88251167  0.90245891  0.11701522  1
  Ta  Ta107  1  0.01554528  0.39763287  0.74637222  1
  Ta  Ta108  1  0.30705241  0.09784722  0.14958779  1
  Ta  Ta109  1  0.29654125  0.91137631  0.87517314  1
  Ta  Ta110  1  0.60427919  -0.01034302  0.00709436  1
  Ta  Ta111  1  0.91324839  0.50433366  0.85430209  1
  Ta  Ta112  1  0.90575695  0.69688620  0.62742026  1
  Ta  Ta113  1  0.50462322  0.50759872  0.87189585  1
  Ta  Ta114  1  0.50048616  0.29561634  0.12056262  1
  Ta  Ta115  1  0.79586318  0.18928016  0.25819823  1
  Ta  Ta116  1  0.58551522  0.80590229  0.48783877  1
  Ta  Ta117  1  0.10987756  0.10323939  0.13738247  1
  Ta  Ta118  1  0.30666065  0.29881578  0.86244242  1
  Ta  Ta119  1  0.59707707  0.80431893  0.26587422  1
  Ti  Ti120  1  0.80641986  0.40496661  0.51366413  1
  Ti  Ti121  1  0.10667814  0.49674533  0.63686084  1
  Ti  Ti122  1  0.19751239  0.60474902  0.01513182  1
  Ti  Ti123  1  0.10672302  0.50083082  0.86910162  1
  Ti  Ti124  1  0.80322292  0.21596856  0.51836660  1
  Ti  Ti125  1  0.59822874  0.79977087  0.74321522  1
  Ti  Ti126  1  0.40400974  0.19454159  0.74660994  1
  Ti  Ti127  1  0.51093507  0.10193252  0.38417118  1
  Ti  Ti128  1  0.61984735  0.61559557  -0.00216430  1
  Ti  Ti129  1  0.39962347  0.60583288  0.75882370  1
  Ti  Ti130  1  0.09910571  0.88883417  0.62119758  1
  Ti  Ti131  1  0.01202166  0.19690062  -0.00694309  1
  Ti  Ti132  1  0.19875518  -0.01200672  0.47868837  1
  Ti  Ti133  1  0.68766212  0.89051864  0.12820741  1
  Ti  Ti134  1  0.10894627  0.29107346  0.62107254  1
  Ti  Ti135  1  0.50628311  0.70807587  0.11555487  1
  Ti  Ti136  1  0.00317166  0.39510486  -0.01168628  1
  Ti  Ti137  1  0.30072172  0.49836633  0.64587179  1
  Ti  Ti138  1  0.49825378  0.68596231  0.37724623  1
  Ti  Ti139  1  0.49815269  0.50211473  0.36554252  1
  Ti  Ti140  1  0.79290506  0.00256756  0.73640536  1
  Ti  Ti141  1  0.01877467  0.58576598  0.24041550  1
  Ti  Ti142  1  0.09547628  0.31998812  0.38035557  1
  Ti  Ti143  1  0.19609928  0.21479568  0.24361032  1
  Ti  Ti144  1  0.09869853  0.70156006  0.62591256  1
  Ti  Ti145  1  0.60201702  0.18803038  0.75500507  1
  Ti  Ti146  1  0.69257997  0.69729392  0.61479323  1
  Ti  Ti147  1  0.19177085  0.79913325  0.02582284  1
  Ti  Ti148  1  0.90185336  0.30303736  0.86367834  1
  Ti  Ti149  1  0.29052936  0.91007197  0.15082282  1
  Ti  Ti150  1  0.80071464  -0.00251431  0.25618398  1
  Ti  Ti151  1  0.18596155  0.40973339  0.23312401  1
  Ti  Ti152  1  0.90560406  0.29494485  0.39016377  1
  Ti  Ti153  1  0.28816384  0.89672000  0.61677581  1
  Ti  Ti154  1  0.69384519  0.11248148  0.39970199  1
  Ti  Ti155  1  0.89907256  0.30805152  0.63358111  1
  Ti  Ti156  1  0.70141413  0.09287462  0.87679847  1
  Ti  Ti157  1  0.39682207  0.20570200  0.49122432  1
  Ti  Ti158  1  0.09706602  0.09468755  0.59798577  1
  Ti  Ti159  1  0.10525982  0.67750425  0.36698470  1
  Mo  Mo160  1  0.40222714  0.40314926  0.75875120  1
  Mo  Mo161  1  0.60439338  0.61103513  0.75628869  1
  Mo  Mo162  1  0.10389115  0.09914906  0.87886972  1
  Mo  Mo163  1  0.71276261  0.28708364  0.87348976  1
  Mo  Mo164  1  -0.00034994  0.21071869  0.51684411  1
  Mo  Mo165  1  0.39931438  0.19871718  0.01213835  1
  Mo  Mo166  1  0.29184424  0.69247801  0.36771046  1
  Mo  Mo167  1  0.58838285  0.80253830  0.00701037  1
  Mo  Mo168  1  0.09740666  0.49652929  0.11538291  1
  Mo  Mo169  1  0.69011976  0.69822456  0.13177378  1
  Mo  Mo170  1  0.20051385  0.21495861  0.49993953  1
  Mo  Mo171  1  0.30517040  0.10277590  0.87073821  1
  Mo  Mo172  1  0.10638390  0.49472606  0.37307123  1
  Mo  Mo173  1  0.70307784  0.30109498  0.12458500  1
  Mo  Mo174  1  0.79554349  -0.00451281  -0.00571691  1
  Mo  Mo175  1  0.80045956  0.59031358  -0.00195709  1
  Mo  Mo176  1  0.60216008  0.60590017  0.50371073  1
  Mo  Mo177  1  0.79879365  0.00117078  0.51610129  1
  Mo  Mo178  1  0.20206168  0.39801152  0.75266625  1
  Mo  Mo179  1  0.80152856  0.61144322  0.73781013  1
  Mo  Mo180  1  0.19296351  0.00471909  0.25508901  1
  Mo  Mo181  1  0.49879191  0.89748990  0.36037128  1
  Mo  Mo182  1  0.00973484  0.39356719  0.25054980  1
  Mo  Mo183  1  0.68937803  0.70204367  0.86580993  1
  Mo  Mo184  1  0.81492936  0.40168312  0.75644600  1
  Mo  Mo185  1  0.59210372  -0.00023065  0.49111862  1
  Mo  Mo186  1  0.09043067  0.87886141  0.35642580  1
  Mo  Mo187  1  0.30592872  0.50299151  0.12329168  1
  Mo  Mo188  1  0.59060056  0.21226534  0.49835260  1
  Mo  Mo189  1  0.00389770  0.78074026  0.50342008  1
  Mo  Mo190  1  0.28506071  0.90102794  0.35061958  1
  Mo  Mo191  1  0.40152396  -0.00131182  0.26874915  1
  Mo  Mo192  1  0.19373152  0.80096239  0.74763433  1
  Mo  Mo193  1  0.70793277  0.31380382  0.61651448  1
  Mo  Mo194  1  0.00522692  0.60200108  0.75114029  1
  Mo  Mo195  1  0.89497773  0.88733218  0.37586460  1
  Mo  Mo196  1  0.09074256  0.69678615  0.11313714  1
  Mo  Mo197  1  0.41103057  0.59591511  0.23817180  1
  Mo  Mo198  1  0.29513773  0.29611713  0.14006017  1
  Mo  Mo199  1  0.30497767  0.70583884  0.11124408  1
