# generated using pymatgen
data_HfZrTaTiMo
_symmetry_space_group_name_H-M   'P 1'
_cell_length_a   15.21868072
_cell_length_b   15.20929249
_cell_length_c   16.86777303
_cell_angle_alpha   89.97747693
_cell_angle_beta   90.05636823
_cell_angle_gamma   90.12127296
_symmetry_Int_Tables_number   1
_chemical_formula_structural   HfZrTaTiMo
_chemical_formula_sum   'Hf40 Zr40 Ta40 Ti40 Mo40'
_cell_volume   3904.29433342
_cell_formula_units_Z   40
loop_
 _symmetry_equiv_pos_site_id
 _symmetry_equiv_pos_as_xyz
  1  'x, y, z'
loop_
 _atom_site_type_symbol
 _atom_site_label
 _atom_site_symmetry_multiplicity
 _atom_site_fract_x
 _atom_site_fract_y
 _atom_site_fract_z
 _atom_site_occupancy
  Hf  Hf0  1  0.00100075  0.60210764  0.50840580  1
  Hf  Hf1  1  0.40213536  0.81198072  0.25093188  1
  Hf  Hf2  1  0.80429910  0.79669533  0.51876306  1
  Hf  Hf3  1  -0.00230356  -0.00832940  0.48464117  1
  Hf  Hf4  1  0.80210953  0.19342432  0.23280223  1
  Hf  Hf5  1  0.39673588  0.20981205  0.50949844  1
  Hf  Hf6  1  0.11677634  0.31253082  0.35412402  1
  Hf  Hf7  1  0.09345606  0.10527901  0.13968569  1
  Hf  Hf8  1  0.49625228  0.50436930  0.38871788  1
  Hf  Hf9  1  0.90827915  0.89413194  0.13366464  1
  Hf  Hf10  1  0.78936479  -0.00582768  0.49980261  1
  Hf  Hf11  1  -0.00541190  0.19755286  0.49522103  1
  Hf  Hf12  1  0.69478415  0.11670326  0.61787659  1
  Hf  Hf13  1  0.69654372  0.49547277  0.87988832  1
  Hf  Hf14  1  0.67749011  0.08279538  0.12708269  1
  Hf  Hf15  1  0.90508036  0.30330348  0.35760206  1
  Hf  Hf16  1  0.38004758  0.38279416  0.25356881  1
  Hf  Hf17  1  0.80372626  0.18917131  0.01301114  1
  Hf  Hf18  1  0.29217332  0.89243900  0.88972742  1
  Hf  Hf19  1  0.60935597  0.61032869  0.50539181  1
  Hf  Hf20  1  -0.01247748  -0.02375202  0.75509597  1
  Hf  Hf21  1  0.31247290  0.50841626  0.88634350  1
  Hf  Hf22  1  0.70179877  0.49567497  0.37467513  1
  Hf  Hf23  1  0.91547648  0.49209160  0.64195292  1
  Hf  Hf24  1  0.90547245  0.50701468  0.37162822  1
  Hf  Hf25  1  0.01488575  0.39597416  0.49991694  1
  Hf  Hf26  1  0.49371487  0.29776207  0.37642902  1
  Hf  Hf27  1  0.10754326  0.89718034  0.12604656  1
  Hf  Hf28  1  0.30157340  0.69227886  0.38123399  1
  Hf  Hf29  1  0.68761077  0.09535838  0.36475874  1
  Hf  Hf30  1  0.89447775  0.09772339  0.36094991  1
  Hf  Hf31  1  0.29678273  0.49046826  0.11914073  1
  Hf  Hf32  1  0.77798605  0.20082458  0.76004377  1
  Hf  Hf33  1  0.19240771  0.80620269  0.75120028  1
  Hf  Hf34  1  0.08912405  0.09891971  0.62693587  1
  Hf  Hf35  1  0.51072028  0.90530284  0.88420032  1
  Hf  Hf36  1  0.00003265  0.19609528  0.00460452  1
  Hf  Hf37  1  0.68355187  0.88773649  0.35814231  1
  Hf  Hf38  1  0.29233605  0.48279003  0.39097871  1
  Hf  Hf39  1  0.51993372  0.71415469  0.36752328  1
  Zr  Zr40  1  0.19037879  0.22138408  0.50852113  1
  Zr  Zr41  1  0.70388954  0.70709715  0.86648923  1
  Zr  Zr42  1  0.49129550  0.09017584  0.61632264  1
  Zr  Zr43  1  0.50650894  0.70111069  0.13195202  1
  Zr  Zr44  1  0.80832266  0.59779546  0.51371847  1
  Zr  Zr45  1  0.80834514  0.39184073  0.76692803  1
  Zr  Zr46  1  0.60123471  0.01048178  0.74898151  1
  Zr  Zr47  1  0.39509276  0.79069359  0.74864860  1
  Zr  Zr48  1  -0.00152528  0.79439865  0.50352704  1
  Zr  Zr49  1  0.11250066  0.69402830  0.88451355  1
  Zr  Zr50  1  0.79256740  0.77542574  0.22557320  1
  Zr  Zr51  1  0.30564218  0.90915513  0.11922253  1
  Zr  Zr52  1  0.19417793  0.00320812  0.74812214  1
  Zr  Zr53  1  0.48874118  0.30996193  0.12150315  1
  Zr  Zr54  1  0.30533166  0.70364810  0.60150500  1
  Zr  Zr55  1  0.09540436  0.10003218  0.87563308  1
  Zr  Zr56  1  0.37910243  0.21028870  -0.00351221  1
  Zr  Zr57  1  0.30214829  0.91062742  0.60657568  1
  Zr  Zr58  1  0.81372288  0.58505037  0.23603951  1
  Zr  Zr59  1  0.91120179  0.50359622  0.88694033  1
  Zr  Zr60  1  -0.01018122  0.19980462  0.75621231  1
  Zr  Zr61  1  0.48317919  0.10681249  0.11688976  1
  Zr  Zr62  1  0.30811786  0.90906899  0.38335742  1
  Zr  Zr63  1  0.58536155  0.58854933  0.74824647  1
  Zr  Zr64  1  0.39793892  -0.00450034  0.75525936  1
  Zr  Zr65  1  0.89541330  0.29311939  0.62662289  1
  Zr  Zr66  1  0.60829369  0.81031061  0.51888856  1
  Zr  Zr67  1  0.49609645  0.49240078  0.60452293  1
  Zr  Zr68  1  0.48959120  0.69427405  0.87595983  1
  Zr  Zr69  1  0.89786361  0.87123280  0.35835182  1
  Zr  Zr70  1  0.29580887  0.10994756  0.87123553  1
  Zr  Zr71  1  0.49544087  0.30264379  0.88114953  1
  Zr  Zr72  1  0.22717246  0.60336085  0.75073613  1
  Zr  Zr73  1  0.39944692  0.59354894  0.24997693  1
  Zr  Zr74  1  0.81076300  0.82202148  0.74250799  1
  Zr  Zr75  1  0.62019906  0.80367496  0.01013180  1
  Zr  Zr76  1  0.68706232  0.29720206  0.12261538  1
  Zr  Zr77  1  0.40520088  0.21042341  0.74210253  1
  Zr  Zr78  1  0.78965533  -0.01743127  0.01238348  1
  Zr  Zr79  1  0.70554230  0.48134490  0.63061956  1
  Ta  Ta80  1  0.20597902  0.00335385  0.25811797  1
  Ta  Ta81  1  0.59833229  0.81263160  0.73484547  1
  Ta  Ta82  1  0.09972473  0.50752819  0.36703579  1
  Ta  Ta83  1  0.59647683  0.40930670  0.25093885  1
  Ta  Ta84  1  0.68259029  0.09835686  0.88898918  1
  Ta  Ta85  1  0.60077600  0.37761970  0.75348420  1
  Ta  Ta86  1  0.28702009  0.69907809  0.12554379  1
  Ta  Ta87  1  0.79304898  0.20666333  0.48866473  1
  Ta  Ta88  1  0.79687682  0.00873194  0.74749889  1
  Ta  Ta89  1  0.29831447  0.11746043  0.38115597  1
  Ta  Ta90  1  0.01000158  0.39242392  0.00796552  1
  Ta  Ta91  1  0.90302290  0.49796346  0.10632503  1
  Ta  Ta92  1  0.00467970  -0.00816314  0.25781033  1
  Ta  Ta93  1  0.00190870  0.41892760  0.23291844  1
  Ta  Ta94  1  0.18754310  0.60129009  0.49594501  1
  Ta  Ta95  1  -0.00876408  -0.00330600  0.00232322  1
  Ta  Ta96  1  0.19384044  0.80082503  0.25759807  1
  Ta  Ta97  1  0.10094044  0.11024717  0.35861247  1
  Ta  Ta98  1  0.88539387  0.08549492  0.87970986  1
  Ta  Ta99  1  0.11342334  0.49320988  0.63050699  1
  Ta  Ta100  1  0.91191169  0.71254913  0.86766042  1
  Ta  Ta101  1  0.09828721  0.52035406  0.10779994  1
  Ta  Ta102  1  0.40030191  0.60177870  0.01031567  1
  Ta  Ta103  1  0.80857085  0.60165726  0.75469842  1
  Ta  Ta104  1  0.22416552  0.20708787  0.24099978  1
  Ta  Ta105  1  0.70452823  0.69771025  0.64508874  1
  Ta  Ta106  1  0.59745391  0.59641092  -0.00184371  1
  Ta  Ta107  1  0.30410432  0.50550975  0.60514791  1
  Ta  Ta108  1  0.80357535  0.39175206  0.00292291  1
  Ta  Ta109  1  0.39813007  0.01860048  0.25163085  1
  Ta  Ta110  1  0.40407006  0.42146984  0.74728225  1
  Ta  Ta111  1  0.01800982  0.59416411  0.75689922  1
  Ta  Ta112  1  0.70071893  0.29864683  0.36063365  1
  Ta  Ta113  1  0.10964962  0.49270436  0.89129730  1
  Ta  Ta114  1  0.51319582  0.91281452  0.12778212  1
  Ta  Ta115  1  0.69564377  0.49818235  0.11302818  1
  Ta  Ta116  1  0.18576280  0.80609480  0.48631210  1
  Ta  Ta117  1  0.18927406  0.00971783  0.48835944  1
  Ta  Ta118  1  0.91509444  0.70319978  0.65007688  1
  Ta  Ta119  1  0.08367879  0.70132025  0.36459649  1
  Ti  Ti120  1  0.08453884  0.89402878  0.88773291  1
  Ti  Ti121  1  0.59049598  0.40331477  -0.00363118  1
  Ti  Ti122  1  0.19427130  0.21648262  0.73695917  1
  Ti  Ti123  1  0.10263409  0.30365960  0.87315971  1
  Ti  Ti124  1  0.09177433  0.89491072  0.62153916  1
  Ti  Ti125  1  0.20096399  0.79149560  0.00633983  1
  Ti  Ti126  1  0.40417570  0.79819023  0.00895799  1
  Ti  Ti127  1  0.60337760  0.19897539  0.48900399  1
  Ti  Ti128  1  0.79344601  -0.00911915  0.23931641  1
  Ti  Ti129  1  0.19237212  0.20359406  0.01290938  1
  Ti  Ti130  1  0.72250026  0.69416454  0.37361916  1
  Ti  Ti131  1  0.91418774  0.29591820  0.13091748  1
  Ti  Ti132  1  0.89272068  0.09198000  0.62099993  1
  Ti  Ti133  1  0.80223231  0.60649052  0.00063548  1
  Ti  Ti134  1  0.71261635  0.90682672  0.87279859  1
  Ti  Ti135  1  0.61632015  0.60421028  0.24443630  1
  Ti  Ti136  1  0.11178276  0.31512536  0.13803715  1
  Ti  Ti137  1  0.10637361  0.69684634  0.63027566  1
  Ti  Ti138  1  0.58146962  0.19769119  0.25348587  1
  Ti  Ti139  1  0.39846149  0.00406747  -0.00439028  1
  Ti  Ti140  1  0.90660573  0.29581787  0.88448912  1
  Ti  Ti141  1  0.51687406  0.29854134  0.62273160  1
  Ti  Ti142  1  0.79604352  0.39695617  0.23484684  1
  Ti  Ti143  1  0.29380980  0.31141263  0.86587326  1
  Ti  Ti144  1  0.41736238  0.81122678  0.49285744  1
  Ti  Ti145  1  0.80553352  0.39003052  0.49636435  1
  Ti  Ti146  1  0.19970364  0.40812457  0.75334348  1
  Ti  Ti147  1  0.61274304  0.38355412  0.49588422  1
  Ti  Ti148  1  0.48967214  0.09038540  0.38104813  1
  Ti  Ti149  1  0.29651636  0.32386752  0.62758132  1
  Ti  Ti150  1  0.58480714  -0.00711770  0.50099358  1
  Ti  Ti151  1  0.19321866  0.00970120  0.00148025  1
  Ti  Ti152  1  0.69448773  0.29066068  0.89370594  1
  Ti  Ti153  1  0.20882950  0.39028234  -0.00030922  1
  Ti  Ti154  1  0.50304209  0.49916223  0.12534335  1
  Ti  Ti155  1  0.81212311  0.79157700  0.00875658  1
  Ti  Ti156  1  0.49409749  0.69749163  0.62400243  1
  Ti  Ti157  1  0.18941689  0.59926103  0.24728187  1
  Ti  Ti158  1  -0.00021069  0.79152180  0.00718560  1
  Ti  Ti159  1  0.29025224  0.10398803  0.61969669  1
  Mo  Mo160  1  0.50224384  0.10357783  0.89014731  1
  Mo  Mo161  1  0.00561041  0.60285504  0.24209860  1
  Mo  Mo162  1  0.70600184  0.68215060  0.11117150  1
  Mo  Mo163  1  0.00572052  0.20466546  0.24384373  1
  Mo  Mo164  1  0.58400423  -0.00132369  0.25511842  1
  Mo  Mo165  1  0.30660660  0.70630046  0.89440969  1
  Mo  Mo166  1  0.29178614  0.29530216  0.11978215  1
  Mo  Mo167  1  0.50385096  0.91001365  0.36997386  1
  Mo  Mo168  1  0.69610643  0.29986852  0.61676794  1
  Mo  Mo169  1  0.89638290  0.69312767  0.37327630  1
  Mo  Mo170  1  0.40072397  0.41134996  -0.00068441  1
  Mo  Mo171  1  0.59652655  0.19833412  -0.00111109  1
  Mo  Mo172  1  0.60013650  0.79488075  0.23855504  1
  Mo  Mo173  1  0.69834570  0.91337937  0.62776894  1
  Mo  Mo174  1  0.89954349  0.89501405  0.88868921  1
  Mo  Mo175  1  0.90188705  0.09192947  0.13806225  1
  Mo  Mo176  1  0.10330448  0.90206299  0.36617387  1
  Mo  Mo177  1  0.01982028  0.39879973  0.76433124  1
  Mo  Mo178  1  0.19364616  0.41356939  0.24192625  1
  Mo  Mo179  1  0.39803665  0.19359310  0.25405246  1
  Mo  Mo180  1  0.90568250  0.91148598  0.62192834  1
  Mo  Mo181  1  0.40071485  0.59656214  0.74489440  1
  Mo  Mo182  1  0.69422134  0.89125368  0.13834086  1
  Mo  Mo183  1  0.40219675  0.39257457  0.50560753  1
  Mo  Mo184  1  0.19584138  0.40540322  0.50582018  1
  Mo  Mo185  1  0.01109864  0.79475061  0.75184186  1
  Mo  Mo186  1  0.29850045  0.29642995  0.37911889  1
  Mo  Mo187  1  0.00699790  0.78508486  0.24130023  1
  Mo  Mo188  1  0.40176444  0.61046865  0.49049767  1
  Mo  Mo189  1  0.20404161  0.60135794  0.00516920  1
  Mo  Mo190  1  0.10079559  0.30903043  0.64050771  1
  Mo  Mo191  1  0.91712493  0.68584234  0.10878114  1
  Mo  Mo192  1  -0.00037075  0.60329506  -0.00655159  1
  Mo  Mo193  1  0.59776422  0.20447249  0.75455209  1
  Mo  Mo194  1  0.59174193  -0.00261996  -0.00425494  1
  Mo  Mo195  1  0.10355974  0.70512744  0.12633873  1
  Mo  Mo196  1  0.50386068  0.49642467  0.87921718  1
  Mo  Mo197  1  0.28792119  0.09519455  0.12180538  1
  Mo  Mo198  1  0.49384217  0.89262460  0.62448395  1
  Mo  Mo199  1  0.39414635  0.00635723  0.49612726  1
