# generated using pymatgen
data_HfZrTaTiMo
_symmetry_space_group_name_H-M   'P 1'
_cell_length_a   15.16987709
_cell_length_b   15.18143178
_cell_length_c   16.81548760
_cell_angle_alpha   89.96202224
_cell_angle_beta   89.95855228
_cell_angle_gamma   89.87001266
_symmetry_Int_Tables_number   1
_chemical_formula_structural   HfZrTaTiMo
_chemical_formula_sum   'Hf40 Zr40 Ta40 Ti40 Mo40'
_cell_volume   3872.60260492
_cell_formula_units_Z   40
loop_
 _symmetry_equiv_pos_site_id
 _symmetry_equiv_pos_as_xyz
  1  'x, y, z'
loop_
 _atom_site_type_symbol
 _atom_site_label
 _atom_site_symmetry_multiplicity
 _atom_site_fract_x
 _atom_site_fract_y
 _atom_site_fract_z
 _atom_site_occupancy
  Hf  Hf0  1  0.78635146  0.40127510  0.49691988  1
  Hf  Hf1  1  0.10847014  0.49521420  0.37739532  1
  Hf  Hf2  1  0.40292365  0.80946605  -0.00821806  1
  Hf  Hf3  1  0.59331481  0.22317393  0.50761507  1
  Hf  Hf4  1  0.30071158  0.29881920  0.38130607  1
  Hf  Hf5  1  0.40730086  -0.00226518  0.75703169  1
  Hf  Hf6  1  0.40066841  0.59632947  0.49823274  1
  Hf  Hf7  1  0.48339357  0.70249252  0.36336989  1
  Hf  Hf8  1  0.11074349  0.50846138  0.61885764  1
  Hf  Hf9  1  0.40148916  -0.00654478  0.25527134  1
  Hf  Hf10  1  0.49755495  0.91602957  0.12230145  1
  Hf  Hf11  1  0.61454505  0.40685603  0.00584007  1
  Hf  Hf12  1  0.50796175  0.49138394  0.62723176  1
  Hf  Hf13  1  0.69776740  0.69187867  0.36191295  1
  Hf  Hf14  1  0.02257092  0.00127599  0.51751567  1
  Hf  Hf15  1  0.91815214  0.48226969  0.11946343  1
  Hf  Hf16  1  0.90561554  0.28900562  0.13530969  1
  Hf  Hf17  1  0.28702415  0.90418122  0.87924337  1
  Hf  Hf18  1  0.70746017  0.29051577  0.13250047  1
  Hf  Hf19  1  0.20649279  0.40515112  0.75436970  1
  Hf  Hf20  1  0.40339814  0.59650722  0.75731654  1
  Hf  Hf21  1  0.69290994  0.09187983  0.38830950  1
  Hf  Hf22  1  0.57963020  0.00825310  -0.02384219  1
  Hf  Hf23  1  0.10313430  0.90656256  0.37069959  1
  Hf  Hf24  1  -0.02674661  0.20111473  -0.01823652  1
  Hf  Hf25  1  -0.00921502  0.39651589  0.50785432  1
  Hf  Hf26  1  0.80305260  0.59979586  0.49773923  1
  Hf  Hf27  1  0.10419943  0.09132113  0.86871435  1
  Hf  Hf28  1  0.70650365  0.50603920  0.63348686  1
  Hf  Hf29  1  0.50857017  0.30393310  0.87661700  1
  Hf  Hf30  1  0.29778169  0.89387461  0.12416933  1
  Hf  Hf31  1  0.00532013  0.60430928  0.49612052  1
  Hf  Hf32  1  0.38967121  0.20635880  0.24011371  1
  Hf  Hf33  1  0.18279390  0.41085807  0.00194204  1
  Hf  Hf34  1  0.38659668  0.80945849  0.50674656  1
  Hf  Hf35  1  0.59449711  0.80652981  0.24470831  1
  Hf  Hf36  1  0.29642009  0.29901676  0.88217528  1
  Hf  Hf37  1  0.89556021  0.90399122  0.37795502  1
  Hf  Hf38  1  0.90530441  0.70473473  0.36554055  1
  Hf  Hf39  1  0.39754093  0.79865346  0.75224534  1
  Zr  Zr40  1  -0.00706351  0.00335872  0.24830320  1
  Zr  Zr41  1  0.18424668  0.81089240  0.75424094  1
  Zr  Zr42  1  0.79926615  0.01282229  -0.01585897  1
  Zr  Zr43  1  0.50907222  0.70088501  0.62385372  1
  Zr  Zr44  1  0.01614595  0.59557678  0.24220080  1
  Zr  Zr45  1  0.79604843  0.79897271  0.50375445  1
  Zr  Zr46  1  0.00662421  0.59457165  0.76340567  1
  Zr  Zr47  1  0.52023826  0.49824498  0.36571979  1
  Zr  Zr48  1  0.80546038  0.61068195  0.22199242  1
  Zr  Zr49  1  0.08611212  0.30425658  0.86387670  1
  Zr  Zr50  1  0.79495121  0.58630529  0.00495119  1
  Zr  Zr51  1  0.69842163  0.90584934  0.12182315  1
  Zr  Zr52  1  0.30753670  0.50286928  0.36876219  1
  Zr  Zr53  1  0.31055145  0.29295198  0.62246701  1
  Zr  Zr54  1  0.50551640  0.91281769  0.38620272  1
  Zr  Zr55  1  0.49853244  0.10830669  0.62521796  1
  Zr  Zr56  1  0.39877201  0.41326119  0.22642639  1
  Zr  Zr57  1  0.20542910  0.60488936  0.76202154  1
  Zr  Zr58  1  0.89949489  0.90352035  0.11978200  1
  Zr  Zr59  1  0.80492037  0.18606996  0.26477894  1
  Zr  Zr60  1  0.39827667  0.40422631  0.01174323  1
  Zr  Zr61  1  0.20035978  0.78790031  0.24363531  1
  Zr  Zr62  1  0.60608736  0.61309443  0.76027628  1
  Zr  Zr63  1  0.10588324  0.28578258  0.38920406  1
  Zr  Zr64  1  0.79043324  0.79418325  0.75114297  1
  Zr  Zr65  1  0.30024800  0.09767074  0.11529359  1
  Zr  Zr66  1  0.28684932  0.69481477  0.62043546  1
  Zr  Zr67  1  0.27877453  0.09819142  0.36902406  1
  Zr  Zr68  1  0.09095146  0.10613471  0.11209550  1
  Zr  Zr69  1  0.01463468  -0.01817768  0.74262009  1
  Zr  Zr70  1  0.59904659  0.59396164  0.21902296  1
  Zr  Zr71  1  0.10418675  0.29362042  0.63254630  1
  Zr  Zr72  1  0.01730267  0.58627291  -0.00462058  1
  Zr  Zr73  1  0.91024207  0.10033665  0.39378697  1
  Zr  Zr74  1  0.69048789  0.30835040  0.36533384  1
  Zr  Zr75  1  0.80436510  0.59151720  0.77009022  1
  Zr  Zr76  1  0.49268178  0.11474580  0.38270393  1
  Zr  Zr77  1  0.68717211  0.09600836  0.13443290  1
  Zr  Zr78  1  0.81036024  0.00480791  0.75247055  1
  Zr  Zr79  1  0.60060511  0.79405990  0.49886391  1
  Ta  Ta80  1  0.80021210  0.41030740  0.25120337  1
  Ta  Ta81  1  0.60526998  0.00228259  0.76048040  1
  Ta  Ta82  1  0.38352139  0.01407268  0.50684660  1
  Ta  Ta83  1  -0.01459482  0.18210945  0.74194415  1
  Ta  Ta84  1  0.49653087  0.30630494  0.36315981  1
  Ta  Ta85  1  0.01981680  0.20194068  0.25597811  1
  Ta  Ta86  1  0.40624768  0.40460368  0.76195842  1
  Ta  Ta87  1  0.18686357  0.79858613  0.49801597  1
  Ta  Ta88  1  0.88602305  0.29823689  0.63901164  1
  Ta  Ta89  1  0.90519364  0.30458727  0.37321388  1
  Ta  Ta90  1  0.00371940  0.79740854  0.00568077  1
  Ta  Ta91  1  0.69169472  0.90689188  0.62440506  1
  Ta  Ta92  1  0.89552361  0.69352346  0.62911201  1
  Ta  Ta93  1  0.50655514  0.28868209  0.11951500  1
  Ta  Ta94  1  0.59410558  0.81244141  0.75371218  1
  Ta  Ta95  1  0.41993089  0.38939440  0.49912991  1
  Ta  Ta96  1  0.81200368  0.37462443  -0.00670898  1
  Ta  Ta97  1  0.50611050  0.51144707  0.89085817  1
  Ta  Ta98  1  0.31007616  0.49334152  0.62180919  1
  Ta  Ta99  1  0.61077545  0.58881862  0.49577834  1
  Ta  Ta100  1  0.19861344  0.16860565  0.51273128  1
  Ta  Ta101  1  -0.01114406  0.79136885  0.75667226  1
  Ta  Ta102  1  0.39685280  0.20328993  0.76156775  1
  Ta  Ta103  1  0.08698041  0.70793029  0.62501279  1
  Ta  Ta104  1  0.89988954  0.89463699  0.62078152  1
  Ta  Ta105  1  0.90210792  0.70162260  0.89085844  1
  Ta  Ta106  1  0.60156717  0.79877911  -0.00022005  1
  Ta  Ta107  1  0.70302477  0.10156038  0.62033026  1
  Ta  Ta108  1  0.61247535  0.20205469  -0.01044704  1
  Ta  Ta109  1  0.69384871  0.30575170  0.64020774  1
  Ta  Ta110  1  0.69679508  0.89329073  0.87853072  1
  Ta  Ta111  1  0.70349597  0.90573848  0.36697776  1
  Ta  Ta112  1  0.19009202  0.39338015  0.23947986  1
  Ta  Ta113  1  0.30126128  0.10231523  0.87791628  1
  Ta  Ta114  1  0.80311992  0.20516971  0.50799650  1
  Ta  Ta115  1  0.88819793  0.10179939  0.12405508  1
  Ta  Ta116  1  0.29958936  0.89171687  0.37302170  1
  Ta  Ta117  1  0.90754058  0.47337438  0.88037998  1
  Ta  Ta118  1  0.89909071  0.49861798  0.36627211  1
  Ta  Ta119  1  0.41240306  0.18856708  -0.00520508  1
  Ti  Ti120  1  0.71014335  0.11517315  0.86581241  1
  Ti  Ti121  1  0.30415790  0.69791554  0.88560898  1
  Ti  Ti122  1  0.71620248  0.30689110  0.86208794  1
  Ti  Ti123  1  0.50168090  0.30525249  0.64203674  1
  Ti  Ti124  1  0.40248750  0.60358037  0.01496970  1
  Ti  Ti125  1  0.90388481  0.89431996  0.88070610  1
  Ti  Ti126  1  0.10383755  0.70591810  0.88359051  1
  Ti  Ti127  1  0.80027181  0.79425588  0.00379997  1
  Ti  Ti128  1  0.60094800  0.19928995  0.75378212  1
  Ti  Ti129  1  0.50263827  0.10454612  0.12850501  1
  Ti  Ti130  1  0.18960482  0.01306149  0.24311925  1
  Ti  Ti131  1  0.60700565  0.41396657  0.76688770  1
  Ti  Ti132  1  0.21155518  0.60186508  0.00411565  1
  Ti  Ti133  1  0.19586138  -0.00454241  0.00037516  1
  Ti  Ti134  1  0.09132388  0.30623088  0.12177298  1
  Ti  Ti135  1  0.38559374  0.61509435  0.22602088  1
  Ti  Ti136  1  0.28944820  0.69621973  0.37384276  1
  Ti  Ti137  1  0.10489751  0.69870204  0.37180807  1
  Ti  Ti138  1  0.30496495  0.50365296  0.88471202  1
  Ti  Ti139  1  -0.00590789  0.39941673  0.74487057  1
  Ti  Ti140  1  0.80193334  0.80367982  0.23699641  1
  Ti  Ti141  1  0.19435747  0.79697009  0.00382929  1
  Ti  Ti142  1  0.49986443  0.91140672  0.61861101  1
  Ti  Ti143  1  0.49011214  0.71537261  0.12403422  1
  Ti  Ti144  1  0.60105075  0.40247160  0.22884572  1
  Ti  Ti145  1  0.28234532  0.91046704  0.62837850  1
  Ti  Ti146  1  0.00027503  -0.00428215  -0.00826985  1
  Ti  Ti147  1  0.69631086  0.69700532  0.88987135  1
  Ti  Ti148  1  -0.00009941  0.19700649  0.52162931  1
  Ti  Ti149  1  -0.00281271  0.79893642  0.50182254  1
  Ti  Ti150  1  -0.00367096  0.79322217  0.23209853  1
  Ti  Ti151  1  0.10981316  0.68936385  0.12136852  1
  Ti  Ti152  1  0.59954046  0.60520023  0.01828506  1
  Ti  Ti153  1  0.28916915  0.29571662  0.11467283  1
  Ti  Ti154  1  0.90176257  0.49810214  0.63124456  1
  Ti  Ti155  1  0.21123832  0.40395920  0.50536170  1
  Ti  Ti156  1  0.50296813  0.70498284  0.88259232  1
  Ti  Ti157  1  0.09937441  0.90134754  0.12349844  1
  Ti  Ti158  1  0.29401207  0.09912935  0.64077554  1
  Ti  Ti159  1  0.19290828  0.20074285  -0.00386955  1
  Mo  Mo160  1  0.20771169  0.00269901  0.75344500  1
  Mo  Mo161  1  0.49871272  0.50370589  0.11286839  1
  Mo  Mo162  1  0.79987594  0.00174901  0.51437388  1
  Mo  Mo163  1  0.19551981  0.20659563  0.23802469  1
  Mo  Mo164  1  0.90174469  0.09368309  0.86835698  1
  Mo  Mo165  1  0.89940361  0.09964320  0.61430222  1
  Mo  Mo166  1  0.78864380  0.20045367  -0.00425371  1
  Mo  Mo167  1  0.20136013  0.19301653  0.75209287  1
  Mo  Mo168  1  0.79095474  0.19566426  0.73863739  1
  Mo  Mo169  1  0.28778913  0.50827104  0.12466847  1
  Mo  Mo170  1  0.50214216  0.89632248  0.87144943  1
  Mo  Mo171  1  0.71001800  0.48916493  0.11748332  1
  Mo  Mo172  1  0.50308947  0.10988220  0.86412686  1
  Mo  Mo173  1  0.11417616  0.09411167  0.64173458  1
  Mo  Mo174  1  0.69691913  0.49473185  0.88289966  1
  Mo  Mo175  1  0.39218506  0.00733710  -0.00972124  1
  Mo  Mo176  1  0.70819851  0.50349387  0.36581065  1
  Mo  Mo177  1  0.21165744  -0.01575848  0.50302686  1
  Mo  Mo178  1  0.30059039  0.70286023  0.11187584  1
  Mo  Mo179  1  0.39672593  0.79814435  0.25198917  1
  Mo  Mo180  1  0.10151575  0.09936356  0.37861560  1
  Mo  Mo181  1  0.90842789  0.70357731  0.10713844  1
  Mo  Mo182  1  -0.00357972  0.38928193  -0.00616614  1
  Mo  Mo183  1  0.39181330  0.20463480  0.50363801  1
  Mo  Mo184  1  0.20111561  0.60463077  0.49909171  1
  Mo  Mo185  1  0.88968563  0.28663281  0.84851440  1
  Mo  Mo186  1  0.10030841  0.88677072  0.62241252  1
  Mo  Mo187  1  0.80143296  0.40003956  0.75305627  1
  Mo  Mo188  1  0.59976791  0.00813050  0.25477008  1
  Mo  Mo189  1  0.09123258  0.89243645  0.88917592  1
  Mo  Mo190  1  0.60011096  0.00171578  0.51199781  1
  Mo  Mo191  1  0.10799553  0.50358403  0.87370024  1
  Mo  Mo192  1  0.69995078  0.70949401  0.11336479  1
  Mo  Mo193  1  0.60130040  0.40356247  0.50313830  1
  Mo  Mo194  1  0.70365617  0.70324750  0.62726342  1
  Mo  Mo195  1  0.10682722  0.49213793  0.13011525  1
  Mo  Mo196  1  0.79563207  -0.00648802  0.25455921  1
  Mo  Mo197  1  0.58693160  0.20600893  0.25089173  1
  Mo  Mo198  1  0.20918477  0.59325556  0.24235209  1
  Mo  Mo199  1  0.00017660  0.39214208  0.25908544  1
