# generated using pymatgen
data_HfZrTaTiMo
_symmetry_space_group_name_H-M   'P 1'
_cell_length_a   15.21557177
_cell_length_b   15.20751646
_cell_length_c   16.86219171
_cell_angle_alpha   89.99124537
_cell_angle_beta   90.01654070
_cell_angle_gamma   89.88973683
_symmetry_Int_Tables_number   1
_chemical_formula_structural   HfZrTaTiMo
_chemical_formula_sum   'Hf40 Zr40 Ta40 Ti40 Mo40'
_cell_volume   3901.75294861
_cell_formula_units_Z   40
loop_
 _symmetry_equiv_pos_site_id
 _symmetry_equiv_pos_as_xyz
  1  'x, y, z'
loop_
 _atom_site_type_symbol
 _atom_site_label
 _atom_site_symmetry_multiplicity
 _atom_site_fract_x
 _atom_site_fract_y
 _atom_site_fract_z
 _atom_site_occupancy
  Hf  Hf0  1  0.40706891  -0.00652330  0.49028649  1
  Hf  Hf1  1  0.59589250  0.18621141  0.75207181  1
  Hf  Hf2  1  0.71265789  0.49145410  0.62732674  1
  Hf  Hf3  1  0.30654770  0.50840944  0.63167020  1
  Hf  Hf4  1  0.78803058  0.81010130  0.50143564  1
  Hf  Hf5  1  -0.00419433  0.19604908  0.51070759  1
  Hf  Hf6  1  0.50840506  0.29035119  0.35599150  1
  Hf  Hf7  1  0.19315556  0.79043687  0.49715940  1
  Hf  Hf8  1  0.07877208  0.89977667  0.38718931  1
  Hf  Hf9  1  0.70197189  0.70616825  0.63340803  1
  Hf  Hf10  1  0.28701373  0.90861215  0.11391545  1
  Hf  Hf11  1  0.79904729  0.43538091  0.24750066  1
  Hf  Hf12  1  0.79396176  -0.00375646  0.23206713  1
  Hf  Hf13  1  0.08598079  0.31198540  0.88255773  1
  Hf  Hf14  1  0.60798650  0.38171915  0.75863918  1
  Hf  Hf15  1  0.18325512  0.40253500  0.75720134  1
  Hf  Hf16  1  0.00435430  0.00203334  0.22969434  1
  Hf  Hf17  1  0.40430387  0.40623434  0.23975588  1
  Hf  Hf18  1  0.49541378  0.49162479  0.87536183  1
  Hf  Hf19  1  0.10149370  0.48316695  0.61227846  1
  Hf  Hf20  1  0.19840433  0.21847696  0.49163020  1
  Hf  Hf21  1  0.40441833  0.60318629  0.49358897  1
  Hf  Hf22  1  0.29397072  0.71161721  0.87560157  1
  Hf  Hf23  1  -0.00684800  0.00199420  0.00089599  1
  Hf  Hf24  1  0.40700523  0.39242858  0.49112905  1
  Hf  Hf25  1  0.58948041  0.78634016  -0.01238429  1
  Hf  Hf26  1  0.59767159  0.18453897  0.01201352  1
  Hf  Hf27  1  0.89515962  0.91057719  0.62904782  1
  Hf  Hf28  1  0.68342991  0.67562103  0.12740995  1
  Hf  Hf29  1  0.89851740  0.50105381  0.39097951  1
  Hf  Hf30  1  0.29156032  0.30639555  0.62254417  1
  Hf  Hf31  1  0.31272912  0.11010621  0.63255845  1
  Hf  Hf32  1  0.69843149  0.30708470  0.13306481  1
  Hf  Hf33  1  0.89786962  0.70874495  0.37437586  1
  Hf  Hf34  1  0.69635010  0.68593143  0.36954491  1
  Hf  Hf35  1  0.52526268  0.49619105  0.37114409  1
  Hf  Hf36  1  0.59987844  0.19997310  0.49252918  1
  Hf  Hf37  1  0.40268261  0.38525942  0.75144172  1
  Hf  Hf38  1  0.19559475  0.41504779  0.00080000  1
  Hf  Hf39  1  0.19078207  0.20497888  0.25006420  1
  Zr  Zr40  1  0.51129778  0.08931331  0.62012531  1
  Zr  Zr41  1  -0.01373971  0.20603090  -0.00261008  1
  Zr  Zr42  1  0.50528597  0.07711006  0.35391634  1
  Zr  Zr43  1  0.09543229  0.68735534  0.36660826  1
  Zr  Zr44  1  0.20218784  0.00308777  0.49422790  1
  Zr  Zr45  1  0.18560277  0.80984524  0.75324479  1
  Zr  Zr46  1  -0.00584412  0.21755339  0.74591786  1
  Zr  Zr47  1  0.19353707  0.80802036  0.25059329  1
  Zr  Zr48  1  0.41889515  0.61259839  0.23614345  1
  Zr  Zr49  1  0.00691769  0.61035813  0.50341349  1
  Zr  Zr50  1  0.60591142  0.59508047  0.76192587  1
  Zr  Zr51  1  -0.00310833  0.00046990  0.75959610  1
  Zr  Zr52  1  0.69280195  0.88699907  0.11711189  1
  Zr  Zr53  1  0.87908301  0.91203782  0.38038045  1
  Zr  Zr54  1  -0.01633986  0.80977626  0.23660193  1
  Zr  Zr55  1  0.20510604  0.00356053  0.76868834  1
  Zr  Zr56  1  0.61464901  -0.01638251  0.49790542  1
  Zr  Zr57  1  0.30322598  0.30199702  0.88492480  1
  Zr  Zr58  1  0.11478458  0.09521676  0.11476201  1
  Zr  Zr59  1  0.30174936  0.70057080  0.36464272  1
  Zr  Zr60  1  0.30061597  0.90751505  0.62856796  1
  Zr  Zr61  1  0.88686228  0.69488193  0.12302698  1
  Zr  Zr62  1  0.10134786  0.30397777  0.11822810  1
  Zr  Zr63  1  0.50861211  0.48844426  0.62498575  1
  Zr  Zr64  1  0.79733417  0.21190180  0.25865852  1
  Zr  Zr65  1  0.79987878  0.21448530  0.48696090  1
  Zr  Zr66  1  0.70416236  0.08884981  0.36598579  1
  Zr  Zr67  1  0.29665414  0.70630060  0.63211409  1
  Zr  Zr68  1  0.49223397  0.69509817  0.63809122  1
  Zr  Zr69  1  0.80894467  0.39080591  -0.00589719  1
  Zr  Zr70  1  0.80573232  0.59263789  -0.01278767  1
  Zr  Zr71  1  0.09989718  0.09616125  0.62792239  1
  Zr  Zr72  1  0.61552697  -0.00938692  0.75998451  1
  Zr  Zr73  1  0.40655078  0.40189175  0.01731673  1
  Zr  Zr74  1  0.09987691  0.70093347  0.12772040  1
  Zr  Zr75  1  0.30170840  0.51540929  0.87288326  1
  Zr  Zr76  1  0.60443408  0.39137102  -0.00634934  1
  Zr  Zr77  1  0.60132245  0.79877996  0.77424394  1
  Zr  Zr78  1  0.82006638  0.39101814  0.76028111  1
  Zr  Zr79  1  0.09197956  0.10629063  0.37275021  1
  Ta  Ta80  1  0.08849411  0.88998772  0.88658706  1
  Ta  Ta81  1  0.19711842  0.58294712  0.24339758  1
  Ta  Ta82  1  0.41271431  0.00501415  0.76476019  1
  Ta  Ta83  1  0.58100428  0.78622175  0.24215342  1
  Ta  Ta84  1  0.92280820  0.30823909  0.36834767  1
  Ta  Ta85  1  0.50603968  0.70230829  0.37478255  1
  Ta  Ta86  1  0.29886071  0.29664514  0.12646902  1
  Ta  Ta87  1  0.20420486  0.60857237  0.00794469  1
  Ta  Ta88  1  0.18837455  0.60316355  0.74996156  1
  Ta  Ta89  1  0.90789736  0.10184284  0.36627860  1
  Ta  Ta90  1  0.40418276  0.01036052  -0.00486724  1
  Ta  Ta91  1  -0.01082454  0.79469660  0.75458372  1
  Ta  Ta92  1  0.29573845  0.30694420  0.36259123  1
  Ta  Ta93  1  0.49962535  0.88870134  0.63161518  1
  Ta  Ta94  1  0.49738887  0.28753856  0.62040455  1
  Ta  Ta95  1  0.40003617  0.80480027  0.49218760  1
  Ta  Ta96  1  0.71315231  0.27198467  0.87546861  1
  Ta  Ta97  1  0.81399656  0.60743783  0.76174216  1
  Ta  Ta98  1  0.90705492  0.70788816  0.87702887  1
  Ta  Ta99  1  0.39870733  0.19622969  0.48622951  1
  Ta  Ta100  1  -0.00613913  0.41692035  0.00586701  1
  Ta  Ta101  1  0.87986831  0.11315911  0.86931143  1
  Ta  Ta102  1  0.20780545  -0.00350840  0.25713102  1
  Ta  Ta103  1  0.30566390  0.70884413  0.12571860  1
  Ta  Ta104  1  0.90560229  0.50722642  0.62131294  1
  Ta  Ta105  1  0.30494585  0.10292641  0.36535997  1
  Ta  Ta106  1  0.88617829  0.90825038  0.88039402  1
  Ta  Ta107  1  0.48664447  0.89836696  0.12083883  1
  Ta  Ta108  1  0.70285498  0.29026970  0.62285753  1
  Ta  Ta109  1  0.90463290  0.31773812  0.61719272  1
  Ta  Ta110  1  0.31824388  0.11066872  0.87421285  1
  Ta  Ta111  1  0.10535170  0.47745177  0.37939866  1
  Ta  Ta112  1  -0.00930275  0.58278463  0.24728369  1
  Ta  Ta113  1  0.30099862  0.49700212  0.36651995  1
  Ta  Ta114  1  0.58962925  0.79203607  0.50184848  1
  Ta  Ta115  1  0.40905120  0.60892203  0.01445005  1
  Ta  Ta116  1  0.70960994  0.49315986  0.86880152  1
  Ta  Ta117  1  0.00867644  0.60017229  -0.00313341  1
  Ta  Ta118  1  0.90325969  0.30840907  0.13802969  1
  Ta  Ta119  1  0.39667119  0.19374786  0.24072428  1
  Ti  Ti120  1  0.09618494  0.69542100  0.87817049  1
  Ti  Ti121  1  0.39558756  0.82050158  0.25414055  1
  Ti  Ti122  1  0.19019293  0.80321501  -0.00029605  1
  Ti  Ti123  1  0.39633009  0.81190878  0.76305322  1
  Ti  Ti124  1  0.40447903  0.19463682  0.01618690  1
  Ti  Ti125  1  0.89860414  0.70737193  0.63007207  1
  Ti  Ti126  1  -0.00858863  0.80341293  0.00651939  1
  Ti  Ti127  1  0.70177646  0.33305567  0.37620604  1
  Ti  Ti128  1  0.30862260  0.09716738  0.12844216  1
  Ti  Ti129  1  0.53320900  0.50749452  0.12746177  1
  Ti  Ti130  1  0.08898279  0.69991535  0.62944994  1
  Ti  Ti131  1  0.20748637  0.59025311  0.49416049  1
  Ti  Ti132  1  0.89499380  0.11262657  0.13104130  1
  Ti  Ti133  1  0.81204098  0.02227357  0.50934957  1
  Ti  Ti134  1  0.79502089  0.19422778  0.01051436  1
  Ti  Ti135  1  0.78656858  0.79669368  0.24540877  1
  Ti  Ti136  1  0.60374089  0.59354400  -0.01523884  1
  Ti  Ti137  1  0.50081557  0.29402910  0.13552138  1
  Ti  Ti138  1  0.60503701  0.59378638  0.50604024  1
  Ti  Ti139  1  0.67206018  0.88848643  0.35787511  1
  Ti  Ti140  1  0.79525236  0.80017331  -0.00808223  1
  Ti  Ti141  1  0.08698156  0.89362186  0.61313226  1
  Ti  Ti142  1  0.49438822  0.27216278  0.87988771  1
  Ti  Ti143  1  0.79421907  0.81116985  0.76596498  1
  Ti  Ti144  1  0.70176648  0.08324436  0.88396216  1
  Ti  Ti145  1  0.70002057  0.90650200  0.63046704  1
  Ti  Ti146  1  0.29580320  0.50475398  0.12600130  1
  Ti  Ti147  1  0.79764068  0.60430716  0.50773658  1
  Ti  Ti148  1  0.59768995  -0.00394258  0.00534776  1
  Ti  Ti149  1  0.60244498  0.17709995  0.23018948  1
  Ti  Ti150  1  0.20447736  0.00039493  -0.02048759  1
  Ti  Ti151  1  0.00170667  0.59270433  0.75320448  1
  Ti  Ti152  1  0.01724503  0.40088840  0.24293459  1
  Ti  Ti153  1  0.39205513  0.80448985  -0.00338172  1
  Ti  Ti154  1  0.20301918  0.20502880  0.75615936  1
  Ti  Ti155  1  0.48504209  0.68835540  0.86985456  1
  Ti  Ti156  1  0.49339315  0.90801287  0.88485706  1
  Ti  Ti157  1  0.09833493  0.10730582  0.87721738  1
  Ti  Ti158  1  0.79777620  0.00385299  0.01386072  1
  Ti  Ti159  1  0.20954944  0.19541979  -0.00294670  1
  Mo  Mo160  1  0.39117715  -0.00574891  0.24593041  1
  Mo  Mo161  1  -0.00781070  0.80372855  0.51365667  1
  Mo  Mo162  1  0.20653263  0.40304067  0.24360029  1
  Mo  Mo163  1  0.39998697  0.19537261  0.74957291  1
  Mo  Mo164  1  0.70044835  0.09679643  0.12240129  1
  Mo  Mo165  1  0.30194776  0.90510137  0.88794689  1
  Mo  Mo166  1  0.70566685  0.50383892  0.38978055  1
  Mo  Mo167  1  -0.00722436  0.20530870  0.24446869  1
  Mo  Mo168  1  0.89420988  0.90148149  0.10800094  1
  Mo  Mo169  1  0.39274407  0.60348393  0.75804645  1
  Mo  Mo170  1  0.49750367  0.88431592  0.36881436  1
  Mo  Mo171  1  0.00518338  0.38984711  0.49856045  1
  Mo  Mo172  1  0.61129584  0.38999082  0.50625543  1
  Mo  Mo173  1  0.09942830  0.30432904  0.36920623  1
  Mo  Mo174  1  0.89700587  0.29752640  0.87877655  1
  Mo  Mo175  1  0.91895453  0.50332301  0.86976827  1
  Mo  Mo176  1  0.60643908  0.39462195  0.24308737  1
  Mo  Mo177  1  -0.00078651  0.41348302  0.74817000  1
  Mo  Mo178  1  0.50626189  0.09796412  0.88301004  1
  Mo  Mo179  1  0.90976001  0.49994281  0.12532785  1
  Mo  Mo180  1  0.70816976  0.69719411  0.87538445  1
  Mo  Mo181  1  0.21058546  0.40385432  0.49270373  1
  Mo  Mo182  1  0.70667728  0.49988564  0.11509145  1
  Mo  Mo183  1  0.88261290  0.11233761  0.63457645  1
  Mo  Mo184  1  0.09877415  0.51530746  0.87719574  1
  Mo  Mo185  1  0.79960017  0.00044578  0.75643835  1
  Mo  Mo186  1  0.10153429  0.90305518  0.10402267  1
  Mo  Mo187  1  0.49627854  0.08753535  0.13369387  1
  Mo  Mo188  1  0.49505628  0.70804359  0.11764388  1
  Mo  Mo189  1  0.79247643  0.19465027  0.74366280  1
  Mo  Mo190  1  0.71397054  0.09831972  0.62442235  1
  Mo  Mo191  1  0.61433516  0.58309833  0.24954048  1
  Mo  Mo192  1  0.29769144  0.90584130  0.37590383  1
  Mo  Mo193  1  0.70501195  0.90132463  0.89655890  1
  Mo  Mo194  1  0.80587456  0.40537732  0.50427724  1
  Mo  Mo195  1  0.10076069  0.50583403  0.12534858  1
  Mo  Mo196  1  0.10071050  0.29997817  0.62821619  1
  Mo  Mo197  1  -0.01049476  0.00249772  0.50634561  1
  Mo  Mo198  1  0.80674590  0.60973232  0.25214606  1
  Mo  Mo199  1  0.59148492  -0.01918388  0.23369514  1
