# generated using pymatgen
data_HfZrTaTiMo
_symmetry_space_group_name_H-M   'P 1'
_cell_length_a   15.22161165
_cell_length_b   15.20649622
_cell_length_c   16.84407259
_cell_angle_alpha   90.08533519
_cell_angle_beta   89.94861540
_cell_angle_gamma   89.95818499
_symmetry_Int_Tables_number   1
_chemical_formula_structural   HfZrTaTiMo
_chemical_formula_sum   'Hf40 Zr40 Ta40 Ti40 Mo40'
_cell_volume   3898.84641721
_cell_formula_units_Z   40
loop_
 _symmetry_equiv_pos_site_id
 _symmetry_equiv_pos_as_xyz
  1  'x, y, z'
loop_
 _atom_site_type_symbol
 _atom_site_label
 _atom_site_symmetry_multiplicity
 _atom_site_fract_x
 _atom_site_fract_y
 _atom_site_fract_z
 _atom_site_occupancy
  Hf  Hf0  1  0.49642893  0.51717866  0.86863023  1
  Hf  Hf1  1  0.21609106  0.17993158  0.50480756  1
  Hf  Hf2  1  0.01207165  0.59745911  0.75593903  1
  Hf  Hf3  1  0.08111718  0.70364958  0.12648389  1
  Hf  Hf4  1  0.20529665  0.41915835  0.73917742  1
  Hf  Hf5  1  0.80976315  0.17644869  0.00331176  1
  Hf  Hf6  1  0.61389957  0.19612700  0.74082056  1
  Hf  Hf7  1  0.31791916  0.10135609  0.85665056  1
  Hf  Hf8  1  0.49002418  0.90601925  0.62713230  1
  Hf  Hf9  1  0.89982705  0.11326700  0.38987645  1
  Hf  Hf10  1  0.59981555  -0.00621033  0.25681933  1
  Hf  Hf11  1  0.42011708  0.61197052  0.25391996  1
  Hf  Hf12  1  0.68944604  0.69834582  0.86217165  1
  Hf  Hf13  1  0.39322489  0.20945456  -0.00341181  1
  Hf  Hf14  1  0.39118922  0.00987793  0.49375222  1
  Hf  Hf15  1  0.10638415  0.68798703  0.88773701  1
  Hf  Hf16  1  0.79783708  0.60654526  -0.00742065  1
  Hf  Hf17  1  0.87726002  0.49504502  0.38598872  1
  Hf  Hf18  1  -0.02234147  0.59575968  0.24878477  1
  Hf  Hf19  1  0.19753358  0.80616434  0.00840447  1
  Hf  Hf20  1  -0.00853957  0.40485558  0.73927621  1
  Hf  Hf21  1  0.79684344  0.81217622  0.51472667  1
  Hf  Hf22  1  0.78451687  0.60425012  0.50943920  1
  Hf  Hf23  1  0.59605292  0.39723268  0.75342323  1
  Hf  Hf24  1  0.68177222  0.49271604  0.62149881  1
  Hf  Hf25  1  0.79482904  0.21819872  0.24765699  1
  Hf  Hf26  1  0.20317916  0.38664114  0.01043051  1
  Hf  Hf27  1  0.10330506  0.08663885  0.36845443  1
  Hf  Hf28  1  0.19867562  0.19420867  -0.00665660  1
  Hf  Hf29  1  0.09184162  0.70071711  0.36265584  1
  Hf  Hf30  1  0.33040281  0.70252069  0.10922523  1
  Hf  Hf31  1  0.90237967  0.70331215  0.62992471  1
  Hf  Hf32  1  0.31096506  0.50781719  0.38228377  1
  Hf  Hf33  1  0.09577353  0.28851182  0.36954296  1
  Hf  Hf34  1  0.70584322  0.31423096  0.39661800  1
  Hf  Hf35  1  0.20056409  0.00340383  -0.00971968  1
  Hf  Hf36  1  0.20701320  0.78343926  0.76508133  1
  Hf  Hf37  1  0.70581353  0.49153039  0.87477807  1
  Hf  Hf38  1  0.89734731  0.29593623  0.87127861  1
  Hf  Hf39  1  0.20460554  0.80801203  0.22375196  1
  Zr  Zr40  1  -0.01200898  0.80334924  -0.01287613  1
  Zr  Zr41  1  0.11438808  0.28783853  0.63724583  1
  Zr  Zr42  1  0.89365047  0.70811683  0.38089406  1
  Zr  Zr43  1  0.70125095  0.10496908  0.39079407  1
  Zr  Zr44  1  0.59249837  0.78764138  0.25503553  1
  Zr  Zr45  1  0.80133075  0.58841938  0.74723748  1
  Zr  Zr46  1  0.19354065  0.61316111  0.49303641  1
  Zr  Zr47  1  0.30567462  0.30047287  0.38032485  1
  Zr  Zr48  1  0.08969305  0.08218976  0.13233669  1
  Zr  Zr49  1  0.19905603  0.39813625  0.50295597  1
  Zr  Zr50  1  0.10211784  0.30161756  0.86274445  1
  Zr  Zr51  1  0.87533317  0.91832660  0.87269745  1
  Zr  Zr52  1  0.89747904  0.31017391  0.11286857  1
  Zr  Zr53  1  0.00209069  0.81217039  0.76621784  1
  Zr  Zr54  1  0.69854218  0.49446403  0.11427415  1
  Zr  Zr55  1  0.80539702  0.01394177  0.24282433  1
  Zr  Zr56  1  0.30726215  0.09422176  0.64434373  1
  Zr  Zr57  1  0.91651762  0.90445542  0.12922903  1
  Zr  Zr58  1  0.29261373  0.49559860  0.88268872  1
  Zr  Zr59  1  0.70943358  0.07755365  0.87291241  1
  Zr  Zr60  1  0.10706188  0.70407793  0.62751318  1
  Zr  Zr61  1  0.49128403  0.30051661  0.12555109  1
  Zr  Zr62  1  0.59837545  -0.00047034  0.50059322  1
  Zr  Zr63  1  0.59443122  0.78908676  0.49621747  1
  Zr  Zr64  1  0.20642187  0.59752141  0.24002656  1
  Zr  Zr65  1  0.48896460  0.69309807  0.62738902  1
  Zr  Zr66  1  0.32379835  0.30483181  0.62106119  1
  Zr  Zr67  1  0.70393770  0.28652919  0.88133978  1
  Zr  Zr68  1  0.00653582  0.19244286  0.51630886  1
  Zr  Zr69  1  0.58990574  0.39602362  -0.00633579  1
  Zr  Zr70  1  0.31606278  0.68806791  0.90008230  1
  Zr  Zr71  1  0.29884156  0.72396364  0.37166082  1
  Zr  Zr72  1  0.90760651  0.91053749  0.37341576  1
  Zr  Zr73  1  0.10934433  0.28635903  0.13970363  1
  Zr  Zr74  1  0.10901303  0.89100941  0.36646557  1
  Zr  Zr75  1  -0.01005748  0.39364878  0.50351788  1
  Zr  Zr76  1  0.59485393  0.19933953  0.25531526  1
  Zr  Zr77  1  -0.01526447  0.39129663  0.25853805  1
  Zr  Zr78  1  0.31678804  0.89633297  0.88070900  1
  Zr  Zr79  1  -0.00996993  0.01650835  -0.01499715  1
  Ta  Ta80  1  0.48857386  0.49768399  0.62603494  1
  Ta  Ta81  1  0.70511327  0.89135147  0.11738791  1
  Ta  Ta82  1  0.48797127  0.89682670  0.37750499  1
  Ta  Ta83  1  0.40829163  0.40488487  0.25351294  1
  Ta  Ta84  1  0.69526455  0.69596615  0.12731785  1
  Ta  Ta85  1  0.69899827  0.68872879  0.37108376  1
  Ta  Ta86  1  0.19352274  -0.01236844  0.76421699  1
  Ta  Ta87  1  0.20857476  0.39631304  0.25012791  1
  Ta  Ta88  1  0.29107464  0.89538647  0.63593583  1
  Ta  Ta89  1  0.30721957  0.51497044  0.61038236  1
  Ta  Ta90  1  0.90504038  0.49424121  0.88252395  1
  Ta  Ta91  1  0.58740475  0.17717736  -0.00498799  1
  Ta  Ta92  1  0.19920036  -0.01726795  0.50522242  1
  Ta  Ta93  1  0.59394630  0.80951149  0.74937486  1
  Ta  Ta94  1  0.30222917  0.11544538  0.13346406  1
  Ta  Ta95  1  0.40422951  0.00529388  0.25210655  1
  Ta  Ta96  1  0.49285874  0.29302585  0.87178388  1
  Ta  Ta97  1  0.19767460  0.58788650  0.02181755  1
  Ta  Ta98  1  0.00986143  0.80626390  0.50743945  1
  Ta  Ta99  1  0.79929598  0.79647927  0.25016404  1
  Ta  Ta100  1  0.38186902  0.60270521  0.74819650  1
  Ta  Ta101  1  0.42970314  0.20738604  0.48750581  1
  Ta  Ta102  1  0.41930310  0.01587704  -0.00079755  1
  Ta  Ta103  1  0.21258212  -0.00145933  0.24067350  1
  Ta  Ta104  1  0.09832254  0.49696491  0.36996123  1
  Ta  Ta105  1  0.70699756  0.89327669  0.37617534  1
  Ta  Ta106  1  0.88296822  0.70324204  0.12408353  1
  Ta  Ta107  1  0.50309855  0.89844714  0.11960651  1
  Ta  Ta108  1  0.68626448  0.69789488  0.63859054  1
  Ta  Ta109  1  0.78455044  0.41607684  0.25025678  1
  Ta  Ta110  1  -0.01412813  0.18421426  0.24960177  1
  Ta  Ta111  1  0.31032209  0.49005334  0.12636031  1
  Ta  Ta112  1  0.09209807  0.49163027  0.12975311  1
  Ta  Ta113  1  0.40185724  0.81665181  0.24564976  1
  Ta  Ta114  1  -0.00243208  0.59362303  0.00284976  1
  Ta  Ta115  1  0.58058019  0.58413200  0.48624060  1
  Ta  Ta116  1  0.78813730  0.81404554  0.73985498  1
  Ta  Ta117  1  0.59876115  0.79968758  0.00052948  1
  Ta  Ta118  1  0.38379163  0.80895408  0.49949381  1
  Ta  Ta119  1  0.69570720  0.29372829  0.11081910  1
  Ti  Ti120  1  0.89448723  0.49770349  0.61587719  1
  Ti  Ti121  1  0.69402887  0.09186976  0.11712260  1
  Ti  Ti122  1  0.00607223  0.20323906  -0.00344456  1
  Ti  Ti123  1  -0.00445081  0.19592397  0.73950115  1
  Ti  Ti124  1  0.88979355  0.70034087  0.86907459  1
  Ti  Ti125  1  0.00160753  0.40178773  0.00015030  1
  Ti  Ti126  1  0.10106109  0.89858890  0.63403518  1
  Ti  Ti127  1  0.49732194  0.71376621  0.87262813  1
  Ti  Ti128  1  0.30191065  0.09625083  0.36653226  1
  Ti  Ti129  1  0.61091220  -0.00142415  0.73719948  1
  Ti  Ti130  1  0.39786942  0.40495567  -0.00159737  1
  Ti  Ti131  1  0.29773927  0.70370555  0.61942264  1
  Ti  Ti132  1  0.10029121  0.50921753  0.61746500  1
  Ti  Ti133  1  0.31360942  0.91659186  0.11062216  1
  Ti  Ti134  1  0.29756920  0.29775239  0.85693860  1
  Ti  Ti135  1  0.50133547  0.51105288  0.12457227  1
  Ti  Ti136  1  0.80688479  0.21218804  0.52469861  1
  Ti  Ti137  1  0.61089032  0.58442310  0.25921665  1
  Ti  Ti138  1  0.40063281  0.80369709  0.75195489  1
  Ti  Ti139  1  0.90419044  0.90878357  0.63363651  1
  Ti  Ti140  1  0.09688959  0.10416657  0.85893311  1
  Ti  Ti141  1  0.51446389  0.30687249  0.61722545  1
  Ti  Ti142  1  0.60031262  0.39624236  0.25461886  1
  Ti  Ti143  1  0.49873269  0.09700259  0.12840718  1
  Ti  Ti144  1  0.00398931  -0.00435247  0.51242163  1
  Ti  Ti145  1  0.80776405  0.18350604  0.72732033  1
  Ti  Ti146  1  0.80181276  0.00751986  0.52347618  1
  Ti  Ti147  1  -0.00378022  0.60231740  0.49563795  1
  Ti  Ti148  1  0.69354910  0.89177933  0.88488470  1
  Ti  Ti149  1  0.50458295  0.10739998  0.62387881  1
  Ti  Ti150  1  0.10081625  0.49596027  0.88321444  1
  Ti  Ti151  1  0.39767506  0.20501609  0.26048183  1
  Ti  Ti152  1  0.79469422  0.38061967  0.73256377  1
  Ti  Ti153  1  0.50857253  0.91755535  0.87398362  1
  Ti  Ti154  1  0.40164377  0.40370132  0.75029412  1
  Ti  Ti155  1  0.58765513  0.60772618  0.00099103  1
  Ti  Ti156  1  0.89186619  0.50437175  0.11747450  1
  Ti  Ti157  1  0.41799993  0.20464924  0.74699642  1
  Ti  Ti158  1  0.10666792  0.08489223  0.63973728  1
  Ti  Ti159  1  -0.01245736  0.00914344  0.75532660  1
  Mo  Mo160  1  0.49410717  0.10054088  0.37170923  1
  Mo  Mo161  1  -0.00869849  0.79960171  0.24383245  1
  Mo  Mo162  1  0.79564390  0.40068229  0.51805641  1
  Mo  Mo163  1  0.41646034  0.41407070  0.49741735  1
  Mo  Mo164  1  0.58614715  0.60589735  0.74865200  1
  Mo  Mo165  1  0.50884270  0.10071575  0.86512625  1
  Mo  Mo166  1  0.90967371  0.09560370  0.62373556  1
  Mo  Mo167  1  0.40258989  0.61255623  0.49255411  1
  Mo  Mo168  1  0.89423677  0.29712536  0.37645389  1
  Mo  Mo169  1  0.51542105  0.70090473  0.12347318  1
  Mo  Mo170  1  0.69936431  0.09838199  0.61655020  1
  Mo  Mo171  1  0.89995897  0.30164086  0.63576927  1
  Mo  Mo172  1  0.79640463  0.00236640  0.72968192  1
  Mo  Mo173  1  0.49397668  0.69864620  0.38093736  1
  Mo  Mo174  1  0.78966805  0.60065648  0.24601113  1
  Mo  Mo175  1  0.80675202  0.39682787  -0.00222913  1
  Mo  Mo176  1  0.41700624  -0.00726839  0.74887713  1
  Mo  Mo177  1  0.79241019  -0.01169259  0.01266878  1
  Mo  Mo178  1  0.58581808  0.39207899  0.49793742  1
  Mo  Mo179  1  0.69925956  0.29892341  0.61471183  1
  Mo  Mo180  1  0.89253908  0.10706905  0.12844887  1
  Mo  Mo181  1  0.59812818  -0.00498355  0.00443880  1
  Mo  Mo182  1  0.60568510  0.19904038  0.50939311  1
  Mo  Mo183  1  0.90274898  0.11287121  0.85990084  1
  Mo  Mo184  1  0.41256586  0.59068995  0.00895636  1
  Mo  Mo185  1  0.09769594  0.90593374  0.87005861  1
  Mo  Mo186  1  0.30448403  0.30016647  0.13755167  1
  Mo  Mo187  1  0.50443970  0.49336013  0.36848251  1
  Mo  Mo188  1  0.41941836  0.81301170  -0.00011896  1
  Mo  Mo189  1  0.20150745  0.19389064  0.75144362  1
  Mo  Mo190  1  0.29963647  0.91213887  0.36878322  1
  Mo  Mo191  1  0.20366589  0.59489235  0.74583520  1
  Mo  Mo192  1  0.10788945  0.90264428  0.12524690  1
  Mo  Mo193  1  0.19809023  0.81101569  0.50583805  1
  Mo  Mo194  1  0.69334737  0.50160067  0.37967938  1
  Mo  Mo195  1  0.00301727  -0.00143611  0.25304309  1
  Mo  Mo196  1  0.50433768  0.30254263  0.37183706  1
  Mo  Mo197  1  0.69589086  0.89621127  0.62727933  1
  Mo  Mo198  1  0.79035217  0.79611480  0.00022883  1
  Mo  Mo199  1  0.20572525  0.19410527  0.25534713  1
