# generated using pymatgen
data_HfZrTaTiMo
_symmetry_space_group_name_H-M   'P 1'
_cell_length_a   15.18102111
_cell_length_b   15.18511214
_cell_length_c   16.80207960
_cell_angle_alpha   90.02707630
_cell_angle_beta   89.93190783
_cell_angle_gamma   89.94000653
_symmetry_Int_Tables_number   1
_chemical_formula_structural   HfZrTaTiMo
_chemical_formula_sum   'Hf40 Zr40 Ta40 Ti40 Mo40'
_cell_volume   3873.30264216
_cell_formula_units_Z   40
loop_
 _symmetry_equiv_pos_site_id
 _symmetry_equiv_pos_as_xyz
  1  'x, y, z'
loop_
 _atom_site_type_symbol
 _atom_site_label
 _atom_site_symmetry_multiplicity
 _atom_site_fract_x
 _atom_site_fract_y
 _atom_site_fract_z
 _atom_site_occupancy
  Hf  Hf0  1  0.80067182  0.59376300  -0.00844684  1
  Hf  Hf1  1  0.47869284  0.49257310  0.36689616  1
  Hf  Hf2  1  0.87855417  0.90798324  0.86507077  1
  Hf  Hf3  1  0.80406863  0.20674693  0.49937650  1
  Hf  Hf4  1  0.49746290  0.69644876  0.87610802  1
  Hf  Hf5  1  0.79163009  0.60417890  0.74833239  1
  Hf  Hf6  1  0.89527106  0.90721971  0.13962025  1
  Hf  Hf7  1  0.18706630  0.80602888  0.48704300  1
  Hf  Hf8  1  0.19952536  0.19368685  0.75898959  1
  Hf  Hf9  1  0.89990406  0.30271483  0.63286364  1
  Hf  Hf10  1  0.10584579  0.08551400  0.11925153  1
  Hf  Hf11  1  0.78519193  0.82599898  0.00331172  1
  Hf  Hf12  1  0.30357054  0.69649991  0.87890614  1
  Hf  Hf13  1  0.50543322  0.49777214  0.11902484  1
  Hf  Hf14  1  0.09920578  0.09572548  0.89129145  1
  Hf  Hf15  1  0.20787981  0.19412482  0.24123511  1
  Hf  Hf16  1  0.69872196  0.29767850  0.62839686  1
  Hf  Hf17  1  0.50338358  0.30521931  0.64075916  1
  Hf  Hf18  1  0.30112301  0.68423560  0.37451292  1
  Hf  Hf19  1  0.90635522  0.30805719  0.86190831  1
  Hf  Hf20  1  0.20047986  0.79120343  0.25009463  1
  Hf  Hf21  1  0.32267779  0.09833493  0.36475809  1
  Hf  Hf22  1  0.10826049  0.29284376  0.61769032  1
  Hf  Hf23  1  0.18553799  0.41044170  0.01363046  1
  Hf  Hf24  1  0.89736401  0.69825061  0.86983072  1
  Hf  Hf25  1  0.30242990  0.90365737  0.11475437  1
  Hf  Hf26  1  0.51794052  0.08434688  0.11512138  1
  Hf  Hf27  1  0.39386128  0.39167297  0.23076282  1
  Hf  Hf28  1  0.51127568  0.89463521  0.88531846  1
  Hf  Hf29  1  0.90533860  0.71664410  0.63199152  1
  Hf  Hf30  1  0.69186915  0.71030322  0.12497489  1
  Hf  Hf31  1  0.31078792  0.09223882  0.89812064  1
  Hf  Hf32  1  0.29327852  0.91922696  0.62185671  1
  Hf  Hf33  1  0.89244844  0.31795000  0.13370104  1
  Hf  Hf34  1  0.39788267  0.02087795  0.50429114  1
  Hf  Hf35  1  0.58449972  0.39528786  0.49647520  1
  Hf  Hf36  1  0.10135964  0.49139327  0.64055199  1
  Hf  Hf37  1  0.29547530  0.70194767  0.62120398  1
  Hf  Hf38  1  0.88944014  0.10568213  0.88086435  1
  Hf  Hf39  1  0.40889319  0.80811803  0.74310735  1
  Zr  Zr40  1  0.40157388  0.19785395  0.76553961  1
  Zr  Zr41  1  0.20458231  0.21334470  0.00539924  1
  Zr  Zr42  1  0.69265188  0.11629331  0.37272712  1
  Zr  Zr43  1  0.80647025  0.00272468  0.49026062  1
  Zr  Zr44  1  0.19402362  0.40493668  0.23888774  1
  Zr  Zr45  1  0.39908799  0.81504219  0.49100837  1
  Zr  Zr46  1  0.09043636  0.88797770  0.62176755  1
  Zr  Zr47  1  0.20209990  0.80442266  0.76043167  1
  Zr  Zr48  1  -0.00783795  0.58682196  0.25347432  1
  Zr  Zr49  1  0.52188898  0.08762976  0.88578542  1
  Zr  Zr50  1  0.28787233  0.50798356  0.87395150  1
  Zr  Zr51  1  -0.01179679  0.40358418  0.50283454  1
  Zr  Zr52  1  0.11664303  0.08741128  0.61242248  1
  Zr  Zr53  1  -0.00126002  0.79952344  -0.01266237  1
  Zr  Zr54  1  0.71458684  0.70384875  0.37981897  1
  Zr  Zr55  1  0.09246156  0.47616815  0.85613247  1
  Zr  Zr56  1  0.69301200  0.72064734  0.87332850  1
  Zr  Zr57  1  0.38978873  0.39395367  0.00803353  1
  Zr  Zr58  1  0.00066770  0.00715637  0.75003425  1
  Zr  Zr59  1  0.09611727  0.28675948  0.38143397  1
  Zr  Zr60  1  0.51522104  0.30470646  0.87713575  1
  Zr  Zr61  1  0.59495117  0.00101993  0.49488183  1
  Zr  Zr62  1  0.58626116  0.79731414  0.26278412  1
  Zr  Zr63  1  0.50695053  0.69920235  0.60980181  1
  Zr  Zr64  1  0.20607409  0.59092621  0.50348373  1
  Zr  Zr65  1  0.09268885  0.89503150  0.13556483  1
  Zr  Zr66  1  0.10773580  0.49721580  0.37537339  1
  Zr  Zr67  1  0.80800730  0.01919626  0.26134363  1
  Zr  Zr68  1  0.60079578  0.59173122  0.24666582  1
  Zr  Zr69  1  0.70337687  0.71270449  0.61482041  1
  Zr  Zr70  1  0.68541384  0.49707988  0.61596296  1
  Zr  Zr71  1  0.08132735  0.29363831  0.13708551  1
  Zr  Zr72  1  0.58836138  0.58875380  0.74930988  1
  Zr  Zr73  1  0.90289003  0.69421402  0.11599859  1
  Zr  Zr74  1  0.69183150  0.50361351  0.38879827  1
  Zr  Zr75  1  0.00276527  0.61457628  0.50637311  1
  Zr  Zr76  1  0.91303512  0.11276628  0.12868554  1
  Zr  Zr77  1  0.19452652  0.78411621  0.00387058  1
  Zr  Zr78  1  0.30272405  0.30523584  0.37327381  1
  Zr  Zr79  1  0.79865291  0.42189533  0.25445670  1
  Ta  Ta80  1  0.39267913  0.60384124  0.23508640  1
  Ta  Ta81  1  0.50773822  0.89186244  0.12525919  1
  Ta  Ta82  1  0.70850340  0.49808628  0.11652337  1
  Ta  Ta83  1  0.31143375  0.09223702  0.11250617  1
  Ta  Ta84  1  0.39473677  0.60127227  0.74255680  1
  Ta  Ta85  1  0.39233556  0.39261369  0.50495505  1
  Ta  Ta86  1  -0.00261456  0.59963874  0.74607184  1
  Ta  Ta87  1  0.19967467  0.60022031  0.23074987  1
  Ta  Ta88  1  0.88874289  0.91010991  0.63164239  1
  Ta  Ta89  1  0.69993162  0.90383985  0.35932272  1
  Ta  Ta90  1  0.00547823  0.20106671  0.74784379  1
  Ta  Ta91  1  0.11460214  0.09208251  0.38180229  1
  Ta  Ta92  1  0.89825592  0.30435248  0.37059584  1
  Ta  Ta93  1  0.09736231  0.90150975  0.36261901  1
  Ta  Ta94  1  0.40644768  0.40978587  0.75770377  1
  Ta  Ta95  1  0.40273859  -0.00124450  0.75027149  1
  Ta  Ta96  1  0.41230172  0.78762365  0.01220852  1
  Ta  Ta97  1  0.90259837  0.88615814  0.36086641  1
  Ta  Ta98  1  0.10530751  0.68101790  0.86508280  1
  Ta  Ta99  1  0.30123300  0.48940386  0.63739494  1
  Ta  Ta100  1  0.61728138  0.18485075  0.75392370  1
  Ta  Ta101  1  0.59212271  0.60748883  0.00415273  1
  Ta  Ta102  1  0.00043966  -0.01234716  0.49056790  1
  Ta  Ta103  1  0.30368064  0.29462345  0.63075672  1
  Ta  Ta104  1  0.41185589  0.20052987  0.00579679  1
  Ta  Ta105  1  0.69480216  0.91428852  0.14888531  1
  Ta  Ta106  1  0.20809175  -0.00219904  0.76674564  1
  Ta  Ta107  1  0.68690788  0.49210189  0.87829236  1
  Ta  Ta108  1  -0.01492348  0.40669593  -0.00222440  1
  Ta  Ta109  1  0.50179509  0.09915399  0.63499311  1
  Ta  Ta110  1  0.60120907  0.81138332  0.48359150  1
  Ta  Ta111  1  0.79982866  0.20627082  0.00212791  1
  Ta  Ta112  1  0.49902730  0.28232693  0.36766948  1
  Ta  Ta113  1  0.80655661  0.59831855  0.50717068  1
  Ta  Ta114  1  0.49908980  0.69100788  0.38503983  1
  Ta  Ta115  1  0.51236649  0.29007030  0.11982758  1
  Ta  Ta116  1  0.30700447  0.90109868  0.89410766  1
  Ta  Ta117  1  0.59930448  0.38695549  0.24790610  1
  Ta  Ta118  1  -0.00017173  0.80345686  0.76392081  1
  Ta  Ta119  1  0.49221752  0.50499020  0.89004248  1
  Ti  Ti120  1  0.70406816  0.09870142  0.61933533  1
  Ti  Ti121  1  0.78704218  0.40278726  0.75270984  1
  Ti  Ti122  1  0.20777948  0.39825635  0.50061181  1
  Ti  Ti123  1  0.71238240  0.10528439  0.12852183  1
  Ti  Ti124  1  0.38232054  0.60106785  0.02060502  1
  Ti  Ti125  1  0.60469172  0.19664663  0.24480507  1
  Ti  Ti126  1  0.80249029  0.61463798  0.24797843  1
  Ti  Ti127  1  0.79745189  0.39743172  -0.00722433  1
  Ti  Ti128  1  0.89550807  0.49881700  0.86242273  1
  Ti  Ti129  1  0.28782730  0.31116195  0.87237688  1
  Ti  Ti130  1  0.80785362  0.18827229  0.74303975  1
  Ti  Ti131  1  0.48498010  0.91966814  0.35978301  1
  Ti  Ti132  1  0.01218406  0.59407751  -0.00581294  1
  Ti  Ti133  1  0.61903845  0.19719078  -0.00126466  1
  Ti  Ti134  1  0.60751003  0.81778994  0.74280850  1
  Ti  Ti135  1  -0.00344251  0.18509264  0.50651103  1
  Ti  Ti136  1  0.77679061  0.00550388  0.74459293  1
  Ti  Ti137  1  -0.00198274  0.21487313  -0.00454423  1
  Ti  Ti138  1  0.08624602  0.70155712  0.37289448  1
  Ti  Ti139  1  0.80114036  0.21579432  0.25513382  1
  Ti  Ti140  1  0.70883594  0.28973886  0.86865769  1
  Ti  Ti141  1  0.40561602  0.58223803  0.50757882  1
  Ti  Ti142  1  -0.00703940  -0.00893298  -0.00408569  1
  Ti  Ti143  1  0.39372783  0.80065240  0.24909708  1
  Ti  Ti144  1  -0.00777828  0.78520211  0.24952951  1
  Ti  Ti145  1  0.92106983  0.10643369  0.36913998  1
  Ti  Ti146  1  0.58507766  0.19596555  0.50172310  1
  Ti  Ti147  1  0.81309562  0.80840194  0.49485080  1
  Ti  Ti148  1  0.69887477  0.30194937  0.12541484  1
  Ti  Ti149  1  0.89377900  0.50720687  0.38466717  1
  Ti  Ti150  1  0.10206295  0.69813478  0.63805613  1
  Ti  Ti151  1  0.69866109  0.30758952  0.37891128  1
  Ti  Ti152  1  0.07567450  0.50180383  0.12711619  1
  Ti  Ti153  1  0.89125902  0.49957723  0.62995647  1
  Ti  Ti154  1  0.63332461  -0.01299809  0.00270231  1
  Ti  Ti155  1  0.21675972  -0.00586469  0.25377214  1
  Ti  Ti156  1  0.41160138  0.18849540  0.23090253  1
  Ti  Ti157  1  0.69325363  0.90413318  0.61954938  1
  Ti  Ti158  1  0.23078220  0.18664702  0.50255452  1
  Ti  Ti159  1  0.60857252  0.39704065  0.00168534  1
  Mo  Mo160  1  0.49533676  0.69970807  0.12698521  1
  Mo  Mo161  1  -0.00942760  0.80745708  0.49211479  1
  Mo  Mo162  1  0.30372722  0.10700262  0.63182587  1
  Mo  Mo163  1  0.59497582  -0.00196377  0.73859675  1
  Mo  Mo164  1  0.29681141  0.90221223  0.36642665  1
  Mo  Mo165  1  0.29247195  0.50153955  0.12020550  1
  Mo  Mo166  1  0.09606472  0.29573714  0.87475537  1
  Mo  Mo167  1  0.19645657  -0.00827322  -0.00636440  1
  Mo  Mo168  1  0.60078151  0.80189416  0.00891504  1
  Mo  Mo169  1  -0.00166196  0.19568630  0.26032262  1
  Mo  Mo170  1  0.41167811  -0.00848967  0.00663443  1
  Mo  Mo171  1  0.79675256  0.81520014  0.74327992  1
  Mo  Mo172  1  0.89990314  0.69830054  0.37690542  1
  Mo  Mo173  1  0.09935020  0.89795556  0.87622380  1
  Mo  Mo174  1  0.90066356  0.09797536  0.62393954  1
  Mo  Mo175  1  0.80240817  0.01379061  0.01180908  1
  Mo  Mo176  1  0.89452752  0.50106897  0.11527363  1
  Mo  Mo177  1  0.48806404  0.49479448  0.62494417  1
  Mo  Mo178  1  0.79963036  0.40201245  0.49650979  1
  Mo  Mo179  1  0.59193230  0.60513883  0.49516811  1
  Mo  Mo180  1  0.50584589  0.90508305  0.62427381  1
  Mo  Mo181  1  0.41278742  0.21103981  0.50665531  1
  Mo  Mo182  1  0.18746377  0.59828416  0.01718468  1
  Mo  Mo183  1  0.30367324  0.50164261  0.37276037  1
  Mo  Mo184  1  0.09337081  0.69164189  0.12687413  1
  Mo  Mo185  1  -0.00836659  0.39435802  0.73923044  1
  Mo  Mo186  1  -0.00881853  0.39919642  0.26303310  1
  Mo  Mo187  1  0.59561136  0.00661249  0.25236251  1
  Mo  Mo188  1  0.30532478  0.28802034  0.12474823  1
  Mo  Mo189  1  0.20082714  0.60087829  0.74314740  1
  Mo  Mo190  1  0.50148421  0.10770738  0.36432901  1
  Mo  Mo191  1  0.70943553  0.09900891  0.87602020  1
  Mo  Mo192  1  0.79992644  0.80122491  0.24739485  1
  Mo  Mo193  1  0.01332229  0.00313007  0.26445232  1
  Mo  Mo194  1  0.40489028  -0.00645684  0.23861460  1
  Mo  Mo195  1  0.20828035  0.38515178  0.74749696  1
  Mo  Mo196  1  0.60070084  0.39527263  0.76310438  1
  Mo  Mo197  1  0.20570790  -0.00230348  0.48507730  1
  Mo  Mo198  1  0.69339541  0.91926301  0.86925053  1
  Mo  Mo199  1  0.30030786  0.70167733  0.12826681  1
