# generated using pymatgen
data_HfZrTaTiMo
_symmetry_space_group_name_H-M   'P 1'
_cell_length_a   15.21012939
_cell_length_b   15.20245475
_cell_length_c   16.82805560
_cell_angle_alpha   90.01085756
_cell_angle_beta   90.02455719
_cell_angle_gamma   89.96667713
_symmetry_Int_Tables_number   1
_chemical_formula_structural   HfZrTaTiMo
_chemical_formula_sum   'Hf40 Zr40 Ta40 Ti40 Mo40'
_cell_volume   3891.17215267
_cell_formula_units_Z   40
loop_
 _symmetry_equiv_pos_site_id
 _symmetry_equiv_pos_as_xyz
  1  'x, y, z'
loop_
 _atom_site_type_symbol
 _atom_site_label
 _atom_site_symmetry_multiplicity
 _atom_site_fract_x
 _atom_site_fract_y
 _atom_site_fract_z
 _atom_site_occupancy
  Hf  Hf0  1  0.40666169  0.39822161  0.76495859  1
  Hf  Hf1  1  0.89870866  0.10643104  0.36635045  1
  Hf  Hf2  1  0.29454006  0.68734687  0.11222329  1
  Hf  Hf3  1  0.19374368  0.78876940  0.26491788  1
  Hf  Hf4  1  0.29660558  0.09524570  0.63258322  1
  Hf  Hf5  1  0.69165777  0.51306855  0.11744357  1
  Hf  Hf6  1  0.70739279  0.70315143  0.87820791  1
  Hf  Hf7  1  0.49135929  0.89484987  0.61620844  1
  Hf  Hf8  1  0.21050116  0.59278365  0.49918610  1
  Hf  Hf9  1  0.79895423  0.41336857  0.25257558  1
  Hf  Hf10  1  0.29708193  0.89795775  0.60949740  1
  Hf  Hf11  1  0.47778210  0.29633132  0.36672465  1
  Hf  Hf12  1  -0.00432431  0.38532157  0.74747251  1
  Hf  Hf13  1  0.40378496  0.00087590  -0.01800463  1
  Hf  Hf14  1  0.27644751  0.31320199  0.37171476  1
  Hf  Hf15  1  0.20968910  -0.00679162  0.25292524  1
  Hf  Hf16  1  -0.00922044  0.78490700  0.49340152  1
  Hf  Hf17  1  0.80385279  0.39156398  0.49934584  1
  Hf  Hf18  1  0.89500667  0.50590625  0.86857787  1
  Hf  Hf19  1  0.59105152  0.40917300  0.25626476  1
  Hf  Hf20  1  0.26887558  0.08833942  0.86299087  1
  Hf  Hf21  1  0.01049007  0.40226245  -0.00809445  1
  Hf  Hf22  1  0.69338871  0.50909149  0.61358288  1
  Hf  Hf23  1  0.09348574  0.71999352  0.87961954  1
  Hf  Hf24  1  0.78657382  0.40609461  0.74700509  1
  Hf  Hf25  1  0.30861755  0.70189918  0.62873328  1
  Hf  Hf26  1  0.68589481  0.31322159  0.88073874  1
  Hf  Hf27  1  0.90482251  0.30227845  0.13555335  1
  Hf  Hf28  1  0.68741567  0.30306498  0.12753826  1
  Hf  Hf29  1  0.49261900  0.29630067  0.62779002  1
  Hf  Hf30  1  0.21248452  0.60699088  0.77275946  1
  Hf  Hf31  1  0.49268386  0.89253256  0.38981333  1
  Hf  Hf32  1  0.50378268  0.69198393  0.63714681  1
  Hf  Hf33  1  0.69940728  0.29738198  0.37289113  1
  Hf  Hf34  1  0.48982178  0.49519513  0.11409838  1
  Hf  Hf35  1  0.41999936  0.60511108  0.49798232  1
  Hf  Hf36  1  0.90371920  0.09616235  0.13594381  1
  Hf  Hf37  1  0.00870682  0.40178895  0.50388754  1
  Hf  Hf38  1  0.91782610  0.51331850  0.37320429  1
  Hf  Hf39  1  0.92145241  0.50772116  0.12838191  1
  Zr  Zr40  1  0.31012036  0.90003225  0.11414122  1
  Zr  Zr41  1  0.39061099  0.39873200  0.50043330  1
  Zr  Zr42  1  0.50312981  0.69425634  0.10328160  1
  Zr  Zr43  1  0.88699654  0.90002955  0.37705356  1
  Zr  Zr44  1  0.79944247  0.40645314  0.00296078  1
  Zr  Zr45  1  0.10362640  0.70741227  0.62978302  1
  Zr  Zr46  1  0.92310134  0.90239521  0.88496703  1
  Zr  Zr47  1  0.58917881  0.18646155  0.25479315  1
  Zr  Zr48  1  0.81669187  0.61912471  0.01071660  1
  Zr  Zr49  1  0.10136915  0.88932099  0.11829419  1
  Zr  Zr50  1  0.59244582  -0.01983090  0.24846801  1
  Zr  Zr51  1  0.47987678  0.28741336  0.13329997  1
  Zr  Zr52  1  0.60951071  0.58549355  0.76838925  1
  Zr  Zr53  1  0.79631236  0.19595667  0.00792222  1
  Zr  Zr54  1  0.58376161  0.19308626  -0.00729301  1
  Zr  Zr55  1  0.39982023  -0.02039080  0.76730113  1
  Zr  Zr56  1  0.60813323  0.00694251  0.50148430  1
  Zr  Zr57  1  0.89843093  0.71064040  0.85736383  1
  Zr  Zr58  1  0.81289533  -0.00461873  0.76043301  1
  Zr  Zr59  1  0.90150697  0.08314972  0.62191000  1
  Zr  Zr60  1  0.30746983  0.11189836  0.36707241  1
  Zr  Zr61  1  0.11416239  0.50131855  0.62657894  1
  Zr  Zr62  1  0.89485050  0.27741822  0.87131642  1
  Zr  Zr63  1  0.58466271  0.20022728  0.49655683  1
  Zr  Zr64  1  0.70188960  0.91867819  0.62801653  1
  Zr  Zr65  1  0.59266136  0.81863472  0.76455990  1
  Zr  Zr66  1  0.10215639  0.28681648  0.87495706  1
  Zr  Zr67  1  -0.00748103  0.78686441  0.25483912  1
  Zr  Zr68  1  0.90374749  0.50810979  0.62933879  1
  Zr  Zr69  1  0.00920642  -0.00396636  0.24930263  1
  Zr  Zr70  1  -0.00754908  0.20023661  0.50469454  1
  Zr  Zr71  1  0.70884685  0.70924486  0.64135312  1
  Zr  Zr72  1  0.20040317  0.40170790  0.76002312  1
  Zr  Zr73  1  0.17952214  0.20805306  0.23910489  1
  Zr  Zr74  1  0.20276788  0.82615629  0.76205632  1
  Zr  Zr75  1  0.78840696  0.80465224  0.23708518  1
  Zr  Zr76  1  0.40092963  0.80692592  0.24601853  1
  Zr  Zr77  1  0.78543707  0.18286616  0.51059949  1
  Zr  Zr78  1  0.38637209  0.19385265  -0.01498298  1
  Zr  Zr79  1  0.81349428  0.61718364  0.49576325  1
  Ta  Ta80  1  0.90393747  0.70473017  0.64546294  1
  Ta  Ta81  1  0.40719286  0.59509968  0.77438679  1
  Ta  Ta82  1  0.69224369  0.09172599  0.12380263  1
  Ta  Ta83  1  0.59857175  0.78182334  0.50168489  1
  Ta  Ta84  1  0.28854821  0.31931305  0.11950261  1
  Ta  Ta85  1  0.51065547  0.89313263  0.10068443  1
  Ta  Ta86  1  0.50346624  0.69941975  0.89435600  1
  Ta  Ta87  1  0.39512037  0.19559906  0.75993162  1
  Ta  Ta88  1  0.50272926  0.49841476  0.62799065  1
  Ta  Ta89  1  0.00275684  0.19277374  0.00953927  1
  Ta  Ta90  1  0.11917026  0.48633939  0.37944808  1
  Ta  Ta91  1  0.79378546  0.19729450  0.24587704  1
  Ta  Ta92  1  0.70082153  0.70386905  0.37264754  1
  Ta  Ta93  1  0.50519636  0.09232734  0.64413837  1
  Ta  Ta94  1  0.30578958  0.90498527  0.38803390  1
  Ta  Ta95  1  0.02128528  0.59551116  0.24573334  1
  Ta  Ta96  1  0.30435379  0.10966885  0.13149269  1
  Ta  Ta97  1  0.29101281  0.30033287  0.63132791  1
  Ta  Ta98  1  0.10022794  0.10074218  0.37706298  1
  Ta  Ta99  1  0.09672782  0.28885239  0.62816031  1
  Ta  Ta100  1  0.09687696  0.91375175  0.61190875  1
  Ta  Ta101  1  0.21307775  0.59041237  0.25488355  1
  Ta  Ta102  1  0.70426584  0.08669153  0.36898362  1
  Ta  Ta103  1  0.00417431  0.00471762  0.00862915  1
  Ta  Ta104  1  0.69167599  0.30052147  0.62463243  1
  Ta  Ta105  1  0.19942219  0.00815000  0.49063159  1
  Ta  Ta106  1  0.40765734  0.60163578  0.25006967  1
  Ta  Ta107  1  0.70860673  0.10706515  0.86292716  1
  Ta  Ta108  1  0.80251471  0.00529718  -0.00593993  1
  Ta  Ta109  1  0.19422433  0.80017469  0.48556791  1
  Ta  Ta110  1  0.02000965  0.39757440  0.25280863  1
  Ta  Ta111  1  0.59484096  0.40834957  0.49300316  1
  Ta  Ta112  1  0.31588098  0.50224591  0.63494902  1
  Ta  Ta113  1  0.79173748  -0.00166622  0.24157069  1
  Ta  Ta114  1  0.59619035  0.79094463  0.24296809  1
  Ta  Ta115  1  0.60804084  0.60651521  0.24984566  1
  Ta  Ta116  1  0.38554794  0.58753255  -0.01906784  1
  Ta  Ta117  1  0.40101951  0.39003445  -0.01380901  1
  Ta  Ta118  1  0.09368409  0.67842602  0.38182804  1
  Ta  Ta119  1  0.80938479  0.61503821  0.24306344  1
  Ti  Ti120  1  0.39385642  0.78838893  0.77978948  1
  Ti  Ti121  1  0.19687725  0.01137326  0.00788966  1
  Ti  Ti122  1  0.50357292  0.50732814  0.37221337  1
  Ti  Ti123  1  0.69705217  0.71336005  0.10886634  1
  Ti  Ti124  1  0.69673996  0.90372220  0.10658938  1
  Ti  Ti125  1  0.00184874  0.82347603  0.74311922  1
  Ti  Ti126  1  0.09838044  0.69237838  0.11480133  1
  Ti  Ti127  1  0.01448429  0.60157789  -0.00563984  1
  Ti  Ti128  1  0.89885885  0.89132637  0.61747146  1
  Ti  Ti129  1  0.09830168  0.30843171  0.11954676  1
  Ti  Ti130  1  0.30864488  0.50499511  0.37459952  1
  Ti  Ti131  1  0.51870233  0.48688207  0.89335225  1
  Ti  Ti132  1  0.00191248  -0.00692373  0.48934127  1
  Ti  Ti133  1  0.49115463  0.08338860  0.12937477  1
  Ti  Ti134  1  0.01105354  0.59627970  0.75777648  1
  Ti  Ti135  1  0.59577084  0.39754787  0.75001447  1
  Ti  Ti136  1  0.37964676  0.41086605  0.24599943  1
  Ti  Ti137  1  0.31127852  0.70186688  0.37853285  1
  Ti  Ti138  1  0.80527716  0.20310106  0.73508886  1
  Ti  Ti139  1  0.07740059  0.09753061  0.87592813  1
  Ti  Ti140  1  0.20895005  0.41846173  -0.01386500  1
  Ti  Ti141  1  0.50703521  0.69893553  0.37228944  1
  Ti  Ti142  1  0.39149014  0.18655935  0.50831913  1
  Ti  Ti143  1  0.02081269  0.01005546  0.74719320  1
  Ti  Ti144  1  0.69170459  0.89544334  0.37887995  1
  Ti  Ti145  1  0.90144788  0.30132482  0.36151510  1
  Ti  Ti146  1  0.19088594  0.20073257  0.01013645  1
  Ti  Ti147  1  0.29349936  0.29404793  0.87274447  1
  Ti  Ti148  1  0.70106837  0.51253750  0.38028056  1
  Ti  Ti149  1  0.08937471  0.29409481  0.37701944  1
  Ti  Ti150  1  0.19555201  0.20559737  0.50465683  1
  Ti  Ti151  1  0.59748627  0.20304896  0.75711082  1
  Ti  Ti152  1  0.60404623  0.00391147  -0.01936772  1
  Ti  Ti153  1  0.79217648  0.80741465  0.50047058  1
  Ti  Ti154  1  0.12816394  0.50096414  0.12050804  1
  Ti  Ti155  1  0.89585454  0.89111132  0.11312900  1
  Ti  Ti156  1  0.70974490  0.89976076  0.88131508  1
  Ti  Ti157  1  0.49006313  0.08686519  0.37094216  1
  Ti  Ti158  1  0.20152817  0.80226951  -0.00866106  1
  Ti  Ti159  1  0.17892512  0.18766275  0.74121670  1
  Mo  Mo160  1  0.29289558  0.89789462  0.89237003  1
  Mo  Mo161  1  0.80670529  0.80876874  0.74737098  1
  Mo  Mo162  1  0.19443220  0.41107942  0.24452507  1
  Mo  Mo163  1  0.60587429  0.59925744  0.49144003  1
  Mo  Mo164  1  0.10372390  0.09480242  0.61212292  1
  Mo  Mo165  1  0.50828092  0.89467093  0.89164156  1
  Mo  Mo166  1  0.39795840  0.79726024  -0.01110816  1
  Mo  Mo167  1  0.19080506  -0.00075639  0.74498469  1
  Mo  Mo168  1  0.89442610  0.69298840  0.36860577  1
  Mo  Mo169  1  0.40065970  0.01109117  0.50361721  1
  Mo  Mo170  1  0.60204415  0.00826268  0.76578469  1
  Mo  Mo171  1  0.40351688  0.00221415  0.24241027  1
  Mo  Mo172  1  0.60403436  0.59525436  -0.01001233  1
  Mo  Mo173  1  0.59212353  0.39609067  0.00542737  1
  Mo  Mo174  1  0.38787040  0.20051980  0.24274066  1
  Mo  Mo175  1  -0.00165041  0.79363405  0.00994306  1
  Mo  Mo176  1  0.01030885  0.60402759  0.50327157  1
  Mo  Mo177  1  0.30161810  0.70130900  0.88770353  1
  Mo  Mo178  1  0.09495328  0.50587842  0.87590974  1
  Mo  Mo179  1  0.11102476  0.92150868  0.89021607  1
  Mo  Mo180  1  0.90377991  0.10158873  0.87748804  1
  Mo  Mo181  1  0.49558632  0.29719477  0.86907954  1
  Mo  Mo182  1  0.30298164  0.50095872  0.11831422  1
  Mo  Mo183  1  -0.00395290  0.18908737  0.73794331  1
  Mo  Mo184  1  0.19204429  0.59739052  -0.01362897  1
  Mo  Mo185  1  -0.00191629  0.20550168  0.25207834  1
  Mo  Mo186  1  0.80344583  0.81359795  0.00622457  1
  Mo  Mo187  1  0.10459400  0.89762970  0.38586214  1
  Mo  Mo188  1  0.80625051  0.59955530  0.74823203  1
  Mo  Mo189  1  0.91328528  0.70304795  0.12262913  1
  Mo  Mo190  1  0.89117553  0.29893906  0.62988744  1
  Mo  Mo191  1  0.10560880  0.10385445  0.11988638  1
  Mo  Mo192  1  0.60811944  0.80743722  -0.00851762  1
  Mo  Mo193  1  0.70210564  0.50384690  0.88881210  1
  Mo  Mo194  1  0.68850541  0.11161499  0.65076655  1
  Mo  Mo195  1  0.20171594  0.39134692  0.50992900  1
  Mo  Mo196  1  0.30416364  0.49231083  0.87511562  1
  Mo  Mo197  1  0.50421974  0.09907196  0.85732304  1
  Mo  Mo198  1  0.80479034  -0.00856193  0.49276781  1
  Mo  Mo199  1  0.39657911  0.79441098  0.49553773  1
