# generated using pymatgen
data_HfZrTaTiMo
_symmetry_space_group_name_H-M   'P 1'
_cell_length_a   15.22173528
_cell_length_b   15.21793169
_cell_length_c   16.83112160
_cell_angle_alpha   89.98679867
_cell_angle_beta   89.99541449
_cell_angle_gamma   90.00295879
_symmetry_Int_Tables_number   1
_chemical_formula_structural   HfZrTaTiMo
_chemical_formula_sum   'Hf40 Zr40 Ta40 Ti40 Mo40'
_cell_volume   3898.81689359
_cell_formula_units_Z   40
loop_
 _symmetry_equiv_pos_site_id
 _symmetry_equiv_pos_as_xyz
  1  'x, y, z'
loop_
 _atom_site_type_symbol
 _atom_site_label
 _atom_site_symmetry_multiplicity
 _atom_site_fract_x
 _atom_site_fract_y
 _atom_site_fract_z
 _atom_site_occupancy
  Hf  Hf0  1  0.39991146  0.00730590  0.50826391  1
  Hf  Hf1  1  0.10527336  0.89502922  0.63083405  1
  Hf  Hf2  1  0.60806894  0.80145137  0.00849907  1
  Hf  Hf3  1  0.19254183  0.40151149  0.49458602  1
  Hf  Hf4  1  0.70470982  0.48988025  0.61625715  1
  Hf  Hf5  1  0.59573253  -0.00930004  0.23412194  1
  Hf  Hf6  1  0.20851323  0.78009861  0.50528078  1
  Hf  Hf7  1  0.80253038  0.80842514  -0.00772906  1
  Hf  Hf8  1  0.49642206  0.10897728  0.63495003  1
  Hf  Hf9  1  0.01104601  0.61254350  0.24162139  1
  Hf  Hf10  1  0.80666954  0.80795352  0.24511065  1
  Hf  Hf11  1  0.29682307  0.31251115  0.63320930  1
  Hf  Hf12  1  0.80443209  0.41218357  0.75142672  1
  Hf  Hf13  1  0.09073931  0.10251712  0.87145110  1
  Hf  Hf14  1  0.69672404  0.49797526  0.13592156  1
  Hf  Hf15  1  0.80614242  0.61001636  0.48493357  1
  Hf  Hf16  1  0.69410585  0.10258828  0.36315028  1
  Hf  Hf17  1  0.58845666  0.59810841  0.00533335  1
  Hf  Hf18  1  0.21135810  0.79198853  0.75644135  1
  Hf  Hf19  1  0.80784182  0.00570701  0.51426771  1
  Hf  Hf20  1  0.68491029  0.89991709  0.85826562  1
  Hf  Hf21  1  0.38973313  -0.00280246  0.24289741  1
  Hf  Hf22  1  0.70730274  0.50176726  0.87914402  1
  Hf  Hf23  1  0.01843829  0.59174891  0.48915745  1
  Hf  Hf24  1  0.50036294  0.30162683  0.12699274  1
  Hf  Hf25  1  0.59665394  0.38922725  0.75706016  1
  Hf  Hf26  1  0.51192351  0.70424936  0.86555829  1
  Hf  Hf27  1  0.59724664  0.38885388  0.48873124  1
  Hf  Hf28  1  0.59828214  0.60250213  0.49759911  1
  Hf  Hf29  1  0.09983238  0.48294861  0.34793979  1
  Hf  Hf30  1  0.58537783  0.41114224  0.25830493  1
  Hf  Hf31  1  -0.00052501  0.39212423  0.02690665  1
  Hf  Hf32  1  0.80934395  0.01310314  0.23712153  1
  Hf  Hf33  1  0.80494280  0.00642042  0.73983796  1
  Hf  Hf34  1  0.91446508  0.70648037  0.11016396  1
  Hf  Hf35  1  0.01420007  0.38057982  0.75424078  1
  Hf  Hf36  1  0.70776234  0.90185471  0.37597222  1
  Hf  Hf37  1  0.90812017  0.50649005  0.62012320  1
  Hf  Hf38  1  0.91598247  0.71277754  0.36887798  1
  Hf  Hf39  1  0.79070722  0.00852703  0.00809197  1
  Zr  Zr40  1  0.40817935  0.81317603  0.76017085  1
  Zr  Zr41  1  0.20150296  0.38925380  0.02453771  1
  Zr  Zr42  1  0.28902452  0.90386127  0.38936049  1
  Zr  Zr43  1  0.49796983  0.10615003  0.37415009  1
  Zr  Zr44  1  0.00537945  0.79991432  0.76729966  1
  Zr  Zr45  1  0.91149007  0.30134360  0.88020753  1
  Zr  Zr46  1  0.10536962  0.28188860  0.62252128  1
  Zr  Zr47  1  0.48429461  0.49724304  0.62427260  1
  Zr  Zr48  1  0.00048035  0.19125231  0.49050186  1
  Zr  Zr49  1  0.59134879  0.19460558  -0.01154333  1
  Zr  Zr50  1  0.79629610  0.20325566  0.74204450  1
  Zr  Zr51  1  0.49335173  0.30052271  0.62914789  1
  Zr  Zr52  1  0.11194565  0.67837726  0.88704755  1
  Zr  Zr53  1  0.38181175  0.61253615  0.50415238  1
  Zr  Zr54  1  0.69698908  0.29597247  0.35713131  1
  Zr  Zr55  1  0.10135397  0.47808579  0.88333317  1
  Zr  Zr56  1  0.79448818  0.21218756  0.00661301  1
  Zr  Zr57  1  0.11167030  0.69851995  0.10020406  1
  Zr  Zr58  1  0.58518055  -0.00409410  0.00816392  1
  Zr  Zr59  1  0.71290295  0.69943366  0.63460786  1
  Zr  Zr60  1  0.51058684  0.90487372  0.63370221  1
  Zr  Zr61  1  0.78611755  0.20146890  0.50297744  1
  Zr  Zr62  1  0.32775870  0.69958850  0.10332836  1
  Zr  Zr63  1  0.89797238  0.30233817  0.61962858  1
  Zr  Zr64  1  0.38694078  0.40379117  0.25171423  1
  Zr  Zr65  1  0.49814380  0.90100060  0.37946235  1
  Zr  Zr66  1  0.29891256  0.91523556  0.88118978  1
  Zr  Zr67  1  0.21411461  0.78370663  0.24787501  1
  Zr  Zr68  1  0.29087515  0.51474757  0.37145802  1
  Zr  Zr69  1  0.29235635  0.11080715  0.88324573  1
  Zr  Zr70  1  0.10126275  0.08407824  0.36716234  1
  Zr  Zr71  1  0.91657738  0.91455978  0.11971667  1
  Zr  Zr72  1  0.10974392  0.67659757  0.63642125  1
  Zr  Zr73  1  0.00498425  -0.01287377  0.50387079  1
  Zr  Zr74  1  0.60452686  0.59132973  0.74727154  1
  Zr  Zr75  1  0.60896685  0.79856080  0.49775021  1
  Zr  Zr76  1  0.70628916  0.69995565  0.12950846  1
  Zr  Zr77  1  0.19951744  -0.00949339  0.24283586  1
  Zr  Zr78  1  0.60067279  0.39446245  -0.00341270  1
  Zr  Zr79  1  0.01974172  0.82582665  -0.02686558  1
  Ta  Ta80  1  0.90214910  0.88855556  0.63163052  1
  Ta  Ta81  1  0.41800723  0.81253911  -0.01273523  1
  Ta  Ta82  1  0.90862449  0.70069112  0.62716702  1
  Ta  Ta83  1  0.09742344  0.28976153  0.35134097  1
  Ta  Ta84  1  0.41032508  0.60855321  0.24774883  1
  Ta  Ta85  1  0.81402556  0.80715025  0.49943067  1
  Ta  Ta86  1  0.40061398  0.41101776  -0.00052400  1
  Ta  Ta87  1  0.29405339  0.11164483  0.37589779  1
  Ta  Ta88  1  0.59947345  0.79346307  0.24960781  1
  Ta  Ta89  1  0.70375435  0.89964820  0.63599618  1
  Ta  Ta90  1  0.69949143  0.30346182  0.14601102  1
  Ta  Ta91  1  0.18495732  0.19800514  0.01539473  1
  Ta  Ta92  1  0.81035000  0.79450775  0.75974679  1
  Ta  Ta93  1  0.70241000  0.29713372  0.87272022  1
  Ta  Ta94  1  0.39033384  0.20911628  -0.00240863  1
  Ta  Ta95  1  0.17759161  -0.00692755  0.00228899  1
  Ta  Ta96  1  0.71056676  0.69536046  0.87054902  1
  Ta  Ta97  1  -0.00376971  0.19363396  0.01862892  1
  Ta  Ta98  1  0.61159490  0.01609219  0.50986653  1
  Ta  Ta99  1  0.80250607  0.59474606  0.00504253  1
  Ta  Ta100  1  0.20593092  0.02973044  0.52365482  1
  Ta  Ta101  1  0.28360328  0.31061670  0.87522966  1
  Ta  Ta102  1  0.70013407  0.50873314  0.36968506  1
  Ta  Ta103  1  0.10226562  0.88934328  0.12625447  1
  Ta  Ta104  1  -0.01116010  0.18379854  0.24186126  1
  Ta  Ta105  1  0.39161873  0.39754321  0.48873419  1
  Ta  Ta106  1  0.89689600  0.50332920  0.13983519  1
  Ta  Ta107  1  0.20709644  0.01788582  0.73572267  1
  Ta  Ta108  1  0.90297464  0.68672889  0.88703733  1
  Ta  Ta109  1  0.68881926  0.11638080  0.13640550  1
  Ta  Ta110  1  0.30877350  0.69537163  0.89391264  1
  Ta  Ta111  1  0.49897016  0.70360032  0.63504377  1
  Ta  Ta112  1  -0.00449414  0.39434878  0.48521100  1
  Ta  Ta113  1  0.80541634  0.40458061  0.48163393  1
  Ta  Ta114  1  0.38042950  0.20487200  0.50054123  1
  Ta  Ta115  1  0.89600934  0.10416560  0.87706388  1
  Ta  Ta116  1  0.29738956  0.50668571  0.87610247  1
  Ta  Ta117  1  0.90173331  0.49632722  0.35570523  1
  Ta  Ta118  1  0.08396619  0.08111730  0.12852867  1
  Ta  Ta119  1  0.21645594  0.58403201  0.22341454  1
  Ti  Ti120  1  0.40688780  0.79888410  0.25277786  1
  Ti  Ti121  1  0.48786426  0.29153911  0.37360883  1
  Ti  Ti122  1  0.48684789  0.07984808  0.86700340  1
  Ti  Ti123  1  0.30696907  0.90544407  0.62861158  1
  Ti  Ti124  1  0.28566321  0.29829455  0.36611892  1
  Ti  Ti125  1  0.39421385  0.19548989  0.24826970  1
  Ti  Ti126  1  0.59640173  0.19203112  0.76235966  1
  Ti  Ti127  1  0.29728171  0.89774164  0.10231460  1
  Ti  Ti128  1  0.12814264  0.68322680  0.36953885  1
  Ti  Ti129  1  0.30426891  0.29027811  0.12868330  1
  Ti  Ti130  1  0.90986505  0.90993417  0.36829781  1
  Ti  Ti131  1  0.90259023  0.30386893  0.35543098  1
  Ti  Ti132  1  0.20072029  0.19294370  0.23424889  1
  Ti  Ti133  1  0.49145132  0.50183769  0.87104787  1
  Ti  Ti134  1  0.48823156  0.88854688  0.12507163  1
  Ti  Ti135  1  0.89481713  0.10412674  0.36975753  1
  Ti  Ti136  1  0.49297965  0.50477460  0.38166430  1
  Ti  Ti137  1  0.40289935  0.79940317  0.50870707  1
  Ti  Ti138  1  0.29504675  0.09364275  0.10989559  1
  Ti  Ti139  1  0.21255804  0.57782941  0.01521157  1
  Ti  Ti140  1  0.68435030  0.28817988  0.62047105  1
  Ti  Ti141  1  0.48572223  0.29630968  0.87300287  1
  Ti  Ti142  1  0.59447304  0.60948843  0.25589636  1
  Ti  Ti143  1  0.79603651  0.60904727  0.26020457  1
  Ti  Ti144  1  0.00425195  0.79047527  0.50481801  1
  Ti  Ti145  1  0.90182249  0.91826835  0.87145493  1
  Ti  Ti146  1  -0.00521139  0.58975118  0.75688446  1
  Ti  Ti147  1  0.38895800  0.40948114  0.75962775  1
  Ti  Ti148  1  0.69884180  0.09747055  0.87136942  1
  Ti  Ti149  1  0.38226669  0.19927492  0.75724111  1
  Ti  Ti150  1  0.49597605  0.70150154  0.37696743  1
  Ti  Ti151  1  0.10313106  0.48606656  0.63137651  1
  Ti  Ti152  1  0.48459995  0.10433741  0.12196828  1
  Ti  Ti153  1  0.00139338  0.00767766  0.74058172  1
  Ti  Ti154  1  0.88892930  0.30048536  0.14642381  1
  Ti  Ti155  1  0.09182096  0.87470829  0.36822695  1
  Ti  Ti156  1  0.90488589  0.50306199  0.88707849  1
  Ti  Ti157  1  0.38360229  0.60981055  0.74760820  1
  Ti  Ti158  1  0.28345510  0.51597704  0.63147732  1
  Ti  Ti159  1  0.80024794  0.40235547  0.00859278  1
  Mo  Mo160  1  -0.00737650  0.18559839  0.74802782  1
  Mo  Mo161  1  0.18823010  0.21397772  0.75926221  1
  Mo  Mo162  1  0.58592520  0.19788552  0.50048205  1
  Mo  Mo163  1  0.60111360  0.00899711  0.74979500  1
  Mo  Mo164  1  0.01292594  0.80469209  0.24831631  1
  Mo  Mo165  1  0.49240315  0.51190126  0.12744904  1
  Mo  Mo166  1  0.40727068  0.59648799  -0.00833684  1
  Mo  Mo167  1  0.39535244  0.00797120  0.01029469  1
  Mo  Mo168  1  0.58290337  0.19941513  0.24186606  1
  Mo  Mo169  1  0.20127441  0.20776134  0.48911733  1
  Mo  Mo170  1  0.10547392  0.28462454  0.88484975  1
  Mo  Mo171  1  0.10107435  0.49518408  0.13675667  1
  Mo  Mo172  1  0.31605505  0.49313081  0.12358932  1
  Mo  Mo173  1  0.09536202  0.10257909  0.63157449  1
  Mo  Mo174  1  0.82004530  0.60343923  0.75626656  1
  Mo  Mo175  1  0.10690359  0.91486531  0.85489298  1
  Mo  Mo176  1  -0.00072084  -0.00905761  0.25891879  1
  Mo  Mo177  1  0.21111073  0.80517895  -0.01117345  1
  Mo  Mo178  1  0.89554688  0.10879262  0.12390870  1
  Mo  Mo179  1  0.50534772  0.70419405  0.13062076  1
  Mo  Mo180  1  0.69613695  0.90493835  0.13082289  1
  Mo  Mo181  1  0.19411613  0.59201319  0.50026042  1
  Mo  Mo182  1  -0.00431778  0.01020055  -0.00663692  1
  Mo  Mo183  1  0.70254073  0.70329283  0.36653074  1
  Mo  Mo184  1  0.30801489  0.70365767  0.36597671  1
  Mo  Mo185  1  0.20509956  0.40472701  0.75272315  1
  Mo  Mo186  1  0.19971628  0.38483560  0.23286971  1
  Mo  Mo187  1  0.39471626  0.01125703  0.74521282  1
  Mo  Mo188  1  0.79856821  0.41025510  0.25816046  1
  Mo  Mo189  1  0.61079387  0.79870809  0.74675084  1
  Mo  Mo190  1  0.69067895  0.09978216  0.63016711  1
  Mo  Mo191  1  0.30864029  0.70391612  0.63306333  1
  Mo  Mo192  1  -0.00272937  0.39344743  0.23454535  1
  Mo  Mo193  1  0.79805795  0.20362026  0.24925369  1
  Mo  Mo194  1  0.49985192  0.90849899  0.87162506  1
  Mo  Mo195  1  -0.00479079  0.58314472  0.00896029  1
  Mo  Mo196  1  0.09547400  0.28425518  0.14576654  1
  Mo  Mo197  1  0.91026896  0.09828656  0.62723650  1
  Mo  Mo198  1  0.29492417  0.12122374  0.63393202  1
  Mo  Mo199  1  0.20525584  0.59050319  0.75774817  1
