# generated using pymatgen
data_HfZrTaTiMo
_symmetry_space_group_name_H-M   'P 1'
_cell_length_a   15.20758366
_cell_length_b   15.22017194
_cell_length_c   16.83465221
_cell_angle_alpha   90.08022922
_cell_angle_beta   90.03070211
_cell_angle_gamma   89.96110924
_symmetry_Int_Tables_number   1
_chemical_formula_structural   HfZrTaTiMo
_chemical_formula_sum   'Hf40 Zr40 Ta40 Ti40 Mo40'
_cell_volume   3896.57763609
_cell_formula_units_Z   40
loop_
 _symmetry_equiv_pos_site_id
 _symmetry_equiv_pos_as_xyz
  1  'x, y, z'
loop_
 _atom_site_type_symbol
 _atom_site_label
 _atom_site_symmetry_multiplicity
 _atom_site_fract_x
 _atom_site_fract_y
 _atom_site_fract_z
 _atom_site_occupancy
  Hf  Hf0  1  0.28755915  0.09742774  0.36808385  1
  Hf  Hf1  1  0.80370346  -0.00858920  0.49295182  1
  Hf  Hf2  1  0.29482750  0.90888484  0.89261153  1
  Hf  Hf3  1  0.90200502  0.68530864  0.13355785  1
  Hf  Hf4  1  0.09080931  0.31097153  0.62954369  1
  Hf  Hf5  1  0.69695198  0.88668491  0.61397690  1
  Hf  Hf6  1  0.10889782  0.91143657  0.36961409  1
  Hf  Hf7  1  0.59587223  0.17863192  0.76307896  1
  Hf  Hf8  1  0.30292827  0.11713269  0.89035958  1
  Hf  Hf9  1  0.79373293  0.39661860  -0.00069227  1
  Hf  Hf10  1  0.09819534  0.52033185  0.62461566  1
  Hf  Hf11  1  0.90923770  0.88816194  0.36765340  1
  Hf  Hf12  1  0.20793782  0.40239646  0.49466282  1
  Hf  Hf13  1  0.59883278  -0.01543417  0.75667820  1
  Hf  Hf14  1  0.49553184  0.28098390  0.62971892  1
  Hf  Hf15  1  0.50548199  0.71195589  0.37986857  1
  Hf  Hf16  1  0.10771681  0.30144072  0.88611394  1
  Hf  Hf17  1  0.21253201  0.41855834  0.00813059  1
  Hf  Hf18  1  0.71422022  0.89391602  0.88368929  1
  Hf  Hf19  1  0.18609503  0.61802583  0.75611853  1
  Hf  Hf20  1  0.39026930  0.61147547  0.49196906  1
  Hf  Hf21  1  0.01143028  0.79112385  0.74917349  1
  Hf  Hf22  1  0.79155089  0.19880660  0.48279987  1
  Hf  Hf23  1  0.09729017  0.52339555  0.12567608  1
  Hf  Hf24  1  0.50118914  0.88717252  0.89474561  1
  Hf  Hf25  1  0.82082626  0.39379517  0.76920676  1
  Hf  Hf26  1  0.90482257  0.09446927  0.35389373  1
  Hf  Hf27  1  0.59935424  0.41088534  0.23752284  1
  Hf  Hf28  1  0.92000681  0.89732656  0.88265483  1
  Hf  Hf29  1  0.29626682  0.31293073  0.64128861  1
  Hf  Hf30  1  0.90708539  0.48670493  0.62994586  1
  Hf  Hf31  1  0.00159988  0.40705511  0.48518497  1
  Hf  Hf32  1  0.70910358  0.28839527  0.13775703  1
  Hf  Hf33  1  0.68345017  0.09055718  0.61676980  1
  Hf  Hf34  1  0.29575086  0.70008087  0.88700383  1
  Hf  Hf35  1  0.69425126  0.69800199  0.12373037  1
  Hf  Hf36  1  0.59144421  0.59870050  0.01000462  1
  Hf  Hf37  1  -0.01010469  0.21216574  0.75018937  1
  Hf  Hf38  1  0.29553016  0.67973041  0.11753816  1
  Hf  Hf39  1  0.20453335  0.00366387  0.50359063  1
  Zr  Zr40  1  0.40342739  -0.00113292  0.23849034  1
  Zr  Zr41  1  0.19272808  0.01738380  0.22154691  1
  Zr  Zr42  1  0.67662582  0.07722029  0.37600879  1
  Zr  Zr43  1  0.21370686  0.81575463  0.23934645  1
  Zr  Zr44  1  0.68665279  0.50115519  0.87089071  1
  Zr  Zr45  1  0.40733180  0.79864900  0.24143326  1
  Zr  Zr46  1  0.60635555  0.38454577  0.50371673  1
  Zr  Zr47  1  0.60249268  0.39207792  0.74717144  1
  Zr  Zr48  1  0.00414270  -0.00506283  0.74162004  1
  Zr  Zr49  1  0.69766590  0.69288516  0.38070955  1
  Zr  Zr50  1  0.72625515  0.28480076  0.63643172  1
  Zr  Zr51  1  0.49507602  0.30169226  0.87827637  1
  Zr  Zr52  1  0.79425436  0.79270013  0.25166591  1
  Zr  Zr53  1  0.60847068  0.19919316  0.00035107  1
  Zr  Zr54  1  0.19262177  0.81294122  0.01990658  1
  Zr  Zr55  1  0.77726137  -0.00368325  0.24299889  1
  Zr  Zr56  1  -0.00676728  0.20202752  0.49789652  1
  Zr  Zr57  1  0.81090560  0.39029171  0.48444452  1
  Zr  Zr58  1  0.59069879  0.16960777  0.24022351  1
  Zr  Zr59  1  0.41909607  0.01244155  0.50179935  1
  Zr  Zr60  1  0.37968771  0.21513348  0.48643280  1
  Zr  Zr61  1  0.49396589  0.30074139  0.36392066  1
  Zr  Zr62  1  0.50748203  0.50517770  0.37371571  1
  Zr  Zr63  1  0.89054057  0.10797943  0.62657661  1
  Zr  Zr64  1  0.89264208  0.10070284  0.87723742  1
  Zr  Zr65  1  0.71000954  0.49510853  0.63020846  1
  Zr  Zr66  1  0.60280333  0.78726618  0.74907953  1
  Zr  Zr67  1  0.30678838  0.11711743  0.63330723  1
  Zr  Zr68  1  0.48730206  0.29294135  0.12277230  1
  Zr  Zr69  1  0.10028352  0.09281085  0.89192397  1
  Zr  Zr70  1  0.30922700  0.89459507  0.62405551  1
  Zr  Zr71  1  0.80560916  0.41265627  0.25630844  1
  Zr  Zr72  1  0.19662756  -0.00119259  0.74843574  1
  Zr  Zr73  1  0.49753889  0.68360549  0.87464654  1
  Zr  Zr74  1  0.91510811  0.69068151  0.63017126  1
  Zr  Zr75  1  0.19466511  0.61722025  0.26266072  1
  Zr  Zr76  1  0.30287445  0.51804142  0.63185456  1
  Zr  Zr77  1  0.11192297  0.29510865  0.36273591  1
  Zr  Zr78  1  0.91317240  0.29650841  0.13346798  1
  Zr  Zr79  1  0.40760828  0.00811817  0.75517020  1
  Ta  Ta80  1  0.50894377  0.89259840  0.10466607  1
  Ta  Ta81  1  -0.00500060  0.60416509  -0.00764861  1
  Ta  Ta82  1  0.57809644  0.59027179  0.72991634  1
  Ta  Ta83  1  0.38418173  0.19953503  0.24958851  1
  Ta  Ta84  1  0.80299136  0.79381462  0.00658255  1
  Ta  Ta85  1  0.80671968  0.79874875  0.74878012  1
  Ta  Ta86  1  0.48668638  0.70728190  0.62001469  1
  Ta  Ta87  1  0.31121459  0.11259765  0.10440216  1
  Ta  Ta88  1  0.80720678  -0.00086801  0.01396594  1
  Ta  Ta89  1  0.01427086  0.79440024  0.23582382  1
  Ta  Ta90  1  0.79572991  -0.00441554  0.74758586  1
  Ta  Ta91  1  0.00729665  0.00229052  0.02149594  1
  Ta  Ta92  1  0.59577106  0.59488936  0.51684736  1
  Ta  Ta93  1  0.00346387  -0.00353495  0.50400402  1
  Ta  Ta94  1  0.90147497  0.89332107  0.61940929  1
  Ta  Ta95  1  0.80747663  0.18848077  0.00792132  1
  Ta  Ta96  1  0.40364572  0.40911538  0.50314466  1
  Ta  Ta97  1  0.19490081  0.60837561  0.48361861  1
  Ta  Ta98  1  0.69589680  0.28952215  0.35690040  1
  Ta  Ta99  1  0.30106366  0.49488605  0.37009182  1
  Ta  Ta100  1  0.70186487  0.50227128  0.37857866  1
  Ta  Ta101  1  0.80675739  0.59108968  0.49800615  1
  Ta  Ta102  1  0.09219137  0.71595585  0.88922530  1
  Ta  Ta103  1  0.90264637  0.10306660  0.14188229  1
  Ta  Ta104  1  -0.00212484  0.61389770  0.48841566  1
  Ta  Ta105  1  0.10052935  0.88146400  0.61030880  1
  Ta  Ta106  1  0.71316035  0.27980620  0.87392812  1
  Ta  Ta107  1  0.70513119  0.69346304  0.61960657  1
  Ta  Ta108  1  0.89411410  0.50015687  0.12280195  1
  Ta  Ta109  1  0.20711956  0.40843077  0.24026099  1
  Ta  Ta110  1  0.19690618  0.20651380  0.75678027  1
  Ta  Ta111  1  0.79892198  0.59526915  -0.00483587  1
  Ta  Ta112  1  0.81532366  0.78396001  0.49755241  1
  Ta  Ta113  1  0.00016260  0.40928271  -0.00032520  1
  Ta  Ta114  1  -0.00396892  0.80246769  0.01641657  1
  Ta  Ta115  1  0.39862438  0.59854251  0.25527012  1
  Ta  Ta116  1  0.89939504  0.89844561  0.13249885  1
  Ta  Ta117  1  0.39634699  0.79555152  0.75239436  1
  Ta  Ta118  1  0.57931166  0.17879058  0.49109497  1
  Ta  Ta119  1  0.09493915  0.50897027  0.36701536  1
  Ti  Ti120  1  0.00899379  0.40810309  0.76926149  1
  Ti  Ti121  1  0.19847946  0.80977039  0.75645160  1
  Ti  Ti122  1  0.20078404  0.21333785  0.01199907  1
  Ti  Ti123  1  0.10020835  0.10266408  0.62488330  1
  Ti  Ti124  1  0.28581538  0.70821928  0.62513745  1
  Ti  Ti125  1  0.30429279  0.50584370  0.86626586  1
  Ti  Ti126  1  0.89069946  0.70256870  0.87878110  1
  Ti  Ti127  1  0.90984593  0.29667383  0.89210471  1
  Ti  Ti128  1  0.09952949  0.30895850  0.12266686  1
  Ti  Ti129  1  0.30717672  0.31160224  0.86643181  1
  Ti  Ti130  1  0.60138723  0.60463736  0.24241192  1
  Ti  Ti131  1  0.40804272  0.78391360  0.01390077  1
  Ti  Ti132  1  0.39085761  0.39999078  0.24162380  1
  Ti  Ti133  1  0.20209559  0.21170500  0.23064562  1
  Ti  Ti134  1  0.59862058  0.40388247  0.01052432  1
  Ti  Ti135  1  0.69677369  0.69932520  0.87933138  1
  Ti  Ti136  1  0.18969090  0.20327569  0.49980695  1
  Ti  Ti137  1  0.59869726  0.80969461  0.24444237  1
  Ti  Ti138  1  0.90142224  0.68533204  0.36184498  1
  Ti  Ti139  1  0.48942316  0.51198841  0.12882664  1
  Ti  Ti140  1  0.68808611  0.88199321  0.38991654  1
  Ti  Ti141  1  0.50319633  0.08810223  0.10529522  1
  Ti  Ti142  1  0.19610102  0.41040920  0.75911949  1
  Ti  Ti143  1  0.39938987  0.39765489  0.00841564  1
  Ti  Ti144  1  0.50657932  0.91504388  0.37163743  1
  Ti  Ti145  1  0.69494485  0.90068689  0.11374773  1
  Ti  Ti146  1  0.20889212  0.79706373  0.48605382  1
  Ti  Ti147  1  -0.01247636  0.59276326  0.77588902  1
  Ti  Ti148  1  0.90652130  0.29069587  0.34998493  1
  Ti  Ti149  1  0.40390446  0.81460048  0.49209597  1
  Ti  Ti150  1  0.09206804  0.10127738  0.36784034  1
  Ti  Ti151  1  0.10511633  0.51049620  0.88561148  1
  Ti  Ti152  1  0.00837262  0.40943494  0.25088038  1
  Ti  Ti153  1  0.41023303  0.41834518  0.74532717  1
  Ti  Ti154  1  0.79331185  0.60413077  0.76047784  1
  Ti  Ti155  1  0.49527067  0.09613939  0.89420232  1
  Ti  Ti156  1  0.49016487  0.49642099  0.87827272  1
  Ti  Ti157  1  0.61458848  0.00200778  -0.00635690  1
  Ti  Ti158  1  0.09028748  0.71596758  0.37632394  1
  Ti  Ti159  1  0.38777420  0.58204620  0.00322686  1
  Mo  Mo160  1  0.58716406  -0.02210089  0.23627023  1
  Mo  Mo161  1  0.31184083  0.91086932  0.10307558  1
  Mo  Mo162  1  0.09290764  0.70098641  0.11929280  1
  Mo  Mo163  1  0.50055258  0.09747152  0.62933637  1
  Mo  Mo164  1  -0.00705461  0.59791786  0.25837852  1
  Mo  Mo165  1  0.49045254  0.09888098  0.36580034  1
  Mo  Mo166  1  0.70187291  0.50142466  0.12028429  1
  Mo  Mo167  1  0.40654997  0.00029253  0.00206542  1
  Mo  Mo168  1  0.30533842  0.49938447  0.13334322  1
  Mo  Mo169  1  0.49825112  0.69619393  0.12962213  1
  Mo  Mo170  1  0.79050022  0.59173121  0.25045734  1
  Mo  Mo171  1  0.29467231  0.30304949  0.12508506  1
  Mo  Mo172  1  0.00107970  -0.00468066  0.23589071  1
  Mo  Mo173  1  0.39518117  0.21033599  0.76174190  1
  Mo  Mo174  1  0.90449102  0.50577720  0.37129572  1
  Mo  Mo175  1  0.79892853  0.19745964  0.25914197  1
  Mo  Mo176  1  0.49482877  0.49785527  0.61684163  1
  Mo  Mo177  1  0.29702050  0.30897489  0.36253443  1
  Mo  Mo178  1  0.00074754  0.20761814  0.00614215  1
  Mo  Mo179  1  0.90192526  0.50389139  0.88460628  1
  Mo  Mo180  1  0.30187726  0.70783565  0.37625788  1
  Mo  Mo181  1  0.90378548  0.30571417  0.62852041  1
  Mo  Mo182  1  0.60752660  0.79539160  -0.00014257  1
  Mo  Mo183  1  0.59246325  -0.01557855  0.50175012  1
  Mo  Mo184  1  0.09473143  0.90845592  0.13047005  1
  Mo  Mo185  1  0.39743668  0.20961366  -0.00290276  1
  Mo  Mo186  1  0.20014584  0.00977467  0.01698470  1
  Mo  Mo187  1  0.59484653  0.79126206  0.50818687  1
  Mo  Mo188  1  0.70446087  0.08885446  0.87906414  1
  Mo  Mo189  1  0.39535151  0.60760843  0.74807346  1
  Mo  Mo190  1  0.09992888  0.89743609  0.88345270  1
  Mo  Mo191  1  0.19573679  0.60144548  -0.01019316  1
  Mo  Mo192  1  0.30857576  0.89513344  0.38128977  1
  Mo  Mo193  1  0.01579144  0.19535490  0.24424447  1
  Mo  Mo194  1  0.70403148  0.08998307  0.11933904  1
  Mo  Mo195  1  0.50011048  0.89106745  0.62833697  1
  Mo  Mo196  1  0.79679031  0.19162843  0.75912009  1
  Mo  Mo197  1  0.09427032  0.12130905  0.11219428  1
  Mo  Mo198  1  0.00259748  0.80200770  0.49304693  1
  Mo  Mo199  1  0.11416365  0.70563778  0.61181778  1
