# generated using pymatgen
data_HfZrTaTiMo
_symmetry_space_group_name_H-M   'P 1'
_cell_length_a   15.19024962
_cell_length_b   15.19278451
_cell_length_c   16.82302790
_cell_angle_alpha   90.01344581
_cell_angle_beta   89.96120222
_cell_angle_gamma   89.95056326
_symmetry_Int_Tables_number   1
_chemical_formula_structural   HfZrTaTiMo
_chemical_formula_sum   'Hf40 Zr40 Ta40 Ti40 Mo40'
_cell_volume   3882.45276281
_cell_formula_units_Z   40
loop_
 _symmetry_equiv_pos_site_id
 _symmetry_equiv_pos_as_xyz
  1  'x, y, z'
loop_
 _atom_site_type_symbol
 _atom_site_label
 _atom_site_symmetry_multiplicity
 _atom_site_fract_x
 _atom_site_fract_y
 _atom_site_fract_z
 _atom_site_occupancy
  Hf  Hf0  1  0.58915645  -0.00191012  0.49475042  1
  Hf  Hf1  1  0.49966983  0.10490836  0.62947837  1
  Hf  Hf2  1  0.51957471  0.30232274  0.11522238  1
  Hf  Hf3  1  0.60043133  0.80407010  0.48595229  1
  Hf  Hf4  1  0.38169925  0.81596251  0.00152116  1
  Hf  Hf5  1  0.00476295  0.79814493  0.25361679  1
  Hf  Hf6  1  -0.01836820  0.59936703  -0.00526095  1
  Hf  Hf7  1  0.91005073  0.68993616  0.37429463  1
  Hf  Hf8  1  0.08313524  0.69641042  0.11961851  1
  Hf  Hf9  1  0.20348245  0.20693643  0.51082015  1
  Hf  Hf10  1  0.08553927  0.10245117  0.13171647  1
  Hf  Hf11  1  -0.00708917  -0.01802799  0.51829872  1
  Hf  Hf12  1  0.80434740  0.80775669  0.49195421  1
  Hf  Hf13  1  0.48419506  0.92422389  0.86511937  1
  Hf  Hf14  1  0.50424834  0.70626917  0.13829757  1
  Hf  Hf15  1  0.61791208  0.19589334  -0.00327897  1
  Hf  Hf16  1  0.50593196  0.30762234  0.62797181  1
  Hf  Hf17  1  0.61101882  0.20861132  0.49329658  1
  Hf  Hf18  1  0.79835072  0.00915665  0.48715367  1
  Hf  Hf19  1  0.30144303  0.29716496  0.10898695  1
  Hf  Hf20  1  0.79257589  -0.00028320  -0.00526344  1
  Hf  Hf21  1  0.09809020  0.89579396  0.37906896  1
  Hf  Hf22  1  0.40160840  0.19928052  0.49942087  1
  Hf  Hf23  1  0.52514786  0.52224635  0.88419727  1
  Hf  Hf24  1  0.10577403  0.30646132  0.11945175  1
  Hf  Hf25  1  0.90995609  0.29137886  0.38007028  1
  Hf  Hf26  1  0.88329199  0.69362098  0.62191895  1
  Hf  Hf27  1  0.80406235  0.78540389  -0.00208110  1
  Hf  Hf28  1  0.29847732  0.70501193  0.63067586  1
  Hf  Hf29  1  0.81307446  0.18542631  0.25608853  1
  Hf  Hf30  1  0.49995309  0.47674583  0.38013205  1
  Hf  Hf31  1  0.88810307  0.48267314  0.87409219  1
  Hf  Hf32  1  0.60526264  -0.00133830  0.74833302  1
  Hf  Hf33  1  0.38884935  0.41220814  0.76088041  1
  Hf  Hf34  1  0.77928889  0.78993694  0.74780922  1
  Hf  Hf35  1  0.49871997  0.90595796  0.14364164  1
  Hf  Hf36  1  0.10523378  0.31046341  0.38026731  1
  Hf  Hf37  1  0.60356280  0.59810481  0.50230322  1
  Hf  Hf38  1  0.40406777  0.61356321  0.76151411  1
  Hf  Hf39  1  0.30591507  0.08734463  0.86074273  1
  Zr  Zr40  1  0.28825005  0.30604947  0.88476121  1
  Zr  Zr41  1  0.37981405  0.60260678  0.49689732  1
  Zr  Zr42  1  0.50909056  0.10084370  0.13507265  1
  Zr  Zr43  1  0.48907604  0.50350968  0.62051212  1
  Zr  Zr44  1  0.39069141  0.58654408  0.23665812  1
  Zr  Zr45  1  0.10692677  0.69472515  0.62868273  1
  Zr  Zr46  1  0.89617629  0.48782666  0.36849290  1
  Zr  Zr47  1  0.00068755  0.00581917  -0.00858893  1
  Zr  Zr48  1  0.40051639  0.21066468  0.24936518  1
  Zr  Zr49  1  0.09383225  0.10305691  0.38122117  1
  Zr  Zr50  1  0.70552654  0.68663170  0.36315423  1
  Zr  Zr51  1  0.28510475  0.70748233  0.13118647  1
  Zr  Zr52  1  0.50962365  0.30802670  0.88148859  1
  Zr  Zr53  1  0.71191443  0.10525301  0.62476651  1
  Zr  Zr54  1  -0.00514377  0.80349988  0.73951377  1
  Zr  Zr55  1  0.69196425  0.88773609  0.87708757  1
  Zr  Zr56  1  0.50739805  0.72591375  0.87251591  1
  Zr  Zr57  1  -0.00385005  0.19596182  0.73116265  1
  Zr  Zr58  1  -0.01078615  0.18855907  0.51997050  1
  Zr  Zr59  1  0.70134212  0.70088378  0.13784684  1
  Zr  Zr60  1  0.00639891  0.58531079  0.51052368  1
  Zr  Zr61  1  0.39561416  0.82193722  0.49077820  1
  Zr  Zr62  1  0.39893045  0.00668687  0.00592527  1
  Zr  Zr63  1  0.50390807  0.71936943  0.62897894  1
  Zr  Zr64  1  0.28949443  0.09657852  0.12977008  1
  Zr  Zr65  1  0.31313448  0.31053699  0.37798870  1
  Zr  Zr66  1  0.40991636  0.41054450  0.00587539  1
  Zr  Zr67  1  0.29169064  0.50607308  0.36819684  1
  Zr  Zr68  1  0.81623112  0.39058261  0.02559232  1
  Zr  Zr69  1  0.70441809  0.31580940  0.37808560  1
  Zr  Zr70  1  0.61268326  0.41162743  0.75286442  1
  Zr  Zr71  1  0.89734561  0.89547416  0.12239770  1
  Zr  Zr72  1  0.49669583  0.10247204  0.36553561  1
  Zr  Zr73  1  -0.00978636  0.58900732  0.74806796  1
  Zr  Zr74  1  0.11791593  0.08331130  0.62862142  1
  Zr  Zr75  1  0.18938025  0.18217893  -0.01280556  1
  Zr  Zr76  1  0.09845251  0.48290254  0.87040557  1
  Zr  Zr77  1  0.72553068  0.30815526  0.88106323  1
  Zr  Zr78  1  0.40306947  0.61445708  0.00399973  1
  Zr  Zr79  1  0.49240946  0.69322965  0.35959344  1
  Ta  Ta80  1  -0.00082165  0.38408798  0.73027667  1
  Ta  Ta81  1  0.90227760  0.89815005  0.87112097  1
  Ta  Ta82  1  0.20050565  -0.02392962  -0.00372868  1
  Ta  Ta83  1  0.80606725  0.81183770  0.26371255  1
  Ta  Ta84  1  0.19207333  0.20850251  0.25397955  1
  Ta  Ta85  1  0.69552350  0.67896377  0.88049427  1
  Ta  Ta86  1  0.81078039  0.39447793  0.73734121  1
  Ta  Ta87  1  0.61060601  0.81247581  0.26012040  1
  Ta  Ta88  1  0.41132514  0.19305342  -0.01101962  1
  Ta  Ta89  1  0.17588603  0.59452902  0.24166753  1
  Ta  Ta90  1  0.89897203  0.10425180  0.86579986  1
  Ta  Ta91  1  0.28540418  0.71105287  0.35712279  1
  Ta  Ta92  1  0.18761131  0.60304937  -0.00529874  1
  Ta  Ta93  1  0.70880996  0.48870048  0.61371772  1
  Ta  Ta94  1  0.60808854  0.20507654  0.75702729  1
  Ta  Ta95  1  0.10565367  0.89116431  0.86904431  1
  Ta  Ta96  1  -0.02047446  0.00439349  0.25894031  1
  Ta  Ta97  1  0.19977531  0.79796877  0.49568526  1
  Ta  Ta98  1  0.61604149  0.20613660  0.25539193  1
  Ta  Ta99  1  0.80196905  0.20328908  0.75027454  1
  Ta  Ta100  1  0.20684410  0.41913410  0.50760099  1
  Ta  Ta101  1  0.29792201  0.50980140  0.88972882  1
  Ta  Ta102  1  0.62646334  0.42108169  0.00845056  1
  Ta  Ta103  1  0.49062937  0.90915249  0.35325389  1
  Ta  Ta104  1  0.29761043  0.90739870  0.35540291  1
  Ta  Ta105  1  0.11985671  0.48947764  0.63843657  1
  Ta  Ta106  1  0.10342387  0.89992135  0.12895713  1
  Ta  Ta107  1  0.20293243  0.21042756  0.74454480  1
  Ta  Ta108  1  0.48768369  0.91154576  0.63242045  1
  Ta  Ta109  1  0.91367649  0.50329346  0.14054556  1
  Ta  Ta110  1  0.80200668  0.38979076  0.23571904  1
  Ta  Ta111  1  0.09639719  0.50068051  0.37616490  1
  Ta  Ta112  1  -0.00310033  -0.00900926  0.73938903  1
  Ta  Ta113  1  0.20834310  0.59448009  0.76244044  1
  Ta  Ta114  1  0.09586132  0.69967006  0.87267520  1
  Ta  Ta115  1  0.81310986  0.19228911  0.00591720  1
  Ta  Ta116  1  0.29227768  0.89982454  0.14873857  1
  Ta  Ta117  1  0.40572687  0.40141442  0.23089681  1
  Ta  Ta118  1  0.61659436  0.61459389  0.73581997  1
  Ta  Ta119  1  0.29991240  0.31797955  0.63002528  1
  Ti  Ti120  1  0.20187673  -0.02205617  0.74872938  1
  Ti  Ti121  1  0.89025839  0.69070934  0.14186882  1
  Ti  Ti122  1  0.91512013  0.28374947  0.13710660  1
  Ti  Ti123  1  0.18509926  0.00408563  0.25452632  1
  Ti  Ti124  1  0.00453080  0.80325092  -0.00737696  1
  Ti  Ti125  1  0.78658392  -0.00511715  0.27008263  1
  Ti  Ti126  1  0.51703188  0.51044194  0.12260955  1
  Ti  Ti127  1  0.87148603  0.29555124  0.60885495  1
  Ti  Ti128  1  0.21641441  -0.00485520  0.49834258  1
  Ti  Ti129  1  0.31086184  0.09855199  0.63595874  1
  Ti  Ti130  1  0.70042329  0.49999459  0.36672850  1
  Ti  Ti131  1  0.89172812  0.69626358  0.86785835  1
  Ti  Ti132  1  0.69375792  0.88821681  0.62397466  1
  Ti  Ti133  1  0.29662286  0.09616035  0.37000196  1
  Ti  Ti134  1  0.38191484  0.82061854  0.75424012  1
  Ti  Ti135  1  0.70399701  0.09836819  0.13028447  1
  Ti  Ti136  1  0.59596041  0.00276032  -0.00417851  1
  Ti  Ti137  1  0.78595537  0.58468547  0.00667138  1
  Ti  Ti138  1  0.59757249  0.80485634  0.00857178  1
  Ti  Ti139  1  0.08846112  0.29150632  0.87006854  1
  Ti  Ti140  1  0.80143794  0.58754530  0.50178266  1
  Ti  Ti141  1  0.00545561  0.39686845  0.00397725  1
  Ti  Ti142  1  0.89602900  0.09223638  0.12547569  1
  Ti  Ti143  1  -0.00801664  0.20343999  -0.00843969  1
  Ti  Ti144  1  0.27843941  0.49695502  0.10849109  1
  Ti  Ti145  1  0.70285607  0.09790842  0.86925898  1
  Ti  Ti146  1  0.60038845  0.39939621  0.24277575  1
  Ti  Ti147  1  0.00142023  0.79482470  0.50905101  1
  Ti  Ti148  1  0.01445801  0.39979207  0.24496352  1
  Ti  Ti149  1  0.40631237  0.20381311  0.75807517  1
  Ti  Ti150  1  0.79400732  0.58571990  0.74342669  1
  Ti  Ti151  1  0.09906901  0.08993445  0.85782925  1
  Ti  Ti152  1  0.10490544  0.68981361  0.37876884  1
  Ti  Ti153  1  0.29342816  0.90603930  0.62449526  1
  Ti  Ti154  1  0.28379333  0.71685631  0.87703339  1
  Ti  Ti155  1  0.00275515  0.39339234  0.52239603  1
  Ti  Ti156  1  0.80843214  -0.00519285  0.74740525  1
  Ti  Ti157  1  0.69767840  0.90604091  0.12873195  1
  Ti  Ti158  1  0.70512301  0.50669585  0.14387371  1
  Ti  Ti159  1  0.20806457  0.40364791  0.24263485  1
  Mo  Mo160  1  0.59171911  0.80199203  0.74505567  1
  Mo  Mo161  1  0.39736361  0.80144067  0.25368770  1
  Mo  Mo162  1  0.19784790  0.39571460  0.75432249  1
  Mo  Mo163  1  0.59877234  0.58794974  0.25328877  1
  Mo  Mo164  1  0.80413578  0.59435351  0.24951474  1
  Mo  Mo165  1  0.70040470  0.69527411  0.61472731  1
  Mo  Mo166  1  0.51091248  0.10993464  0.86859992  1
  Mo  Mo167  1  0.69683293  0.30066219  0.62503472  1
  Mo  Mo168  1  0.71029025  0.29265496  0.13098242  1
  Mo  Mo169  1  0.89273119  0.09186817  0.63590982  1
  Mo  Mo170  1  0.71214978  0.50401847  0.87565097  1
  Mo  Mo171  1  0.00161828  0.59381579  0.25348243  1
  Mo  Mo172  1  0.11165664  0.88998513  0.61788308  1
  Mo  Mo173  1  0.38821959  0.00316260  0.49936191  1
  Mo  Mo174  1  0.90217353  0.49007744  0.62339256  1
  Mo  Mo175  1  0.18889292  0.80092410  0.25479655  1
  Mo  Mo176  1  0.50619872  0.30417472  0.36726462  1
  Mo  Mo177  1  0.19400346  0.40318427  -0.00306291  1
  Mo  Mo178  1  0.61237849  0.00576374  0.25368554  1
  Mo  Mo179  1  0.18713062  0.79971067  0.00121802  1
  Mo  Mo180  1  0.70068784  0.10470395  0.37223879  1
  Mo  Mo181  1  0.90384514  0.09453647  0.37632263  1
  Mo  Mo182  1  0.61208950  0.61054910  0.01030559  1
  Mo  Mo183  1  0.29618992  0.50887758  0.63240423  1
  Mo  Mo184  1  0.80203985  0.19930417  0.49154912  1
  Mo  Mo185  1  0.39387968  0.00870309  0.74268269  1
  Mo  Mo186  1  0.60245313  0.40368491  0.50382322  1
  Mo  Mo187  1  0.29103292  0.89713439  0.87052701  1
  Mo  Mo188  1  0.10910847  0.30058760  0.62040898  1
  Mo  Mo189  1  0.19724880  0.60647782  0.49654118  1
  Mo  Mo190  1  0.00676846  0.20129392  0.25038604  1
  Mo  Mo191  1  0.39616926  0.39366727  0.50724532  1
  Mo  Mo192  1  0.19908852  0.79427891  0.75133236  1
  Mo  Mo193  1  0.69360430  0.90258739  0.37353803  1
  Mo  Mo194  1  0.09892016  0.49945317  0.11706149  1
  Mo  Mo195  1  0.88724852  0.89950350  0.62996949  1
  Mo  Mo196  1  0.91496274  0.29415579  0.87361133  1
  Mo  Mo197  1  0.90385130  0.89767472  0.37350114  1
  Mo  Mo198  1  0.80006470  0.40069203  0.50221749  1
  Mo  Mo199  1  0.39127897  0.00671276  0.24778876  1
