# generated using pymatgen
data_HfZrTaTiMo
_symmetry_space_group_name_H-M   'P 1'
_cell_length_a   15.17423586
_cell_length_b   15.17146402
_cell_length_c   16.81549623
_cell_angle_alpha   89.97778619
_cell_angle_beta   89.96978846
_cell_angle_gamma   90.14869159
_symmetry_Int_Tables_number   1
_chemical_formula_structural   HfZrTaTiMo
_chemical_formula_sum   'Hf40 Zr40 Ta40 Ti40 Mo40'
_cell_volume   3871.17187588
_cell_formula_units_Z   40
loop_
 _symmetry_equiv_pos_site_id
 _symmetry_equiv_pos_as_xyz
  1  'x, y, z'
loop_
 _atom_site_type_symbol
 _atom_site_label
 _atom_site_symmetry_multiplicity
 _atom_site_fract_x
 _atom_site_fract_y
 _atom_site_fract_z
 _atom_site_occupancy
  Hf  Hf0  1  0.49077628  0.89693163  0.37644444  1
  Hf  Hf1  1  0.19074313  0.19482845  0.50360406  1
  Hf  Hf2  1  0.19351453  -0.01345634  -0.01184912  1
  Hf  Hf3  1  0.21192298  0.59998761  0.48929616  1
  Hf  Hf4  1  -0.01372253  0.19196902  0.24702899  1
  Hf  Hf5  1  0.80248719  -0.01383864  0.51579851  1
  Hf  Hf6  1  0.39075754  0.22143955  0.24228862  1
  Hf  Hf7  1  0.88773499  0.70226103  0.37522145  1
  Hf  Hf8  1  0.40354667  0.41255029  0.22726224  1
  Hf  Hf9  1  0.40189294  0.61204119  0.00576517  1
  Hf  Hf10  1  0.50591218  0.68489610  0.64882348  1
  Hf  Hf11  1  0.48620601  0.10023126  0.63697901  1
  Hf  Hf12  1  0.80281727  0.39777214  0.26303351  1
  Hf  Hf13  1  0.32017895  0.30310552  0.86100546  1
  Hf  Hf14  1  0.00171956  0.59468758  0.24592545  1
  Hf  Hf15  1  -0.00252078  0.59486171  0.49784834  1
  Hf  Hf16  1  0.50953279  0.70474453  0.86155610  1
  Hf  Hf17  1  0.19599936  0.18434807  0.76340214  1
  Hf  Hf18  1  0.91089652  0.70154999  0.87400361  1
  Hf  Hf19  1  0.09081602  0.09663853  0.36978027  1
  Hf  Hf20  1  0.81573198  0.40643618  0.49012695  1
  Hf  Hf21  1  0.79886770  0.79082743  0.74825332  1
  Hf  Hf22  1  0.68779244  0.10859107  0.61873414  1
  Hf  Hf23  1  0.79689227  0.21028729  0.74495481  1
  Hf  Hf24  1  0.58565436  0.78983210  0.23718314  1
  Hf  Hf25  1  0.28857028  0.09174760  0.63245694  1
  Hf  Hf26  1  0.29109892  0.69207727  0.86940791  1
  Hf  Hf27  1  0.60548888  0.18740618  -0.01751691  1
  Hf  Hf28  1  0.28773577  0.10817816  0.12997837  1
  Hf  Hf29  1  0.71341764  0.09392483  0.13220107  1
  Hf  Hf30  1  0.11176643  0.49910443  0.62376151  1
  Hf  Hf31  1  0.69536923  0.87385729  0.38800080  1
  Hf  Hf32  1  0.19843336  0.40062699  -0.00963997  1
  Hf  Hf33  1  0.50729175  0.30283776  0.63382364  1
  Hf  Hf34  1  0.49753767  0.90782423  0.12536214  1
  Hf  Hf35  1  0.51525232  0.11379172  0.12683915  1
  Hf  Hf36  1  0.47621598  0.31411241  0.38356476  1
  Hf  Hf37  1  0.80777676  0.79745120  0.01263671  1
  Hf  Hf38  1  0.39732873  0.01330928  -0.00454062  1
  Hf  Hf39  1  0.61287325  0.59821528  0.25237331  1
  Zr  Zr40  1  0.61701401  -0.00207962  0.26236567  1
  Zr  Zr41  1  0.90303581  0.48643165  0.63504167  1
  Zr  Zr42  1  0.27889843  0.51273122  0.12791482  1
  Zr  Zr43  1  0.08756210  0.08883070  0.12976760  1
  Zr  Zr44  1  0.70565832  0.51387015  0.62514549  1
  Zr  Zr45  1  0.78836289  0.80606847  0.22967671  1
  Zr  Zr46  1  0.40119779  0.40487626  0.01145890  1
  Zr  Zr47  1  0.90284805  0.49885575  0.12348830  1
  Zr  Zr48  1  0.38976991  0.81232013  -0.00799010  1
  Zr  Zr49  1  0.89659444  0.09813765  0.86580010  1
  Zr  Zr50  1  0.19824110  0.19254574  -0.01788944  1
  Zr  Zr51  1  0.40312095  0.21367179  0.00531338  1
  Zr  Zr52  1  0.37945261  0.80410265  0.74920078  1
  Zr  Zr53  1  0.71002954  0.48469838  0.11484697  1
  Zr  Zr54  1  0.49282312  0.50096910  0.86797671  1
  Zr  Zr55  1  0.60187521  0.39615708  0.25552053  1
  Zr  Zr56  1  0.89822416  0.89960147  0.37774736  1
  Zr  Zr57  1  0.21723970  0.39409861  0.49944303  1
  Zr  Zr58  1  0.60354898  0.80722527  0.00291663  1
  Zr  Zr59  1  0.58436976  -0.00545664  0.50270765  1
  Zr  Zr60  1  0.50091964  0.91052659  0.86359555  1
  Zr  Zr61  1  0.40481208  0.01475804  0.25925067  1
  Zr  Zr62  1  0.00278635  0.39666816  -0.00134506  1
  Zr  Zr63  1  0.79893054  0.20279145  -0.01224863  1
  Zr  Zr64  1  0.91327739  0.90162775  0.87174211  1
  Zr  Zr65  1  0.88833564  0.29051816  0.12719483  1
  Zr  Zr66  1  0.77920202  -0.00265225  -0.00752044  1
  Zr  Zr67  1  0.00499240  0.60448288  0.00734171  1
  Zr  Zr68  1  0.20387354  0.41539319  0.76297774  1
  Zr  Zr69  1  0.30376272  0.30507745  0.64125250  1
  Zr  Zr70  1  0.20297117  0.79846462  0.48736782  1
  Zr  Zr71  1  0.00068895  0.19763671  0.74354887  1
  Zr  Zr72  1  0.71033992  0.30966413  0.61436426  1
  Zr  Zr73  1  0.41069323  0.62247355  0.24090551  1
  Zr  Zr74  1  0.50320417  0.51605336  0.37861505  1
  Zr  Zr75  1  0.48797120  0.11081867  0.85080316  1
  Zr  Zr76  1  0.18683686  0.79204680  -0.00008548  1
  Zr  Zr77  1  0.80284729  -0.00527084  0.73227419  1
  Zr  Zr78  1  0.08911535  0.89528686  0.37304222  1
  Zr  Zr79  1  0.41000851  0.79055981  0.51208882  1
  Ta  Ta80  1  0.68884812  0.68289611  0.11011774  1
  Ta  Ta81  1  0.19622296  -0.02446432  0.76199627  1
  Ta  Ta82  1  0.52274591  0.51671401  0.11067934  1
  Ta  Ta83  1  0.61167137  0.62105382  0.50246213  1
  Ta  Ta84  1  0.39007275  0.20580897  0.50093250  1
  Ta  Ta85  1  0.20277236  0.79349611  0.26025662  1
  Ta  Ta86  1  0.91181058  0.49981385  0.36978932  1
  Ta  Ta87  1  0.78615803  0.19772778  0.27258151  1
  Ta  Ta88  1  0.80202869  0.20149012  0.49209827  1
  Ta  Ta89  1  0.89948722  0.09778310  0.38994958  1
  Ta  Ta90  1  -0.00014257  0.19261226  -0.00073305  1
  Ta  Ta91  1  0.69438385  0.30567356  0.39056375  1
  Ta  Ta92  1  0.59068611  0.41635898  0.50270634  1
  Ta  Ta93  1  0.58784448  0.20223532  0.48777822  1
  Ta  Ta94  1  0.89759699  0.69000924  0.63026501  1
  Ta  Ta95  1  0.29293907  0.90622155  0.13693549  1
  Ta  Ta96  1  0.11120723  0.89930903  0.61859904  1
  Ta  Ta97  1  0.61776319  0.40591290  0.75327546  1
  Ta  Ta98  1  0.90083120  0.10955017  0.61519871  1
  Ta  Ta99  1  0.60257812  0.39012612  -0.00846873  1
  Ta  Ta100  1  0.10606313  0.48803520  0.37174685  1
  Ta  Ta101  1  0.11001073  0.68783895  0.13894450  1
  Ta  Ta102  1  0.79020778  0.77807893  0.51466384  1
  Ta  Ta103  1  0.80155781  0.60522869  0.24637581  1
  Ta  Ta104  1  0.89448839  0.49758730  0.86473594  1
  Ta  Ta105  1  0.30055311  0.90255577  0.62014529  1
  Ta  Ta106  1  0.10466818  0.29463842  0.36795042  1
  Ta  Ta107  1  0.29905004  0.71662428  0.13205797  1
  Ta  Ta108  1  -0.00775522  0.79608306  0.23132737  1
  Ta  Ta109  1  0.00648698  0.00296549  0.51616389  1
  Ta  Ta110  1  0.59401411  0.19776852  0.27436437  1
  Ta  Ta111  1  0.20496863  0.59628220  0.26722867  1
  Ta  Ta112  1  0.09113593  0.69524759  0.36918804  1
  Ta  Ta113  1  0.09837871  0.70200917  0.61904958  1
  Ta  Ta114  1  0.00519988  0.60381852  0.74828389  1
  Ta  Ta115  1  0.19733319  0.61230487  0.74692456  1
  Ta  Ta116  1  0.00189723  0.80424824  0.02303866  1
  Ta  Ta117  1  0.19829819  0.00090263  0.25850206  1
  Ta  Ta118  1  0.68406980  0.28543438  0.12906126  1
  Ta  Ta119  1  0.31286243  0.49001914  0.37081749  1
  Ti  Ti120  1  0.41102635  0.58043543  0.51534505  1
  Ti  Ti121  1  0.01196069  0.39512774  0.24495785  1
  Ti  Ti122  1  0.70411404  0.30384548  0.86521562  1
  Ti  Ti123  1  0.20741417  0.38710472  0.25025336  1
  Ti  Ti124  1  0.79551671  0.59790168  -0.01204530  1
  Ti  Ti125  1  0.79834961  0.39652877  -0.01011162  1
  Ti  Ti126  1  0.90272322  0.30395541  0.87321675  1
  Ti  Ti127  1  0.09691368  0.51698070  0.87027054  1
  Ti  Ti128  1  0.11426676  0.29490691  0.12713273  1
  Ti  Ti129  1  0.49671195  0.89680592  0.63949022  1
  Ti  Ti130  1  0.29871455  0.90394264  0.37068423  1
  Ti  Ti131  1  0.01148736  0.39095416  0.49771084  1
  Ti  Ti132  1  0.09518411  0.29690272  0.62940204  1
  Ti  Ti133  1  -0.00137503  0.20458563  0.50604892  1
  Ti  Ti134  1  0.29672896  0.11960036  0.37014438  1
  Ti  Ti135  1  0.68681429  0.88569515  0.62581649  1
  Ti  Ti136  1  0.31755480  0.70097607  0.37355135  1
  Ti  Ti137  1  0.29489043  0.69505234  0.62746906  1
  Ti  Ti138  1  0.89786676  0.92321787  0.12860840  1
  Ti  Ti139  1  0.01294397  0.80240074  0.73968474  1
  Ti  Ti140  1  0.71249274  0.51624134  0.38686377  1
  Ti  Ti141  1  0.63185302  0.60421389  0.77178289  1
  Ti  Ti142  1  0.39006307  0.01055691  0.49192107  1
  Ti  Ti143  1  0.51040179  0.30322595  0.85207077  1
  Ti  Ti144  1  0.20071800  0.00163628  0.49187546  1
  Ti  Ti145  1  0.09176298  0.29736415  0.87302396  1
  Ti  Ti146  1  0.70007495  0.09337998  0.38973981  1
  Ti  Ti147  1  0.10469601  0.89584591  0.13987204  1
  Ti  Ti148  1  0.60467529  -0.00140621  0.74427874  1
  Ti  Ti149  1  -0.00052070  0.39588370  0.75281480  1
  Ti  Ti150  1  -0.00897763  0.80151206  0.51064531  1
  Ti  Ti151  1  0.51236862  0.70847973  0.38434466  1
  Ti  Ti152  1  0.08589343  0.07787116  0.87263210  1
  Ti  Ti153  1  0.00612515  -0.00418864  0.72614775  1
  Ti  Ti154  1  0.69842771  0.69821609  0.63564361  1
  Ti  Ti155  1  0.19480683  0.59870125  -0.00340110  1
  Ti  Ti156  1  0.69634128  0.89482195  0.86507546  1
  Ti  Ti157  1  0.91034919  0.29735542  0.37522990  1
  Ti  Ti158  1  -0.00615345  -0.00321260  0.00294400  1
  Ti  Ti159  1  0.81603087  0.00992532  0.25683776  1
  Mo  Mo160  1  0.28882933  0.30392268  0.12118734  1
  Mo  Mo161  1  0.80624229  0.59822411  0.76015404  1
  Mo  Mo162  1  0.40591053  0.40390673  0.50990230  1
  Mo  Mo163  1  0.51369644  0.30704401  0.12332204  1
  Mo  Mo164  1  0.39617391  0.20566404  0.74564757  1
  Mo  Mo165  1  0.18634565  0.79469643  0.74245090  1
  Mo  Mo166  1  0.29189225  0.30617049  0.37463003  1
  Mo  Mo167  1  0.59977421  0.00192056  -0.00871542  1
  Mo  Mo168  1  0.69869709  0.90187045  0.12756774  1
  Mo  Mo169  1  0.39119828  0.80938131  0.25239423  1
  Mo  Mo170  1  0.80504660  0.60039902  0.49873233  1
  Mo  Mo171  1  0.60788581  0.20262238  0.75366106  1
  Mo  Mo172  1  0.68866910  0.09061259  0.85454749  1
  Mo  Mo173  1  0.51093396  0.49985549  0.63887899  1
  Mo  Mo174  1  0.41163675  0.41324155  0.74694466  1
  Mo  Mo175  1  0.31321155  0.51057638  0.62668318  1
  Mo  Mo176  1  0.60718930  0.59818209  -0.01615098  1
  Mo  Mo177  1  0.70808108  0.70162879  0.88532198  1
  Mo  Mo178  1  0.89598577  0.10072112  0.12238003  1
  Mo  Mo179  1  0.10608930  0.48926470  0.13798549  1
  Mo  Mo180  1  0.49021206  0.10889228  0.38259233  1
  Mo  Mo181  1  0.08558477  0.88699592  0.87401935  1
  Mo  Mo182  1  0.38571855  0.58852818  0.74542864  1
  Mo  Mo183  1  0.90923735  0.30066474  0.61694468  1
  Mo  Mo184  1  0.70314006  0.49428639  0.88430687  1
  Mo  Mo185  1  0.38522861  -0.00139654  0.74833818  1
  Mo  Mo186  1  -0.00798547  -0.00841021  0.24773183  1
  Mo  Mo187  1  0.09068442  0.70351253  0.87111855  1
  Mo  Mo188  1  0.60674689  0.80426735  0.74893248  1
  Mo  Mo189  1  0.19359795  0.20295937  0.25197989  1
  Mo  Mo190  1  0.89699545  0.69821897  0.12319663  1
  Mo  Mo191  1  0.49901432  0.70182271  0.11618957  1
  Mo  Mo192  1  0.29541363  0.09141191  0.86438884  1
  Mo  Mo193  1  0.10092666  0.09326353  0.62361414  1
  Mo  Mo194  1  0.29384033  0.50627693  0.87997715  1
  Mo  Mo195  1  0.69702160  0.69831405  0.37532712  1
  Mo  Mo196  1  0.29043358  0.90167370  0.87425640  1
  Mo  Mo197  1  0.59694839  0.79714771  0.51745753  1
  Mo  Mo198  1  0.90745302  0.88732828  0.62172011  1
  Mo  Mo199  1  0.80632421  0.40042429  0.75741508  1
