# generated using pymatgen
data_HfZrTaTiMo
_symmetry_space_group_name_H-M   'P 1'
_cell_length_a   15.20388875
_cell_length_b   15.20658793
_cell_length_c   16.87609493
_cell_angle_alpha   89.99662434
_cell_angle_beta   89.94075635
_cell_angle_gamma   89.99364076
_symmetry_Int_Tables_number   1
_chemical_formula_structural   HfZrTaTiMo
_chemical_formula_sum   'Hf40 Zr40 Ta40 Ti40 Mo40'
_cell_volume   3901.73872994
_cell_formula_units_Z   40
loop_
 _symmetry_equiv_pos_site_id
 _symmetry_equiv_pos_as_xyz
  1  'x, y, z'
loop_
 _atom_site_type_symbol
 _atom_site_label
 _atom_site_symmetry_multiplicity
 _atom_site_fract_x
 _atom_site_fract_y
 _atom_site_fract_z
 _atom_site_occupancy
  Hf  Hf0  1  0.10887595  0.11322884  0.63254859  1
  Hf  Hf1  1  0.69311037  0.29628171  0.38309398  1
  Hf  Hf2  1  0.58603687  0.20534552  0.74714816  1
  Hf  Hf3  1  -0.00677014  0.20591325  0.25152442  1
  Hf  Hf4  1  0.59363986  0.40655336  0.50818485  1
  Hf  Hf5  1  0.11635122  0.48445022  0.38413863  1
  Hf  Hf6  1  0.01605378  -0.00222488  0.23765446  1
  Hf  Hf7  1  0.71718897  0.89521325  0.13046044  1
  Hf  Hf8  1  0.02203516  0.01400664  0.02202599  1
  Hf  Hf9  1  -0.00725101  0.59608485  0.26297064  1
  Hf  Hf10  1  0.11555055  0.10868769  0.86412568  1
  Hf  Hf11  1  0.48193296  0.30363349  0.38703346  1
  Hf  Hf12  1  0.09336524  0.49852141  0.62704496  1
  Hf  Hf13  1  0.32535958  0.70035065  0.63582542  1
  Hf  Hf14  1  0.48676720  0.51048320  0.63625596  1
  Hf  Hf15  1  0.69948146  0.10394178  0.86895700  1
  Hf  Hf16  1  0.01434850  0.00640759  0.50266663  1
  Hf  Hf17  1  0.31411901  0.50402857  0.37050865  1
  Hf  Hf18  1  0.39129789  0.19185743  0.25903851  1
  Hf  Hf19  1  0.28604034  0.50289103  0.65441354  1
  Hf  Hf20  1  0.78995807  0.21355122  -0.00437585  1
  Hf  Hf21  1  0.11196382  0.91216899  0.86611671  1
  Hf  Hf22  1  0.19597320  0.60099762  0.24590999  1
  Hf  Hf23  1  0.49088236  0.48368298  0.87722101  1
  Hf  Hf24  1  0.29329948  0.71091262  0.12296988  1
  Hf  Hf25  1  0.30304296  0.68668871  0.86137349  1
  Hf  Hf26  1  0.40641863  -0.00937804  -0.00828722  1
  Hf  Hf27  1  0.20276484  0.81285116  0.26556132  1
  Hf  Hf28  1  0.60639878  0.80115151  -0.00011706  1
  Hf  Hf29  1  0.70049020  0.10190381  0.62935515  1
  Hf  Hf30  1  0.90252673  0.69486211  0.12714383  1
  Hf  Hf31  1  0.11794327  0.70205659  0.62571467  1
  Hf  Hf32  1  0.37473541  0.40117338  0.51316785  1
  Hf  Hf33  1  0.21853584  0.60172392  0.50185678  1
  Hf  Hf34  1  -0.00939534  0.21077968  0.75189266  1
  Hf  Hf35  1  0.89009408  0.49289989  0.62102189  1
  Hf  Hf36  1  0.60124564  0.78562110  0.23915692  1
  Hf  Hf37  1  0.00107260  0.40194718  0.25962979  1
  Hf  Hf38  1  0.62011876  0.77529081  0.76437093  1
  Hf  Hf39  1  0.79423934  0.39959068  0.75400303  1
  Zr  Zr40  1  0.30227221  0.10564698  0.12295120  1
  Zr  Zr41  1  0.00721959  0.79878084  0.01395917  1
  Zr  Zr42  1  0.60657895  0.58405608  0.23215317  1
  Zr  Zr43  1  0.40767360  0.81975121  0.24502383  1
  Zr  Zr44  1  0.40688928  0.60190342  0.23766342  1
  Zr  Zr45  1  0.59958566  -0.02322333  0.48741307  1
  Zr  Zr46  1  0.48806971  0.08490493  0.62052586  1
  Zr  Zr47  1  0.91951366  0.90085648  0.37264919  1
  Zr  Zr48  1  0.88076403  0.70769261  0.36775023  1
  Zr  Zr49  1  0.88781891  0.31863596  0.11627447  1
  Zr  Zr50  1  0.49808808  0.47326675  0.11350548  1
  Zr  Zr51  1  0.69206701  0.50630542  0.87987003  1
  Zr  Zr52  1  0.09652184  0.31585048  0.10993721  1
  Zr  Zr53  1  0.18938957  0.60474235  -0.00087071  1
  Zr  Zr54  1  0.89197806  0.10621241  0.12812163  1
  Zr  Zr55  1  0.51016227  0.68273971  0.88602953  1
  Zr  Zr56  1  0.18663126  0.22002066  0.49954182  1
  Zr  Zr57  1  0.59487476  0.39622370  0.73860469  1
  Zr  Zr58  1  -0.01320495  0.40131550  0.76645246  1
  Zr  Zr59  1  0.00629410  0.80555135  0.73992303  1
  Zr  Zr60  1  0.59321684  0.19800291  0.25740566  1
  Zr  Zr61  1  0.21040198  0.80626118  -0.01130815  1
  Zr  Zr62  1  0.60464586  0.00232598  -0.00324252  1
  Zr  Zr63  1  0.19488897  0.20277798  0.00295924  1
  Zr  Zr64  1  0.91556227  0.89792879  0.87928888  1
  Zr  Zr65  1  0.10538339  0.10384532  0.37176918  1
  Zr  Zr66  1  0.79434315  0.40229044  0.25654187  1
  Zr  Zr67  1  0.59717546  -0.00731325  0.25659938  1
  Zr  Zr68  1  -0.00758655  0.59731114  0.49384227  1
  Zr  Zr69  1  0.78657869  0.60125511  0.50027156  1
  Zr  Zr70  1  0.22362667  0.00837221  0.25294622  1
  Zr  Zr71  1  0.80825512  -0.00635779  0.00522874  1
  Zr  Zr72  1  0.70398084  0.88465311  0.62624963  1
  Zr  Zr73  1  0.31973446  0.90665413  0.62406617  1
  Zr  Zr74  1  0.80243829  0.00194642  0.49245449  1
  Zr  Zr75  1  -0.01614847  0.60920324  0.75456883  1
  Zr  Zr76  1  0.10085053  0.70921644  0.38359971  1
  Zr  Zr77  1  0.91270646  0.11012082  0.88411946  1
  Zr  Zr78  1  0.59265505  -0.01666462  0.76020101  1
  Zr  Zr79  1  0.81061263  0.00025398  0.75123995  1
  Ta  Ta80  1  0.81446734  0.79137666  0.75296407  1
  Ta  Ta81  1  0.78427162  0.60941755  0.75189552  1
  Ta  Ta82  1  0.42050448  0.80158259  0.75983084  1
  Ta  Ta83  1  0.70167236  0.29907138  0.61147478  1
  Ta  Ta84  1  0.61045998  0.58525807  0.01538021  1
  Ta  Ta85  1  0.71146273  0.88113787  0.36553516  1
  Ta  Ta86  1  0.38241817  0.18592232  0.49778132  1
  Ta  Ta87  1  -0.02535134  0.41981584  -0.01662165  1
  Ta  Ta88  1  0.90004821  0.10857564  0.62315198  1
  Ta  Ta89  1  0.11701706  0.90806429  0.62511136  1
  Ta  Ta90  1  0.21311836  0.80717201  0.75111038  1
  Ta  Ta91  1  0.38630444  0.39057295  0.24541656  1
  Ta  Ta92  1  0.48515025  0.08078818  0.38265590  1
  Ta  Ta93  1  0.07699506  0.51438402  0.11542600  1
  Ta  Ta94  1  0.08897039  0.31151055  0.62675739  1
  Ta  Ta95  1  0.28500396  0.48502771  0.12085645  1
  Ta  Ta96  1  0.21326551  0.00137107  0.00173439  1
  Ta  Ta97  1  0.09807468  0.50934874  0.87344321  1
  Ta  Ta98  1  0.49862025  0.69914531  0.10664803  1
  Ta  Ta99  1  0.90729216  0.90271900  0.62021517  1
  Ta  Ta100  1  -0.00304834  0.38704457  0.48723928  1
  Ta  Ta101  1  0.39268460  0.59001425  0.00588761  1
  Ta  Ta102  1  0.00659932  0.80132281  0.23707955  1
  Ta  Ta103  1  0.21256547  0.81589854  0.49323578  1
  Ta  Ta104  1  0.22099485  0.01598714  0.50027549  1
  Ta  Ta105  1  0.31926566  0.71110574  0.37820496  1
  Ta  Ta106  1  0.59650491  0.18757329  0.49453388  1
  Ta  Ta107  1  0.38092530  0.18673483  0.75421114  1
  Ta  Ta108  1  0.49944188  0.09087189  0.12398266  1
  Ta  Ta109  1  0.39287896  0.37798500  0.75144513  1
  Ta  Ta110  1  0.27607421  0.31106693  0.37369652  1
  Ta  Ta111  1  0.71466428  0.88512836  0.87932483  1
  Ta  Ta112  1  0.58594509  0.20365806  -0.00094104  1
  Ta  Ta113  1  0.69728497  0.50124953  0.37711305  1
  Ta  Ta114  1  0.79763805  0.19930667  0.49411758  1
  Ta  Ta115  1  0.00670612  0.80577546  0.51117975  1
  Ta  Ta116  1  0.32552146  0.92073517  0.38553124  1
  Ta  Ta117  1  0.19519097  0.22427051  0.24056345  1
  Ta  Ta118  1  0.39802931  0.19565783  -0.01105289  1
  Ta  Ta119  1  0.67872115  0.31047439  0.12009839  1
  Ti  Ti120  1  0.29651130  0.49546864  0.86271087  1
  Ti  Ti121  1  0.30949460  0.90210369  0.86624926  1
  Ti  Ti122  1  0.09422142  0.70614644  0.86716276  1
  Ti  Ti123  1  0.18654598  0.38977217  0.76404602  1
  Ti  Ti124  1  0.69386619  0.10945430  0.12643847  1
  Ti  Ti125  1  0.81823320  0.59040075  0.00213883  1
  Ti  Ti126  1  0.48818912  0.28863656  0.61436499  1
  Ti  Ti127  1  0.48313359  0.28465423  0.12404811  1
  Ti  Ti128  1  0.42703029  0.79957026  0.49200541  1
  Ti  Ti129  1  0.89233900  0.70376824  0.61971926  1
  Ti  Ti130  1  0.69174294  0.50964686  0.62725437  1
  Ti  Ti131  1  0.71026230  0.69239649  0.11504069  1
  Ti  Ti132  1  0.40359733  0.80053609  -0.00558187  1
  Ti  Ti133  1  0.28411589  0.29216084  0.63495798  1
  Ti  Ti134  1  0.19654312  0.40731009  -0.01221046  1
  Ti  Ti135  1  0.59080459  0.39491887  0.25372401  1
  Ti  Ti136  1  0.89009788  0.10505880  0.36910983  1
  Ti  Ti137  1  0.78776662  0.19894667  0.25631398  1
  Ti  Ti138  1  0.12738922  0.89578705  0.12551634  1
  Ti  Ti139  1  0.68396000  0.69483270  0.36842520  1
  Ti  Ti140  1  0.08170985  0.30156654  0.89028166  1
  Ti  Ti141  1  0.80416242  0.39739727  0.48923996  1
  Ti  Ti142  1  0.79554833  0.21151931  0.75351393  1
  Ti  Ti143  1  0.89310818  0.29725303  0.61772167  1
  Ti  Ti144  1  0.52168163  0.69836679  0.63178524  1
  Ti  Ti145  1  0.59650581  0.60893410  0.49898296  1
  Ti  Ti146  1  0.67849862  0.30772105  0.88283566  1
  Ti  Ti147  1  0.79618333  0.79878705  0.50154193  1
  Ti  Ti148  1  0.41440007  0.60635078  0.49646253  1
  Ti  Ti149  1  0.00561888  0.00449395  0.73893042  1
  Ti  Ti150  1  0.40342859  -0.00405109  0.76104136  1
  Ti  Ti151  1  0.49352805  0.10269129  0.87305738  1
  Ti  Ti152  1  0.38848485  0.38372653  -0.00660847  1
  Ti  Ti153  1  -0.01269986  0.20384392  0.49189313  1
  Ti  Ti154  1  0.22076518  0.01718103  0.74386293  1
  Ti  Ti155  1  0.80472072  -0.00321838  0.25449098  1
  Ti  Ti156  1  0.50620312  0.50380535  0.37327283  1
  Ti  Ti157  1  0.50903615  0.88215340  0.62428716  1
  Ti  Ti158  1  0.29169944  0.29005811  0.87040128  1
  Ti  Ti159  1  0.79641282  0.59320814  0.24454677  1
  Mo  Mo160  1  0.70223183  0.09442742  0.37352353  1
  Mo  Mo161  1  0.19282827  0.60339872  0.76009672  1
  Mo  Mo162  1  0.31305939  0.90391632  0.11751435  1
  Mo  Mo163  1  0.41363984  0.00268525  0.24751769  1
  Mo  Mo164  1  0.71293778  0.49230333  0.11637012  1
  Mo  Mo165  1  0.89363506  0.29316526  0.37752503  1
  Mo  Mo166  1  0.30738904  0.30964386  0.11790551  1
  Mo  Mo167  1  0.78022999  0.41020699  -0.00286948  1
  Mo  Mo168  1  0.50405345  0.89275932  0.87197798  1
  Mo  Mo169  1  0.89131788  0.49483507  0.38114231  1
  Mo  Mo170  1  0.50853198  0.87998011  0.37700427  1
  Mo  Mo171  1  0.70511201  0.69486908  0.62519111  1
  Mo  Mo172  1  0.19795675  0.40578450  0.24197030  1
  Mo  Mo173  1  0.19604101  0.40509408  0.51086428  1
  Mo  Mo174  1  0.80515341  0.79218292  0.00073021  1
  Mo  Mo175  1  -0.00479681  0.20942743  -0.00549108  1
  Mo  Mo176  1  0.10171816  0.70135659  0.13326365  1
  Mo  Mo177  1  0.50022244  0.89612686  0.11778182  1
  Mo  Mo178  1  0.58784681  0.38625643  -0.00064710  1
  Mo  Mo179  1  0.09456358  0.29990735  0.37124838  1
  Mo  Mo180  1  0.89321255  0.70394610  0.88426019  1
  Mo  Mo181  1  0.40756575  0.59411505  0.75654909  1
  Mo  Mo182  1  -0.00006765  0.60577692  -0.01128661  1
  Mo  Mo183  1  0.71939667  0.69485621  0.89433506  1
  Mo  Mo184  1  0.80056531  0.79466007  0.24925517  1
  Mo  Mo185  1  0.19801312  0.21844333  0.75312959  1
  Mo  Mo186  1  0.10406245  0.10904834  0.13216095  1
  Mo  Mo187  1  0.88063068  0.30682950  0.88474518  1
  Mo  Mo188  1  0.40521662  -0.00730463  0.50442451  1
  Mo  Mo189  1  0.49934193  0.68726015  0.37299990  1
  Mo  Mo190  1  0.30132164  0.09514236  0.87565052  1
  Mo  Mo191  1  0.60219412  0.59622938  0.75120547  1
  Mo  Mo192  1  0.90525845  0.89705809  0.13873055  1
  Mo  Mo193  1  0.11244149  0.90116070  0.38713810  1
  Mo  Mo194  1  0.48689916  0.29016269  0.87349073  1
  Mo  Mo195  1  0.30400308  0.11347573  0.37531258  1
  Mo  Mo196  1  0.88804688  0.51451313  0.87454828  1
  Mo  Mo197  1  0.29865391  0.10563405  0.62785723  1
  Mo  Mo198  1  0.60905112  0.78093208  0.49481487  1
  Mo  Mo199  1  0.89897451  0.50280471  0.12300409  1
