# generated using pymatgen
data_HfZrTaTiMo
_symmetry_space_group_name_H-M   'P 1'
_cell_length_a   15.21134328
_cell_length_b   15.20784183
_cell_length_c   16.82263229
_cell_angle_alpha   90.03238774
_cell_angle_beta   90.00379057
_cell_angle_gamma   90.12591493
_symmetry_Int_Tables_number   1
_chemical_formula_structural   HfZrTaTiMo
_chemical_formula_sum   'Hf40 Zr40 Ta40 Ti40 Mo40'
_cell_volume   3891.59814083
_cell_formula_units_Z   40
loop_
 _symmetry_equiv_pos_site_id
 _symmetry_equiv_pos_as_xyz
  1  'x, y, z'
loop_
 _atom_site_type_symbol
 _atom_site_label
 _atom_site_symmetry_multiplicity
 _atom_site_fract_x
 _atom_site_fract_y
 _atom_site_fract_z
 _atom_site_occupancy
  Hf  Hf0  1  0.01904141  0.80631323  0.72460768  1
  Hf  Hf1  1  0.20757566  0.21663955  0.25449273  1
  Hf  Hf2  1  0.40110687  -0.01399482  0.00606364  1
  Hf  Hf3  1  0.19393963  0.18803998  0.75585697  1
  Hf  Hf4  1  0.79148012  0.79119206  0.25747186  1
  Hf  Hf5  1  0.20728386  0.60675979  -0.00673577  1
  Hf  Hf6  1  0.49777122  0.70442828  0.61670924  1
  Hf  Hf7  1  0.09339979  0.91627760  0.13450250  1
  Hf  Hf8  1  0.49515741  0.29465684  0.37342869  1
  Hf  Hf9  1  0.70431477  0.70239864  0.86306156  1
  Hf  Hf10  1  0.50125972  0.49592095  0.38546086  1
  Hf  Hf11  1  0.61084508  0.18499145  0.50081984  1
  Hf  Hf12  1  0.80554569  0.59841855  -0.01379751  1
  Hf  Hf13  1  0.39274397  0.20257193  0.01626582  1
  Hf  Hf14  1  0.90608886  0.09012627  0.13721643  1
  Hf  Hf15  1  0.79869698  0.40675414  0.75289944  1
  Hf  Hf16  1  0.41078489  0.40305488  0.74550152  1
  Hf  Hf17  1  0.50534662  0.49874418  0.61105902  1
  Hf  Hf18  1  0.69437715  0.29955850  0.88414291  1
  Hf  Hf19  1  0.30077207  0.29934324  0.63165793  1
  Hf  Hf20  1  0.10549585  0.31819321  0.63552560  1
  Hf  Hf21  1  0.69883937  0.68277971  0.61396049  1
  Hf  Hf22  1  0.40216253  0.59755294  0.25437136  1
  Hf  Hf23  1  0.59802720  -0.01366032  0.25809924  1
  Hf  Hf24  1  0.89774960  0.09632446  0.88325389  1
  Hf  Hf25  1  0.40758200  0.19199622  0.23414165  1
  Hf  Hf26  1  0.49560126  0.69342953  0.86297818  1
  Hf  Hf27  1  0.29519210  0.08860694  0.62219386  1
  Hf  Hf28  1  0.68161907  0.89304298  0.61548879  1
  Hf  Hf29  1  0.28202357  0.08405190  0.12477532  1
  Hf  Hf30  1  -0.00817127  0.80624633  0.26517772  1
  Hf  Hf31  1  0.20309946  0.39876576  -0.00501095  1
  Hf  Hf32  1  -0.00053718  0.00892706  0.74204013  1
  Hf  Hf33  1  0.80463971  0.40531078  0.25926476  1
  Hf  Hf34  1  0.00448090  0.21107927  0.26534593  1
  Hf  Hf35  1  0.80107989  0.00084610  0.72887662  1
  Hf  Hf36  1  0.91343134  0.30375288  0.12584339  1
  Hf  Hf37  1  0.08924499  0.88833383  0.87736740  1
  Hf  Hf38  1  0.81255167  0.79611070  0.72775471  1
  Hf  Hf39  1  -0.00126579  0.41330511  -0.01362051  1
  Zr  Zr40  1  0.20373770  0.41734606  0.50293061  1
  Zr  Zr41  1  0.40407258  0.19043592  0.75230257  1
  Zr  Zr42  1  0.70182506  0.69566779  0.39901477  1
  Zr  Zr43  1  0.37239810  0.59368067  0.50575358  1
  Zr  Zr44  1  0.39896613  0.19487929  0.49574965  1
  Zr  Zr45  1  0.20032939  0.81782227  0.26649234  1
  Zr  Zr46  1  0.09422951  0.70371467  0.13392547  1
  Zr  Zr47  1  0.28613670  0.50006894  0.13593667  1
  Zr  Zr48  1  0.08723475  0.11183952  0.60991483  1
  Zr  Zr49  1  0.70005872  0.29197755  0.36855678  1
  Zr  Zr50  1  0.69489002  0.09843614  0.13510500  1
  Zr  Zr51  1  0.89444408  0.51203813  0.12591576  1
  Zr  Zr52  1  0.79094114  -0.00786084  0.01017604  1
  Zr  Zr53  1  0.40030894  -0.00436329  0.48925117  1
  Zr  Zr54  1  0.49655388  0.09994080  0.88331502  1
  Zr  Zr55  1  0.29219982  0.88855563  0.87320318  1
  Zr  Zr56  1  0.39143251  0.38623518  0.23715752  1
  Zr  Zr57  1  0.79830389  0.19366374  0.73791039  1
  Zr  Zr58  1  0.69470320  0.10158101  0.88398695  1
  Zr  Zr59  1  -0.00468621  0.40157335  0.48944927  1
  Zr  Zr60  1  0.80966414  0.80265862  0.00539372  1
  Zr  Zr61  1  0.19867860  -0.00898062  0.48608046  1
  Zr  Zr62  1  0.91160520  0.29730441  0.62783016  1
  Zr  Zr63  1  0.59015376  -0.00807843  0.48707302  1
  Zr  Zr64  1  0.50335240  0.69686980  0.38779141  1
  Zr  Zr65  1  0.59608608  0.00451690  0.74553112  1
  Zr  Zr66  1  0.30399573  0.30127059  0.87110779  1
  Zr  Zr67  1  0.70109314  0.30921520  0.12803235  1
  Zr  Zr68  1  0.79099594  0.01381790  0.50255852  1
  Zr  Zr69  1  0.39487143  0.78950480  0.00166799  1
  Zr  Zr70  1  0.40390682  0.59801172  0.00616546  1
  Zr  Zr71  1  0.40986031  0.40170705  0.01155864  1
  Zr  Zr72  1  0.50821957  0.71652519  0.14189477  1
  Zr  Zr73  1  0.90647446  0.50400087  0.62445732  1
  Zr  Zr74  1  0.89830407  0.30204953  0.87616732  1
  Zr  Zr75  1  0.00885822  0.61602030  -0.01627049  1
  Zr  Zr76  1  0.09557413  0.11371851  0.11925545  1
  Zr  Zr77  1  0.00556121  0.60963455  0.75622551  1
  Zr  Zr78  1  0.60113296  0.80037736  -0.00391392  1
  Zr  Zr79  1  0.81591761  0.21097156  0.49571240  1
  Ta  Ta80  1  0.50195157  0.09571340  0.62678500  1
  Ta  Ta81  1  0.50038051  0.89384420  0.86287388  1
  Ta  Ta82  1  0.52101582  0.50409779  0.13248916  1
  Ta  Ta83  1  0.38405333  0.80398487  0.50140843  1
  Ta  Ta84  1  0.61766702  0.59594790  0.25787215  1
  Ta  Ta85  1  0.18800156  0.80173093  0.00771115  1
  Ta  Ta86  1  0.10294519  0.29806754  0.87018355  1
  Ta  Ta87  1  0.50862753  0.30324026  0.87815970  1
  Ta  Ta88  1  0.80732575  0.79766412  0.51151614  1
  Ta  Ta89  1  0.38714779  -0.01026935  0.75043170  1
  Ta  Ta90  1  0.28642316  0.08887629  0.88809918  1
  Ta  Ta91  1  0.29343065  0.70263273  0.14243338  1
  Ta  Ta92  1  0.89518530  0.89472492  0.39135451  1
  Ta  Ta93  1  0.01018020  0.41801521  0.25954191  1
  Ta  Ta94  1  0.91410515  0.72007121  0.86923821  1
  Ta  Ta95  1  0.38833021  -0.01721174  0.25239068  1
  Ta  Ta96  1  -0.00779591  -0.01509304  0.00288345  1
  Ta  Ta97  1  0.80916053  0.60022623  0.26295163  1
  Ta  Ta98  1  -0.00061113  0.00803855  0.48252073  1
  Ta  Ta99  1  0.80387786  0.20348104  0.01014711  1
  Ta  Ta100  1  0.91547434  0.90937899  0.60390750  1
  Ta  Ta101  1  0.60403961  0.58693302  0.74402438  1
  Ta  Ta102  1  0.68735409  0.88295560  0.13712541  1
  Ta  Ta103  1  0.89482395  0.09953047  0.36460007  1
  Ta  Ta104  1  0.09180247  0.50447440  0.12746147  1
  Ta  Ta105  1  0.28671829  0.48913254  0.36512542  1
  Ta  Ta106  1  0.70590043  0.68135686  0.12865923  1
  Ta  Ta107  1  0.70039896  0.89779369  0.86317689  1
  Ta  Ta108  1  0.09945488  0.09271278  0.88959511  1
  Ta  Ta109  1  0.59775241  0.40050866  0.24984030  1
  Ta  Ta110  1  0.60505407  0.59534705  -0.00047349  1
  Ta  Ta111  1  0.69605312  0.49919424  0.87205678  1
  Ta  Ta112  1  0.18974016  -0.01404996  0.74194949  1
  Ta  Ta113  1  0.50806286  0.29619479  0.61794266  1
  Ta  Ta114  1  0.50821507  0.49548411  0.87081560  1
  Ta  Ta115  1  0.60174702  0.20820812  0.74056548  1
  Ta  Ta116  1  0.29934204  0.09979696  0.36282619  1
  Ta  Ta117  1  0.80688199  -0.01539699  0.25606550  1
  Ta  Ta118  1  0.17794538  0.59865907  0.26536779  1
  Ta  Ta119  1  0.29625442  0.69943834  0.37104868  1
  Ti  Ti120  1  0.89359906  0.90148227  0.86740151  1
  Ti  Ti121  1  0.28700234  0.50468494  0.64199360  1
  Ti  Ti122  1  0.91106791  0.69426116  0.38974074  1
  Ti  Ti123  1  0.30992891  0.50544539  0.86151674  1
  Ti  Ti124  1  0.59541880  0.79486925  0.74507805  1
  Ti  Ti125  1  0.00872765  0.20570813  0.47497493  1
  Ti  Ti126  1  0.49185215  0.87922765  0.36839613  1
  Ti  Ti127  1  0.11787840  0.50608260  0.86193587  1
  Ti  Ti128  1  0.79774132  0.19644909  0.25375983  1
  Ti  Ti129  1  0.59376721  0.20524698  0.01369127  1
  Ti  Ti130  1  0.90535961  0.50446237  0.37990974  1
  Ti  Ti131  1  0.59624786  -0.01203342  0.00579773  1
  Ti  Ti132  1  0.70322791  0.30275249  0.61689979  1
  Ti  Ti133  1  0.28503178  0.70699658  0.63213179  1
  Ti  Ti134  1  0.60741303  0.39155721  0.49816037  1
  Ti  Ti135  1  0.70291087  0.49835444  0.38927722  1
  Ti  Ti136  1  0.50285528  0.08535944  0.12797374  1
  Ti  Ti137  1  0.50625329  0.09912853  0.36049004  1
  Ti  Ti138  1  0.00537381  0.40808288  0.76317454  1
  Ti  Ti139  1  0.00257340  0.20550402  -0.00315716  1
  Ti  Ti140  1  0.80549260  0.60009130  0.75196345  1
  Ti  Ti141  1  0.60470589  0.39685335  0.74378628  1
  Ti  Ti142  1  0.19794133  0.79465686  0.49281795  1
  Ti  Ti143  1  0.40034112  0.60508444  0.74073222  1
  Ti  Ti144  1  0.20381792  0.21091309  0.48406545  1
  Ti  Ti145  1  -0.00139944  0.19935838  0.75643974  1
  Ti  Ti146  1  0.29958846  0.88958372  0.12888442  1
  Ti  Ti147  1  0.29066508  0.69891912  0.85710788  1
  Ti  Ti148  1  0.39333486  0.39188663  0.50096202  1
  Ti  Ti149  1  0.81519640  0.59083322  0.50245420  1
  Ti  Ti150  1  0.11652893  0.32345690  0.37136614  1
  Ti  Ti151  1  0.90259943  0.70849242  0.12890597  1
  Ti  Ti152  1  0.69510363  0.88934853  0.38288512  1
  Ti  Ti153  1  0.60333634  0.40576419  0.00761145  1
  Ti  Ti154  1  0.48045653  0.89752064  0.63007749  1
  Ti  Ti155  1  0.10655010  0.52064623  0.63049325  1
  Ti  Ti156  1  0.01236278  0.79826413  0.50483888  1
  Ti  Ti157  1  0.11052199  0.31229394  0.12365386  1
  Ti  Ti158  1  0.70374557  0.49071864  0.61272024  1
  Ti  Ti159  1  0.79849476  0.40606756  -0.00307661  1
  Mo  Mo160  1  0.40157707  0.79856878  0.74484634  1
  Mo  Mo161  1  0.28803677  0.29110602  0.11525662  1
  Mo  Mo162  1  0.10870690  0.69739390  0.61446605  1
  Mo  Mo163  1  0.19894742  0.40783283  0.75515227  1
  Mo  Mo164  1  0.00223314  0.00052614  0.27660906  1
  Mo  Mo165  1  0.89511659  0.50888438  0.86917543  1
  Mo  Mo166  1  0.09528439  0.70152202  0.38166544  1
  Mo  Mo167  1  0.30346728  0.89427009  0.37381941  1
  Mo  Mo168  1  0.11244130  0.71204239  0.87398678  1
  Mo  Mo169  1  0.09152529  0.90045303  0.38345558  1
  Mo  Mo170  1  0.70109309  0.09272763  0.35537229  1
  Mo  Mo171  1  0.70163353  0.50635898  0.12748622  1
  Mo  Mo172  1  0.69213032  0.10882597  0.62388099  1
  Mo  Mo173  1  0.19136296  0.40467734  0.24855856  1
  Mo  Mo174  1  0.11050092  0.90245743  0.61049326  1
  Mo  Mo175  1  0.79548117  0.40556826  0.49210287  1
  Mo  Mo176  1  0.90773507  0.69936328  0.60986675  1
  Mo  Mo177  1  0.29672484  0.89191337  0.62714795  1
  Mo  Mo178  1  0.50928630  0.29747092  0.12556153  1
  Mo  Mo179  1  0.59685798  0.19743860  0.24540862  1
  Mo  Mo180  1  0.30296367  0.30137447  0.37859678  1
  Mo  Mo181  1  0.19262476  0.20128444  -0.00804540  1
  Mo  Mo182  1  0.19506880  -0.00830130  0.00101373  1
  Mo  Mo183  1  -0.01185019  0.60578126  0.25509541  1
  Mo  Mo184  1  0.00770404  0.60743340  0.50343524  1
  Mo  Mo185  1  0.19268016  0.61135662  0.49284638  1
  Mo  Mo186  1  0.10432663  0.10995092  0.37872300  1
  Mo  Mo187  1  0.90926197  0.10186368  0.61395390  1
  Mo  Mo188  1  0.60421560  0.79180937  0.25714454  1
  Mo  Mo189  1  0.59051528  0.80172279  0.50594835  1
  Mo  Mo190  1  0.20487172  0.80089949  0.74036724  1
  Mo  Mo191  1  0.49663640  0.90603249  0.13267762  1
  Mo  Mo192  1  -0.00598848  0.80682249  0.00552797  1
  Mo  Mo193  1  0.89789566  0.89960845  0.13704782  1
  Mo  Mo194  1  0.90500533  0.30534133  0.36463962  1
  Mo  Mo195  1  0.20476246  0.60485708  0.75306785  1
  Mo  Mo196  1  0.19142378  0.01095152  0.26832984  1
  Mo  Mo197  1  0.60337926  0.58570614  0.50522303  1
  Mo  Mo198  1  0.09487345  0.51258444  0.37762713  1
  Mo  Mo199  1  0.39869108  0.79816954  0.25308043  1
