# generated using pymatgen
data_HfZrTaTiMo
_symmetry_space_group_name_H-M   'P 1'
_cell_length_a   15.20661096
_cell_length_b   15.21463242
_cell_length_c   16.81677011
_cell_angle_alpha   90.02870411
_cell_angle_beta   89.95636858
_cell_angle_gamma   89.91921994
_symmetry_Int_Tables_number   1
_chemical_formula_structural   HfZrTaTiMo
_chemical_formula_sum   'Hf40 Zr40 Ta40 Ti40 Mo40'
_cell_volume   3890.77283291
_cell_formula_units_Z   40
loop_
 _symmetry_equiv_pos_site_id
 _symmetry_equiv_pos_as_xyz
  1  'x, y, z'
loop_
 _atom_site_type_symbol
 _atom_site_label
 _atom_site_symmetry_multiplicity
 _atom_site_fract_x
 _atom_site_fract_y
 _atom_site_fract_z
 _atom_site_occupancy
  Hf  Hf0  1  0.38926238  0.60364143  0.74857820  1
  Hf  Hf1  1  0.59602221  0.40238940  0.25826694  1
  Hf  Hf2  1  0.47860339  0.51149843  0.36967440  1
  Hf  Hf3  1  0.20253116  0.61339473  0.02166273  1
  Hf  Hf4  1  0.29981916  0.09714968  0.62929190  1
  Hf  Hf5  1  0.40100715  0.78946905  0.49911807  1
  Hf  Hf6  1  -0.00180073  0.00129415  -0.00382362  1
  Hf  Hf7  1  0.21605219  0.00176002  0.49549113  1
  Hf  Hf8  1  0.90222571  0.89752145  0.84914007  1
  Hf  Hf9  1  0.91234211  0.10576060  0.85245056  1
  Hf  Hf10  1  0.69286722  0.29886225  0.62077618  1
  Hf  Hf11  1  0.88786359  0.50112255  0.15050327  1
  Hf  Hf12  1  0.79886671  0.80257103  -0.00865822  1
  Hf  Hf13  1  0.90359453  0.49883733  0.86399235  1
  Hf  Hf14  1  0.60901415  0.42126989  0.48986696  1
  Hf  Hf15  1  0.69152685  0.89297315  0.85045010  1
  Hf  Hf16  1  0.71060514  0.91829412  0.64103396  1
  Hf  Hf17  1  0.59118704  0.41411166  0.00886780  1
  Hf  Hf18  1  0.48164114  0.08639122  0.11279379  1
  Hf  Hf19  1  0.01205423  0.20314655  0.25635123  1
  Hf  Hf20  1  0.00112707  0.58788845  0.49441368  1
  Hf  Hf21  1  0.09324353  0.30228817  0.89179388  1
  Hf  Hf22  1  0.10688750  0.90358608  0.62150418  1
  Hf  Hf23  1  0.80171443  0.00148738  -0.01029145  1
  Hf  Hf24  1  0.19026232  0.20745835  0.75009977  1
  Hf  Hf25  1  0.60540480  0.80665037  0.26867098  1
  Hf  Hf26  1  0.51296688  0.89122894  0.63997770  1
  Hf  Hf27  1  0.89714957  0.08541536  0.38395207  1
  Hf  Hf28  1  0.50870095  0.70537117  0.87905875  1
  Hf  Hf29  1  0.90612223  0.90116487  0.62106129  1
  Hf  Hf30  1  0.29284642  0.30235611  0.37649764  1
  Hf  Hf31  1  0.80795301  0.79714601  0.27023927  1
  Hf  Hf32  1  0.11018318  0.10470119  0.88343318  1
  Hf  Hf33  1  0.20611622  0.79317929  0.74884230  1
  Hf  Hf34  1  0.00897713  0.80308893  -0.00038982  1
  Hf  Hf35  1  0.70865278  0.89739982  0.12769321  1
  Hf  Hf36  1  0.80175309  0.60140014  0.72936369  1
  Hf  Hf37  1  0.59967224  0.19850339  0.00261942  1
  Hf  Hf38  1  0.41106252  0.60363658  0.01533784  1
  Hf  Hf39  1  0.78566102  0.58540291  0.51570563  1
  Zr  Zr40  1  0.10332271  0.69932488  0.87936979  1
  Zr  Zr41  1  0.10657371  0.09903713  0.11442748  1
  Zr  Zr42  1  0.71247588  0.30354523  0.37468150  1
  Zr  Zr43  1  0.19677288  0.61469575  0.49821515  1
  Zr  Zr44  1  0.00298077  0.81420801  0.26235733  1
  Zr  Zr45  1  0.48537125  0.49237799  0.61706944  1
  Zr  Zr46  1  0.40431254  0.19042926  0.25160020  1
  Zr  Zr47  1  0.69670599  0.51897269  0.13788283  1
  Zr  Zr48  1  0.79819848  0.39296735  0.73959792  1
  Zr  Zr49  1  0.29529200  0.50098074  0.88430663  1
  Zr  Zr50  1  0.60036220  0.00326776  0.25242575  1
  Zr  Zr51  1  0.59959645  -0.01693793  -0.00665057  1
  Zr  Zr52  1  0.09937401  0.49911789  0.88643250  1
  Zr  Zr53  1  0.87385638  0.50336236  0.36249295  1
  Zr  Zr54  1  0.88523689  0.70455986  0.13034581  1
  Zr  Zr55  1  0.91196953  0.30246750  0.13160902  1
  Zr  Zr56  1  0.31306010  0.90130767  0.63141895  1
  Zr  Zr57  1  0.50309612  0.08844685  0.63268023  1
  Zr  Zr58  1  0.08540514  0.49542432  0.13211936  1
  Zr  Zr59  1  0.69163568  0.50352604  0.86906721  1
  Zr  Zr60  1  0.81247464  0.19698457  -0.00297266  1
  Zr  Zr61  1  0.49438934  0.49692385  0.87217623  1
  Zr  Zr62  1  0.29383477  0.30579070  0.61401393  1
  Zr  Zr63  1  0.80997989  0.40848921  -0.00155168  1
  Zr  Zr64  1  0.48635873  0.29597470  0.61240103  1
  Zr  Zr65  1  0.21100507  0.18905352  0.24472122  1
  Zr  Zr66  1  0.49129890  0.30334726  0.38085144  1
  Zr  Zr67  1  0.30563202  0.69254399  0.36159928  1
  Zr  Zr68  1  0.59618946  0.60174794  0.72815935  1
  Zr  Zr69  1  0.10615545  0.09228383  0.37656271  1
  Zr  Zr70  1  -0.01759031  0.59946408  0.00595574  1
  Zr  Zr71  1  0.39431963  0.20022172  0.75796478  1
  Zr  Zr72  1  0.70105664  0.30570893  0.13162003  1
  Zr  Zr73  1  0.18482122  0.41016721  0.49193484  1
  Zr  Zr74  1  -0.00681645  0.20598496  0.49475489  1
  Zr  Zr75  1  0.90285577  0.70414407  0.61215035  1
  Zr  Zr76  1  0.69832787  0.29804238  0.87250900  1
  Zr  Zr77  1  0.59816994  0.19180550  0.49585928  1
  Zr  Zr78  1  0.79763826  0.19204980  0.25127140  1
  Zr  Zr79  1  0.90225846  0.09293707  0.63198797  1
  Ta  Ta80  1  0.30944237  0.71274756  0.13559696  1
  Ta  Ta81  1  0.58217428  0.61730648  0.50887779  1
  Ta  Ta82  1  0.19002023  0.20257215  0.49956197  1
  Ta  Ta83  1  0.78151418  0.61048906  -0.00595448  1
  Ta  Ta84  1  0.70316358  0.09519913  0.12573663  1
  Ta  Ta85  1  0.69053040  0.72223373  0.61846772  1
  Ta  Ta86  1  0.90159141  0.09382386  0.13011640  1
  Ta  Ta87  1  0.09433542  0.49813755  0.35274891  1
  Ta  Ta88  1  0.19101767  0.38623834  0.24028505  1
  Ta  Ta89  1  0.61444552  0.00012856  0.49930858  1
  Ta  Ta90  1  0.19542337  0.60273309  0.23927664  1
  Ta  Ta91  1  0.10560525  0.90208729  0.86806521  1
  Ta  Ta92  1  0.21170358  -0.01380444  -0.00102417  1
  Ta  Ta93  1  0.81172297  0.38982238  0.50924869  1
  Ta  Ta94  1  0.00862736  0.79027697  0.74221690  1
  Ta  Ta95  1  0.91822473  0.47741235  0.62676067  1
  Ta  Ta96  1  0.41981868  -0.01035510  0.48954865  1
  Ta  Ta97  1  0.39991405  0.80809125  0.00168628  1
  Ta  Ta98  1  0.30216023  0.49268181  0.13879386  1
  Ta  Ta99  1  0.70691395  0.69476046  0.39238537  1
  Ta  Ta100  1  0.10229653  0.70023155  0.36340478  1
  Ta  Ta101  1  0.29424226  0.29880785  0.89075689  1
  Ta  Ta102  1  0.70320684  0.70187371  0.86136721  1
  Ta  Ta103  1  0.30340909  0.89687769  0.87374800  1
  Ta  Ta104  1  0.50417764  0.88110235  0.12170242  1
  Ta  Ta105  1  0.59937521  0.20024395  0.75253055  1
  Ta  Ta106  1  0.49988561  0.09772710  0.87720177  1
  Ta  Ta107  1  0.19091666  0.40650546  0.74836241  1
  Ta  Ta108  1  0.19651921  0.60116959  0.74011251  1
  Ta  Ta109  1  0.07960468  0.31081118  0.62750171  1
  Ta  Ta110  1  0.29240210  0.50099089  0.62201621  1
  Ta  Ta111  1  0.49465478  0.50841935  0.14312880  1
  Ta  Ta112  1  0.49129976  0.29899435  0.88119125  1
  Ta  Ta113  1  0.90764735  0.90555207  0.12693881  1
  Ta  Ta114  1  0.38466628  0.18115908  0.48891959  1
  Ta  Ta115  1  0.01080456  0.59332720  0.73677921  1
  Ta  Ta116  1  0.60066328  0.81305583  0.49232149  1
  Ta  Ta117  1  0.09694537  0.70923247  0.13757499  1
  Ta  Ta118  1  0.31247945  0.91102163  0.12603795  1
  Ta  Ta119  1  0.02049901  0.79189652  0.49564013  1
  Ti  Ti120  1  0.49181208  0.30293199  0.12881822  1
  Ti  Ti121  1  0.20253089  0.40080229  0.01574131  1
  Ti  Ti122  1  0.90500441  0.30587640  0.36295263  1
  Ti  Ti123  1  0.30733306  0.89792858  0.37247932  1
  Ti  Ti124  1  0.70321354  0.09699425  0.37443274  1
  Ti  Ti125  1  0.30027860  0.70404485  0.88507377  1
  Ti  Ti126  1  0.38694183  0.39580776  0.75449713  1
  Ti  Ti127  1  0.79780261  0.19682117  0.73908819  1
  Ti  Ti128  1  0.89866575  0.69711854  0.86248587  1
  Ti  Ti129  1  0.90898090  0.29924548  0.86876601  1
  Ti  Ti130  1  0.30185513  0.28314455  0.11381034  1
  Ti  Ti131  1  0.58779170  0.39361773  0.74486358  1
  Ti  Ti132  1  0.70115745  0.09487255  0.85855880  1
  Ti  Ti133  1  0.29313231  0.49682104  0.35198190  1
  Ti  Ti134  1  0.41046008  0.80178510  0.25153685  1
  Ti  Ti135  1  0.49597773  0.90039638  0.86243315  1
  Ti  Ti136  1  0.39723820  0.39607694  0.01163368  1
  Ti  Ti137  1  0.20987857  -0.00330707  0.24950959  1
  Ti  Ti138  1  0.80980349  -0.00731617  0.25232782  1
  Ti  Ti139  1  0.68187030  0.70865731  0.12484572  1
  Ti  Ti140  1  0.79383071  0.18871495  0.50922745  1
  Ti  Ti141  1  0.59797757  0.19523250  0.24614750  1
  Ti  Ti142  1  0.71414823  0.90988592  0.38668604  1
  Ti  Ti143  1  0.49994388  0.70284803  0.37778099  1
  Ti  Ti144  1  0.90701447  0.89588005  0.40474656  1
  Ti  Ti145  1  0.20584126  0.80749092  0.24861898  1
  Ti  Ti146  1  -0.01519647  0.61623090  0.26177601  1
  Ti  Ti147  1  0.09783202  0.29621246  0.10593282  1
  Ti  Ti148  1  0.40382505  0.79340515  0.75140220  1
  Ti  Ti149  1  0.29978321  0.69975675  0.61854207  1
  Ti  Ti150  1  0.00742716  -0.00063116  0.24842233  1
  Ti  Ti151  1  0.59686589  0.61412251  0.26004824  1
  Ti  Ti152  1  0.50135880  0.08992014  0.37477387  1
  Ti  Ti153  1  0.11110880  0.89833802  0.12441513  1
  Ti  Ti154  1  0.20628163  0.00314576  0.75816827  1
  Ti  Ti155  1  0.40050559  -0.00771351  0.25888691  1
  Ti  Ti156  1  0.10911069  0.89840953  0.38397692  1
  Ti  Ti157  1  0.30821135  0.09990356  0.89193930  1
  Ti  Ti158  1  0.09564733  0.10057786  0.62573735  1
  Ti  Ti159  1  -0.00262183  0.39619377  0.48589084  1
  Mo  Mo160  1  0.38509044  0.41157396  0.49076582  1
  Mo  Mo161  1  0.89818663  0.29245786  0.62229550  1
  Mo  Mo162  1  0.10145490  0.49957430  0.62460914  1
  Mo  Mo163  1  0.80426994  0.78967254  0.74699370  1
  Mo  Mo164  1  0.79713555  0.00360624  0.50061758  1
  Mo  Mo165  1  0.39881791  0.60603537  0.23954142  1
  Mo  Mo166  1  0.79759006  0.80405767  0.49459861  1
  Mo  Mo167  1  0.90239009  0.70396487  0.39579424  1
  Mo  Mo168  1  0.38805541  0.39279441  0.23664386  1
  Mo  Mo169  1  0.39279084  0.59267778  0.50068078  1
  Mo  Mo170  1  0.40390459  0.20496592  -0.00309236  1
  Mo  Mo171  1  0.00444377  0.20780164  0.74458063  1
  Mo  Mo172  1  0.59392683  0.00980903  0.76142916  1
  Mo  Mo173  1  0.20839742  0.20095554  0.00385008  1
  Mo  Mo174  1  0.60275230  0.78520837  -0.00255829  1
  Mo  Mo175  1  0.02262239  -0.00158602  0.75113540  1
  Mo  Mo176  1  -0.00910567  0.39818037  0.00225965  1
  Mo  Mo177  1  0.69900785  0.10249589  0.63586631  1
  Mo  Mo178  1  0.78340656  0.61779093  0.25922996  1
  Mo  Mo179  1  0.59683796  0.79376694  0.74587358  1
  Mo  Mo180  1  0.09924042  0.30478529  0.37168259  1
  Mo  Mo181  1  0.68346538  0.51283774  0.37259987  1
  Mo  Mo182  1  0.20244281  0.80504382  0.48952649  1
  Mo  Mo183  1  0.48929331  0.70476378  0.61950415  1
  Mo  Mo184  1  0.10549976  0.70223035  0.62489291  1
  Mo  Mo185  1  0.50579968  0.70411959  0.13204696  1
  Mo  Mo186  1  0.60168807  0.60951193  0.00331714  1
  Mo  Mo187  1  0.39496279  -0.00251721  0.76997048  1
  Mo  Mo188  1  0.79241151  0.40262897  0.25430039  1
  Mo  Mo189  1  0.30308098  0.08967022  0.11262648  1
  Mo  Mo190  1  0.69813943  0.49742372  0.62443623  1
  Mo  Mo191  1  0.30740406  0.08949651  0.37612785  1
  Mo  Mo192  1  0.50301376  0.89868432  0.37710817  1
  Mo  Mo193  1  0.00602460  0.39371655  0.75123674  1
  Mo  Mo194  1  0.00956320  -0.00433947  0.49990529  1
  Mo  Mo195  1  0.40276297  -0.00720133  -0.01368909  1
  Mo  Mo196  1  0.00090187  0.39789745  0.25974248  1
  Mo  Mo197  1  0.80402508  0.00540291  0.75384276  1
  Mo  Mo198  1  0.20843370  0.80390111  0.01087777  1
  Mo  Mo199  1  -0.00449834  0.19875524  0.00210333  1
