# generated using pymatgen
data_HfZrTaTiMo
_symmetry_space_group_name_H-M   'P 1'
_cell_length_a   15.21857047
_cell_length_b   15.20479501
_cell_length_c   16.84136812
_cell_angle_alpha   89.94753320
_cell_angle_beta   89.94759914
_cell_angle_gamma   89.98117073
_symmetry_Int_Tables_number   1
_chemical_formula_structural   HfZrTaTiMo
_chemical_formula_sum   'Hf40 Zr40 Ta40 Ti40 Mo40'
_cell_volume   3897.00901761
_cell_formula_units_Z   40
loop_
 _symmetry_equiv_pos_site_id
 _symmetry_equiv_pos_as_xyz
  1  'x, y, z'
loop_
 _atom_site_type_symbol
 _atom_site_label
 _atom_site_symmetry_multiplicity
 _atom_site_fract_x
 _atom_site_fract_y
 _atom_site_fract_z
 _atom_site_occupancy
  Hf  Hf0  1  0.20357507  0.00701664  0.50705021  1
  Hf  Hf1  1  0.30287832  0.73277032  0.62801311  1
  Hf  Hf2  1  0.49668168  0.70589646  0.87805189  1
  Hf  Hf3  1  0.39672333  0.20474609  0.49326268  1
  Hf  Hf4  1  0.09028215  0.69637708  0.13378588  1
  Hf  Hf5  1  -0.00601838  0.79150617  -0.00198867  1
  Hf  Hf6  1  0.19721245  0.20167554  0.24223293  1
  Hf  Hf7  1  0.22458192  0.40015683  0.25652903  1
  Hf  Hf8  1  0.02173373  0.39281392  0.24366181  1
  Hf  Hf9  1  0.01007563  0.18177966  0.51047317  1
  Hf  Hf10  1  0.49458657  0.10568399  0.12565014  1
  Hf  Hf11  1  0.70462717  0.70072432  0.89238060  1
  Hf  Hf12  1  0.89156731  0.09228684  0.11309611  1
  Hf  Hf13  1  0.88785133  0.88579850  0.11927937  1
  Hf  Hf14  1  0.71122132  0.51132932  0.62402803  1
  Hf  Hf15  1  0.19173252  0.60514426  0.73076080  1
  Hf  Hf16  1  0.59729579  0.59844165  0.48776554  1
  Hf  Hf17  1  0.11335140  0.88636237  0.86798859  1
  Hf  Hf18  1  0.79385646  0.19497209  0.51297329  1
  Hf  Hf19  1  0.28998652  0.72658070  0.86098430  1
  Hf  Hf20  1  0.40518945  0.00169665  0.26202602  1
  Hf  Hf21  1  0.69486103  0.28866630  0.37670144  1
  Hf  Hf22  1  0.70600382  0.29264562  0.11162625  1
  Hf  Hf23  1  0.20513868  0.59676546  0.50927030  1
  Hf  Hf24  1  -0.00515543  0.40176868  0.00248804  1
  Hf  Hf25  1  0.61017687  0.39473146  0.74473285  1
  Hf  Hf26  1  0.00202756  0.20926176  0.75148559  1
  Hf  Hf27  1  0.00163778  -0.00745931  -0.00599669  1
  Hf  Hf28  1  0.79174542  -0.00743416  0.75373047  1
  Hf  Hf29  1  0.52853039  0.10058291  0.37615611  1
  Hf  Hf30  1  0.61641617  0.60714766  0.74841342  1
  Hf  Hf31  1  0.50865248  0.71514099  0.61779795  1
  Hf  Hf32  1  0.38517051  0.79109377  0.27169186  1
  Hf  Hf33  1  0.00305525  0.59411573  0.00163433  1
  Hf  Hf34  1  0.87201449  0.69334604  0.62248365  1
  Hf  Hf35  1  0.91466013  0.50296327  0.35995891  1
  Hf  Hf36  1  0.50406217  0.31801228  0.37517127  1
  Hf  Hf37  1  0.79872750  -0.00352808  0.50768825  1
  Hf  Hf38  1  0.20111549  0.39503806  0.73876156  1
  Hf  Hf39  1  0.90970022  0.29720850  0.38259150  1
  Zr  Zr40  1  0.79825928  0.60569415  0.47738038  1
  Zr  Zr41  1  0.59464451  0.81846596  0.26025757  1
  Zr  Zr42  1  0.72556692  0.29550285  0.88533788  1
  Zr  Zr43  1  0.88909526  0.11008747  0.87050255  1
  Zr  Zr44  1  0.50099204  0.90344617  0.12342831  1
  Zr  Zr45  1  0.11635311  0.10088462  0.86631046  1
  Zr  Zr46  1  0.58684776  0.59608586  0.25221166  1
  Zr  Zr47  1  0.69008808  0.88059207  0.61913607  1
  Zr  Zr48  1  0.89965271  0.29626145  0.12199058  1
  Zr  Zr49  1  0.11463194  0.09454022  0.64586740  1
  Zr  Zr50  1  0.90373249  0.89060181  0.63301970  1
  Zr  Zr51  1  0.79491329  0.18266805  0.25481193  1
  Zr  Zr52  1  0.40096280  0.41707747  0.00245674  1
  Zr  Zr53  1  0.19771429  0.00177088  0.24463686  1
  Zr  Zr54  1  0.29511931  0.50289387  0.86572640  1
  Zr  Zr55  1  -0.00694822  0.59514750  0.75116863  1
  Zr  Zr56  1  0.40263580  0.60777689  0.74306081  1
  Zr  Zr57  1  0.11729861  0.29049251  0.39146848  1
  Zr  Zr58  1  0.60813255  0.41034804  -0.00030264  1
  Zr  Zr59  1  0.39327303  0.61168757  -0.00362095  1
  Zr  Zr60  1  0.20784472  -0.00221267  0.00262273  1
  Zr  Zr61  1  0.59127850  0.19007775  0.74606916  1
  Zr  Zr62  1  0.70245134  0.70980975  0.12860534  1
  Zr  Zr63  1  0.00363265  0.18950695  0.24936780  1
  Zr  Zr64  1  0.20198770  0.59992645  0.25083940  1
  Zr  Zr65  1  0.90755802  0.30767793  0.61819207  1
  Zr  Zr66  1  0.39274743  0.21391303  0.25740890  1
  Zr  Zr67  1  0.40406198  0.41309122  0.50949604  1
  Zr  Zr68  1  -0.00147900  0.79068939  0.75508515  1
  Zr  Zr69  1  0.90358869  0.07670811  0.37945529  1
  Zr  Zr70  1  0.39769514  0.61624140  0.48641043  1
  Zr  Zr71  1  0.59074554  0.80721465  0.75589304  1
  Zr  Zr72  1  0.47988838  0.70001856  0.12916135  1
  Zr  Zr73  1  0.49449259  0.29162039  0.87762068  1
  Zr  Zr74  1  0.08586992  0.90151160  0.38060771  1
  Zr  Zr75  1  0.09353710  0.69570166  0.37494356  1
  Zr  Zr76  1  0.10853755  0.30536029  0.88324916  1
  Zr  Zr77  1  0.28918408  0.29906527  0.10438257  1
  Zr  Zr78  1  0.80078989  0.40522956  0.49403363  1
  Zr  Zr79  1  0.80228009  0.58641336  0.00910972  1
  Ta  Ta80  1  0.60049144  0.19984780  0.24136888  1
  Ta  Ta81  1  0.90099194  0.09370259  0.63841940  1
  Ta  Ta82  1  0.09402737  0.48834263  0.61454234  1
  Ta  Ta83  1  0.69678291  0.09242749  0.11430941  1
  Ta  Ta84  1  0.20422126  0.59905882  0.01034057  1
  Ta  Ta85  1  0.79037128  0.80119202  0.47767595  1
  Ta  Ta86  1  0.59743284  -0.00003882  -0.00931822  1
  Ta  Ta87  1  0.22935995  -0.01673888  0.75065122  1
  Ta  Ta88  1  0.70020900  0.90573163  0.11947358  1
  Ta  Ta89  1  0.10442672  0.10801610  0.11150796  1
  Ta  Ta90  1  0.69280803  0.92555817  0.37643670  1
  Ta  Ta91  1  0.41571260  0.01003564  0.75287439  1
  Ta  Ta92  1  0.48233121  0.91109479  0.61917915  1
  Ta  Ta93  1  0.39896167  0.01318865  0.00112940  1
  Ta  Ta94  1  0.90570246  0.50016996  0.62373151  1
  Ta  Ta95  1  0.79900177  0.39554687  0.25311191  1
  Ta  Ta96  1  0.68966473  0.48786608  0.36456310  1
  Ta  Ta97  1  -0.00328179  0.59493853  0.50204828  1
  Ta  Ta98  1  0.50244333  0.50259861  0.62977158  1
  Ta  Ta99  1  0.60097589  0.39550813  0.23710897  1
  Ta  Ta100  1  0.31798521  0.11068072  0.87068482  1
  Ta  Ta101  1  -0.00871196  0.80402495  0.24777185  1
  Ta  Ta102  1  0.38949101  0.59259290  0.27157419  1
  Ta  Ta103  1  0.88705148  0.88708068  0.87637538  1
  Ta  Ta104  1  0.40885629  -0.00181152  0.48700512  1
  Ta  Ta105  1  0.40273019  0.39476444  0.74095269  1
  Ta  Ta106  1  0.00043822  -0.00790326  0.23457234  1
  Ta  Ta107  1  0.90625612  0.50273217  0.14391074  1
  Ta  Ta108  1  0.48605074  0.90577224  0.88309400  1
  Ta  Ta109  1  0.00134601  0.40248983  0.75383338  1
  Ta  Ta110  1  0.58234767  0.81130976  0.47879047  1
  Ta  Ta111  1  0.29985367  0.89770395  0.13121264  1
  Ta  Ta112  1  0.19812191  0.79578903  0.01456490  1
  Ta  Ta113  1  0.21287166  0.39513710  0.50815758  1
  Ta  Ta114  1  0.00074262  0.19888719  -0.00621822  1
  Ta  Ta115  1  0.29800527  0.29671291  0.88274718  1
  Ta  Ta116  1  0.59233856  0.59575537  0.00845926  1
  Ta  Ta117  1  0.32148126  0.09957040  0.62797244  1
  Ta  Ta118  1  0.50026354  0.30402199  0.11888943  1
  Ta  Ta119  1  0.59591692  -0.00360534  0.75784099  1
  Ti  Ti120  1  0.11691003  0.48613014  0.12125398  1
  Ti  Ti121  1  0.69390940  0.89461961  0.88298436  1
  Ti  Ti122  1  0.60193473  0.19376383  0.51510383  1
  Ti  Ti123  1  0.78725914  0.78167298  0.75458132  1
  Ti  Ti124  1  0.69117181  0.09190406  0.63084567  1
  Ti  Ti125  1  0.79326713  0.20874453  0.73457794  1
  Ti  Ti126  1  0.11318107  0.89003918  0.63422380  1
  Ti  Ti127  1  0.10301521  0.69128064  0.87921848  1
  Ti  Ti128  1  0.10773265  0.49262340  0.38695694  1
  Ti  Ti129  1  0.19929253  0.80317543  0.49936916  1
  Ti  Ti130  1  0.59430260  0.19308135  -0.00301026  1
  Ti  Ti131  1  0.00134235  -0.01330951  0.51577812  1
  Ti  Ti132  1  0.79719486  -0.01576543  0.25083514  1
  Ti  Ti133  1  0.79642858  0.59917960  0.25521943  1
  Ti  Ti134  1  0.29937758  0.29123864  0.62866886  1
  Ti  Ti135  1  0.90025005  0.70478119  0.35982202  1
  Ti  Ti136  1  0.41123915  0.41488460  0.24131490  1
  Ti  Ti137  1  0.38416603  0.81139114  0.00354829  1
  Ti  Ti138  1  0.08605697  0.70431206  0.61479167  1
  Ti  Ti139  1  0.28972382  0.90177906  0.38004464  1
  Ti  Ti140  1  0.00124345  -0.00754620  0.75796697  1
  Ti  Ti141  1  0.70696877  0.50124604  0.87453323  1
  Ti  Ti142  1  0.89322600  0.48790704  0.87307398  1
  Ti  Ti143  1  0.29101486  0.11149561  0.38155138  1
  Ti  Ti144  1  0.70612592  0.49658305  0.13216612  1
  Ti  Ti145  1  0.10367325  0.50174434  0.87719050  1
  Ti  Ti146  1  0.10636207  0.29551645  0.61738583  1
  Ti  Ti147  1  0.89356446  0.68982610  0.87615191  1
  Ti  Ti148  1  0.60427730  0.39473472  0.51348824  1
  Ti  Ti149  1  0.80812446  0.40141770  0.74641003  1
  Ti  Ti150  1  0.49881011  0.29076216  0.62686732  1
  Ti  Ti151  1  0.69415485  0.70691805  0.36229403  1
  Ti  Ti152  1  0.89224670  0.69383385  0.14010174  1
  Ti  Ti153  1  -0.01556522  0.79520539  0.49659728  1
  Ti  Ti154  1  0.19137108  0.80574674  0.24540685  1
  Ti  Ti155  1  0.50559471  0.50177413  0.86362384  1
  Ti  Ti156  1  0.69245970  0.09918362  0.87818755  1
  Ti  Ti157  1  0.10203341  0.09295701  0.37798614  1
  Ti  Ti158  1  0.59493321  0.80146679  0.00331140  1
  Ti  Ti159  1  0.79362754  -0.00440820  -0.01066667  1
  Mo  Mo160  1  0.60092039  0.00424033  0.50801697  1
  Mo  Mo161  1  0.30240311  0.09332708  0.12308815  1
  Mo  Mo162  1  0.19781513  0.41419592  -0.00224026  1
  Mo  Mo163  1  0.40159224  0.20052007  0.00221980  1
  Mo  Mo164  1  0.29788385  0.49269803  0.37963293  1
  Mo  Mo165  1  0.80033675  0.59294568  0.75790168  1
  Mo  Mo166  1  0.30411705  0.49989730  0.63233492  1
  Mo  Mo167  1  0.50174700  0.50031820  0.12869837  1
  Mo  Mo168  1  0.38952305  0.81280538  0.47992753  1
  Mo  Mo169  1  0.69601897  0.70536690  0.61414738  1
  Mo  Mo170  1  0.79529727  0.80243749  -0.00315307  1
  Mo  Mo171  1  0.50444053  0.09947691  0.88105642  1
  Mo  Mo172  1  0.09995623  0.29690893  0.11061991  1
  Mo  Mo173  1  0.01021988  0.40464093  0.49788074  1
  Mo  Mo174  1  -0.00052956  0.59595682  0.24706450  1
  Mo  Mo175  1  0.19382525  0.79999904  0.74146809  1
  Mo  Mo176  1  0.29233725  0.70730311  0.12874262  1
  Mo  Mo177  1  0.39429977  0.20491557  0.74546282  1
  Mo  Mo178  1  0.21796774  0.20023577  0.74947127  1
  Mo  Mo179  1  0.29986594  0.91386761  0.61600231  1
  Mo  Mo180  1  0.30460089  0.30468604  0.37934128  1
  Mo  Mo181  1  0.69560150  0.30126774  0.62617478  1
  Mo  Mo182  1  0.90239685  0.30691672  0.87172098  1
  Mo  Mo183  1  0.20985347  0.19769150  0.50780758  1
  Mo  Mo184  1  0.80653383  0.40717627  0.00394574  1
  Mo  Mo185  1  0.39375310  0.82984347  0.75003515  1
  Mo  Mo186  1  0.89518092  0.89183799  0.37328679  1
  Mo  Mo187  1  0.09465784  0.89772323  0.12608374  1
  Mo  Mo188  1  0.49718467  0.90914188  0.37365281  1
  Mo  Mo189  1  0.28493807  0.70666214  0.38186256  1
  Mo  Mo190  1  0.50341766  0.09648594  0.61569918  1
  Mo  Mo191  1  0.79801175  0.80232734  0.26584442  1
  Mo  Mo192  1  0.79952126  0.18976512  -0.00338253  1
  Mo  Mo193  1  0.61516818  0.01422992  0.24329835  1
  Mo  Mo194  1  0.20316512  0.19660307  -0.00010024  1
  Mo  Mo195  1  0.49816952  0.70239858  0.37451877  1
  Mo  Mo196  1  0.30429674  0.90720884  0.87900380  1
  Mo  Mo197  1  0.50359237  0.49525757  0.37278951  1
  Mo  Mo198  1  0.30818579  0.51285468  0.12781375  1
  Mo  Mo199  1  0.70646924  0.10280528  0.37959280  1
