# generated using pymatgen
data_HfZrTaTiMo
_symmetry_space_group_name_H-M   'P 1'
_cell_length_a   15.20266453
_cell_length_b   15.22016354
_cell_length_c   16.84631771
_cell_angle_alpha   89.99708094
_cell_angle_beta   90.05159598
_cell_angle_gamma   90.01412055
_symmetry_Int_Tables_number   1
_chemical_formula_structural   HfZrTaTiMo
_chemical_formula_sum   'Hf40 Zr40 Ta40 Ti40 Mo40'
_cell_volume   3898.01789370
_cell_formula_units_Z   40
loop_
 _symmetry_equiv_pos_site_id
 _symmetry_equiv_pos_as_xyz
  1  'x, y, z'
loop_
 _atom_site_type_symbol
 _atom_site_label
 _atom_site_symmetry_multiplicity
 _atom_site_fract_x
 _atom_site_fract_y
 _atom_site_fract_z
 _atom_site_occupancy
  Hf  Hf0  1  0.59485101  -0.00022445  -0.01306397  1
  Hf  Hf1  1  0.90335718  0.30201639  0.11793227  1
  Hf  Hf2  1  0.29519269  0.50606555  0.61060613  1
  Hf  Hf3  1  0.10741139  0.69276488  0.38335121  1
  Hf  Hf4  1  0.71308256  0.70403100  0.12280130  1
  Hf  Hf5  1  0.47414170  0.30502209  0.87639888  1
  Hf  Hf6  1  0.89470504  0.09562560  0.39057826  1
  Hf  Hf7  1  0.29732428  0.49853175  0.37583460  1
  Hf  Hf8  1  0.79761479  0.20693815  0.50994681  1
  Hf  Hf9  1  0.80216259  -0.00971407  0.75609039  1
  Hf  Hf10  1  0.79321861  0.40201035  -0.00764142  1
  Hf  Hf11  1  0.10879191  0.08955775  0.12446025  1
  Hf  Hf12  1  0.60635094  0.78967830  0.76381757  1
  Hf  Hf13  1  0.19399648  0.19889853  0.25249800  1
  Hf  Hf14  1  0.21373766  0.60786589  0.74908751  1
  Hf  Hf15  1  0.90048739  0.88515270  0.12120548  1
  Hf  Hf16  1  0.29668847  0.90161240  0.12742973  1
  Hf  Hf17  1  0.69757183  0.09698467  0.63333543  1
  Hf  Hf18  1  0.30478336  0.48773683  0.87493111  1
  Hf  Hf19  1  0.79875375  0.60696834  0.25652470  1
  Hf  Hf20  1  0.90538099  0.51576546  0.11774973  1
  Hf  Hf21  1  0.08810090  0.69588011  0.11334034  1
  Hf  Hf22  1  0.29153407  0.69681266  0.11103239  1
  Hf  Hf23  1  0.40212230  -0.00749583  0.49414724  1
  Hf  Hf24  1  0.11027708  0.49689038  0.13311068  1
  Hf  Hf25  1  0.58851805  0.40316843  0.24751018  1
  Hf  Hf26  1  -0.00752346  0.79820701  -0.01439265  1
  Hf  Hf27  1  0.90928299  0.49504245  0.36126561  1
  Hf  Hf28  1  0.79524780  0.79017345  -0.02208172  1
  Hf  Hf29  1  0.51026596  0.49807516  0.61847725  1
  Hf  Hf30  1  0.39163826  0.79240857  0.25991039  1
  Hf  Hf31  1  -0.00248688  -0.00677734  0.25163722  1
  Hf  Hf32  1  0.51752247  0.70549167  0.61186627  1
  Hf  Hf33  1  0.92016316  0.09819077  0.87677467  1
  Hf  Hf34  1  0.80463670  0.19963801  -0.01401499  1
  Hf  Hf35  1  0.18190548  0.39020702  0.49378175  1
  Hf  Hf36  1  0.20481671  0.00123040  0.48786917  1
  Hf  Hf37  1  0.69436673  0.29722962  0.37708940  1
  Hf  Hf38  1  0.11327187  0.11474215  0.61647469  1
  Hf  Hf39  1  0.70367984  0.09909283  0.11089167  1
  Zr  Zr40  1  0.40373970  0.38897716  0.50547853  1
  Zr  Zr41  1  0.59442498  0.19285863  0.24304322  1
  Zr  Zr42  1  0.48044706  0.30076293  0.11923218  1
  Zr  Zr43  1  0.10070301  0.89047313  0.37213139  1
  Zr  Zr44  1  0.39307625  0.79141454  0.74913076  1
  Zr  Zr45  1  0.49453549  0.90395659  0.63154269  1
  Zr  Zr46  1  0.48132962  0.89176476  0.87816035  1
  Zr  Zr47  1  0.40648826  0.60253944  0.74621326  1
  Zr  Zr48  1  0.69341182  0.50659543  0.12369409  1
  Zr  Zr49  1  0.30649795  0.69386447  0.39270955  1
  Zr  Zr50  1  0.79567038  0.19525189  0.24739418  1
  Zr  Zr51  1  0.30968615  0.10045793  0.36212837  1
  Zr  Zr52  1  0.70958834  0.90612104  0.38736820  1
  Zr  Zr53  1  0.60336385  0.39478289  0.75466236  1
  Zr  Zr54  1  -0.02000823  0.40453350  0.50138208  1
  Zr  Zr55  1  0.10536198  0.49433184  0.87765707  1
  Zr  Zr56  1  0.79932913  -0.00082247  0.24823885  1
  Zr  Zr57  1  0.60113735  0.00157480  0.50994449  1
  Zr  Zr58  1  0.89082601  0.90872632  0.61387108  1
  Zr  Zr59  1  0.10952658  0.69455817  0.88817534  1
  Zr  Zr60  1  0.61440570  0.61178882  0.48313009  1
  Zr  Zr61  1  0.09410784  0.49224502  0.63233281  1
  Zr  Zr62  1  0.00071606  0.80174919  0.50896882  1
  Zr  Zr63  1  0.22512611  0.20318300  0.00640888  1
  Zr  Zr64  1  0.69459253  0.90006420  0.11720820  1
  Zr  Zr65  1  0.40789512  0.57753694  0.00714656  1
  Zr  Zr66  1  -0.01505352  0.80601556  0.75862110  1
  Zr  Zr67  1  0.10694915  0.70042248  0.61700439  1
  Zr  Zr68  1  0.79839658  0.21274883  0.76098895  1
  Zr  Zr69  1  0.37506476  -0.00016454  0.75439598  1
  Zr  Zr70  1  0.50160895  0.69568570  0.12775011  1
  Zr  Zr71  1  -0.00318253  0.60058818  0.75241468  1
  Zr  Zr72  1  0.60110847  0.80670121  0.26329055  1
  Zr  Zr73  1  0.20369848  0.81410531  0.75199285  1
  Zr  Zr74  1  0.28111621  0.28365758  0.62091789  1
  Zr  Zr75  1  -0.01069000  0.19759765  0.24768457  1
  Zr  Zr76  1  0.01312842  0.00892741  0.74058068  1
  Zr  Zr77  1  0.31879530  0.10258044  0.14272731  1
  Zr  Zr78  1  0.59997751  0.20879542  -0.01446675  1
  Zr  Zr79  1  0.81084073  0.59188025  0.49552163  1
  Ta  Ta80  1  0.59381416  0.60530030  0.26562660  1
  Ta  Ta81  1  0.70126546  0.50227427  0.87709912  1
  Ta  Ta82  1  0.80035181  0.39675665  0.24255288  1
  Ta  Ta83  1  0.60578218  0.59998744  0.75599428  1
  Ta  Ta84  1  0.49202267  0.50486135  0.37887062  1
  Ta  Ta85  1  0.58354886  0.41150251  -0.00164352  1
  Ta  Ta86  1  0.29631579  0.30058611  0.36571091  1
  Ta  Ta87  1  0.58839798  0.19607861  0.75538547  1
  Ta  Ta88  1  0.50993858  0.10240509  0.37547840  1
  Ta  Ta89  1  0.37809694  0.00632506  -0.00894558  1
  Ta  Ta90  1  0.60979879  0.60392862  -0.00919612  1
  Ta  Ta91  1  0.00987535  -0.00422573  0.00097415  1
  Ta  Ta92  1  0.21181172  0.61120324  0.24749361  1
  Ta  Ta93  1  0.79527696  0.61249058  0.76192189  1
  Ta  Ta94  1  0.58919632  0.79325935  -0.01095257  1
  Ta  Ta95  1  0.10205156  0.88788341  0.13418360  1
  Ta  Ta96  1  0.10943601  0.29389253  0.87696667  1
  Ta  Ta97  1  0.70071058  0.49180747  0.36806345  1
  Ta  Ta98  1  0.39307157  0.39679927  0.73804722  1
  Ta  Ta99  1  0.10370146  0.91626854  0.87451480  1
  Ta  Ta100  1  0.87983556  0.70197986  0.62980632  1
  Ta  Ta101  1  0.08842554  0.31099211  0.36034984  1
  Ta  Ta102  1  0.30855234  0.70828090  0.59746923  1
  Ta  Ta103  1  0.21338753  0.40249524  0.00822692  1
  Ta  Ta104  1  0.50082003  0.50144821  0.87103473  1
  Ta  Ta105  1  0.90703703  0.70811539  0.37692808  1
  Ta  Ta106  1  0.69609441  0.30482598  0.11893594  1
  Ta  Ta107  1  0.89531350  0.30759737  0.63468007  1
  Ta  Ta108  1  0.31183220  0.70482247  0.89860489  1
  Ta  Ta109  1  0.69851402  0.87497028  0.62473522  1
  Ta  Ta110  1  0.00933070  0.39737320  -0.00187566  1
  Ta  Ta111  1  0.58761978  0.20602803  0.50962139  1
  Ta  Ta112  1  -0.00688988  0.39284826  0.75951035  1
  Ta  Ta113  1  0.49005458  0.29624763  0.37455169  1
  Ta  Ta114  1  0.10236278  0.50054552  0.35752581  1
  Ta  Ta115  1  0.69495682  0.30901986  0.62726643  1
  Ta  Ta116  1  0.49148110  0.90260651  0.11529509  1
  Ta  Ta117  1  0.39759139  0.18948143  0.50206160  1
  Ta  Ta118  1  0.00710367  0.21298476  0.49670783  1
  Ta  Ta119  1  0.48581900  0.10241938  0.87197630  1
  Ti  Ti120  1  0.90323625  0.09418828  0.11057872  1
  Ti  Ti121  1  0.20716059  -0.01763747  0.26190483  1
  Ti  Ti122  1  0.38263120  0.19998731  0.74850748  1
  Ti  Ti123  1  0.60249500  0.00119997  0.25017276  1
  Ti  Ti124  1  0.31606442  0.49264861  0.14188641  1
  Ti  Ti125  1  0.59116198  0.00103189  0.75202573  1
  Ti  Ti126  1  0.69928499  0.90087520  0.87101980  1
  Ti  Ti127  1  0.90559785  0.11299461  0.62326525  1
  Ti  Ti128  1  0.69616537  0.09983784  0.86775759  1
  Ti  Ti129  1  0.00298086  0.59502646  0.50267432  1
  Ti  Ti130  1  0.08754395  0.29934329  0.63118722  1
  Ti  Ti131  1  0.00148932  0.61569328  0.24824997  1
  Ti  Ti132  1  0.29666190  0.30931941  0.14751037  1
  Ti  Ti133  1  0.49578141  0.28798537  0.63168238  1
  Ti  Ti134  1  0.11800273  0.90760425  0.61924822  1
  Ti  Ti135  1  0.81520813  0.80058929  0.25864332  1
  Ti  Ti136  1  0.79106680  0.40275675  0.50432126  1
  Ti  Ti137  1  0.89375528  0.30183335  0.37109422  1
  Ti  Ti138  1  0.00185608  0.00974894  0.50590571  1
  Ti  Ti139  1  0.12214777  0.10115251  0.87738177  1
  Ti  Ti140  1  0.89271890  0.50054019  0.63686763  1
  Ti  Ti141  1  0.70669302  0.50873449  0.63141771  1
  Ti  Ti142  1  0.09730396  0.10792414  0.37913818  1
  Ti  Ti143  1  0.80950106  -0.00709699  -0.01611110  1
  Ti  Ti144  1  0.10103863  0.30458512  0.13140991  1
  Ti  Ti145  1  0.41892537  0.80450181  0.48232848  1
  Ti  Ti146  1  0.00731664  0.20723926  0.75370906  1
  Ti  Ti147  1  0.50041920  0.09390837  0.11564060  1
  Ti  Ti148  1  0.90931984  0.30655055  0.87980344  1
  Ti  Ti149  1  0.90382799  0.50931958  0.88518003  1
  Ti  Ti150  1  0.01378537  0.19961479  0.00140353  1
  Ti  Ti151  1  0.69941318  0.10186174  0.38791329  1
  Ti  Ti152  1  0.90086562  0.90105429  0.39142845  1
  Ti  Ti153  1  0.30209013  0.08937375  0.62151727  1
  Ti  Ti154  1  0.60338456  0.39884421  0.49804395  1
  Ti  Ti155  1  0.41857998  -0.00880602  0.25813989  1
  Ti  Ti156  1  0.78618677  0.78688244  0.49692582  1
  Ti  Ti157  1  0.80091675  0.40851276  0.76233182  1
  Ti  Ti158  1  0.19970330  0.38437019  0.74948260  1
  Ti  Ti159  1  0.20105298  0.81792250  -0.00472051  1
  Mo  Mo160  1  0.49701725  0.68948301  0.88300491  1
  Mo  Mo161  1  0.71282876  0.70040916  0.36753642  1
  Mo  Mo162  1  0.40659423  0.20161699  0.25650128  1
  Mo  Mo163  1  0.69504171  0.69585355  0.87759570  1
  Mo  Mo164  1  0.20547203  0.59065292  0.00579207  1
  Mo  Mo165  1  0.19356592  0.00117027  0.00491453  1
  Mo  Mo166  1  -0.00234561  0.59128368  -0.00248231  1
  Mo  Mo167  1  0.79723542  0.79985082  0.76022204  1
  Mo  Mo168  1  0.29595234  0.10791457  0.87304151  1
  Mo  Mo169  1  0.38812503  0.38658356  0.00506305  1
  Mo  Mo170  1  0.50087235  0.50005221  0.12963464  1
  Mo  Mo171  1  0.80410217  0.00551023  0.51148320  1
  Mo  Mo172  1  0.28449135  0.90485870  0.88573771  1
  Mo  Mo173  1  0.80700364  0.60145600  -0.01283960  1
  Mo  Mo174  1  0.29514611  0.89694813  0.61375221  1
  Mo  Mo175  1  0.40623597  0.59214721  0.24716375  1
  Mo  Mo176  1  0.21428945  0.81063987  0.50312173  1
  Mo  Mo177  1  0.19278408  0.79181766  0.24615950  1
  Mo  Mo178  1  0.50207748  0.90850526  0.37131325  1
  Mo  Mo179  1  0.49291893  0.11070954  0.63521209  1
  Mo  Mo180  1  0.19749189  0.00744817  0.74450826  1
  Mo  Mo181  1  0.30510308  0.89535766  0.36539014  1
  Mo  Mo182  1  0.60301223  0.80486143  0.48882763  1
  Mo  Mo183  1  0.19774917  0.40279553  0.25076225  1
  Mo  Mo184  1  0.89834671  0.70406500  0.12654964  1
  Mo  Mo185  1  0.40893549  0.59871164  0.50385514  1
  Mo  Mo186  1  0.19551327  0.19232468  0.75294430  1
  Mo  Mo187  1  0.70565578  0.69776117  0.62763491  1
  Mo  Mo188  1  0.39857546  0.40138271  0.26060713  1
  Mo  Mo189  1  0.29007110  0.29962111  0.86581997  1
  Mo  Mo190  1  0.19283371  0.59580787  0.50040766  1
  Mo  Mo191  1  -0.00419121  0.79431159  0.25277495  1
  Mo  Mo192  1  0.89844284  0.69227049  0.87136333  1
  Mo  Mo193  1  -0.00527640  0.40143122  0.24478906  1
  Mo  Mo194  1  0.19572504  0.20199763  0.47999664  1
  Mo  Mo195  1  0.40229283  0.19218961  -0.00416816  1
  Mo  Mo196  1  0.69438988  0.30505868  0.87282101  1
  Mo  Mo197  1  0.90227119  0.90758018  0.87742732  1
  Mo  Mo198  1  0.50409364  0.69820153  0.37702556  1
  Mo  Mo199  1  0.39783145  0.80254819  0.00496934  1
