# generated using pymatgen
data_HfZrTaTiMo
_symmetry_space_group_name_H-M   'P 1'
_cell_length_a   15.21598332
_cell_length_b   15.20726176
_cell_length_c   16.80871109
_cell_angle_alpha   89.98999260
_cell_angle_beta   90.04199742
_cell_angle_gamma   89.93333045
_symmetry_Int_Tables_number   1
_chemical_formula_structural   HfZrTaTiMo
_chemical_formula_sum   'Hf40 Zr40 Ta40 Ti40 Mo40'
_cell_volume   3889.42176514
_cell_formula_units_Z   40
loop_
 _symmetry_equiv_pos_site_id
 _symmetry_equiv_pos_as_xyz
  1  'x, y, z'
loop_
 _atom_site_type_symbol
 _atom_site_label
 _atom_site_symmetry_multiplicity
 _atom_site_fract_x
 _atom_site_fract_y
 _atom_site_fract_z
 _atom_site_occupancy
  Hf  Hf0  1  0.61890928  0.00338126  0.26290826  1
  Hf  Hf1  1  0.90609445  0.50321813  0.62797365  1
  Hf  Hf2  1  0.80565441  0.18492394  0.00796001  1
  Hf  Hf3  1  0.78270723  0.21426139  0.74925540  1
  Hf  Hf4  1  0.29235125  0.69346527  0.14162772  1
  Hf  Hf5  1  0.21623077  0.40427679  0.00154209  1
  Hf  Hf6  1  -0.01260360  0.81622346  0.00216060  1
  Hf  Hf7  1  0.30360024  0.30164636  0.85916875  1
  Hf  Hf8  1  0.11376625  0.50165373  0.36031717  1
  Hf  Hf9  1  0.17080711  0.80372698  0.23781653  1
  Hf  Hf10  1  0.60052626  0.79352907  0.50434663  1
  Hf  Hf11  1  0.20069708  -0.01562502  0.49564027  1
  Hf  Hf12  1  0.59405783  0.59275919  0.25884383  1
  Hf  Hf13  1  0.40783230  0.40473542  0.51460420  1
  Hf  Hf14  1  0.30159816  0.10736743  0.37064149  1
  Hf  Hf15  1  0.80495500  -0.01893426  0.51086871  1
  Hf  Hf16  1  0.09371596  0.09072026  0.37585389  1
  Hf  Hf17  1  0.88117984  0.69721617  0.11318203  1
  Hf  Hf18  1  0.68760550  0.09965305  0.87841445  1
  Hf  Hf19  1  0.51443082  0.29319495  0.86474653  1
  Hf  Hf20  1  0.41456345  0.41245128  0.74032795  1
  Hf  Hf21  1  0.30326948  0.10979362  0.12639072  1
  Hf  Hf22  1  0.10564414  0.90558919  0.87985400  1
  Hf  Hf23  1  0.89491528  0.09710713  0.37496419  1
  Hf  Hf24  1  -0.00422545  0.61414292  0.25195098  1
  Hf  Hf25  1  0.50212744  0.31398488  0.37956589  1
  Hf  Hf26  1  0.79592765  0.61266270  0.49881579  1
  Hf  Hf27  1  0.20313224  0.40378483  0.50312809  1
  Hf  Hf28  1  0.50749826  0.11600420  0.38050247  1
  Hf  Hf29  1  0.80054991  0.40032919  0.00960080  1
  Hf  Hf30  1  0.19013682  0.00715192  0.24049270  1
  Hf  Hf31  1  0.68297432  0.70170656  0.12150385  1
  Hf  Hf32  1  0.62622229  0.40058076  0.74869738  1
  Hf  Hf33  1  -0.01449242  0.20924743  0.75213997  1
  Hf  Hf34  1  0.79767727  0.39777641  0.23869721  1
  Hf  Hf35  1  0.69991638  0.49338572  0.37497174  1
  Hf  Hf36  1  0.69628841  0.50429757  0.11809044  1
  Hf  Hf37  1  0.08399121  0.69560205  0.62905108  1
  Hf  Hf38  1  0.89591441  0.29556624  0.37351021  1
  Hf  Hf39  1  0.20449392  0.60207010  0.50419735  1
  Zr  Zr40  1  0.30987175  0.51742423  0.86063628  1
  Zr  Zr41  1  0.80262628  -0.01874872  -0.00270252  1
  Zr  Zr42  1  -0.00335588  0.01715539  0.01746056  1
  Zr  Zr43  1  0.29858109  0.29471617  0.63377235  1
  Zr  Zr44  1  0.88307694  0.69500531  0.88750975  1
  Zr  Zr45  1  0.49067857  0.09314053  0.87810552  1
  Zr  Zr46  1  0.40502178  0.59983925  0.51007301  1
  Zr  Zr47  1  0.09307743  0.72359975  0.37862374  1
  Zr  Zr48  1  0.90775678  0.29481947  0.89441849  1
  Zr  Zr49  1  0.49620044  0.09412950  0.61533792  1
  Zr  Zr50  1  0.00138708  -0.00598804  0.50728970  1
  Zr  Zr51  1  0.41203237  0.41588002  -0.00607781  1
  Zr  Zr52  1  0.39376467  0.20905223  -0.00100936  1
  Zr  Zr53  1  0.50330854  0.10104984  0.12678229  1
  Zr  Zr54  1  0.10439211  0.29250822  0.37548831  1
  Zr  Zr55  1  0.38656994  0.61868068  0.00431512  1
  Zr  Zr56  1  -0.02386129  0.80135376  0.51030557  1
  Zr  Zr57  1  0.10998214  0.50136713  0.12775929  1
  Zr  Zr58  1  0.47368921  0.69833401  0.86376166  1
  Zr  Zr59  1  0.69636530  0.08656693  0.12168988  1
  Zr  Zr60  1  0.89784309  0.12743386  0.60913060  1
  Zr  Zr61  1  0.00366610  0.18383370  0.23219184  1
  Zr  Zr62  1  0.38996949  0.81399448  0.72333049  1
  Zr  Zr63  1  0.58159124  0.79115076  -0.00829377  1
  Zr  Zr64  1  0.20228718  0.61129232  0.75031639  1
  Zr  Zr65  1  0.08529379  0.30139046  0.62537710  1
  Zr  Zr66  1  0.31644139  0.89714683  0.13497308  1
  Zr  Zr67  1  0.29840083  0.88193211  0.36178243  1
  Zr  Zr68  1  -0.00395394  0.59696744  0.49005142  1
  Zr  Zr69  1  0.40292640  -0.01201315  0.48958134  1
  Zr  Zr70  1  0.09995603  0.31080042  0.88011407  1
  Zr  Zr71  1  0.00269470  0.39700710  0.24289525  1
  Zr  Zr72  1  0.91703316  0.89395343  0.35240195  1
  Zr  Zr73  1  0.19841866  0.18923399  0.75549862  1
  Zr  Zr74  1  0.10375296  0.09832328  0.62287581  1
  Zr  Zr75  1  0.09092750  0.69200604  0.10351606  1
  Zr  Zr76  1  0.50330820  0.30684827  0.12492836  1
  Zr  Zr77  1  0.51984549  0.28768196  0.63033736  1
  Zr  Zr78  1  0.79711877  0.01382721  0.74330895  1
  Zr  Zr79  1  0.69582157  0.89217938  0.63652238  1
  Ta  Ta80  1  0.69706993  0.28991093  0.38008901  1
  Ta  Ta81  1  0.69692426  0.70417563  0.37324586  1
  Ta  Ta82  1  0.30953070  0.89971566  0.87818183  1
  Ta  Ta83  1  0.70828242  0.49727834  0.62394616  1
  Ta  Ta84  1  0.89607166  0.90327657  0.85776504  1
  Ta  Ta85  1  0.21606671  0.79757738  0.00191613  1
  Ta  Ta86  1  0.49632768  0.90196103  0.86486939  1
  Ta  Ta87  1  0.40201805  0.21250118  0.24881081  1
  Ta  Ta88  1  0.09969339  0.89507163  0.64018894  1
  Ta  Ta89  1  0.60017497  0.79979341  0.25735189  1
  Ta  Ta90  1  0.70281623  0.30086993  0.88730398  1
  Ta  Ta91  1  0.60479133  -0.00757638  0.49404011  1
  Ta  Ta92  1  0.49016882  0.70193147  0.37706600  1
  Ta  Ta93  1  0.68987772  0.11159515  0.60696313  1
  Ta  Ta94  1  0.30392786  0.49686001  0.14145623  1
  Ta  Ta95  1  0.19721710  0.80404511  0.75131145  1
  Ta  Ta96  1  0.40274105  0.60011070  0.25686973  1
  Ta  Ta97  1  0.78720472  0.19180774  0.24450272  1
  Ta  Ta98  1  0.51611070  0.89936830  0.13550942  1
  Ta  Ta99  1  0.60728548  0.40579541  0.50612817  1
  Ta  Ta100  1  -0.00783086  0.59346122  0.76663569  1
  Ta  Ta101  1  0.90487049  0.29477718  0.11759622  1
  Ta  Ta102  1  0.68961837  0.89338517  0.85889480  1
  Ta  Ta103  1  0.30662022  0.30144897  0.37847825  1
  Ta  Ta104  1  0.48786953  0.70961755  0.13595496  1
  Ta  Ta105  1  0.09963799  0.49436736  0.63769269  1
  Ta  Ta106  1  0.00122560  0.79136500  0.76353437  1
  Ta  Ta107  1  0.90958047  0.49462221  0.89253100  1
  Ta  Ta108  1  -0.00093024  0.40077470  0.49452347  1
  Ta  Ta109  1  0.71815499  0.89250352  0.37743239  1
  Ta  Ta110  1  0.31283130  0.49515185  0.36707435  1
  Ta  Ta111  1  0.10183772  0.69594550  0.89071997  1
  Ta  Ta112  1  0.09591670  0.10462008  0.88284958  1
  Ta  Ta113  1  0.70683723  0.10115199  0.39093827  1
  Ta  Ta114  1  0.39334552  0.79602698  0.51655336  1
  Ta  Ta115  1  0.59955576  -0.01525746  -0.00256079  1
  Ta  Ta116  1  0.30355691  0.09418654  0.61808741  1
  Ta  Ta117  1  0.82281199  0.40422452  0.75795262  1
  Ta  Ta118  1  0.58948671  0.78730262  0.74609838  1
  Ta  Ta119  1  0.90326898  0.89121507  0.65229967  1
  Ti  Ti120  1  0.58441486  0.00119194  0.74145538  1
  Ti  Ti121  1  0.88506782  0.70036997  0.64062358  1
  Ti  Ti122  1  0.69342213  0.68650795  0.63383045  1
  Ti  Ti123  1  0.11126310  0.29944119  0.11826517  1
  Ti  Ti124  1  0.79135912  0.78768372  0.76070949  1
  Ti  Ti125  1  0.59478525  0.59382027  0.49846000  1
  Ti  Ti126  1  0.79052520  0.59161922  0.75876673  1
  Ti  Ti127  1  0.71890197  0.29996666  0.60939464  1
  Ti  Ti128  1  0.67851423  0.68427273  0.87626463  1
  Ti  Ti129  1  0.77876293  0.80224166  -0.00758189  1
  Ti  Ti130  1  0.10330171  0.49989260  0.87989865  1
  Ti  Ti131  1  0.21346969  -0.00449785  0.75023307  1
  Ti  Ti132  1  0.60104771  0.39128906  0.24834105  1
  Ti  Ti133  1  0.00482898  -0.01797583  0.21910473  1
  Ti  Ti134  1  0.29500655  0.50293125  0.63690012  1
  Ti  Ti135  1  0.19932868  0.79831819  0.51288816  1
  Ti  Ti136  1  0.90297056  0.09626986  0.87391954  1
  Ti  Ti137  1  0.60054470  0.39911131  -0.00365918  1
  Ti  Ti138  1  0.89874269  0.50232375  0.36909080  1
  Ti  Ti139  1  0.40368270  -0.01334393  0.00515937  1
  Ti  Ti140  1  0.20266909  0.19767419  0.50015551  1
  Ti  Ti141  1  0.41073900  0.00023390  0.25785218  1
  Ti  Ti142  1  0.29356417  0.08928106  0.88118596  1
  Ti  Ti143  1  0.40403049  0.18164455  0.75099559  1
  Ti  Ti144  1  0.80713103  0.40303949  0.49697464  1
  Ti  Ti145  1  0.79535545  0.60385925  0.25095146  1
  Ti  Ti146  1  0.20134335  -0.00164657  0.01062625  1
  Ti  Ti147  1  0.00914224  0.00440017  0.75228972  1
  Ti  Ti148  1  0.29274405  0.69223933  0.36494991  1
  Ti  Ti149  1  0.19512563  0.19609075  0.00112950  1
  Ti  Ti150  1  0.52056863  0.51076681  0.87005278  1
  Ti  Ti151  1  0.40662626  0.40463959  0.24987622  1
  Ti  Ti152  1  0.50135895  0.51419751  0.12173290  1
  Ti  Ti153  1  0.20574204  0.21311884  0.24278360  1
  Ti  Ti154  1  0.90901092  0.50578588  0.10870286  1
  Ti  Ti155  1  0.50799296  0.89364284  0.37221157  1
  Ti  Ti156  1  0.69226211  0.28951067  0.11935063  1
  Ti  Ti157  1  0.41956286  0.61172347  0.71748724  1
  Ti  Ti158  1  0.88128598  0.71085858  0.36545508  1
  Ti  Ti159  1  0.70822869  0.50209381  0.88634871  1
  Mo  Mo160  1  0.40129032  0.81466618  0.00398738  1
  Mo  Mo161  1  -0.01253561  0.79844084  0.22657348  1
  Mo  Mo162  1  0.30072083  0.30792916  0.13119981  1
  Mo  Mo163  1  0.78686778  0.59992108  -0.00567684  1
  Mo  Mo164  1  0.89377643  0.32156808  0.61885153  1
  Mo  Mo165  1  0.38858297  0.20487801  0.49791375  1
  Mo  Mo166  1  0.60459906  0.20344861  -0.00181668  1
  Mo  Mo167  1  0.10037568  0.89931716  0.36999029  1
  Mo  Mo168  1  0.60740938  0.20964133  0.25608672  1
  Mo  Mo169  1  0.10952877  0.10598031  0.12005224  1
  Mo  Mo170  1  0.21829219  0.38947184  0.24835977  1
  Mo  Mo171  1  0.52221542  0.50334331  0.62751377  1
  Mo  Mo172  1  0.20475229  0.59782754  0.25867769  1
  Mo  Mo173  1  0.60208761  0.20509227  0.49724586  1
  Mo  Mo174  1  0.00969213  0.20113336  0.01455576  1
  Mo  Mo175  1  0.60724724  0.59555356  0.74905176  1
  Mo  Mo176  1  0.28921610  0.90698048  0.62121546  1
  Mo  Mo177  1  0.58559493  0.58770402  -0.00151145  1
  Mo  Mo178  1  0.80463009  -0.00050741  0.24836530  1
  Mo  Mo179  1  -0.00119473  0.59494766  -0.01158776  1
  Mo  Mo180  1  0.28740717  0.71993231  0.87415856  1
  Mo  Mo181  1  0.39003646  0.00571462  0.74881796  1
  Mo  Mo182  1  0.60830477  0.19190133  0.74541335  1
  Mo  Mo183  1  0.80114714  0.20630758  0.49638946  1
  Mo  Mo184  1  0.40764370  0.79788445  0.25980710  1
  Mo  Mo185  1  0.79711604  0.79263623  0.50667890  1
  Mo  Mo186  1  0.88408552  0.89503943  0.13704996  1
  Mo  Mo187  1  0.00334309  0.40951553  0.75757246  1
  Mo  Mo188  1  0.50203042  0.50235894  0.37580583  1
  Mo  Mo189  1  0.69532280  0.88969354  0.12610152  1
  Mo  Mo190  1  0.00580402  0.21178374  0.49135046  1
  Mo  Mo191  1  0.19893294  0.40858105  0.75071140  1
  Mo  Mo192  1  0.29158168  0.70154089  0.62023054  1
  Mo  Mo193  1  0.50193649  0.90195978  0.62131814  1
  Mo  Mo194  1  0.00710674  0.40037170  0.01662166  1
  Mo  Mo195  1  0.78840371  0.79843601  0.24526065  1
  Mo  Mo196  1  0.51112785  0.70344475  0.61985803  1
  Mo  Mo197  1  0.10366518  0.89887464  0.10527797  1
  Mo  Mo198  1  0.89389325  0.09769340  0.13685908  1
  Mo  Mo199  1  0.20582253  0.59794131  -0.00701474  1
