# generated using pymatgen
data_HfZrTaTiMo
_symmetry_space_group_name_H-M   'P 1'
_cell_length_a   15.18976240
_cell_length_b   15.19318757
_cell_length_c   16.84782408
_cell_angle_alpha   89.93828723
_cell_angle_beta   90.01931692
_cell_angle_gamma   90.05614743
_symmetry_Int_Tables_number   1
_chemical_formula_structural   HfZrTaTiMo
_chemical_formula_sum   'Hf40 Zr40 Ta40 Ti40 Mo40'
_cell_volume   3888.15182105
_cell_formula_units_Z   40
loop_
 _symmetry_equiv_pos_site_id
 _symmetry_equiv_pos_as_xyz
  1  'x, y, z'
loop_
 _atom_site_type_symbol
 _atom_site_label
 _atom_site_symmetry_multiplicity
 _atom_site_fract_x
 _atom_site_fract_y
 _atom_site_fract_z
 _atom_site_occupancy
  Hf  Hf0  1  0.89552319  0.49707899  0.36502695  1
  Hf  Hf1  1  -0.00287548  0.00016686  0.48773854  1
  Hf  Hf2  1  0.52510274  0.10348065  0.13877685  1
  Hf  Hf3  1  0.79456003  0.61272376  0.76332262  1
  Hf  Hf4  1  0.27892667  0.30148254  0.13900364  1
  Hf  Hf5  1  0.18750449  0.20114229  0.49509204  1
  Hf  Hf6  1  0.00560560  0.79088854  0.49969208  1
  Hf  Hf7  1  0.49478368  0.50722902  0.37281419  1
  Hf  Hf8  1  0.80131039  0.40252694  0.76315768  1
  Hf  Hf9  1  0.78543536  0.40262690  0.24731727  1
  Hf  Hf10  1  0.41084545  0.61223347  0.74790452  1
  Hf  Hf11  1  0.41095215  0.20842550  0.25852513  1
  Hf  Hf12  1  0.20760866  -0.01067979  0.24739928  1
  Hf  Hf13  1  0.30398329  0.10347306  0.12765715  1
  Hf  Hf14  1  0.72833714  0.70493778  0.61977609  1
  Hf  Hf15  1  0.60413226  0.77954683  0.73478133  1
  Hf  Hf16  1  0.52594543  0.69527647  0.88738054  1
  Hf  Hf17  1  0.00010665  -0.00040946  0.24993007  1
  Hf  Hf18  1  0.18782469  0.39994684  0.51580772  1
  Hf  Hf19  1  -0.00929395  0.60480945  0.75437115  1
  Hf  Hf20  1  0.82679313  0.00782348  0.75517343  1
  Hf  Hf21  1  0.90697272  0.88871764  0.12574512  1
  Hf  Hf22  1  -0.01744465  0.21993513  -0.00571884  1
  Hf  Hf23  1  0.60278040  0.59560257  0.24336729  1
  Hf  Hf24  1  0.42144806  0.01572069  0.00891411  1
  Hf  Hf25  1  0.11439888  0.90272813  0.10730001  1
  Hf  Hf26  1  0.09854647  0.10539608  0.63113919  1
  Hf  Hf27  1  0.58477637  0.20427145  0.49572739  1
  Hf  Hf28  1  0.21345573  0.00404048  0.48984720  1
  Hf  Hf29  1  0.47251120  0.09025320  0.62333796  1
  Hf  Hf30  1  0.38651787  0.41292096  0.25377593  1
  Hf  Hf31  1  0.41011722  0.82155042  0.75056891  1
  Hf  Hf32  1  0.11805856  0.90281167  0.62104135  1
  Hf  Hf33  1  0.20644924  0.81042887  0.76225341  1
  Hf  Hf34  1  -0.00042185  0.80546073  0.75507094  1
  Hf  Hf35  1  0.30103404  0.69879134  0.12683762  1
  Hf  Hf36  1  0.48776222  0.49825368  0.11904269  1
  Hf  Hf37  1  0.79436180  0.62769215  0.01577703  1
  Hf  Hf38  1  0.61089878  0.59968325  0.49453420  1
  Hf  Hf39  1  0.40500547  0.61961448  0.51199815  1
  Zr  Zr40  1  -0.00671294  0.21239635  0.50203282  1
  Zr  Zr41  1  0.69330968  0.30884795  0.62671061  1
  Zr  Zr42  1  0.00213578  0.58873383  0.51013670  1
  Zr  Zr43  1  0.50300627  0.08653525  0.36953312  1
  Zr  Zr44  1  0.27749669  0.30489234  0.36568586  1
  Zr  Zr45  1  0.69489583  0.49194970  0.11191073  1
  Zr  Zr46  1  0.80675691  0.40068372  0.49547100  1
  Zr  Zr47  1  0.71071070  0.87660125  0.86315641  1
  Zr  Zr48  1  0.31251331  0.12200871  0.88386776  1
  Zr  Zr49  1  0.08824777  0.69926117  0.10944146  1
  Zr  Zr50  1  0.49450289  0.70999167  0.36266257  1
  Zr  Zr51  1  0.11284718  0.69117928  0.37146853  1
  Zr  Zr52  1  0.09818051  0.48270680  0.37109532  1
  Zr  Zr53  1  0.80491804  0.60841554  0.49075009  1
  Zr  Zr54  1  0.69617938  0.08861083  0.86031492  1
  Zr  Zr55  1  0.09252797  0.50158396  0.86605192  1
  Zr  Zr56  1  0.40082072  0.38944519  0.49151394  1
  Zr  Zr57  1  0.89449540  0.10476034  0.36766621  1
  Zr  Zr58  1  -0.02878938  0.19123389  0.75609359  1
  Zr  Zr59  1  0.69667190  0.50622360  0.89703634  1
  Zr  Zr60  1  0.09470720  0.30141773  0.86548649  1
  Zr  Zr61  1  0.10661642  0.09652087  0.88014204  1
  Zr  Zr62  1  0.39511727  0.60744715  -0.00313748  1
  Zr  Zr63  1  0.58678037  0.37709274  0.25327669  1
  Zr  Zr64  1  -0.00768130  0.01135807  0.00172407  1
  Zr  Zr65  1  0.90477309  0.49946114  0.11073550  1
  Zr  Zr66  1  0.90487219  0.89440707  0.62190119  1
  Zr  Zr67  1  0.49714990  0.49381261  0.88149298  1
  Zr  Zr68  1  0.30297740  0.28022039  0.62576230  1
  Zr  Zr69  1  0.29941999  0.50647974  0.64147496  1
  Zr  Zr70  1  0.09756357  0.11808823  0.12771177  1
  Zr  Zr71  1  0.20387857  0.60596898  0.50914074  1
  Zr  Zr72  1  0.48380039  0.27783699  0.88318633  1
  Zr  Zr73  1  0.90430303  0.70555096  0.35919666  1
  Zr  Zr74  1  0.51026813  0.89333067  0.89323213  1
  Zr  Zr75  1  0.58920944  0.80109274  0.50913230  1
  Zr  Zr76  1  0.50882471  0.48759956  0.62431941  1
  Zr  Zr77  1  0.70846212  0.90993036  0.63049176  1
  Zr  Zr78  1  0.69456237  0.10627265  0.63242707  1
  Zr  Zr79  1  0.37500886  0.39123721  -0.00508485  1
  Ta  Ta80  1  0.31719736  0.89429919  0.37334426  1
  Ta  Ta81  1  0.29356483  0.51650069  0.37155806  1
  Ta  Ta82  1  0.32230664  0.91768287  0.61753952  1
  Ta  Ta83  1  0.59580329  0.38015416  0.00183720  1
  Ta  Ta84  1  0.22362278  0.00481207  0.75231728  1
  Ta  Ta85  1  0.09946511  0.49681328  0.11823920  1
  Ta  Ta86  1  0.01158240  0.80216131  0.25113177  1
  Ta  Ta87  1  0.69983829  0.29231030  0.37414743  1
  Ta  Ta88  1  0.62880745  -0.00714106  0.00680057  1
  Ta  Ta89  1  0.21295305  0.79426834  -0.00783674  1
  Ta  Ta90  1  0.69494870  0.28878526  0.87538903  1
  Ta  Ta91  1  0.18387277  0.39845049  -0.00387452  1
  Ta  Ta92  1  0.79956525  0.82222516  0.47733766  1
  Ta  Ta93  1  0.10934979  0.69971338  0.63648695  1
  Ta  Ta94  1  0.39812524  0.38196853  0.75705657  1
  Ta  Ta95  1  0.28929633  0.50181258  0.85811798  1
  Ta  Ta96  1  0.29872262  0.09519951  0.35851924  1
  Ta  Ta97  1  0.89596316  0.70983679  0.88687517  1
  Ta  Ta98  1  0.00239140  0.59827954  0.24002492  1
  Ta  Ta99  1  0.79222344  0.19718335  0.49527008  1
  Ta  Ta100  1  0.51606093  0.89411060  0.12242637  1
  Ta  Ta101  1  0.30611717  0.70386527  0.36439142  1
  Ta  Ta102  1  0.31407098  0.89739614  0.10629152  1
  Ta  Ta103  1  0.71373177  0.90490966  0.13693891  1
  Ta  Ta104  1  0.88909460  0.28996879  0.13317830  1
  Ta  Ta105  1  0.30774293  0.70695494  0.87413594  1
  Ta  Ta106  1  0.80428702  0.37142448  -0.00271579  1
  Ta  Ta107  1  0.91079602  0.90516179  0.88325388  1
  Ta  Ta108  1  0.09915179  0.70269959  0.88475379  1
  Ta  Ta109  1  0.28491977  0.50126537  0.12711178  1
  Ta  Ta110  1  0.87986131  0.09697857  0.13239940  1
  Ta  Ta111  1  0.60775841  0.40300609  0.48093709  1
  Ta  Ta112  1  0.69752636  0.71439877  0.35673487  1
  Ta  Ta113  1  0.58221205  0.20055359  0.74865183  1
  Ta  Ta114  1  0.59801211  0.39361781  0.76121507  1
  Ta  Ta115  1  0.09614329  0.50184092  0.64556882  1
  Ta  Ta116  1  0.30736441  0.91312912  0.89650566  1
  Ta  Ta117  1  0.19987741  0.59305300  -0.00799587  1
  Ta  Ta118  1  0.69061822  0.27506980  0.12009885  1
  Ta  Ta119  1  0.10789111  0.89493819  0.37452645  1
  Ti  Ti120  1  0.20544120  0.80045366  0.24593904  1
  Ti  Ti121  1  0.50127235  0.08740115  0.86680145  1
  Ti  Ti122  1  0.49680678  0.29478559  0.62835170  1
  Ti  Ti123  1  0.08768747  0.30813442  0.13080653  1
  Ti  Ti124  1  0.78096402  0.19151462  0.25020345  1
  Ti  Ti125  1  0.08318616  0.29190571  0.35336189  1
  Ti  Ti126  1  0.60284450  -0.00386340  0.50127164  1
  Ti  Ti127  1  0.70062847  0.09058582  0.38014778  1
  Ti  Ti128  1  0.50996466  0.89600692  0.36817965  1
  Ti  Ti129  1  0.62061836  0.78258486  0.01777881  1
  Ti  Ti130  1  0.02120524  -0.00390755  0.75905898  1
  Ti  Ti131  1  -0.00142457  0.39584177  0.51861154  1
  Ti  Ti132  1  0.88888656  0.09710884  0.61230879  1
  Ti  Ti133  1  0.20303470  0.20080986  0.74853391  1
  Ti  Ti134  1  0.79108943  0.17827463  -0.00505772  1
  Ti  Ti135  1  0.19908555  0.59606481  0.24522694  1
  Ti  Ti136  1  0.89568403  0.29828120  0.36197898  1
  Ti  Ti137  1  0.40338734  0.80298766  0.23819749  1
  Ti  Ti138  1  0.80149533  0.61105634  0.23647914  1
  Ti  Ti139  1  0.49031444  0.29340123  0.11638042  1
  Ti  Ti140  1  0.80177704  0.81549182  0.00612120  1
  Ti  Ti141  1  0.20618828  0.21113618  -0.00111784  1
  Ti  Ti142  1  0.19750485  0.39488850  0.74229708  1
  Ti  Ti143  1  0.88848659  0.29335097  0.62947364  1
  Ti  Ti144  1  0.11020668  0.90127467  0.89290345  1
  Ti  Ti145  1  0.30560763  0.71940940  0.63390095  1
  Ti  Ti146  1  0.90258772  0.50011931  0.89932800  1
  Ti  Ti147  1  0.10290495  0.10622720  0.35927782  1
  Ti  Ti148  1  0.59437007  0.18332822  -0.00458976  1
  Ti  Ti149  1  0.21622722  0.79958513  0.49931684  1
  Ti  Ti150  1  0.60575828  0.58913516  0.74491193  1
  Ti  Ti151  1  0.40806979  -0.01013358  0.24020925  1
  Ti  Ti152  1  0.50599844  0.70120047  0.12657083  1
  Ti  Ti153  1  0.89232423  0.50603551  0.63020270  1
  Ti  Ti154  1  -0.00745878  0.39958543  0.24060980  1
  Ti  Ti155  1  0.38490113  0.18228556  0.48504904  1
  Ti  Ti156  1  0.70352896  0.49893268  0.62606255  1
  Ti  Ti157  1  0.61974366  -0.00359031  0.25254562  1
  Ti  Ti158  1  -0.00846541  0.39394963  0.74201573  1
  Ti  Ti159  1  0.57854065  -0.01474418  0.74101761  1
  Mo  Mo160  1  0.69986369  0.50495611  0.36549486  1
  Mo  Mo161  1  0.70173510  0.71759652  0.14604245  1
  Mo  Mo162  1  0.80332605  0.81564291  0.26517353  1
  Mo  Mo163  1  0.70650136  0.09629422  0.12563330  1
  Mo  Mo164  1  0.59823385  0.80717570  0.24265277  1
  Mo  Mo165  1  0.69214219  0.90785254  0.37418949  1
  Mo  Mo166  1  0.50350710  0.89971303  0.62118578  1
  Mo  Mo167  1  -0.01347841  0.20671459  0.24313666  1
  Mo  Mo168  1  0.79441147  0.00582529  0.49582275  1
  Mo  Mo169  1  0.41148703  0.80189644  0.00844885  1
  Mo  Mo170  1  0.49340192  0.29742079  0.38398982  1
  Mo  Mo171  1  0.39060916  0.60672916  0.24363439  1
  Mo  Mo172  1  -0.00124265  0.79888015  -0.00765983  1
  Mo  Mo173  1  0.80062845  -0.00265626  0.25564407  1
  Mo  Mo174  1  0.20188662  0.61414910  0.75546135  1
  Mo  Mo175  1  0.39355324  0.19139597  0.74689290  1
  Mo  Mo176  1  0.40390749  0.20334944  0.01360139  1
  Mo  Mo177  1  0.28654389  0.30791112  0.86845500  1
  Mo  Mo178  1  0.89892842  0.70796213  0.13980964  1
  Mo  Mo179  1  -0.00426122  0.39900480  0.00492199  1
  Mo  Mo180  1  0.18138926  0.40923621  0.24615418  1
  Mo  Mo181  1  0.09199213  0.30426789  0.64193449  1
  Mo  Mo182  1  0.39791476  0.00031166  0.75978284  1
  Mo  Mo183  1  0.60030377  0.59777384  0.02133826  1
  Mo  Mo184  1  0.21041792  0.00306581  0.00277251  1
  Mo  Mo185  1  0.18936063  0.19685940  0.25370362  1
  Mo  Mo186  1  0.78589620  0.20826528  0.75142685  1
  Mo  Mo187  1  0.88628050  0.30652435  0.87396045  1
  Mo  Mo188  1  0.40766191  -0.00738149  0.48704963  1
  Mo  Mo189  1  0.90622930  0.90230977  0.37012753  1
  Mo  Mo190  1  0.80152855  -0.00275005  -0.00394906  1
  Mo  Mo191  1  0.70117526  0.70017392  0.88248097  1
  Mo  Mo192  1  -0.00119738  0.60268982  -0.00653668  1
  Mo  Mo193  1  0.89520755  0.10235504  0.87798016  1
  Mo  Mo194  1  0.28855495  0.09430421  0.62165195  1
  Mo  Mo195  1  0.39269343  0.80651705  0.50112313  1
  Mo  Mo196  1  0.81661702  0.79574041  0.75471049  1
  Mo  Mo197  1  0.50399216  0.69294314  0.62890154  1
  Mo  Mo198  1  0.91522617  0.69697795  0.62721346  1
  Mo  Mo199  1  0.60759122  0.19565759  0.25986587  1
