# generated using pymatgen
data_HfZrTaTiMo
_symmetry_space_group_name_H-M   'P 1'
_cell_length_a   15.21942542
_cell_length_b   15.21076373
_cell_length_c   16.80903576
_cell_angle_alpha   90.05650565
_cell_angle_beta   89.90356365
_cell_angle_gamma   89.98268443
_symmetry_Int_Tables_number   1
_chemical_formula_structural   HfZrTaTiMo
_chemical_formula_sum   'Hf40 Zr40 Ta40 Ti40 Mo40'
_cell_volume   3891.26880236
_cell_formula_units_Z   40
loop_
 _symmetry_equiv_pos_site_id
 _symmetry_equiv_pos_as_xyz
  1  'x, y, z'
loop_
 _atom_site_type_symbol
 _atom_site_label
 _atom_site_symmetry_multiplicity
 _atom_site_fract_x
 _atom_site_fract_y
 _atom_site_fract_z
 _atom_site_occupancy
  Hf  Hf0  1  0.38225399  0.21050208  0.48137194  1
  Hf  Hf1  1  0.29709204  0.50147620  0.13139226  1
  Hf  Hf2  1  0.40186268  0.81451256  0.52116480  1
  Hf  Hf3  1  0.12145508  0.88995914  0.13007673  1
  Hf  Hf4  1  0.23491291  0.60698842  -0.00837528  1
  Hf  Hf5  1  0.68710161  0.30426822  0.13738602  1
  Hf  Hf6  1  0.00500078  0.58785377  0.22709294  1
  Hf  Hf7  1  0.80613260  0.79700983  0.75114496  1
  Hf  Hf8  1  0.90292187  0.48936545  0.88633148  1
  Hf  Hf9  1  0.01634946  0.59676429  0.75123241  1
  Hf  Hf10  1  0.79977542  0.59154616  0.75927513  1
  Hf  Hf11  1  0.60082753  0.60404030  0.25705269  1
  Hf  Hf12  1  0.39559914  0.79148730  0.73432259  1
  Hf  Hf13  1  0.59711542  -0.00556075  0.76080813  1
  Hf  Hf14  1  0.51031056  0.90717269  0.37144816  1
  Hf  Hf15  1  -0.00692285  0.39680029  0.25866528  1
  Hf  Hf16  1  0.29426123  0.51446110  0.37774946  1
  Hf  Hf17  1  0.80172633  0.59494472  0.23680321  1
  Hf  Hf18  1  0.90532656  0.88011575  0.35976455  1
  Hf  Hf19  1  0.48198757  0.29922183  0.62872722  1
  Hf  Hf20  1  0.21978890  0.60717375  0.76348829  1
  Hf  Hf21  1  0.00245279  -0.01024955  0.48628647  1
  Hf  Hf22  1  0.19330471  0.40925959  0.74958205  1
  Hf  Hf23  1  0.60307289  0.19956716  0.74741517  1
  Hf  Hf24  1  0.59302385  0.40106532  0.49390835  1
  Hf  Hf25  1  0.09397499  0.12418482  0.61689749  1
  Hf  Hf26  1  0.48695480  0.90147247  0.11993294  1
  Hf  Hf27  1  0.00725422  0.77844041  0.22909865  1
  Hf  Hf28  1  -0.01088332  0.20112145  0.01056758  1
  Hf  Hf29  1  0.10303308  0.50615439  0.89180084  1
  Hf  Hf30  1  0.18622353  0.19758872  0.76764637  1
  Hf  Hf31  1  0.91437892  0.69931730  0.88529317  1
  Hf  Hf32  1  0.70056003  0.11350490  0.11497261  1
  Hf  Hf33  1  -0.01237828  0.00089367  0.01604987  1
  Hf  Hf34  1  0.19823022  -0.00225939  0.75934885  1
  Hf  Hf35  1  0.80919375  0.19162331  0.74715649  1
  Hf  Hf36  1  0.30696555  0.71606708  0.13175591  1
  Hf  Hf37  1  0.08810625  0.30445781  0.88497115  1
  Hf  Hf38  1  -0.00527903  0.19738760  0.25786791  1
  Hf  Hf39  1  -0.00573157  0.01646492  0.76388820  1
  Zr  Zr40  1  -0.00271961  0.37509940  0.48481087  1
  Zr  Zr41  1  0.79486771  -0.02198655  0.50333828  1
  Zr  Zr42  1  0.41815968  0.01065272  0.50238035  1
  Zr  Zr43  1  0.70157028  0.50723553  0.61315965  1
  Zr  Zr44  1  0.70304698  0.30145364  0.61508028  1
  Zr  Zr45  1  0.59652375  0.41590527  0.74294417  1
  Zr  Zr46  1  0.11491193  0.10656476  0.12893884  1
  Zr  Zr47  1  0.79162938  0.37948563  -0.00050989  1
  Zr  Zr48  1  0.91418849  0.69591759  0.62919709  1
  Zr  Zr49  1  0.50311940  0.51353806  0.12420876  1
  Zr  Zr50  1  0.49739727  0.31052153  0.86055574  1
  Zr  Zr51  1  0.80817853  0.20300185  0.48638043  1
  Zr  Zr52  1  0.58604197  0.77774890  0.00311249  1
  Zr  Zr53  1  0.10309096  0.31834631  0.11906344  1
  Zr  Zr54  1  0.29516931  0.50988648  0.61554081  1
  Zr  Zr55  1  0.08157339  0.89738491  0.63222567  1
  Zr  Zr56  1  0.48754900  0.89264513  0.87343206  1
  Zr  Zr57  1  0.41133706  0.20399884  -0.00054484  1
  Zr  Zr58  1  0.19474677  0.40387636  0.50075061  1
  Zr  Zr59  1  0.91843728  0.29053546  0.62651835  1
  Zr  Zr60  1  0.58193497  0.01510163  -0.00768918  1
  Zr  Zr61  1  0.19611195  0.61841974  0.24686301  1
  Zr  Zr62  1  0.21072202  -0.00332435  0.49995699  1
  Zr  Zr63  1  0.79201064  -0.00905642  0.74596546  1
  Zr  Zr64  1  0.90108571  0.67388401  0.37667484  1
  Zr  Zr65  1  0.20898090  0.21518788  0.26326368  1
  Zr  Zr66  1  0.69643570  0.90188270  0.10830343  1
  Zr  Zr67  1  0.10453479  0.70387250  0.38958171  1
  Zr  Zr68  1  0.90331502  0.08708680  0.61392388  1
  Zr  Zr69  1  0.68965591  0.09119385  0.37491895  1
  Zr  Zr70  1  0.71461959  0.10572680  0.89329042  1
  Zr  Zr71  1  0.00430411  -0.00874813  0.24474775  1
  Zr  Zr72  1  0.89004338  0.90352722  0.88899916  1
  Zr  Zr73  1  0.80561748  0.78661701  0.50720153  1
  Zr  Zr74  1  0.29941707  0.11074784  0.62982506  1
  Zr  Zr75  1  0.70363867  0.89290785  0.36230848  1
  Zr  Zr76  1  0.19548745  -0.00000741  -0.01494563  1
  Zr  Zr77  1  0.90246706  0.48121545  0.10807865  1
  Zr  Zr78  1  0.39501557  0.40181564  0.25611956  1
  Zr  Zr79  1  0.68447235  0.08964792  0.61087330  1
  Ta  Ta80  1  0.60091843  0.60782844  0.75569290  1
  Ta  Ta81  1  0.21157125  0.39800633  -0.00736525  1
  Ta  Ta82  1  0.18711225  0.21159739  0.48196277  1
  Ta  Ta83  1  0.21615325  0.00413785  0.25897690  1
  Ta  Ta84  1  0.10447650  0.09468357  0.37323510  1
  Ta  Ta85  1  0.59646226  0.00463361  0.23778399  1
  Ta  Ta86  1  0.38348334  0.79322449  -0.00501815  1
  Ta  Ta87  1  0.40081568  0.61269207  0.49734616  1
  Ta  Ta88  1  0.11458623  0.71110906  0.88917718  1
  Ta  Ta89  1  0.69896535  0.89134348  0.89360609  1
  Ta  Ta90  1  0.70775204  0.51063614  0.38311739  1
  Ta  Ta91  1  0.39995356  0.19819381  0.25894723  1
  Ta  Ta92  1  0.00650071  0.79727834  0.01822975  1
  Ta  Ta93  1  0.30472564  0.71897005  0.38166101  1
  Ta  Ta94  1  0.08771431  0.89061882  0.87418876  1
  Ta  Ta95  1  0.69935825  0.70398824  0.37403433  1
  Ta  Ta96  1  0.89321786  0.28552433  0.87223601  1
  Ta  Ta97  1  0.79976790  0.79018901  0.22798511  1
  Ta  Ta98  1  0.69161153  0.30254360  0.37308432  1
  Ta  Ta99  1  0.80307325  -0.00163702  0.23246107  1
  Ta  Ta100  1  0.21127826  0.19701647  -0.01640387  1
  Ta  Ta101  1  0.79508688  0.40015027  0.26152212  1
  Ta  Ta102  1  0.58869158  0.39538648  -0.00060237  1
  Ta  Ta103  1  0.69030876  0.50034459  0.88341608  1
  Ta  Ta104  1  0.69982329  0.69747395  0.62807117  1
  Ta  Ta105  1  0.11638624  0.68290812  0.61595618  1
  Ta  Ta106  1  0.08937687  0.50729750  0.37701803  1
  Ta  Ta107  1  0.90149680  0.49095842  0.62524041  1
  Ta  Ta108  1  0.39548635  0.40925750  0.00105372  1
  Ta  Ta109  1  0.40446940  0.01175927  0.25514981  1
  Ta  Ta110  1  0.38419613  0.00281569  -0.00980062  1
  Ta  Ta111  1  0.58004979  0.19333431  0.49163823  1
  Ta  Ta112  1  0.19433681  0.79496192  0.74095290  1
  Ta  Ta113  1  0.41201870  0.58779310  0.74649159  1
  Ta  Ta114  1  0.60347122  0.81494889  0.51393084  1
  Ta  Ta115  1  0.60544478  0.79725840  0.75075799  1
  Ta  Ta116  1  0.40743219  0.61901409  0.26314069  1
  Ta  Ta117  1  0.30756118  0.30366573  0.86429688  1
  Ta  Ta118  1  0.50914229  0.69415318  0.62373030  1
  Ta  Ta119  1  0.59600148  0.79432205  0.23778150  1
  Ti  Ti120  1  0.48328828  0.10947727  0.86360877  1
  Ti  Ti121  1  0.59936089  0.40858856  0.26167366  1
  Ti  Ti122  1  0.68933628  0.68737420  0.11700698  1
  Ti  Ti123  1  0.79980304  0.39678237  0.75427461  1
  Ti  Ti124  1  -0.00085199  0.39204513  0.74691783  1
  Ti  Ti125  1  0.30268049  0.29536474  0.12083630  1
  Ti  Ti126  1  0.39278974  -0.00331893  0.74576469  1
  Ti  Ti127  1  0.30575349  0.90392062  0.37503230  1
  Ti  Ti128  1  0.79467950  0.19643028  0.26136910  1
  Ti  Ti129  1  0.89600232  0.08734101  0.37054384  1
  Ti  Ti130  1  0.00068755  0.57966969  0.50790765  1
  Ti  Ti131  1  0.30324847  0.91213768  0.12672804  1
  Ti  Ti132  1  0.58858221  0.19815292  0.25811715  1
  Ti  Ti133  1  0.70110408  0.69864850  0.88326489  1
  Ti  Ti134  1  0.49677579  0.30281060  0.13074374  1
  Ti  Ti135  1  0.28864264  0.29975436  0.63396396  1
  Ti  Ti136  1  0.69579044  0.30092336  0.87429627  1
  Ti  Ti137  1  0.50111386  0.51320928  0.38121154  1
  Ti  Ti138  1  0.79454253  0.60078520  0.00214797  1
  Ti  Ti139  1  0.69501511  0.49542609  0.11844865  1
  Ti  Ti140  1  0.88403296  0.28552842  0.13461642  1
  Ti  Ti141  1  0.30711176  0.10240602  0.12408075  1
  Ti  Ti142  1  0.49413665  0.10085149  0.63438163  1
  Ti  Ti143  1  0.49671511  0.50405834  0.61621287  1
  Ti  Ti144  1  0.18924621  0.41291376  0.25574598  1
  Ti  Ti145  1  0.20890827  0.79958395  0.51837898  1
  Ti  Ti146  1  0.49286574  0.50479557  0.88098159  1
  Ti  Ti147  1  0.49592062  0.30499384  0.37028279  1
  Ti  Ti148  1  0.11601902  0.88937090  0.36666447  1
  Ti  Ti149  1  0.29011665  0.88310572  0.86968956  1
  Ti  Ti150  1  0.00347215  0.79631917  0.50388511  1
  Ti  Ti151  1  0.49646324  0.10940259  0.12529829  1
  Ti  Ti152  1  0.60472890  0.61354316  0.49464276  1
  Ti  Ti153  1  0.40132479  0.81021018  0.25426966  1
  Ti  Ti154  1  0.50425432  0.71426205  0.38366226  1
  Ti  Ti155  1  0.01116933  0.60098348  0.01682836  1
  Ti  Ti156  1  0.80692691  0.40673919  0.48316221  1
  Ti  Ti157  1  0.49541009  0.69004834  0.87277305  1
  Ti  Ti158  1  0.80878430  0.79564927  0.01536614  1
  Ti  Ti159  1  0.39660612  0.40507468  0.49106089  1
  Mo  Mo160  1  0.29616813  0.90279204  0.63500861  1
  Mo  Mo161  1  0.31853259  0.49285250  0.87307548  1
  Mo  Mo162  1  0.30718713  0.09621478  0.86732123  1
  Mo  Mo163  1  0.20477628  0.80679049  -0.00512496  1
  Mo  Mo164  1  0.39039503  0.40815510  0.74241502  1
  Mo  Mo165  1  0.49653005  0.70554980  0.13192793  1
  Mo  Mo166  1  0.08561249  0.49558894  0.62434850  1
  Mo  Mo167  1  0.11205021  0.49604941  0.10934053  1
  Mo  Mo168  1  0.19752415  0.60667947  0.49465567  1
  Mo  Mo169  1  0.60384500  0.59203219  -0.00669053  1
  Mo  Mo170  1  0.59447230  -0.00282820  0.50457611  1
  Mo  Mo171  1  0.90025131  0.89393206  0.12951136  1
  Mo  Mo172  1  0.41763350  0.60580518  -0.00008989  1
  Mo  Mo173  1  0.89395968  0.69154298  0.10971524  1
  Mo  Mo174  1  0.50285832  0.10702178  0.36761655  1
  Mo  Mo175  1  0.11327308  0.69536738  0.10618723  1
  Mo  Mo176  1  0.90513591  0.89178829  0.62848091  1
  Mo  Mo177  1  0.89329822  0.10384426  0.13852657  1
  Mo  Mo178  1  0.80209258  -0.00077626  0.01573290  1
  Mo  Mo179  1  0.30039407  0.09719102  0.37424270  1
  Mo  Mo180  1  0.90490892  0.10422002  0.88298420  1
  Mo  Mo181  1  -0.00074823  0.20530472  0.75781649  1
  Mo  Mo182  1  0.50849405  0.90660361  0.63928105  1
  Mo  Mo183  1  0.69404429  0.88641375  0.63163973  1
  Mo  Mo184  1  0.09280388  0.10024964  0.88857414  1
  Mo  Mo185  1  0.59841233  0.21922287  -0.00098155  1
  Mo  Mo186  1  0.00014050  0.39884734  -0.00174560  1
  Mo  Mo187  1  0.80036896  0.19915230  0.00466553  1
  Mo  Mo188  1  0.29854314  0.31236607  0.37277680  1
  Mo  Mo189  1  0.01114897  0.79518627  0.75804532  1
  Mo  Mo190  1  0.21260841  0.81237099  0.25748959  1
  Mo  Mo191  1  0.10675950  0.30076734  0.62737413  1
  Mo  Mo192  1  0.30378062  0.69822011  0.61912856  1
  Mo  Mo193  1  0.88537662  0.29129082  0.36466608  1
  Mo  Mo194  1  0.09930530  0.30366008  0.36483209  1
  Mo  Mo195  1  0.80076291  0.59185621  0.50387389  1
  Mo  Mo196  1  0.00394705  0.18804905  0.47442417  1
  Mo  Mo197  1  0.31563117  0.70284023  0.86964100  1
  Mo  Mo198  1  0.89742227  0.49846195  0.37457750  1
  Mo  Mo199  1  0.39143670  0.19790339  0.74942655  1
