# generated using pymatgen
data_HfZrTaTiMo
_symmetry_space_group_name_H-M   'P 1'
_cell_length_a   15.20708404
_cell_length_b   15.21066082
_cell_length_c   16.85310566
_cell_angle_alpha   89.95956806
_cell_angle_beta   89.92364770
_cell_angle_gamma   89.86753790
_symmetry_Int_Tables_number   1
_chemical_formula_structural   HfZrTaTiMo
_chemical_formula_sum   'Hf40 Zr40 Ta40 Ti40 Mo40'
_cell_volume   3898.27361479
_cell_formula_units_Z   40
loop_
 _symmetry_equiv_pos_site_id
 _symmetry_equiv_pos_as_xyz
  1  'x, y, z'
loop_
 _atom_site_type_symbol
 _atom_site_label
 _atom_site_symmetry_multiplicity
 _atom_site_fract_x
 _atom_site_fract_y
 _atom_site_fract_z
 _atom_site_occupancy
  Hf  Hf0  1  0.89015348  0.49978419  0.11924266  1
  Hf  Hf1  1  0.50780867  0.90064171  0.86964578  1
  Hf  Hf2  1  0.62229618  0.80701175  -0.00653573  1
  Hf  Hf3  1  0.20696328  0.19738071  0.74265756  1
  Hf  Hf4  1  0.70395372  0.10595083  0.37248946  1
  Hf  Hf5  1  0.52101585  0.09571315  0.60503344  1
  Hf  Hf6  1  0.39503900  0.39035842  0.25246202  1
  Hf  Hf7  1  0.48853072  0.29544393  0.86834572  1
  Hf  Hf8  1  0.59620434  0.60304443  -0.00664805  1
  Hf  Hf9  1  0.39561552  0.58878840  0.51599668  1
  Hf  Hf10  1  0.70403676  0.30725996  0.39144464  1
  Hf  Hf11  1  0.69766644  0.49813862  0.12448107  1
  Hf  Hf12  1  0.40819103  0.19528423  0.73136712  1
  Hf  Hf13  1  0.69728619  0.70126067  0.38355378  1
  Hf  Hf14  1  0.58507890  0.20285514  0.01231129  1
  Hf  Hf15  1  0.10936982  0.69978972  0.36477007  1
  Hf  Hf16  1  0.39030025  0.38154243  -0.00376086  1
  Hf  Hf17  1  0.29737679  0.10627806  0.13471978  1
  Hf  Hf18  1  0.10221494  0.89785420  0.38005049  1
  Hf  Hf19  1  0.69766684  0.49978737  0.38397437  1
  Hf  Hf20  1  0.78450614  0.41117802  0.73874911  1
  Hf  Hf21  1  0.59919236  0.40126521  -0.00673137  1
  Hf  Hf22  1  0.40990272  -0.02266970  0.49194328  1
  Hf  Hf23  1  0.89612338  0.10212935  0.88030991  1
  Hf  Hf24  1  0.70806354  0.69912241  0.62803071  1
  Hf  Hf25  1  0.58404208  0.60834527  0.24240821  1
  Hf  Hf26  1  0.80266115  0.21303743  0.01116380  1
  Hf  Hf27  1  0.01422056  0.59401815  0.50422005  1
  Hf  Hf28  1  0.18673259  0.41919526  0.50379109  1
  Hf  Hf29  1  0.41235052  0.79104820  0.00267580  1
  Hf  Hf30  1  0.29225357  0.49430002  0.37541925  1
  Hf  Hf31  1  0.90649326  0.90238460  0.37598565  1
  Hf  Hf32  1  0.48832969  0.70047775  0.63817762  1
  Hf  Hf33  1  0.51356466  0.91127528  0.13331906  1
  Hf  Hf34  1  0.09737929  0.90321113  0.61530109  1
  Hf  Hf35  1  0.10720722  0.10090066  0.87931571  1
  Hf  Hf36  1  0.79862692  0.00325795  0.74811620  1
  Hf  Hf37  1  0.39637121  0.00008740  0.74598636  1
  Hf  Hf38  1  0.50921376  0.10485326  0.86950458  1
  Hf  Hf39  1  -0.01081664  0.39230777  0.00784523  1
  Zr  Zr40  1  0.39066647  0.39332951  0.74313923  1
  Zr  Zr41  1  0.69597196  0.09797266  0.13807595  1
  Zr  Zr42  1  -0.00557346  0.60874460  0.00048072  1
  Zr  Zr43  1  0.73001354  0.89789143  0.12994260  1
  Zr  Zr44  1  0.29697083  0.87302405  0.62264787  1
  Zr  Zr45  1  0.90048977  0.30397264  0.86949207  1
  Zr  Zr46  1  0.30720571  0.87970409  0.37213159  1
  Zr  Zr47  1  0.00557004  -0.00970860  0.75195813  1
  Zr  Zr48  1  0.59010577  0.39436226  0.73354002  1
  Zr  Zr49  1  0.48705514  0.71361748  0.38746746  1
  Zr  Zr50  1  0.72405158  0.69209294  0.87283769  1
  Zr  Zr51  1  0.90210415  0.09370254  0.12082345  1
  Zr  Zr52  1  0.29997777  0.89833083  0.12744842  1
  Zr  Zr53  1  0.61362281  0.79890488  0.24283841  1
  Zr  Zr54  1  0.79745885  0.60159831  0.25776540  1
  Zr  Zr55  1  0.07955455  0.49584492  0.86825554  1
  Zr  Zr56  1  0.61999788  0.80450744  0.75750889  1
  Zr  Zr57  1  0.29474238  0.30154961  0.60563674  1
  Zr  Zr58  1  0.20058623  0.00427836  0.25385471  1
  Zr  Zr59  1  0.29369929  0.90286442  0.87587558  1
  Zr  Zr60  1  0.39653636  0.58673026  -0.01555046  1
  Zr  Zr61  1  0.49562100  0.30492366  0.39693749  1
  Zr  Zr62  1  0.90281889  0.30742345  0.61493002  1
  Zr  Zr63  1  0.48920212  0.11072057  0.14605086  1
  Zr  Zr64  1  0.29763943  0.29523712  0.13067117  1
  Zr  Zr65  1  0.11492495  0.69645501  0.64312675  1
  Zr  Zr66  1  0.30020567  0.68771574  0.11955575  1
  Zr  Zr67  1  0.00642959  0.19969964  0.74516931  1
  Zr  Zr68  1  0.48644133  0.49453003  0.12623848  1
  Zr  Zr69  1  0.10062257  0.70584187  0.12688430  1
  Zr  Zr70  1  0.69617295  0.90519055  0.37601638  1
  Zr  Zr71  1  0.19050336  -0.00169333  0.00634963  1
  Zr  Zr72  1  0.70105609  0.29203289  0.86866700  1
  Zr  Zr73  1  0.49735766  0.50747892  0.37834681  1
  Zr  Zr74  1  0.00690733  0.58998271  0.24091395  1
  Zr  Zr75  1  0.40600166  0.01277977  -0.00118872  1
  Zr  Zr76  1  0.27813129  0.51365238  0.64381130  1
  Zr  Zr77  1  0.80171027  0.79870150  0.50153454  1
  Zr  Zr78  1  0.49998667  0.89383243  0.63339694  1
  Zr  Zr79  1  0.09149253  0.31129788  0.37977911  1
  Ta  Ta80  1  0.91090098  0.70313483  0.62789356  1
  Ta  Ta81  1  0.61067239  0.00817989  0.74949849  1
  Ta  Ta82  1  -0.01011593  0.38875038  0.24049162  1
  Ta  Ta83  1  0.89265298  0.50896007  0.62204048  1
  Ta  Ta84  1  0.19435469  0.59617639  -0.01660817  1
  Ta  Ta85  1  0.30042547  0.09617591  0.37994203  1
  Ta  Ta86  1  0.18852318  0.39744244  -0.00664106  1
  Ta  Ta87  1  0.60966666  0.58274653  0.74925419  1
  Ta  Ta88  1  0.80851820  0.59574606  0.49779441  1
  Ta  Ta89  1  0.10136504  0.10872087  0.12728172  1
  Ta  Ta90  1  0.90556235  0.10012331  0.62304485  1
  Ta  Ta91  1  0.81421983  0.00538577  0.25830787  1
  Ta  Ta92  1  0.69940211  0.28960218  0.60421576  1
  Ta  Ta93  1  0.81043136  0.21116349  0.25222513  1
  Ta  Ta94  1  0.89403945  0.71392776  0.12857902  1
  Ta  Ta95  1  0.19978422  0.00643169  0.74296414  1
  Ta  Ta96  1  -0.01799073  0.60382706  0.75469014  1
  Ta  Ta97  1  0.29891475  0.08824104  0.60847845  1
  Ta  Ta98  1  0.00523460  0.81474116  -0.00153686  1
  Ta  Ta99  1  0.81267676  0.19031911  0.49754825  1
  Ta  Ta100  1  0.40888619  0.78896372  0.23534647  1
  Ta  Ta101  1  0.86722619  0.50918602  0.88231874  1
  Ta  Ta102  1  0.69862954  0.91365902  0.61531248  1
  Ta  Ta103  1  0.19209423  0.19399007  0.49296558  1
  Ta  Ta104  1  0.00790387  0.79335178  0.50141614  1
  Ta  Ta105  1  0.40468421  0.59105308  0.75872879  1
  Ta  Ta106  1  0.90499552  0.48442105  0.38312157  1
  Ta  Ta107  1  0.08726965  0.10375481  0.37731330  1
  Ta  Ta108  1  0.01254023  0.20216643  0.00389124  1
  Ta  Ta109  1  0.50022845  0.29658190  0.60120909  1
  Ta  Ta110  1  0.29503232  0.69794660  0.86187726  1
  Ta  Ta111  1  0.50779907  0.09497705  0.37481623  1
  Ta  Ta112  1  0.19965206  -0.00093358  0.49471530  1
  Ta  Ta113  1  0.70959603  0.69775020  0.11545091  1
  Ta  Ta114  1  0.50279224  0.69626082  0.86141789  1
  Ta  Ta115  1  0.29028718  0.48869250  0.86543599  1
  Ta  Ta116  1  0.61279486  0.00242975  -0.00468292  1
  Ta  Ta117  1  0.90986128  0.69675599  0.37272544  1
  Ta  Ta118  1  0.59755506  0.21732082  0.25543143  1
  Ta  Ta119  1  0.90017536  0.89962269  0.61812934  1
  Ti  Ti120  1  0.90426645  0.29335763  0.38846191  1
  Ti  Ti121  1  0.19693345  0.21066827  0.26793265  1
  Ti  Ti122  1  0.39332956  0.20045375  0.27352629  1
  Ti  Ti123  1  0.00688147  0.00120613  0.24893464  1
  Ti  Ti124  1  0.00177086  -0.00245639  0.00162133  1
  Ti  Ti125  1  0.60059443  0.60586102  0.51550824  1
  Ti  Ti126  1  0.81881424  0.80279754  0.74421562  1
  Ti  Ti127  1  0.59394712  0.41718188  0.51597423  1
  Ti  Ti128  1  -0.01354629  0.40156934  0.75095469  1
  Ti  Ti129  1  0.59919221  0.40040239  0.25152897  1
  Ti  Ti130  1  0.80230098  0.00536985  0.49944056  1
  Ti  Ti131  1  0.39417554  0.19220419  0.49216535  1
  Ti  Ti132  1  0.80155785  0.39424681  0.25446176  1
  Ti  Ti133  1  0.80389211  -0.01581862  -0.00737181  1
  Ti  Ti134  1  0.18918322  0.81191575  0.76161421  1
  Ti  Ti135  1  0.09542319  0.50584207  0.36951745  1
  Ti  Ti136  1  0.91907247  0.89488683  0.13588898  1
  Ti  Ti137  1  0.18067051  0.38571262  0.75742113  1
  Ti  Ti138  1  0.30930878  0.11621826  0.87647790  1
  Ti  Ti139  1  0.08375796  0.49376080  0.64213858  1
  Ti  Ti140  1  0.70373838  0.09938966  0.87787238  1
  Ti  Ti141  1  0.38797816  0.59725932  0.24398373  1
  Ti  Ti142  1  0.09402370  0.29707352  0.61359955  1
  Ti  Ti143  1  0.27739327  0.49641658  0.12210288  1
  Ti  Ti144  1  0.09467963  0.71165778  0.86774976  1
  Ti  Ti145  1  0.18693672  0.40914985  0.24729497  1
  Ti  Ti146  1  0.90747007  0.70444342  0.87371770  1
  Ti  Ti147  1  0.19791049  0.79800969  0.24144618  1
  Ti  Ti148  1  0.29949477  0.69198114  0.36640803  1
  Ti  Ti149  1  0.20719104  0.21020930  -0.00491145  1
  Ti  Ti150  1  -0.00255497  0.01519769  0.50002624  1
  Ti  Ti151  1  0.50486037  0.90707461  0.35331460  1
  Ti  Ti152  1  0.61907725  0.19442311  0.73438997  1
  Ti  Ti153  1  0.58441210  0.81151193  0.50304499  1
  Ti  Ti154  1  0.90323834  0.89215068  0.87448308  1
  Ti  Ti155  1  0.09957237  0.30197560  0.13000407  1
  Ti  Ti156  1  0.20967528  0.62742579  0.50536222  1
  Ti  Ti157  1  0.19432693  0.79740186  -0.00677795  1
  Ti  Ti158  1  0.70194455  0.30752663  0.13119524  1
  Ti  Ti159  1  -0.00288479  0.19832998  0.24761393  1
  Mo  Mo160  1  0.80053524  0.40381198  0.50292003  1
  Mo  Mo161  1  0.80087408  0.60317874  0.74336465  1
  Mo  Mo162  1  0.09510191  0.89830150  0.87609878  1
  Mo  Mo163  1  0.38525931  0.77656989  0.50230642  1
  Mo  Mo164  1  0.10139008  0.29728826  0.87798508  1
  Mo  Mo165  1  0.60678495  0.01260684  0.25310464  1
  Mo  Mo166  1  0.79606285  0.60652078  0.00427807  1
  Mo  Mo167  1  0.19871446  0.79350180  0.49787761  1
  Mo  Mo168  1  0.00301555  0.19646598  0.50361501  1
  Mo  Mo169  1  0.18993766  0.59653018  0.77503544  1
  Mo  Mo170  1  0.78985233  0.40374346  0.00188104  1
  Mo  Mo171  1  0.09306139  0.90597506  0.13077519  1
  Mo  Mo172  1  0.71426946  0.09987545  0.61643814  1
  Mo  Mo173  1  0.28609401  0.29400826  0.87135092  1
  Mo  Mo174  1  0.39197042  0.39963539  0.50875518  1
  Mo  Mo175  1  0.40238658  0.00164393  0.26495133  1
  Mo  Mo176  1  0.50422576  0.70410289  0.11935027  1
  Mo  Mo177  1  0.39413803  0.20007225  -0.00086508  1
  Mo  Mo178  1  0.60676131  -0.00674431  0.49380821  1
  Mo  Mo179  1  0.89819116  0.29708205  0.13284552  1
  Mo  Mo180  1  0.10749543  0.10080819  0.61440367  1
  Mo  Mo181  1  0.69347940  0.49723674  0.87368229  1
  Mo  Mo182  1  0.50588862  0.30136355  0.13714814  1
  Mo  Mo183  1  0.49850862  0.50069632  0.86892054  1
  Mo  Mo184  1  0.10632479  0.49263937  0.11822764  1
  Mo  Mo185  1  0.20516687  0.59006212  0.24789232  1
  Mo  Mo186  1  -0.00284034  0.40809125  0.50456241  1
  Mo  Mo187  1  -0.00154249  0.80405134  0.25277463  1
  Mo  Mo188  1  0.29202053  0.29562833  0.38703866  1
  Mo  Mo189  1  0.79322345  0.19528704  0.73544241  1
  Mo  Mo190  1  0.70105047  0.50258275  0.60986551  1
  Mo  Mo191  1  0.49923643  0.50041427  0.62459850  1
  Mo  Mo192  1  0.71543737  0.91217530  0.87588831  1
  Mo  Mo193  1  0.39800712  0.79416913  0.76419508  1
  Mo  Mo194  1  0.90548502  0.10365069  0.36984447  1
  Mo  Mo195  1  0.81796958  0.79814919  0.25624961  1
  Mo  Mo196  1  -0.00418028  0.80046711  0.75071616  1
  Mo  Mo197  1  0.60476664  0.19652909  0.49602887  1
  Mo  Mo198  1  0.82362767  0.79855514  -0.00177113  1
  Mo  Mo199  1  0.29577725  0.69852705  0.65518463  1
