# generated using pymatgen
data_HfZrTaTiMo
_symmetry_space_group_name_H-M   'P 1'
_cell_length_a   15.18513582
_cell_length_b   15.18326037
_cell_length_c   16.82572208
_cell_angle_alpha   89.94043136
_cell_angle_beta   89.91672803
_cell_angle_gamma   90.03772642
_symmetry_Int_Tables_number   1
_chemical_formula_structural   HfZrTaTiMo
_chemical_formula_sum   'Hf40 Zr40 Ta40 Ti40 Mo40'
_cell_volume   3879.32927318
_cell_formula_units_Z   40
loop_
 _symmetry_equiv_pos_site_id
 _symmetry_equiv_pos_as_xyz
  1  'x, y, z'
loop_
 _atom_site_type_symbol
 _atom_site_label
 _atom_site_symmetry_multiplicity
 _atom_site_fract_x
 _atom_site_fract_y
 _atom_site_fract_z
 _atom_site_occupancy
  Hf  Hf0  1  0.90162719  0.29652535  0.36550658  1
  Hf  Hf1  1  0.49591156  0.48567784  0.62331807  1
  Hf  Hf2  1  0.19213201  0.40777245  0.24771338  1
  Hf  Hf3  1  0.41392131  0.59864664  0.24042708  1
  Hf  Hf4  1  -0.02028242  0.39225853  0.00819697  1
  Hf  Hf5  1  0.59984933  0.19590677  0.76554925  1
  Hf  Hf6  1  0.41541947  0.19317543  0.01689639  1
  Hf  Hf7  1  0.90474924  0.09716434  0.87066067  1
  Hf  Hf8  1  0.79567300  0.00245098  0.74795246  1
  Hf  Hf9  1  -0.00585971  0.78714194  0.74224688  1
  Hf  Hf10  1  0.68095654  0.29679557  0.62338803  1
  Hf  Hf11  1  0.29282409  0.29427610  0.89550837  1
  Hf  Hf12  1  0.79923733  0.20444281  0.50267871  1
  Hf  Hf13  1  0.30306389  0.50524616  0.37135129  1
  Hf  Hf14  1  -0.01372731  0.78495180  0.50286952  1
  Hf  Hf15  1  0.60669918  0.60900069  0.75936700  1
  Hf  Hf16  1  0.89255740  0.69157730  0.11856008  1
  Hf  Hf17  1  0.19810438  0.60921696  0.00533555  1
  Hf  Hf18  1  0.30058707  0.71137461  0.35515070  1
  Hf  Hf19  1  0.19127368  0.59868775  0.76097328  1
  Hf  Hf20  1  0.71621897  0.30814622  0.87602665  1
  Hf  Hf21  1  0.88598890  0.70661198  0.36058642  1
  Hf  Hf22  1  -0.00999540  0.58783519  0.24988274  1
  Hf  Hf23  1  0.30878251  0.30136103  0.36924504  1
  Hf  Hf24  1  0.90669839  0.09792312  0.37022927  1
  Hf  Hf25  1  0.91986460  0.28917253  0.86533245  1
  Hf  Hf26  1  0.50208935  0.90392232  0.88765242  1
  Hf  Hf27  1  0.61171572  0.40273186  0.24592547  1
  Hf  Hf28  1  0.49915307  0.89839002  0.12742191  1
  Hf  Hf29  1  0.29509727  0.49168643  0.89107401  1
  Hf  Hf30  1  0.61653397  0.20649569  0.01847735  1
  Hf  Hf31  1  0.31106905  0.31444672  0.11324817  1
  Hf  Hf32  1  -0.00423864  0.58718920  0.75621429  1
  Hf  Hf33  1  0.60554893  -0.00754669  0.76024744  1
  Hf  Hf34  1  0.39198176  0.60945485  0.49869896  1
  Hf  Hf35  1  0.90338376  0.69179816  0.89487090  1
  Hf  Hf36  1  0.01091780  0.19073429  0.00904309  1
  Hf  Hf37  1  0.41744614  0.20267982  0.50276360  1
  Hf  Hf38  1  0.08923136  0.70727100  0.11924762  1
  Hf  Hf39  1  0.78362591  0.58011844  -0.00507076  1
  Zr  Zr40  1  0.30714696  0.30526970  0.62940260  1
  Zr  Zr41  1  0.69580061  0.50694014  0.62183294  1
  Zr  Zr42  1  0.00597982  0.39047142  0.74377189  1
  Zr  Zr43  1  0.29647811  0.90013740  0.35549508  1
  Zr  Zr44  1  0.19985013  0.39677540  0.49194219  1
  Zr  Zr45  1  0.59276055  0.01836290  0.48712348  1
  Zr  Zr46  1  0.09663373  0.68273996  0.61881761  1
  Zr  Zr47  1  0.21524564  0.19762431  0.23672928  1
  Zr  Zr48  1  0.29659858  0.09127342  0.62785067  1
  Zr  Zr49  1  0.80325719  0.60234799  0.75229254  1
  Zr  Zr50  1  0.00670976  -0.00055908  0.50839112  1
  Zr  Zr51  1  0.18915507  0.60166840  0.24594969  1
  Zr  Zr52  1  0.50314015  0.11368082  0.63366923  1
  Zr  Zr53  1  0.59499359  0.39950127  0.75901102  1
  Zr  Zr54  1  0.80844415  0.61282195  0.50178638  1
  Zr  Zr55  1  0.20639598  0.79742281  0.49296803  1
  Zr  Zr56  1  0.30838521  0.10620278  0.37498991  1
  Zr  Zr57  1  0.50277881  0.70088160  0.62221100  1
  Zr  Zr58  1  0.70587182  0.89262990  0.37481950  1
  Zr  Zr59  1  0.50001702  0.90286522  0.62301920  1
  Zr  Zr60  1  0.29167388  0.50996787  0.62429164  1
  Zr  Zr61  1  0.11355016  0.10192297  0.88104421  1
  Zr  Zr62  1  0.09784710  0.28318352  0.36873899  1
  Zr  Zr63  1  0.28521855  0.91824897  0.13038171  1
  Zr  Zr64  1  0.12209450  0.89237391  0.62946814  1
  Zr  Zr65  1  0.61182502  0.00134929  0.24738209  1
  Zr  Zr66  1  0.81341506  0.20459979  0.01694723  1
  Zr  Zr67  1  0.18704391  0.20306635  0.75100813  1
  Zr  Zr68  1  0.51136168  0.28055173  0.36114175  1
  Zr  Zr69  1  0.49954390  0.49907271  0.88760917  1
  Zr  Zr70  1  0.80154566  0.20524417  0.23271443  1
  Zr  Zr71  1  0.01066568  0.00552914  0.73626097  1
  Zr  Zr72  1  0.29451319  0.71067698  0.87424412  1
  Zr  Zr73  1  0.49571943  0.89630387  0.36510216  1
  Zr  Zr74  1  0.78164370  0.80199526  0.75869659  1
  Zr  Zr75  1  0.40162773  0.60225435  0.75244101  1
  Zr  Zr76  1  0.89865786  0.89670287  0.87493246  1
  Zr  Zr77  1  -0.00514978  0.40128868  0.49862251  1
  Zr  Zr78  1  0.39669292  0.80014138  0.00511297  1
  Zr  Zr79  1  0.30154353  0.71876713  0.14205117  1
  Ta  Ta80  1  0.18413239  0.81900750  -0.00135384  1
  Ta  Ta81  1  0.10355220  0.89335570  0.86541890  1
  Ta  Ta82  1  0.39128741  0.81785038  0.75404329  1
  Ta  Ta83  1  0.08850865  0.49339855  0.89478682  1
  Ta  Ta84  1  0.10058929  0.49338371  0.62110952  1
  Ta  Ta85  1  0.69878196  0.09723158  0.62313203  1
  Ta  Ta86  1  0.40254964  0.01872729  0.24054638  1
  Ta  Ta87  1  0.79952714  0.00112008  0.50096635  1
  Ta  Ta88  1  -0.00089119  -0.00993398  0.24999217  1
  Ta  Ta89  1  0.60489094  0.79712620  0.00970559  1
  Ta  Ta90  1  0.88340967  0.88698112  0.62052873  1
  Ta  Ta91  1  0.19291246  0.18853442  0.50302765  1
  Ta  Ta92  1  0.18482628  0.00998244  0.25721923  1
  Ta  Ta93  1  0.50279804  0.49528833  0.11711029  1
  Ta  Ta94  1  0.29725329  0.91532450  0.88396665  1
  Ta  Ta95  1  0.71026752  0.30939163  0.37317287  1
  Ta  Ta96  1  0.91249830  0.07924415  0.12915011  1
  Ta  Ta97  1  0.70693752  0.09431764  0.88754036  1
  Ta  Ta98  1  0.59631585  0.59107880  0.48399958  1
  Ta  Ta99  1  0.89640504  0.90027285  0.37441417  1
  Ta  Ta100  1  0.79292794  0.40497768  0.50160648  1
  Ta  Ta101  1  0.40250612  0.60336980  0.01286556  1
  Ta  Ta102  1  0.79439500  0.80567276  0.00893260  1
  Ta  Ta103  1  0.08556851  0.50008359  0.11123162  1
  Ta  Ta104  1  0.29399619  0.72080398  0.63546679  1
  Ta  Ta105  1  0.00792167  -0.01948409  -0.00001946  1
  Ta  Ta106  1  0.50009435  0.69811536  0.37289017  1
  Ta  Ta107  1  0.61716731  0.40724882  0.00788266  1
  Ta  Ta108  1  0.39288652  -0.00272789  0.49651337  1
  Ta  Ta109  1  0.69662610  0.11655423  0.36795787  1
  Ta  Ta110  1  0.89393598  0.10038267  0.62413705  1
  Ta  Ta111  1  0.88493201  0.49733690  0.36773011  1
  Ta  Ta112  1  0.09010210  0.89785167  0.37428780  1
  Ta  Ta113  1  0.59417178  0.39158438  0.48920017  1
  Ta  Ta114  1  0.10597509  0.30028869  0.11878483  1
  Ta  Ta115  1  0.60543093  0.59340861  0.25959387  1
  Ta  Ta116  1  0.11594726  0.08608333  0.11491959  1
  Ta  Ta117  1  0.00128404  0.19778269  0.51521472  1
  Ta  Ta118  1  0.87320536  0.48509556  0.13248143  1
  Ta  Ta119  1  0.70499183  0.71645593  0.61647306  1
  Ti  Ti120  1  0.50507614  0.10019931  0.88888050  1
  Ti  Ti121  1  0.69593336  0.69171400  0.12805230  1
  Ti  Ti122  1  0.69340670  0.70978732  0.88564634  1
  Ti  Ti123  1  0.20022192  -0.00010689  0.49295213  1
  Ti  Ti124  1  0.60082299  0.79112914  0.49447558  1
  Ti  Ti125  1  0.49606487  0.70527137  0.87873524  1
  Ti  Ti126  1  0.09274348  0.70095582  0.88672941  1
  Ti  Ti127  1  0.71259702  0.07969300  0.12597497  1
  Ti  Ti128  1  0.60544835  0.20164386  0.22288087  1
  Ti  Ti129  1  0.80380606  0.20454454  0.73962523  1
  Ti  Ti130  1  0.80391096  -0.00651750  0.00431210  1
  Ti  Ti131  1  0.31150514  0.09835021  0.88923949  1
  Ti  Ti132  1  0.79480370  0.81602288  0.23083152  1
  Ti  Ti133  1  0.39949187  0.20362573  0.76181676  1
  Ti  Ti134  1  0.40776984  0.40388443  0.49180191  1
  Ti  Ti135  1  0.19512819  0.39998798  0.75968195  1
  Ti  Ti136  1  0.40595650  0.00870276  0.75901930  1
  Ti  Ti137  1  0.59350461  0.80122374  0.75547527  1
  Ti  Ti138  1  0.69820635  0.69753058  0.36991250  1
  Ti  Ti139  1  0.40923879  0.40179245  0.24700890  1
  Ti  Ti140  1  0.41739502  0.20064107  0.22592643  1
  Ti  Ti141  1  0.69308097  0.90211402  0.61334528  1
  Ti  Ti142  1  0.09898704  0.29484057  0.62292661  1
  Ti  Ti143  1  0.90660045  0.50478886  0.61875615  1
  Ti  Ti144  1  0.80446452  0.40188499  0.73667960  1
  Ti  Ti145  1  0.88545595  0.48391349  0.87612623  1
  Ti  Ti146  1  0.49724461  0.30118128  0.89052404  1
  Ti  Ti147  1  0.01637195  0.18543756  0.23738191  1
  Ti  Ti148  1  0.39938637  0.80578459  0.50052701  1
  Ti  Ti149  1  -0.00709912  0.80091103  0.24741392  1
  Ti  Ti150  1  0.21717577  -0.00943908  0.75178554  1
  Ti  Ti151  1  0.08665862  0.90106849  0.12818276  1
  Ti  Ti152  1  0.39577605  0.39215199  0.75840151  1
  Ti  Ti153  1  -0.00436546  0.39260116  0.24134944  1
  Ti  Ti154  1  0.18284759  0.59613025  0.48576999  1
  Ti  Ti155  1  0.60612867  -0.00074320  0.00831625  1
  Ti  Ti156  1  0.59445076  0.60667486  0.00016352  1
  Ti  Ti157  1  0.59775093  0.78614873  0.24028907  1
  Ti  Ti158  1  0.09107228  0.69790810  0.36959087  1
  Ti  Ti159  1  0.29701103  0.50215469  0.11767532  1
  Mo  Mo160  1  0.69951504  0.50268298  0.38373683  1
  Mo  Mo161  1  0.69362927  0.51435589  0.12652222  1
  Mo  Mo162  1  0.00161540  0.59138183  0.48283492  1
  Mo  Mo163  1  -0.00065862  0.79951437  0.00019321  1
  Mo  Mo164  1  0.08567439  0.50155720  0.37177556  1
  Mo  Mo165  1  0.19931360  0.80224539  0.75964140  1
  Mo  Mo166  1  0.16704869  0.81495200  0.25261699  1
  Mo  Mo167  1  0.70111597  0.50089615  0.87269895  1
  Mo  Mo168  1  0.50317583  0.10293635  0.36185088  1
  Mo  Mo169  1  -0.00955651  0.59177417  0.00011301  1
  Mo  Mo170  1  0.30635060  0.09896437  0.12040667  1
  Mo  Mo171  1  0.80299767  0.41039321  0.25522333  1
  Mo  Mo172  1  0.11099067  0.31227801  0.89449500  1
  Mo  Mo173  1  0.41494841  0.80372538  0.24406223  1
  Mo  Mo174  1  0.71680435  0.32350250  0.12573233  1
  Mo  Mo175  1  0.31087375  0.90136031  0.62604643  1
  Mo  Mo176  1  0.79650350  0.38883529  0.00075550  1
  Mo  Mo177  1  0.20752794  0.19606027  0.01230468  1
  Mo  Mo178  1  0.09888951  0.09484155  0.37661847  1
  Mo  Mo179  1  0.19299736  0.40302340  0.00947024  1
  Mo  Mo180  1  0.90111171  0.89659797  0.12278066  1
  Mo  Mo181  1  0.69675664  0.90372564  0.89290944  1
  Mo  Mo182  1  0.91416551  0.29552385  0.14051855  1
  Mo  Mo183  1  0.78715624  0.60534833  0.24987325  1
  Mo  Mo184  1  0.51184173  0.30693658  0.12926717  1
  Mo  Mo185  1  0.51165535  0.09536172  0.12181929  1
  Mo  Mo186  1  0.51427919  0.69105979  0.12600981  1
  Mo  Mo187  1  -0.00932447  0.19703857  0.72286742  1
  Mo  Mo188  1  0.79207689  0.80849852  0.49703866  1
  Mo  Mo189  1  0.10231157  0.09965032  0.62449715  1
  Mo  Mo190  1  0.49065866  0.30470823  0.63032431  1
  Mo  Mo191  1  0.40703488  0.00279584  0.00154687  1
  Mo  Mo192  1  0.40960221  0.40490545  0.00494059  1
  Mo  Mo193  1  0.60913053  0.20481205  0.49516317  1
  Mo  Mo194  1  0.88972977  0.30673159  0.62348655  1
  Mo  Mo195  1  0.70413243  0.89487833  0.12084632  1
  Mo  Mo196  1  0.80919617  -0.00113452  0.24929371  1
  Mo  Mo197  1  0.20145842  0.00098564  -0.00505256  1
  Mo  Mo198  1  0.89432080  0.69611522  0.62376930  1
  Mo  Mo199  1  0.49779245  0.49701311  0.37515847  1
