# generated using pymatgen
data_HfZrTaTiMo
_symmetry_space_group_name_H-M   'P 1'
_cell_length_a   15.20482971
_cell_length_b   15.20746532
_cell_length_c   16.83724324
_cell_angle_alpha   89.98833419
_cell_angle_beta   89.96526490
_cell_angle_gamma   90.04932895
_symmetry_Int_Tables_number   1
_chemical_formula_structural   HfZrTaTiMo
_chemical_formula_sum   'Hf40 Zr40 Ta40 Ti40 Mo40'
_cell_volume   3893.22166439
_cell_formula_units_Z   40
loop_
 _symmetry_equiv_pos_site_id
 _symmetry_equiv_pos_as_xyz
  1  'x, y, z'
loop_
 _atom_site_type_symbol
 _atom_site_label
 _atom_site_symmetry_multiplicity
 _atom_site_fract_x
 _atom_site_fract_y
 _atom_site_fract_z
 _atom_site_occupancy
  Hf  Hf0  1  0.79943367  0.01265667  0.25063123  1
  Hf  Hf1  1  0.29697110  0.70095022  0.12293955  1
  Hf  Hf2  1  0.51052917  0.50548334  0.87649092  1
  Hf  Hf3  1  0.50538040  0.50429572  0.63373890  1
  Hf  Hf4  1  0.40843439  0.40270642  0.24694151  1
  Hf  Hf5  1  0.00575430  0.38184472  0.24743741  1
  Hf  Hf6  1  0.20086295  0.00476279  0.49815091  1
  Hf  Hf7  1  0.42648165  0.60387808  0.48457713  1
  Hf  Hf8  1  0.18586800  0.20656178  0.24100409  1
  Hf  Hf9  1  0.89265509  0.09308038  0.61880623  1
  Hf  Hf10  1  0.80523483  -0.00353286  0.75998255  1
  Hf  Hf11  1  -0.02332867  0.39596454  0.73722833  1
  Hf  Hf12  1  0.89357485  0.89948030  0.10223100  1
  Hf  Hf13  1  0.21064676  0.60450440  0.49248824  1
  Hf  Hf14  1  0.11377001  0.49789255  0.13345923  1
  Hf  Hf15  1  0.38710833  0.00446387  0.74193917  1
  Hf  Hf16  1  0.89893378  0.49652722  0.38201487  1
  Hf  Hf17  1  0.70423333  0.50685145  0.61093327  1
  Hf  Hf18  1  0.80036086  0.21184050  0.75547387  1
  Hf  Hf19  1  0.10770018  0.50076217  0.63829386  1
  Hf  Hf20  1  0.10352875  0.50772265  0.36231997  1
  Hf  Hf21  1  0.70622538  0.70322989  0.37189599  1
  Hf  Hf22  1  0.90975940  0.69746411  0.36894195  1
  Hf  Hf23  1  0.20439642  0.38476680  0.75798670  1
  Hf  Hf24  1  0.58995046  0.00017492  0.74209355  1
  Hf  Hf25  1  0.08153411  0.11616306  0.11662218  1
  Hf  Hf26  1  0.70228345  0.10218356  0.38457048  1
  Hf  Hf27  1  0.80792833  0.59541546  0.74874949  1
  Hf  Hf28  1  0.58322991  0.40604024  0.49597163  1
  Hf  Hf29  1  0.19709890  0.00278297  0.23349158  1
  Hf  Hf30  1  0.90590110  0.27742848  0.12960205  1
  Hf  Hf31  1  0.58550223  -0.00242017  0.50663006  1
  Hf  Hf32  1  0.70100086  0.30648348  0.12467971  1
  Hf  Hf33  1  0.79354757  0.39002363  0.25511609  1
  Hf  Hf34  1  -0.00455623  0.00386439  0.24371119  1
  Hf  Hf35  1  0.49747648  0.69584166  0.12634246  1
  Hf  Hf36  1  0.10139759  0.90520528  0.62700195  1
  Hf  Hf37  1  0.18787378  0.20670443  -0.01154365  1
  Hf  Hf38  1  0.00737929  0.80036743  0.22865446  1
  Hf  Hf39  1  0.30845622  0.49745246  0.62970107  1
  Zr  Zr40  1  0.89410958  0.28379303  0.38984320  1
  Zr  Zr41  1  0.39138852  0.20243170  0.24739349  1
  Zr  Zr42  1  0.79512808  0.81055734  0.24632853  1
  Zr  Zr43  1  -0.00636685  0.80059342  0.75827328  1
  Zr  Zr44  1  0.69442539  0.90103517  0.88001346  1
  Zr  Zr45  1  0.51962816  0.70905990  0.62431353  1
  Zr  Zr46  1  0.00999146  0.76762131  0.01490901  1
  Zr  Zr47  1  0.89159170  0.90082701  0.38538997  1
  Zr  Zr48  1  0.49983937  0.29336168  0.12211059  1
  Zr  Zr49  1  0.48318837  0.09238879  0.37618923  1
  Zr  Zr50  1  0.30738435  0.70069970  0.62552585  1
  Zr  Zr51  1  0.69791645  0.10927294  0.12359381  1
  Zr  Zr52  1  0.01027448  0.38948167  0.00669528  1
  Zr  Zr53  1  0.30764332  0.91847497  0.36907143  1
  Zr  Zr54  1  0.29869790  0.90946011  0.88573187  1
  Zr  Zr55  1  0.30742558  0.49325344  0.37299853  1
  Zr  Zr56  1  0.09869576  0.89469951  0.37455994  1
  Zr  Zr57  1  0.60138330  0.80215240  0.48233337  1
  Zr  Zr58  1  0.00878296  0.39666458  0.51174057  1
  Zr  Zr59  1  0.80957132  0.60506176  0.01325753  1
  Zr  Zr60  1  0.31772184  0.50732882  0.11594500  1
  Zr  Zr61  1  0.58493147  0.01233582  0.00251569  1
  Zr  Zr62  1  0.00746545  0.00492050  0.76919035  1
  Zr  Zr63  1  0.00730809  0.60982137  0.50496054  1
  Zr  Zr64  1  0.69789026  0.50356798  0.38800840  1
  Zr  Zr65  1  0.69596229  0.70388587  0.12912055  1
  Zr  Zr66  1  0.40999435  0.80763552  0.75240300  1
  Zr  Zr67  1  0.69645223  0.89312554  0.62820646  1
  Zr  Zr68  1  0.59586694  -0.01523170  0.25240144  1
  Zr  Zr69  1  0.68986451  0.29882979  0.61845798  1
  Zr  Zr70  1  0.20973955  0.38789872  0.51321435  1
  Zr  Zr71  1  0.39961835  0.60186150  0.76327866  1
  Zr  Zr72  1  0.29451747  0.70121273  0.88591059  1
  Zr  Zr73  1  0.10779756  0.29657528  0.37785797  1
  Zr  Zr74  1  0.40550943  0.39484178  -0.01624556  1
  Zr  Zr75  1  0.10925272  0.70661613  0.63366623  1
  Zr  Zr76  1  0.07708500  0.28992183  0.86441767  1
  Zr  Zr77  1  0.40110984  0.39109321  0.76713547  1
  Zr  Zr78  1  0.90320283  0.49259129  0.88165381  1
  Zr  Zr79  1  0.18050092  0.60379524  -0.00530051  1
  Ta  Ta80  1  0.60018628  0.20862573  -0.00824108  1
  Ta  Ta81  1  0.30458346  0.10834276  0.10889179  1
  Ta  Ta82  1  0.61186905  0.40322828  0.75097935  1
  Ta  Ta83  1  0.10066837  0.10057090  0.62968044  1
  Ta  Ta84  1  0.00071381  0.60282816  0.74707338  1
  Ta  Ta85  1  0.70331575  0.31448175  0.87249053  1
  Ta  Ta86  1  0.19655783  0.17928573  0.76047906  1
  Ta  Ta87  1  0.30622123  0.71227918  0.36490509  1
  Ta  Ta88  1  0.10488414  0.88516126  0.89137076  1
  Ta  Ta89  1  0.61478441  0.61102677  0.75553401  1
  Ta  Ta90  1  0.80218467  0.20449660  -0.01735886  1
  Ta  Ta91  1  0.69939634  0.90327367  0.10963670  1
  Ta  Ta92  1  0.79992047  0.78930165  0.75509574  1
  Ta  Ta93  1  0.60651735  0.20576042  0.26086432  1
  Ta  Ta94  1  0.49592501  0.30118278  0.37581950  1
  Ta  Ta95  1  0.49100731  0.10094570  0.86784476  1
  Ta  Ta96  1  0.89632783  0.88763181  0.89435091  1
  Ta  Ta97  1  0.40256895  0.81207026  0.49345693  1
  Ta  Ta98  1  0.89853341  0.49187019  0.12815688  1
  Ta  Ta99  1  0.80020702  0.59223251  0.24040930  1
  Ta  Ta100  1  0.40869001  0.80207308  0.00086555  1
  Ta  Ta101  1  0.58508451  0.20050541  0.50020313  1
  Ta  Ta102  1  0.30461640  0.90031370  0.11315790  1
  Ta  Ta103  1  0.70845714  0.69896414  0.88259412  1
  Ta  Ta104  1  0.88574156  0.29932259  0.60914954  1
  Ta  Ta105  1  0.41137435  0.81118645  0.24730756  1
  Ta  Ta106  1  -0.00122829  0.00766428  -0.01408493  1
  Ta  Ta107  1  0.20416041  0.80085879  0.49371970  1
  Ta  Ta108  1  0.38921429  0.20624904  0.50366682  1
  Ta  Ta109  1  0.60232989  0.59776447  0.00059302  1
  Ta  Ta110  1  0.79930566  0.39909453  0.00637416  1
  Ta  Ta111  1  0.89479749  0.88584091  0.61958734  1
  Ta  Ta112  1  0.49587319  0.90474217  0.88210569  1
  Ta  Ta113  1  0.39868910  0.00412070  0.22796844  1
  Ta  Ta114  1  0.19760034  0.20079646  0.50888783  1
  Ta  Ta115  1  0.28764235  0.30609689  0.11091200  1
  Ta  Ta116  1  0.08908346  0.10209851  0.37618669  1
  Ta  Ta117  1  0.19370915  0.00072863  0.00942234  1
  Ta  Ta118  1  0.29285970  0.10521938  0.62845916  1
  Ta  Ta119  1  0.68591213  0.11509771  0.86657193  1
  Ti  Ti120  1  0.00675879  0.19430746  0.51365071  1
  Ti  Ti121  1  0.00140394  0.59999571  0.23813249  1
  Ti  Ti122  1  0.60917114  0.40316086  -0.00222182  1
  Ti  Ti123  1  0.72117165  0.70065988  0.61029796  1
  Ti  Ti124  1  0.70661193  0.50341372  0.87541662  1
  Ti  Ti125  1  0.29809631  0.09762704  0.88410787  1
  Ti  Ti126  1  0.60536576  0.79852002  -0.00219786  1
  Ti  Ti127  1  0.49477238  0.11344456  0.63002176  1
  Ti  Ti128  1  0.79546770  0.01090767  -0.01693509  1
  Ti  Ti129  1  0.28645676  0.11697052  0.37374999  1
  Ti  Ti130  1  0.00024666  0.79904826  0.50472823  1
  Ti  Ti131  1  0.39701849  0.39160703  0.49938883  1
  Ti  Ti132  1  -0.00645103  0.19693941  0.74086277  1
  Ti  Ti133  1  0.50419598  0.89809810  0.11765065  1
  Ti  Ti134  1  0.10056347  0.50891228  0.86369586  1
  Ti  Ti135  1  0.89855709  0.10067778  0.38908484  1
  Ti  Ti136  1  0.59800674  0.59670167  0.25248962  1
  Ti  Ti137  1  0.39713775  0.00296903  0.51588645  1
  Ti  Ti138  1  0.38998710  0.20358438  0.75507375  1
  Ti  Ti139  1  0.51659943  0.50019136  0.11916499  1
  Ti  Ti140  1  0.40609507  0.19338452  -0.00591469  1
  Ti  Ti141  1  0.90843550  0.69247679  0.88303613  1
  Ti  Ti142  1  0.11145621  0.70187264  0.35959211  1
  Ti  Ti143  1  0.89323365  0.50767730  0.61058127  1
  Ti  Ti144  1  0.48817683  0.30017356  0.63275220  1
  Ti  Ti145  1  0.20621875  0.40186103  -0.02231740  1
  Ti  Ti146  1  0.51414233  0.28684498  0.86635477  1
  Ti  Ti147  1  0.50983523  0.70490953  0.88261912  1
  Ti  Ti148  1  0.78957190  -0.01080219  0.50258935  1
  Ti  Ti149  1  0.00000510  -0.00177450  0.50251087  1
  Ti  Ti150  1  0.88885598  0.09659521  0.11343299  1
  Ti  Ti151  1  0.60012990  0.40367239  0.25777277  1
  Ti  Ti152  1  0.21386782  0.39692781  0.24886484  1
  Ti  Ti153  1  0.70068867  0.29547929  0.39172333  1
  Ti  Ti154  1  0.60589631  0.79886662  0.75702324  1
  Ti  Ti155  1  0.40419422  0.60446187  0.25909036  1
  Ti  Ti156  1  0.20458886  0.80383540  0.23937723  1
  Ti  Ti157  1  0.20146333  0.80309857  0.75686601  1
  Ti  Ti158  1  0.69434725  0.10672318  0.62513141  1
  Ti  Ti159  1  0.29571661  0.89751248  0.62413427  1
  Mo  Mo160  1  0.30528600  0.29209277  0.37705069  1
  Mo  Mo161  1  0.10608551  0.90123335  0.11051956  1
  Mo  Mo162  1  0.80773706  0.60931936  0.50074434  1
  Mo  Mo163  1  0.41296688  0.60603668  -0.00692011  1
  Mo  Mo164  1  0.59445881  0.79906502  0.25465277  1
  Mo  Mo165  1  0.48884931  0.89888738  0.37113165  1
  Mo  Mo166  1  0.10609848  0.30422874  0.12230987  1
  Mo  Mo167  1  0.20758411  0.60907915  0.25537001  1
  Mo  Mo168  1  0.60332619  0.60592643  0.49634407  1
  Mo  Mo169  1  0.20065900  -0.00717149  0.75037728  1
  Mo  Mo170  1  0.09465381  0.69717464  0.86559576  1
  Mo  Mo171  1  0.30244049  0.28627836  0.63348452  1
  Mo  Mo172  1  0.79150106  0.18735781  0.50954196  1
  Mo  Mo173  1  0.89893888  0.70159306  0.62638854  1
  Mo  Mo174  1  0.69706463  0.90666094  0.37979420  1
  Mo  Mo175  1  0.19963898  0.80460141  0.00989489  1
  Mo  Mo176  1  0.80067143  0.39717848  0.49952834  1
  Mo  Mo177  1  0.48898858  0.90185768  0.62276733  1
  Mo  Mo178  1  -0.01317442  0.19142355  -0.00910895  1
  Mo  Mo179  1  0.09762263  0.28228849  0.64019776  1
  Mo  Mo180  1  0.00130530  0.58513938  0.01166376  1
  Mo  Mo181  1  0.19565111  0.59941248  0.76477328  1
  Mo  Mo182  1  0.69350331  0.49713217  0.12854550  1
  Mo  Mo183  1  0.10845884  0.69175185  0.14279677  1
  Mo  Mo184  1  0.50480587  0.49924783  0.36498116  1
  Mo  Mo185  1  0.30296986  0.28357219  0.88063851  1
  Mo  Mo186  1  0.49798237  0.10484418  0.12735359  1
  Mo  Mo187  1  0.79821634  0.79969356  -0.00066532  1
  Mo  Mo188  1  -0.01388182  0.18516094  0.25695478  1
  Mo  Mo189  1  0.29553284  0.49631377  0.87831032  1
  Mo  Mo190  1  0.79611575  0.19777104  0.25628246  1
  Mo  Mo191  1  0.10654628  0.08677645  0.87782255  1
  Mo  Mo192  1  0.58901057  0.20351266  0.74833024  1
  Mo  Mo193  1  0.89964951  0.10632426  0.87552047  1
  Mo  Mo194  1  0.88845027  0.30127224  0.87345285  1
  Mo  Mo195  1  0.79268829  0.40608363  0.74456267  1
  Mo  Mo196  1  0.39877710  0.00505103  0.00942374  1
  Mo  Mo197  1  0.90076466  0.68772656  0.13690968  1
  Mo  Mo198  1  0.50095101  0.70237253  0.35705491  1
  Mo  Mo199  1  0.80975279  0.79947566  0.49889558  1
