# generated using pymatgen
data_HfZrTaTiMo
_symmetry_space_group_name_H-M   'P 1'
_cell_length_a   15.21712253
_cell_length_b   15.21565866
_cell_length_c   16.83067328
_cell_angle_alpha   89.96521075
_cell_angle_beta   89.96412968
_cell_angle_gamma   89.91011471
_symmetry_Int_Tables_number   1
_chemical_formula_structural   HfZrTaTiMo
_chemical_formula_sum   'Hf40 Zr40 Ta40 Ti40 Mo40'
_cell_volume   3896.94328121
_cell_formula_units_Z   40
loop_
 _symmetry_equiv_pos_site_id
 _symmetry_equiv_pos_as_xyz
  1  'x, y, z'
loop_
 _atom_site_type_symbol
 _atom_site_label
 _atom_site_symmetry_multiplicity
 _atom_site_fract_x
 _atom_site_fract_y
 _atom_site_fract_z
 _atom_site_occupancy
  Hf  Hf0  1  0.71177139  0.91077477  0.12293251  1
  Hf  Hf1  1  0.00345364  0.58221267  0.01185320  1
  Hf  Hf2  1  0.51596488  0.11016269  0.12012150  1
  Hf  Hf3  1  0.18924718  0.40877010  0.75010580  1
  Hf  Hf4  1  0.01801882  -0.01416904  0.48661084  1
  Hf  Hf5  1  0.70233933  0.11285701  0.63599791  1
  Hf  Hf6  1  0.80552392  0.01715046  -0.00657668  1
  Hf  Hf7  1  0.69659787  0.69664359  0.87803857  1
  Hf  Hf8  1  0.89218216  0.49836089  0.38125489  1
  Hf  Hf9  1  0.28546877  0.51833452  0.88249413  1
  Hf  Hf10  1  0.39132389  0.60917340  0.49704453  1
  Hf  Hf11  1  0.08738052  0.29428772  0.63105136  1
  Hf  Hf12  1  -0.00336814  0.19430304  -0.00270219  1
  Hf  Hf13  1  0.39177104  0.39659523  0.49569535  1
  Hf  Hf14  1  0.90560565  0.09648420  0.13929700  1
  Hf  Hf15  1  0.80444719  0.00220850  0.50086076  1
  Hf  Hf16  1  0.01319896  0.00052848  -0.01785263  1
  Hf  Hf17  1  0.78910012  0.39162100  0.49631916  1
  Hf  Hf18  1  0.61523078  0.01249290  0.24469280  1
  Hf  Hf19  1  0.49327400  0.49124828  0.62295400  1
  Hf  Hf20  1  0.61796681  0.20956776  0.00227437  1
  Hf  Hf21  1  0.39678364  0.81074170  0.01203571  1
  Hf  Hf22  1  0.01940291  0.77168380  0.49583337  1
  Hf  Hf23  1  0.90662329  0.68216066  0.87350227  1
  Hf  Hf24  1  0.79232752  0.40515660  0.25025460  1
  Hf  Hf25  1  0.80132014  0.79794344  0.74915524  1
  Hf  Hf26  1  -0.00146300  0.56265123  0.23216918  1
  Hf  Hf27  1  0.92429729  0.89577133  0.63057619  1
  Hf  Hf28  1  0.70706169  0.32210334  0.86286884  1
  Hf  Hf29  1  0.80605752  0.79994348  0.50705168  1
  Hf  Hf30  1  0.09006028  0.49302220  0.38212740  1
  Hf  Hf31  1  0.81250450  0.00385480  0.75692331  1
  Hf  Hf32  1  0.59368415  0.00106449  0.50696800  1
  Hf  Hf33  1  0.50193553  0.70384835  0.12872364  1
  Hf  Hf34  1  0.21816040  0.78199101  0.75893831  1
  Hf  Hf35  1  0.60319851  0.59966616  0.25020792  1
  Hf  Hf36  1  0.89983227  0.08894476  0.35678665  1
  Hf  Hf37  1  0.02032881  0.19610897  0.25633884  1
  Hf  Hf38  1  0.30124934  0.30423713  0.88582427  1
  Hf  Hf39  1  0.49603167  0.50550861  0.88452625  1
  Zr  Zr40  1  0.49415481  0.30613279  0.36425030  1
  Zr  Zr41  1  -0.00219867  0.17936253  0.77323156  1
  Zr  Zr42  1  0.59551035  0.80024857  0.73763436  1
  Zr  Zr43  1  0.49865641  0.11030393  0.88213124  1
  Zr  Zr44  1  0.29267855  0.29490545  0.62693013  1
  Zr  Zr45  1  0.28782040  0.50285671  0.37167691  1
  Zr  Zr46  1  0.90889487  0.49445534  0.62628401  1
  Zr  Zr47  1  0.39386843  0.19429483  0.50108439  1
  Zr  Zr48  1  0.90641610  0.90157388  0.13462901  1
  Zr  Zr49  1  0.90817855  0.68986909  0.36133517  1
  Zr  Zr50  1  0.70001027  0.70746349  0.37809599  1
  Zr  Zr51  1  0.39876375  0.40360801  0.75033283  1
  Zr  Zr52  1  0.38307419  0.40267733  0.23565648  1
  Zr  Zr53  1  0.49832138  0.50069607  0.12283339  1
  Zr  Zr54  1  0.50295100  0.10037426  0.36473382  1
  Zr  Zr55  1  0.48345330  0.70599610  0.87777777  1
  Zr  Zr56  1  0.18287299  -0.01323242  0.75929013  1
  Zr  Zr57  1  0.01809422  0.79815346  0.75988890  1
  Zr  Zr58  1  0.70114967  0.50083002  0.62128910  1
  Zr  Zr59  1  0.41890928  0.81200058  0.50516614  1
  Zr  Zr60  1  0.10990788  0.08635802  0.62338006  1
  Zr  Zr61  1  0.59265185  0.59556203  0.74539471  1
  Zr  Zr62  1  0.21064839  -0.00973190  0.00348142  1
  Zr  Zr63  1  0.20829580  0.77902666  -0.01004763  1
  Zr  Zr64  1  0.66874956  0.30831979  0.64938209  1
  Zr  Zr65  1  0.59160621  0.00494991  0.74532738  1
  Zr  Zr66  1  0.87927156  0.29250446  0.64358304  1
  Zr  Zr67  1  0.89542423  0.70151824  0.12949963  1
  Zr  Zr68  1  0.59197972  0.61767685  0.50406003  1
  Zr  Zr69  1  0.79520406  0.20253146  0.48953473  1
  Zr  Zr70  1  0.20049274  0.00952779  0.24399916  1
  Zr  Zr71  1  0.30686729  0.09676767  0.87216327  1
  Zr  Zr72  1  0.91133740  0.09614854  0.62614727  1
  Zr  Zr73  1  0.10854834  0.89287591  0.13120377  1
  Zr  Zr74  1  0.11207016  0.68025895  0.13883074  1
  Zr  Zr75  1  0.00436389  0.19419769  0.48519187  1
  Zr  Zr76  1  0.00635484  0.79233557  -0.00766715  1
  Zr  Zr77  1  0.39521071  0.20460025  0.22791038  1
  Zr  Zr78  1  0.49505439  0.90911946  0.87682698  1
  Zr  Zr79  1  0.90627598  0.88975199  0.36319403  1
  Ta  Ta80  1  0.79853065  0.80022194  -0.00599737  1
  Ta  Ta81  1  0.70335920  0.90341048  0.62235703  1
  Ta  Ta82  1  0.30261708  0.10201902  0.36775466  1
  Ta  Ta83  1  0.69919408  0.90804840  0.37712906  1
  Ta  Ta84  1  0.78928823  0.19775353  0.24717053  1
  Ta  Ta85  1  0.10269133  0.30061219  0.88137198  1
  Ta  Ta86  1  0.21834681  -0.00201444  0.49092745  1
  Ta  Ta87  1  0.38117673  0.61393671  0.73593706  1
  Ta  Ta88  1  0.51122720  0.90323845  0.12546267  1
  Ta  Ta89  1  0.80213557  0.59234006  0.75198333  1
  Ta  Ta90  1  -0.01435518  0.38764570  -0.00504890  1
  Ta  Ta91  1  0.29940133  0.70037949  0.14224291  1
  Ta  Ta92  1  0.20600380  0.21177987  0.25267503  1
  Ta  Ta93  1  0.12417123  0.88457124  0.37006725  1
  Ta  Ta94  1  0.79384778  0.59934998  0.24136446  1
  Ta  Ta95  1  0.87866647  0.48590554  0.87998807  1
  Ta  Ta96  1  0.11172808  0.68600974  0.35406606  1
  Ta  Ta97  1  0.49567223  0.71089488  0.36520799  1
  Ta  Ta98  1  0.20131310  0.19966700  0.75993645  1
  Ta  Ta99  1  0.39170118  0.40519151  0.01062573  1
  Ta  Ta100  1  0.70371610  0.11395274  0.86473929  1
  Ta  Ta101  1  0.28149846  0.51095650  0.61604361  1
  Ta  Ta102  1  0.50062400  0.30743108  0.88850200  1
  Ta  Ta103  1  0.29639223  0.71231666  0.36441165  1
  Ta  Ta104  1  -0.01159032  0.39711705  0.76665835  1
  Ta  Ta105  1  0.40141276  -0.00082838  0.23179119  1
  Ta  Ta106  1  0.60485812  0.80663615  0.00247182  1
  Ta  Ta107  1  0.90739554  0.30808911  0.13599803  1
  Ta  Ta108  1  0.79376552  0.59014928  0.00598003  1
  Ta  Ta109  1  0.80941849  0.60471871  0.50497959  1
  Ta  Ta110  1  0.28862761  0.71024820  0.61309472  1
  Ta  Ta111  1  0.90856536  0.68767652  0.63470217  1
  Ta  Ta112  1  0.50075700  0.50632678  0.36923052  1
  Ta  Ta113  1  0.59513588  0.20835708  0.50154796  1
  Ta  Ta114  1  0.69977155  0.90537748  0.87929412  1
  Ta  Ta115  1  0.19524216  0.19204358  0.00466766  1
  Ta  Ta116  1  0.69104145  0.50059444  0.37986594  1
  Ta  Ta117  1  0.60795195  0.00420139  0.00101946  1
  Ta  Ta118  1  0.40186696  0.00763833  0.02184001  1
  Ta  Ta119  1  -0.00442500  0.38788754  0.49865908  1
  Ti  Ti120  1  0.90107804  0.89542885  0.87524152  1
  Ti  Ti121  1  0.12742647  0.87421089  0.60880862  1
  Ti  Ti122  1  0.61021597  0.41039519  -0.00119395  1
  Ti  Ti123  1  0.40772385  0.20438173  0.74923585  1
  Ti  Ti124  1  0.70024263  0.70645710  0.12076310  1
  Ti  Ti125  1  0.09401610  0.49887321  0.61782528  1
  Ti  Ti126  1  0.08724996  0.49686339  0.87840425  1
  Ti  Ti127  1  0.60163532  0.22156569  0.23528623  1
  Ti  Ti128  1  0.68811649  0.30376970  0.36590314  1
  Ti  Ti129  1  0.69605409  0.10657771  0.37435915  1
  Ti  Ti130  1  0.79095810  0.80336286  0.25059551  1
  Ti  Ti131  1  0.27271331  0.50802966  0.11849352  1
  Ti  Ti132  1  0.01407765  0.79816322  0.25130017  1
  Ti  Ti133  1  0.39844423  0.20888361  0.01651985  1
  Ti  Ti134  1  0.40296522  0.80996196  0.24574451  1
  Ti  Ti135  1  0.30312685  0.09448977  0.63849449  1
  Ti  Ti136  1  0.70007593  0.30939486  0.12616274  1
  Ti  Ti137  1  0.39524206  0.60318640  0.25220012  1
  Ti  Ti138  1  0.40210953  0.00669200  0.50243313  1
  Ti  Ti139  1  0.40672885  0.80870821  0.73250577  1
  Ti  Ti140  1  0.18492298  0.61444524  0.49624911  1
  Ti  Ti141  1  0.30675597  0.90811007  0.62535996  1
  Ti  Ti142  1  0.50851494  0.90176850  0.36819367  1
  Ti  Ti143  1  0.11616513  0.67492664  0.87065454  1
  Ti  Ti144  1  0.17377739  0.39572971  0.24589398  1
  Ti  Ti145  1  0.19204636  0.39002287  0.49923306  1
  Ti  Ti146  1  0.38289568  0.60967461  0.00851930  1
  Ti  Ti147  1  0.58918308  0.39626320  0.49514920  1
  Ti  Ti148  1  0.30988368  0.89490038  0.86909543  1
  Ti  Ti149  1  0.70238797  0.70250952  0.62276451  1
  Ti  Ti150  1  0.60284462  0.80648239  0.24808246  1
  Ti  Ti151  1  0.10041474  0.68053442  0.63459837  1
  Ti  Ti152  1  0.27480081  0.30897553  0.11122867  1
  Ti  Ti153  1  0.19918738  0.19817990  0.48395475  1
  Ti  Ti154  1  0.59976775  0.60651525  0.00337883  1
  Ti  Ti155  1  0.69943217  0.50184741  0.12366781  1
  Ti  Ti156  1  0.90373355  0.30134823  0.36228334  1
  Ti  Ti157  1  0.31542501  0.90368698  0.37018677  1
  Ti  Ti158  1  0.80922656  0.21872955  0.00080965  1
  Ti  Ti159  1  0.49686105  0.11195636  0.63289789  1
  Mo  Mo160  1  0.01059009  -0.00710971  0.26038463  1
  Mo  Mo161  1  0.58375701  0.40612285  0.76424700  1
  Mo  Mo162  1  0.09507145  0.46448863  0.11819602  1
  Mo  Mo163  1  0.49573672  0.91482764  0.62599170  1
  Mo  Mo164  1  0.00600946  0.58496654  0.75636819  1
  Mo  Mo165  1  0.49004117  0.70269009  0.62656857  1
  Mo  Mo166  1  0.58380853  0.20880496  0.76245138  1
  Mo  Mo167  1  0.10635340  0.30089719  0.37954779  1
  Mo  Mo168  1  0.10969773  0.10231620  0.87987276  1
  Mo  Mo169  1  0.10681197  0.88864924  0.87834049  1
  Mo  Mo170  1  0.28551307  0.30051590  0.37203201  1
  Mo  Mo171  1  0.60902711  0.81137323  0.50813045  1
  Mo  Mo172  1  0.89163520  0.10233712  0.88132995  1
  Mo  Mo173  1  0.79657882  0.00154406  0.25724545  1
  Mo  Mo174  1  0.11473531  0.09023194  0.37960491  1
  Mo  Mo175  1  0.79448463  0.39626723  0.01263338  1
  Mo  Mo176  1  0.00133382  0.59516152  0.50176980  1
  Mo  Mo177  1  0.31093808  0.89569500  0.13174575  1
  Mo  Mo178  1  0.20746270  0.58295592  0.24850452  1
  Mo  Mo179  1  0.39283862  -0.00036957  0.74065740  1
  Mo  Mo180  1  0.21293917  0.79927559  0.49129198  1
  Mo  Mo181  1  0.71382960  0.11538318  0.12429532  1
  Mo  Mo182  1  0.79522544  0.20108362  0.75843868  1
  Mo  Mo183  1  0.89787111  0.30152187  0.87341488  1
  Mo  Mo184  1  0.00089932  -0.01075391  0.77854047  1
  Mo  Mo185  1  0.18598164  0.40011427  -0.00225139  1
  Mo  Mo186  1  0.19665979  0.59185026  0.00367059  1
  Mo  Mo187  1  0.19502517  0.59513584  0.74079084  1
  Mo  Mo188  1  0.21277018  0.79855681  0.25291041  1
  Mo  Mo189  1  0.30950560  0.69862898  0.87189773  1
  Mo  Mo190  1  0.29893184  0.10687520  0.12252102  1
  Mo  Mo191  1  0.09616520  0.29078352  0.11939435  1
  Mo  Mo192  1  0.10604565  0.10713780  0.12461276  1
  Mo  Mo193  1  0.79467963  0.41127115  0.75155180  1
  Mo  Mo194  1  0.50499348  0.31101629  0.10492161  1
  Mo  Mo195  1  0.88714513  0.48896626  0.11804134  1
  Mo  Mo196  1  0.60072223  0.40498348  0.24937788  1
  Mo  Mo197  1  0.69643192  0.51261479  0.88311010  1
  Mo  Mo198  1  -0.00611328  0.38625135  0.25422082  1
  Mo  Mo199  1  0.49290600  0.29620383  0.62269739  1
