# generated using pymatgen
data_HfZrTaTiMo
_symmetry_space_group_name_H-M   'P 1'
_cell_length_a   15.20484568
_cell_length_b   15.22067689
_cell_length_c   16.84556319
_cell_angle_alpha   89.90082708
_cell_angle_beta   89.96271931
_cell_angle_gamma   90.00978925
_symmetry_Int_Tables_number   1
_chemical_formula_structural   HfZrTaTiMo
_chemical_formula_sum   'Hf40 Zr40 Ta40 Ti40 Mo40'
_cell_volume   3898.52900398
_cell_formula_units_Z   40
loop_
 _symmetry_equiv_pos_site_id
 _symmetry_equiv_pos_as_xyz
  1  'x, y, z'
loop_
 _atom_site_type_symbol
 _atom_site_label
 _atom_site_symmetry_multiplicity
 _atom_site_fract_x
 _atom_site_fract_y
 _atom_site_fract_z
 _atom_site_occupancy
  Hf  Hf0  1  0.21241493  0.21101522  0.26358493  1
  Hf  Hf1  1  0.51465266  0.28497704  0.62702296  1
  Hf  Hf2  1  0.29892769  0.09933742  0.63746633  1
  Hf  Hf3  1  0.61879131  0.37710693  0.49425427  1
  Hf  Hf4  1  0.89445936  0.69900615  0.86649149  1
  Hf  Hf5  1  0.48898191  0.69851931  0.61543898  1
  Hf  Hf6  1  0.68760542  0.90919690  0.61286010  1
  Hf  Hf7  1  0.19493818  0.59427559  0.75202869  1
  Hf  Hf8  1  0.90420556  0.28491666  0.61866113  1
  Hf  Hf9  1  0.30005357  0.11710655  0.12541750  1
  Hf  Hf10  1  0.30861188  0.91278143  0.85801585  1
  Hf  Hf11  1  0.10253495  0.11406549  0.14032343  1
  Hf  Hf12  1  -0.00305363  0.01278472  0.26758486  1
  Hf  Hf13  1  0.11491309  0.90874350  0.37202806  1
  Hf  Hf14  1  0.09948010  0.71411084  0.12063385  1
  Hf  Hf15  1  0.41476358  -0.01321616  0.50885948  1
  Hf  Hf16  1  0.81204832  0.19001451  0.75940707  1
  Hf  Hf17  1  0.59692079  0.39031769  0.24857300  1
  Hf  Hf18  1  0.10181617  0.51887610  0.37817041  1
  Hf  Hf19  1  0.90481278  0.89452196  0.13913190  1
  Hf  Hf20  1  0.90011876  0.89583203  0.38222693  1
  Hf  Hf21  1  0.31323101  0.89405056  0.37080228  1
  Hf  Hf22  1  -0.00408009  0.59816801  0.73336401  1
  Hf  Hf23  1  -0.00115980  0.00770238  0.00146238  1
  Hf  Hf24  1  0.29340228  0.67578353  0.11080754  1
  Hf  Hf25  1  0.48105627  0.70207390  0.38605848  1
  Hf  Hf26  1  0.10445749  0.91929519  0.85827810  1
  Hf  Hf27  1  0.18174250  0.21615560  0.74691436  1
  Hf  Hf28  1  0.47944951  0.48392444  0.11589928  1
  Hf  Hf29  1  0.79966868  0.38919367  0.74554531  1
  Hf  Hf30  1  -0.00286179  0.21759600  0.26338799  1
  Hf  Hf31  1  0.39218257  -0.00422777  0.00336642  1
  Hf  Hf32  1  0.09169584  0.12387696  0.60839547  1
  Hf  Hf33  1  0.91557074  0.29613566  0.88440157  1
  Hf  Hf34  1  0.58595826  0.59221404  0.75615951  1
  Hf  Hf35  1  0.29982066  0.30019745  0.61376522  1
  Hf  Hf36  1  0.10117878  0.32054782  0.39143067  1
  Hf  Hf37  1  0.08887513  0.70466719  0.87437411  1
  Hf  Hf38  1  0.69131357  0.89094621  0.87638009  1
  Hf  Hf39  1  0.50711331  0.10288938  0.11103069  1
  Zr  Zr40  1  0.80784397  0.77351536  0.25747750  1
  Zr  Zr41  1  0.79178068  -0.00655036  0.74143492  1
  Zr  Zr42  1  0.80154116  0.78962624  0.00993865  1
  Zr  Zr43  1  0.21686211  0.41836752  0.25708530  1
  Zr  Zr44  1  0.58960107  0.59528318  -0.00307375  1
  Zr  Zr45  1  -0.01715700  0.61634273  0.24170115  1
  Zr  Zr46  1  0.69840050  0.48237388  0.87862157  1
  Zr  Zr47  1  0.60273860  0.18964038  0.25263831  1
  Zr  Zr48  1  0.89690159  0.51692694  0.37117648  1
  Zr  Zr49  1  0.69000754  0.69859486  0.62019589  1
  Zr  Zr50  1  0.59566072  0.58743797  0.49133564  1
  Zr  Zr51  1  0.59629434  0.59282518  0.25343059  1
  Zr  Zr52  1  0.69963995  0.69285772  0.87149175  1
  Zr  Zr53  1  0.90644631  0.50101364  0.87715047  1
  Zr  Zr54  1  0.11125642  0.91694203  0.14193749  1
  Zr  Zr55  1  -0.00247671  0.00685421  0.49414545  1
  Zr  Zr56  1  -0.01229601  0.03515566  0.74087596  1
  Zr  Zr57  1  0.59814798  0.79829911  0.26070747  1
  Zr  Zr58  1  0.70978282  0.48297241  0.37211726  1
  Zr  Zr59  1  0.30698101  0.88796944  0.12706311  1
  Zr  Zr60  1  0.70168237  0.90224225  0.38435563  1
  Zr  Zr61  1  0.29067994  0.10956243  0.86424935  1
  Zr  Zr62  1  0.20710082  0.81613967  0.50802911  1
  Zr  Zr63  1  0.40412739  0.00171862  0.24291958  1
  Zr  Zr64  1  0.02563014  0.20579487  0.00511640  1
  Zr  Zr65  1  0.29930581  0.69910064  0.88043660  1
  Zr  Zr66  1  0.10865614  0.91607007  0.63669176  1
  Zr  Zr67  1  0.49209799  0.70375920  0.12113302  1
  Zr  Zr68  1  0.41550225  0.39473585  0.49728485  1
  Zr  Zr69  1  0.80137623  0.58303635  0.02153795  1
  Zr  Zr70  1  0.69146580  0.28936103  0.11137469  1
  Zr  Zr71  1  0.79922625  -0.00877059  0.00928974  1
  Zr  Zr72  1  0.90027280  0.90067691  0.86830561  1
  Zr  Zr73  1  0.30098058  0.70168695  0.63026569  1
  Zr  Zr74  1  0.01094782  0.39353131  0.74318029  1
  Zr  Zr75  1  0.90974888  0.29591467  0.11853381  1
  Zr  Zr76  1  0.40234753  0.40126952  0.75964527  1
  Zr  Zr77  1  0.20227380  0.81617073  -0.00731507  1
  Zr  Zr78  1  0.37689151  0.58639896  0.25317573  1
  Zr  Zr79  1  0.49846745  0.09101904  0.87567654  1
  Ta  Ta80  1  0.78890685  0.00220188  0.24764364  1
  Ta  Ta81  1  0.87272824  0.11544565  0.37079801  1
  Ta  Ta82  1  0.08677507  0.71012928  0.38963646  1
  Ta  Ta83  1  0.20462237  0.78517219  0.25599569  1
  Ta  Ta84  1  0.28498905  0.69208220  0.38384364  1
  Ta  Ta85  1  0.69143718  0.48288419  0.62907968  1
  Ta  Ta86  1  0.38855912  0.38197983  -0.02150490  1
  Ta  Ta87  1  0.12835312  0.31847709  0.12788970  1
  Ta  Ta88  1  0.59715283  0.80175456  0.74719352  1
  Ta  Ta89  1  0.69582575  0.69246667  0.12909661  1
  Ta  Ta90  1  0.31671392  0.90227005  0.64623296  1
  Ta  Ta91  1  0.00444455  0.41093524  0.24091882  1
  Ta  Ta92  1  0.18522161  0.57724299  -0.01250468  1
  Ta  Ta93  1  0.79745987  0.59294734  0.73073736  1
  Ta  Ta94  1  0.59889153  0.38591175  0.75856391  1
  Ta  Ta95  1  0.09463411  0.70885862  0.62174079  1
  Ta  Ta96  1  0.59446229  -0.01974901  0.00422841  1
  Ta  Ta97  1  0.89533585  0.10297502  0.13777552  1
  Ta  Ta98  1  0.49893146  0.49555797  0.62472960  1
  Ta  Ta99  1  0.88545300  0.31781419  0.37194096  1
  Ta  Ta100  1  0.19686469  0.60548355  0.50985821  1
  Ta  Ta101  1  0.89821485  0.70938444  0.61666000  1
  Ta  Ta102  1  0.70445438  0.09290482  0.88196796  1
  Ta  Ta103  1  0.20345478  0.40820427  0.74393079  1
  Ta  Ta104  1  0.69413703  0.11699400  0.62543383  1
  Ta  Ta105  1  0.80264933  0.39674030  0.23204281  1
  Ta  Ta106  1  0.40166283  0.18258678  0.49596542  1
  Ta  Ta107  1  0.41441578  0.79492895  0.76125377  1
  Ta  Ta108  1  0.80063008  0.59061642  0.51668413  1
  Ta  Ta109  1  0.80896835  0.18808723  -0.00870387  1
  Ta  Ta110  1  -0.00524014  0.60082726  0.51328562  1
  Ta  Ta111  1  -0.00419841  0.60990471  0.01178249  1
  Ta  Ta112  1  0.59408565  0.18071763  0.49275192  1
  Ta  Ta113  1  0.59934398  -0.00516706  0.23954192  1
  Ta  Ta114  1  0.58531276  0.80967549  0.49524587  1
  Ta  Ta115  1  0.01744257  0.42027651  0.01136496  1
  Ta  Ta116  1  0.30499526  0.50268857  0.61715648  1
  Ta  Ta117  1  0.19268544  0.02345389  -0.00277321  1
  Ta  Ta118  1  0.10359085  0.31203259  0.59496755  1
  Ta  Ta119  1  -0.01583899  0.20861442  0.47924528  1
  Ti  Ti120  1  0.50603932  0.91247852  0.37516861  1
  Ti  Ti121  1  -0.00236563  0.80877953  0.00029454  1
  Ti  Ti122  1  0.41148916  0.20439821  0.75638845  1
  Ti  Ti123  1  0.30413584  0.29789317  0.39290079  1
  Ti  Ti124  1  0.00526008  0.80209246  0.25954909  1
  Ti  Ti125  1  0.30704096  0.09499771  0.37407414  1
  Ti  Ti126  1  0.59354209  -0.00273976  0.75270796  1
  Ti  Ti127  1  0.50593392  0.28345789  0.37779931  1
  Ti  Ti128  1  0.39047095  0.57929001  -0.01970772  1
  Ti  Ti129  1  0.19965926  0.79992394  0.75017425  1
  Ti  Ti130  1  0.60040568  0.20284259  -0.01652128  1
  Ti  Ti131  1  -0.00662597  0.80695075  0.73894342  1
  Ti  Ti132  1  0.68891338  0.88927993  0.12894170  1
  Ti  Ti133  1  0.11123502  0.11060034  0.38205398  1
  Ti  Ti134  1  0.08930439  0.11847827  0.86971786  1
  Ti  Ti135  1  0.79700318  0.39181898  0.00860463  1
  Ti  Ti136  1  0.81142420  0.39964523  0.51130145  1
  Ti  Ti137  1  0.11978904  0.32388321  0.88380998  1
  Ti  Ti138  1  0.11167980  0.51550731  0.13335359  1
  Ti  Ti139  1  0.68526404  0.09375079  0.37449414  1
  Ti  Ti140  1  0.89853777  0.90620753  0.61326653  1
  Ti  Ti141  1  0.22755610  0.22373043  -0.00124653  1
  Ti  Ti142  1  0.42741053  0.80184831  -0.01591993  1
  Ti  Ti143  1  0.79785679  0.79616108  0.73672568  1
  Ti  Ti144  1  0.79225227  0.01822116  0.50338861  1
  Ti  Ti145  1  0.61314975  0.20169093  0.76571072  1
  Ti  Ti146  1  0.48694060  0.29149475  0.11122056  1
  Ti  Ti147  1  0.78262519  0.21211534  0.49668899  1
  Ti  Ti148  1  0.40732851  0.20255706  0.25655179  1
  Ti  Ti149  1  0.39615380  0.59444100  0.76460303  1
  Ti  Ti150  1  0.79901725  0.79694616  0.50251377  1
  Ti  Ti151  1  0.70331713  0.09471711  0.11865065  1
  Ti  Ti152  1  0.40063132  0.79069080  0.24799662  1
  Ti  Ti153  1  0.50317992  0.08726996  0.63509195  1
  Ti  Ti154  1  0.71091719  0.68958865  0.38486233  1
  Ti  Ti155  1  0.40144980  0.38632621  0.25856123  1
  Ti  Ti156  1  0.49423187  0.49252139  0.37456776  1
  Ti  Ti157  1  0.29989341  0.50072639  0.39728886  1
  Ti  Ti158  1  0.21490555  0.01474726  0.50183656  1
  Ti  Ti159  1  0.10213711  0.49632697  0.61056758  1
  Mo  Mo160  1  0.59963537  0.00641899  0.50412515  1
  Mo  Mo161  1  0.49522469  0.09325522  0.37369879  1
  Mo  Mo162  1  0.90300501  0.70411681  0.12454327  1
  Mo  Mo163  1  0.88712783  0.10426147  0.60455883  1
  Mo  Mo164  1  0.90332614  0.09976670  0.88068685  1
  Mo  Mo165  1  0.39324321  0.59390496  0.49838246  1
  Mo  Mo166  1  0.58700207  0.39076898  -0.00704385  1
  Mo  Mo167  1  0.50259878  0.89333486  0.63239850  1
  Mo  Mo168  1  0.69753644  0.29282088  0.62876551  1
  Mo  Mo169  1  0.19776899  0.00796157  0.74425952  1
  Mo  Mo170  1  0.00086443  0.21468701  0.74708019  1
  Mo  Mo171  1  0.20573622  0.41202464  0.49920592  1
  Mo  Mo172  1  0.60304615  0.79702450  0.00537295  1
  Mo  Mo173  1  0.29920007  0.29824193  0.86426211  1
  Mo  Mo174  1  0.70621695  0.28988009  0.88767709  1
  Mo  Mo175  1  0.50526237  0.89549078  0.87174974  1
  Mo  Mo176  1  0.40427827  0.19978548  -0.00754966  1
  Mo  Mo177  1  0.90615506  0.49310233  0.12409407  1
  Mo  Mo178  1  0.41107994  0.00114006  0.74334596  1
  Mo  Mo179  1  0.28915324  0.48534528  0.11730904  1
  Mo  Mo180  1  0.20631027  0.19891543  0.48666750  1
  Mo  Mo181  1  0.90206837  0.70681980  0.40819800  1
  Mo  Mo182  1  0.50448308  0.89533644  0.12447753  1
  Mo  Mo183  1  0.40035355  0.79945364  0.49972062  1
  Mo  Mo184  1  0.69055904  0.48603444  0.12271498  1
  Mo  Mo185  1  -0.00074800  0.80464798  0.50958184  1
  Mo  Mo186  1  0.49473971  0.49682654  0.88014555  1
  Mo  Mo187  1  0.09162101  0.50249753  0.87370024  1
  Mo  Mo188  1  0.79845819  0.19449281  0.24662355  1
  Mo  Mo189  1  0.19524008  0.61015095  0.25325237  1
  Mo  Mo190  1  0.50876359  0.29725655  0.87641034  1
  Mo  Mo191  1  0.89734067  0.49774016  0.62292340  1
  Mo  Mo192  1  0.71412194  0.28092749  0.36854238  1
  Mo  Mo193  1  -0.00886800  0.40968720  0.50035033  1
  Mo  Mo194  1  0.28696917  0.49095776  0.87047930  1
  Mo  Mo195  1  0.78487050  0.58020250  0.22256037  1
  Mo  Mo196  1  0.20159114  0.40013150  0.00209606  1
  Mo  Mo197  1  0.31911075  0.31058065  0.12795143  1
  Mo  Mo198  1  0.20446232  0.00494749  0.26127756  1
  Mo  Mo199  1  0.50012114  0.69974385  0.87538841  1
