# generated using pymatgen
data_HfZrTaTiMo
_symmetry_space_group_name_H-M   'P 1'
_cell_length_a   15.17947771
_cell_length_b   15.16855374
_cell_length_c   16.80851805
_cell_angle_alpha   90.03704995
_cell_angle_beta   89.99201038
_cell_angle_gamma   90.10578977
_symmetry_Int_Tables_number   1
_chemical_formula_structural   HfZrTaTiMo
_chemical_formula_sum   'Hf40 Zr40 Ta40 Ti40 Mo40'
_cell_volume   3870.16599754
_cell_formula_units_Z   40
loop_
 _symmetry_equiv_pos_site_id
 _symmetry_equiv_pos_as_xyz
  1  'x, y, z'
loop_
 _atom_site_type_symbol
 _atom_site_label
 _atom_site_symmetry_multiplicity
 _atom_site_fract_x
 _atom_site_fract_y
 _atom_site_fract_z
 _atom_site_occupancy
  Hf  Hf0  1  -0.00462330  0.19174505  0.75812759  1
  Hf  Hf1  1  0.90145783  0.50986924  0.37899383  1
  Hf  Hf2  1  0.69815855  0.51244437  0.11741725  1
  Hf  Hf3  1  0.38769400  0.38200741  0.26012326  1
  Hf  Hf4  1  0.51652745  0.70406159  0.38323287  1
  Hf  Hf5  1  0.59311982  0.60692412  -0.00553169  1
  Hf  Hf6  1  0.08346694  0.49795023  0.88949872  1
  Hf  Hf7  1  0.22249776  -0.01714690  0.24334544  1
  Hf  Hf8  1  -0.01061948  0.39589055  0.75444489  1
  Hf  Hf9  1  0.29828915  0.88859790  0.63419176  1
  Hf  Hf10  1  0.11264231  0.10724185  0.37187933  1
  Hf  Hf11  1  0.69247843  0.70720164  0.87102619  1
  Hf  Hf12  1  0.41037994  0.01433892  0.72971508  1
  Hf  Hf13  1  0.91195984  0.30871735  0.35410923  1
  Hf  Hf14  1  0.81067816  0.80616563  0.75990518  1
  Hf  Hf15  1  -0.01326350  0.59989298  0.74352980  1
  Hf  Hf16  1  0.11117840  0.09957678  0.11165935  1
  Hf  Hf17  1  0.79131848  0.79954277  0.00042534  1
  Hf  Hf18  1  0.90635060  0.09356688  0.61804155  1
  Hf  Hf19  1  0.19159238  0.59554766  0.75875109  1
  Hf  Hf20  1  0.88583557  0.49479116  0.62084600  1
  Hf  Hf21  1  0.58661595  0.40118033  0.74315518  1
  Hf  Hf22  1  0.08791697  0.29103500  0.89261012  1
  Hf  Hf23  1  0.58209861  0.40696179  0.49230602  1
  Hf  Hf24  1  0.79130838  0.59389985  0.75827462  1
  Hf  Hf25  1  0.21806525  0.20279914  0.24056614  1
  Hf  Hf26  1  0.78587589  0.39968903  0.00463248  1
  Hf  Hf27  1  0.70471979  0.90644106  0.62264984  1
  Hf  Hf28  1  0.20943777  0.39608615  0.77364875  1
  Hf  Hf29  1  0.40814722  0.79765833  0.50972464  1
  Hf  Hf30  1  0.41253609  0.18713212  -0.01463906  1
  Hf  Hf31  1  0.40285168  0.19659178  0.52128978  1
  Hf  Hf32  1  0.48671980  0.49581640  0.11958432  1
  Hf  Hf33  1  0.70075796  0.10413957  0.37029717  1
  Hf  Hf34  1  0.30057150  0.70117099  0.86029936  1
  Hf  Hf35  1  0.19833189  0.21342600  0.50963163  1
  Hf  Hf36  1  0.70996934  0.12267092  0.87650248  1
  Hf  Hf37  1  0.11118136  0.69678144  0.62070692  1
  Hf  Hf38  1  0.81040006  0.20776239  0.49134203  1
  Hf  Hf39  1  0.08893704  0.70134986  0.88477249  1
  Zr  Zr40  1  0.34212382  0.09074433  0.13104825  1
  Zr  Zr41  1  0.69506067  0.88613926  0.38020052  1
  Zr  Zr42  1  0.49064826  0.70336595  0.86363479  1
  Zr  Zr43  1  0.09213482  0.68465476  0.37254827  1
  Zr  Zr44  1  0.19704460  0.00100898  0.75102096  1
  Zr  Zr45  1  0.20077086  0.79508348  0.01410088  1
  Zr  Zr46  1  0.50148704  0.70740380  0.12335084  1
  Zr  Zr47  1  0.23972258  -0.00606545  -0.00063855  1
  Zr  Zr48  1  0.30072986  0.68849976  0.13921989  1
  Zr  Zr49  1  0.01691164  0.39521620  0.50118493  1
  Zr  Zr50  1  0.90341727  0.89342857  0.62003896  1
  Zr  Zr51  1  0.39510320  0.58721662  0.27345039  1
  Zr  Zr52  1  0.21077527  0.19661737  0.76156673  1
  Zr  Zr53  1  0.39504606  0.80541817  0.00039715  1
  Zr  Zr54  1  0.28905135  0.48466024  0.12856924  1
  Zr  Zr55  1  0.01319047  -0.00579525  0.24509904  1
  Zr  Zr56  1  0.09907177  0.10625766  0.62180585  1
  Zr  Zr57  1  0.60515441  0.20402325  0.73665560  1
  Zr  Zr58  1  0.10660932  0.89414388  0.88789695  1
  Zr  Zr59  1  0.67988277  0.51069778  0.61392930  1
  Zr  Zr60  1  0.80531740  0.01007294  -0.00019973  1
  Zr  Zr61  1  0.60126084  0.60496655  0.24837712  1
  Zr  Zr62  1  0.61293500  0.22175724  0.01141654  1
  Zr  Zr63  1  0.10732065  0.88737669  0.37476541  1
  Zr  Zr64  1  0.91070564  0.32072914  0.13262079  1
  Zr  Zr65  1  0.01050113  0.80073637  0.74988129  1
  Zr  Zr66  1  0.39198219  0.59201081  0.48883672  1
  Zr  Zr67  1  0.20569546  0.59413917  -0.00132338  1
  Zr  Zr68  1  0.81008872  -0.00833579  0.48252270  1
  Zr  Zr69  1  0.71245622  0.10203995  0.61748166  1
  Zr  Zr70  1  0.58805485  0.20487965  0.24356072  1
  Zr  Zr71  1  0.40134816  0.81616353  0.25731816  1
  Zr  Zr72  1  0.70045155  0.30821960  0.36820944  1
  Zr  Zr73  1  0.58663030  -0.00386869  0.25005773  1
  Zr  Zr74  1  0.09233029  0.08734897  0.89695079  1
  Zr  Zr75  1  0.90503238  0.10477315  0.35117793  1
  Zr  Zr76  1  0.40927342  0.21618649  0.74877359  1
  Zr  Zr77  1  0.89212234  0.70720485  0.37482147  1
  Zr  Zr78  1  0.27178602  0.50183600  0.61750635  1
  Zr  Zr79  1  0.31594452  0.10065261  0.37623874  1
  Ta  Ta80  1  0.79296430  0.61170021  0.24866307  1
  Ta  Ta81  1  0.02208906  0.21721947  0.23909655  1
  Ta  Ta82  1  -0.02280059  0.59328960  0.00828636  1
  Ta  Ta83  1  0.20699620  0.79076427  0.49952955  1
  Ta  Ta84  1  0.50646829  0.90429592  0.85868034  1
  Ta  Ta85  1  0.79226172  0.79911654  0.23684432  1
  Ta  Ta86  1  0.88148460  0.28755418  0.88479439  1
  Ta  Ta87  1  0.50516203  0.09088097  0.39225624  1
  Ta  Ta88  1  0.90170257  0.29485295  0.62291471  1
  Ta  Ta89  1  0.90209542  0.10504542  0.14257900  1
  Ta  Ta90  1  0.20721609  0.39195721  -0.01338970  1
  Ta  Ta91  1  0.60006648  0.20328539  0.50755218  1
  Ta  Ta92  1  0.21346666  0.00024664  0.50723374  1
  Ta  Ta93  1  0.70984406  0.70142269  0.62830905  1
  Ta  Ta94  1  0.08187906  0.48156907  0.10997432  1
  Ta  Ta95  1  0.60479799  0.80204015  0.24540241  1
  Ta  Ta96  1  0.58927548  0.41033646  0.25984487  1
  Ta  Ta97  1  -0.00883976  0.79859227  0.01987884  1
  Ta  Ta98  1  0.80085455  0.20669082  0.02342154  1
  Ta  Ta99  1  0.10113775  0.90157934  0.61443206  1
  Ta  Ta100  1  0.30763599  0.31369350  0.62886946  1
  Ta  Ta101  1  0.79392286  0.42068425  0.24705715  1
  Ta  Ta102  1  0.60333551  0.80442598  0.73968953  1
  Ta  Ta103  1  0.59208598  0.82383605  -0.00318201  1
  Ta  Ta104  1  0.70836499  0.31222630  0.61485106  1
  Ta  Ta105  1  0.81012438  0.00922121  0.76379690  1
  Ta  Ta106  1  0.30506243  0.29395286  0.11042235  1
  Ta  Ta107  1  0.89395134  0.90397872  0.12811216  1
  Ta  Ta108  1  0.69373120  0.52308306  0.38703028  1
  Ta  Ta109  1  -0.00801765  0.78856529  0.22983924  1
  Ta  Ta110  1  0.17770343  0.57919377  0.24850625  1
  Ta  Ta111  1  -0.00181405  0.59991000  0.51454032  1
  Ta  Ta112  1  0.50754876  0.68711186  0.62888451  1
  Ta  Ta113  1  0.08799972  0.68231649  0.12675255  1
  Ta  Ta114  1  0.01086829  -0.00122925  0.48594757  1
  Ta  Ta115  1  -0.00448618  -0.00435093  0.75552134  1
  Ta  Ta116  1  0.31715514  0.89679764  0.85110919  1
  Ta  Ta117  1  0.68996254  0.90415939  0.12185128  1
  Ta  Ta118  1  0.80042292  0.40466584  0.49214429  1
  Ta  Ta119  1  0.31248702  0.90029578  0.38954029  1
  Ti  Ti120  1  0.59738318  0.01541303  0.00122324  1
  Ti  Ti121  1  0.80232830  0.78300950  0.50380578  1
  Ti  Ti122  1  0.39994570  0.39811414  -0.00989232  1
  Ti  Ti123  1  0.59146613  0.59774449  0.75258632  1
  Ti  Ti124  1  0.49362262  0.30029280  0.12435252  1
  Ti  Ti125  1  0.28721442  0.29554828  0.38083175  1
  Ti  Ti126  1  0.22066453  0.19568702  -0.01353367  1
  Ti  Ti127  1  0.47264425  0.49284272  0.62708996  1
  Ti  Ti128  1  0.88502776  0.49253788  0.88148560  1
  Ti  Ti129  1  0.10776879  0.31769431  0.63510021  1
  Ti  Ti130  1  0.60204248  0.80303958  0.51362297  1
  Ti  Ti131  1  0.91287971  0.90887926  0.88975350  1
  Ti  Ti132  1  0.89757163  0.69677489  0.88678009  1
  Ti  Ti133  1  0.17678920  0.38722207  0.24832139  1
  Ti  Ti134  1  0.38842696  0.39367705  0.49025196  1
  Ti  Ti135  1  0.00336935  0.20159606  0.49047797  1
  Ti  Ti136  1  0.69608231  0.91307153  0.87321937  1
  Ti  Ti137  1  0.48390424  0.50288572  0.87363899  1
  Ti  Ti138  1  0.19308348  0.78897090  0.24362316  1
  Ti  Ti139  1  0.60975442  0.00538534  0.74457175  1
  Ti  Ti140  1  0.78847634  0.39189702  0.75587813  1
  Ti  Ti141  1  0.79456444  -0.00588919  0.24876235  1
  Ti  Ti142  1  0.51324901  0.31042057  0.87931344  1
  Ti  Ti143  1  0.87747026  0.68930798  0.11774629  1
  Ti  Ti144  1  0.70375512  0.10393186  0.13554549  1
  Ti  Ti145  1  0.28658592  0.70011243  0.37167622  1
  Ti  Ti146  1  0.48636249  0.92015977  0.12178336  1
  Ti  Ti147  1  -0.01644233  0.18923447  0.00849105  1
  Ti  Ti148  1  0.41415748  -0.00444476  0.52168260  1
  Ti  Ti149  1  0.80447565  0.20655756  0.74507467  1
  Ti  Ti150  1  0.26888954  0.49077705  0.38057840  1
  Ti  Ti151  1  -0.00012495  0.79964207  0.50172001  1
  Ti  Ti152  1  0.68365374  0.48973126  0.88131265  1
  Ti  Ti153  1  0.90663571  0.89508407  0.36130601  1
  Ti  Ti154  1  0.10365395  0.89461444  0.12228535  1
  Ti  Ti155  1  0.10892885  0.29861479  0.10233123  1
  Ti  Ti156  1  0.49026529  0.28798417  0.37786420  1
  Ti  Ti157  1  -0.01514979  0.58764423  0.23620172  1
  Ti  Ti158  1  0.30816735  0.69228643  0.63796755  1
  Ti  Ti159  1  0.50875566  0.09449060  0.86763995  1
  Mo  Mo160  1  0.69647310  0.31573544  0.14439499  1
  Mo  Mo161  1  0.51483884  0.09575086  0.61408557  1
  Mo  Mo162  1  0.40180505  0.58646789  0.74179858  1
  Mo  Mo163  1  0.69530157  0.71360929  0.11487270  1
  Mo  Mo164  1  0.70305365  0.70278272  0.37955634  1
  Mo  Mo165  1  0.58649627  0.40560069  -0.00174427  1
  Mo  Mo166  1  0.30593998  0.89172000  0.13265253  1
  Mo  Mo167  1  0.51622712  0.10104631  0.11811932  1
  Mo  Mo168  1  0.59692186  -0.00253954  0.50115603  1
  Mo  Mo169  1  0.59322550  0.61243079  0.50478261  1
  Mo  Mo170  1  0.42705484  -0.01239417  -0.01401443  1
  Mo  Mo171  1  0.40971420  0.20299451  0.25441115  1
  Mo  Mo172  1  0.00949184  0.41513510  0.24911487  1
  Mo  Mo173  1  0.49417662  0.49091158  0.37581628  1
  Mo  Mo174  1  0.50194394  0.31262892  0.61707374  1
  Mo  Mo175  1  0.79323609  0.60105584  -0.01719135  1
  Mo  Mo176  1  0.49850804  0.90408355  0.38922866  1
  Mo  Mo177  1  0.20281619  0.79853652  0.74513457  1
  Mo  Mo178  1  0.18986772  0.60023806  0.49247822  1
  Mo  Mo179  1  0.70272422  0.31151365  0.87147212  1
  Mo  Mo180  1  0.20253902  0.40048052  0.49993029  1
  Mo  Mo181  1  0.31250714  0.29916395  0.88712301  1
  Mo  Mo182  1  0.89338053  0.50960385  0.12445815  1
  Mo  Mo183  1  0.90128198  0.10145902  0.88214024  1
  Mo  Mo184  1  0.41141446  0.00436927  0.26254125  1
  Mo  Mo185  1  -0.00192224  -0.00555508  0.02184056  1
  Mo  Mo186  1  0.80039708  0.20860990  0.23034491  1
  Mo  Mo187  1  0.79844267  0.60297705  0.50388603  1
  Mo  Mo188  1  0.31860180  0.08896117  0.87344287  1
  Mo  Mo189  1  0.51042565  0.89442977  0.63442697  1
  Mo  Mo190  1  0.09238968  0.49412945  0.37185046  1
  Mo  Mo191  1  0.30781291  0.50338526  0.88062181  1
  Mo  Mo192  1  0.29946246  0.10080344  0.61998969  1
  Mo  Mo193  1  0.39765556  0.40680924  0.75590328  1
  Mo  Mo194  1  0.39630235  0.59065402  -0.00494553  1
  Mo  Mo195  1  0.89689942  0.69809534  0.61906248  1
  Mo  Mo196  1  0.10800618  0.30046487  0.37024395  1
  Mo  Mo197  1  -0.00989820  0.39132655  -0.00801192  1
  Mo  Mo198  1  0.41023847  0.79681231  0.73431262  1
  Mo  Mo199  1  0.09104567  0.49506336  0.63242089  1
