# generated using pymatgen
data_HfZrTaTiMo
_symmetry_space_group_name_H-M   'P 1'
_cell_length_a   15.20555218
_cell_length_b   15.20279129
_cell_length_c   16.83085126
_cell_angle_alpha   90.00634685
_cell_angle_beta   90.03795686
_cell_angle_gamma   89.96365457
_symmetry_Int_Tables_number   1
_chemical_formula_structural   HfZrTaTiMo
_chemical_formula_sum   'Hf40 Zr40 Ta40 Ti40 Mo40'
_cell_volume   3890.73297506
_cell_formula_units_Z   40
loop_
 _symmetry_equiv_pos_site_id
 _symmetry_equiv_pos_as_xyz
  1  'x, y, z'
loop_
 _atom_site_type_symbol
 _atom_site_label
 _atom_site_symmetry_multiplicity
 _atom_site_fract_x
 _atom_site_fract_y
 _atom_site_fract_z
 _atom_site_occupancy
  Hf  Hf0  1  0.59925191  0.20501421  0.01215764  1
  Hf  Hf1  1  0.09065404  0.71023762  0.36730511  1
  Hf  Hf2  1  0.71189997  0.11024404  0.12831164  1
  Hf  Hf3  1  0.60040018  0.60244983  0.74626699  1
  Hf  Hf4  1  0.09079527  0.90499724  0.86558344  1
  Hf  Hf5  1  0.50064494  0.91276543  0.86196463  1
  Hf  Hf6  1  0.71366552  0.51745258  0.89221104  1
  Hf  Hf7  1  0.89970549  0.89578507  0.64346671  1
  Hf  Hf8  1  0.81650177  0.80514143  0.49670581  1
  Hf  Hf9  1  0.80597873  0.20594794  0.74245107  1
  Hf  Hf10  1  0.68413675  0.50739128  0.36574134  1
  Hf  Hf11  1  0.92458432  0.10336876  0.86695084  1
  Hf  Hf12  1  0.49357275  0.72173331  0.13193756  1
  Hf  Hf13  1  0.29503104  0.70005563  0.37835143  1
  Hf  Hf14  1  0.41490017  0.59357694  0.49963716  1
  Hf  Hf15  1  0.39912475  0.80354591  0.73332248  1
  Hf  Hf16  1  0.09938772  0.28357848  0.86191390  1
  Hf  Hf17  1  0.69644101  0.88934667  0.13012948  1
  Hf  Hf18  1  0.31228018  0.89728240  0.11781395  1
  Hf  Hf19  1  0.00735303  -0.01192306  0.50739367  1
  Hf  Hf20  1  0.00521082  -0.00055244  0.00984681  1
  Hf  Hf21  1  0.78550653  0.41543904  0.50529589  1
  Hf  Hf22  1  0.58814446  0.81047519  -0.01088553  1
  Hf  Hf23  1  0.29786785  0.70006005  0.86667810  1
  Hf  Hf24  1  0.19437769  0.01516064  0.74946691  1
  Hf  Hf25  1  0.21103667  0.00276579  0.24379400  1
  Hf  Hf26  1  0.28509254  0.49815551  0.87019997  1
  Hf  Hf27  1  0.89511067  0.27832382  0.12548663  1
  Hf  Hf28  1  0.91953855  0.70264416  0.63565893  1
  Hf  Hf29  1  0.71259568  0.70093126  0.61872256  1
  Hf  Hf30  1  0.00341410  0.38762546  0.48873302  1
  Hf  Hf31  1  0.81971881  0.38163232  -0.01130475  1
  Hf  Hf32  1  0.80867044  -0.00444576  0.00099197  1
  Hf  Hf33  1  0.81305196  -0.00626611  0.23739158  1
  Hf  Hf34  1  0.29035585  0.09223228  0.38754273  1
  Hf  Hf35  1  0.88819759  0.50232670  0.37384545  1
  Hf  Hf36  1  0.28872960  0.30654799  0.61752871  1
  Hf  Hf37  1  0.68631989  0.31028924  0.37561857  1
  Hf  Hf38  1  0.18437595  0.39662038  -0.00111211  1
  Hf  Hf39  1  0.70820752  0.48714346  0.11176385  1
  Zr  Zr40  1  0.69399420  0.10053209  0.37923742  1
  Zr  Zr41  1  0.09685242  0.30571677  0.14051425  1
  Zr  Zr42  1  0.80219154  0.20921378  0.50752056  1
  Zr  Zr43  1  0.81272937  0.78802751  0.24617059  1
  Zr  Zr44  1  0.50038909  0.08632348  0.37982383  1
  Zr  Zr45  1  0.59939998  0.80513402  0.49306876  1
  Zr  Zr46  1  0.58841656  0.39322333  -0.00152105  1
  Zr  Zr47  1  0.80475887  0.60391786  0.75527461  1
  Zr  Zr48  1  0.68267793  0.31611710  0.63284277  1
  Zr  Zr49  1  0.29204393  0.91244701  0.61680357  1
  Zr  Zr50  1  0.49433556  0.50880213  0.87922834  1
  Zr  Zr51  1  0.80791508  0.20137908  0.26481117  1
  Zr  Zr52  1  0.29363158  0.49510765  0.12707492  1
  Zr  Zr53  1  0.48576414  0.49097474  0.12297282  1
  Zr  Zr54  1  0.19447208  0.80022838  -0.00334795  1
  Zr  Zr55  1  0.29283550  0.69969203  0.13208552  1
  Zr  Zr56  1  0.79302916  0.78105245  -0.00736483  1
  Zr  Zr57  1  0.69447909  0.29108151  0.86951319  1
  Zr  Zr58  1  0.90271541  0.07631361  0.37811156  1
  Zr  Zr59  1  0.58554525  0.21605675  0.50558276  1
  Zr  Zr60  1  0.29725425  0.11206349  0.87431637  1
  Zr  Zr61  1  0.18321321  0.21100899  0.48682320  1
  Zr  Zr62  1  0.40526808  0.00743313  0.00263040  1
  Zr  Zr63  1  0.60211300  0.60629369  0.23332832  1
  Zr  Zr64  1  0.70129127  0.09780274  0.87358075  1
  Zr  Zr65  1  0.39778149  0.40263072  0.74847502  1
  Zr  Zr66  1  0.70648519  0.91193629  0.37732818  1
  Zr  Zr67  1  -0.00604080  0.19265510  0.49158310  1
  Zr  Zr68  1  0.60205364  0.00669040  0.00186840  1
  Zr  Zr69  1  0.39891377  0.81056989  0.27039082  1
  Zr  Zr70  1  0.80450889  0.59844044  0.22911420  1
  Zr  Zr71  1  0.80876666  0.40800785  0.76010474  1
  Zr  Zr72  1  0.30068523  0.90087560  0.87256152  1
  Zr  Zr73  1  0.79676785  -0.00198562  0.75275632  1
  Zr  Zr74  1  0.40242766  0.80082695  0.50071305  1
  Zr  Zr75  1  0.30259450  0.49986877  0.61311848  1
  Zr  Zr76  1  0.39493885  0.61509761  -0.00206158  1
  Zr  Zr77  1  0.61158588  0.61950041  0.00999812  1
  Zr  Zr78  1  0.10007686  0.48506403  0.62256451  1
  Zr  Zr79  1  0.09584236  0.50491282  0.36745374  1
  Ta  Ta80  1  0.19161759  0.80718856  0.24952405  1
  Ta  Ta81  1  0.59432735  0.00949459  0.73798250  1
  Ta  Ta82  1  0.11192132  0.91102326  0.37589709  1
  Ta  Ta83  1  0.61218164  0.58926495  0.50731839  1
  Ta  Ta84  1  0.51290111  0.68755135  0.37366296  1
  Ta  Ta85  1  0.69695672  0.90252268  0.62482706  1
  Ta  Ta86  1  0.89588514  0.50197380  0.62014772  1
  Ta  Ta87  1  0.08826720  0.70096079  0.12636096  1
  Ta  Ta88  1  0.41277096  0.38872935  0.48731109  1
  Ta  Ta89  1  0.18359732  0.59772671  -0.00014825  1
  Ta  Ta90  1  0.20005082  0.20057034  0.00697681  1
  Ta  Ta91  1  0.19703869  0.01147677  0.00643709  1
  Ta  Ta92  1  0.59874968  0.40313372  0.75948919  1
  Ta  Ta93  1  0.49536302  0.10768083  0.14087833  1
  Ta  Ta94  1  0.21051855  0.39511047  0.26549325  1
  Ta  Ta95  1  0.00650814  0.59099489  0.75602762  1
  Ta  Ta96  1  0.40082136  0.20972887  0.00461046  1
  Ta  Ta97  1  0.09833606  0.10871915  0.13101312  1
  Ta  Ta98  1  0.30681151  0.29884968  0.13257483  1
  Ta  Ta99  1  0.09875094  0.50428225  0.13958059  1
  Ta  Ta100  1  0.01147958  -0.01013637  0.23896663  1
  Ta  Ta101  1  0.60145404  0.81053713  0.26714068  1
  Ta  Ta102  1  0.39989234  0.60544107  0.73789429  1
  Ta  Ta103  1  0.50129854  0.11560496  0.86414984  1
  Ta  Ta104  1  0.19004015  0.80390547  0.50686953  1
  Ta  Ta105  1  0.19986437  0.60270033  0.25304644  1
  Ta  Ta106  1  0.71044147  0.69571113  0.38180044  1
  Ta  Ta107  1  0.79964365  0.00573080  0.51836016  1
  Ta  Ta108  1  0.91667205  0.48316618  0.12117923  1
  Ta  Ta109  1  0.60603813  0.80748209  0.74861694  1
  Ta  Ta110  1  0.01056192  0.79352770  0.50382142  1
  Ta  Ta111  1  0.09019694  0.88830859  0.64181056  1
  Ta  Ta112  1  0.40148782  0.01323986  0.73762532  1
  Ta  Ta113  1  0.30383436  0.49822662  0.38194182  1
  Ta  Ta114  1  0.18638100  0.78681924  0.74455597  1
  Ta  Ta115  1  0.39903285  0.20034388  0.73655997  1
  Ta  Ta116  1  0.39385687  0.20973216  0.26268238  1
  Ta  Ta117  1  0.19019644  0.60603873  0.50088000  1
  Ta  Ta118  1  -0.00568982  0.60090698  0.50299891  1
  Ta  Ta119  1  0.79268459  0.39374782  0.24424395  1
  Ti  Ti120  1  0.40748617  0.00313469  0.25461257  1
  Ti  Ti121  1  0.00247499  0.19005614  0.26653161  1
  Ti  Ti122  1  0.51386356  0.48411634  0.62450134  1
  Ti  Ti123  1  0.10157973  0.09814628  0.62636585  1
  Ti  Ti124  1  0.49064585  0.29584754  0.86844526  1
  Ti  Ti125  1  -0.00093694  0.39763395  0.75868334  1
  Ti  Ti126  1  0.29537624  0.29836410  0.86422877  1
  Ti  Ti127  1  0.30234980  0.10948544  0.12813499  1
  Ti  Ti128  1  0.69280508  0.10403666  0.62627595  1
  Ti  Ti129  1  0.91038120  0.30646715  0.62909046  1
  Ti  Ti130  1  0.38961336  0.39080530  -0.00597660  1
  Ti  Ti131  1  0.19745866  0.20101626  0.26336646  1
  Ti  Ti132  1  0.19700305  0.59082448  0.74220978  1
  Ti  Ti133  1  0.50538338  0.70001372  0.62276603  1
  Ti  Ti134  1  0.09740516  0.28968287  0.64085224  1
  Ti  Ti135  1  0.49617586  0.70906968  0.86562580  1
  Ti  Ti136  1  0.09486814  0.68784165  0.87272220  1
  Ti  Ti137  1  0.29450720  0.10714723  0.61033868  1
  Ti  Ti138  1  0.92097381  0.88455098  0.36723143  1
  Ti  Ti139  1  0.90255526  0.69417756  0.37693250  1
  Ti  Ti140  1  0.50258330  0.91080405  0.61990955  1
  Ti  Ti141  1  0.50442613  0.91278698  0.13514059  1
  Ti  Ti142  1  -0.01042356  0.38950534  0.26278874  1
  Ti  Ti143  1  0.89792884  0.68162817  0.88219098  1
  Ti  Ti144  1  0.90001107  0.89353823  0.86926704  1
  Ti  Ti145  1  0.79379951  0.79543248  0.76691515  1
  Ti  Ti146  1  0.91449054  0.87841741  0.12105945  1
  Ti  Ti147  1  0.59645464  0.20516285  0.24531850  1
  Ti  Ti148  1  -0.00225874  0.78787393  -0.00866566  1
  Ti  Ti149  1  0.00076879  0.58098564  -0.00184589  1
  Ti  Ti150  1  0.40013147  0.58901402  0.26060201  1
  Ti  Ti151  1  0.30593686  0.90809946  0.39416386  1
  Ti  Ti152  1  0.49490321  0.10636289  0.61663095  1
  Ti  Ti153  1  0.29126672  0.69856195  0.62138360  1
  Ti  Ti154  1  0.39525306  0.20443730  0.49378106  1
  Ti  Ti155  1  0.91187289  0.10062313  0.63509489  1
  Ti  Ti156  1  -0.00572005  0.60973294  0.24168010  1
  Ti  Ti157  1  0.58532106  0.39219986  0.23937130  1
  Ti  Ti158  1  0.10641485  0.89559690  0.12351371  1
  Ti  Ti159  1  -0.00035958  0.20542275  -0.00079712  1
  Mo  Mo160  1  0.58639054  0.19959403  0.74078126  1
  Mo  Mo161  1  0.00564891  0.19333729  0.73929367  1
  Mo  Mo162  1  0.81759501  0.59310854  0.01336668  1
  Mo  Mo163  1  0.89314777  0.30631949  0.37040903  1
  Mo  Mo164  1  0.69910057  0.50625077  0.63024386  1
  Mo  Mo165  1  0.59656911  0.00062691  0.24455915  1
  Mo  Mo166  1  0.91864413  0.49806010  0.88171555  1
  Mo  Mo167  1  0.90626044  0.29312891  0.87279846  1
  Mo  Mo168  1  0.09554343  0.29815625  0.35697086  1
  Mo  Mo169  1  0.48651898  0.30254413  0.62661707  1
  Mo  Mo170  1  0.40246031  0.01040529  0.51071986  1
  Mo  Mo171  1  0.69812730  0.70514654  0.12578984  1
  Mo  Mo172  1  0.50017249  0.90358044  0.37746157  1
  Mo  Mo173  1  -0.00665986  0.78643594  0.77065135  1
  Mo  Mo174  1  0.40394481  0.80335786  -0.00521830  1
  Mo  Mo175  1  0.20277315  0.40441772  0.47802683  1
  Mo  Mo176  1  0.91007649  0.68858410  0.10914520  1
  Mo  Mo177  1  0.60204069  0.00433297  0.52131686  1
  Mo  Mo178  1  0.81170103  0.18804659  -0.00123879  1
  Mo  Mo179  1  0.58580551  0.41295431  0.49749733  1
  Mo  Mo180  1  0.49686051  0.29951075  0.36417976  1
  Mo  Mo181  1  0.40011798  0.39896731  0.26319497  1
  Mo  Mo182  1  0.29860523  0.30006858  0.37945386  1
  Mo  Mo183  1  0.09646791  0.49924416  0.86959490  1
  Mo  Mo184  1  0.20705956  0.20170673  0.73799560  1
  Mo  Mo185  1  0.50064287  0.49785520  0.36761081  1
  Mo  Mo186  1  0.10881092  0.09998311  0.88416138  1
  Mo  Mo187  1  0.00467623  0.80264093  0.24363480  1
  Mo  Mo188  1  0.19191063  0.39836793  0.75090646  1
  Mo  Mo189  1  0.69905145  0.89875824  0.86448357  1
  Mo  Mo190  1  0.91487824  0.09279204  0.12445336  1
  Mo  Mo191  1  0.09867231  0.08968081  0.36238221  1
  Mo  Mo192  1  0.19251880  -0.00159308  0.50731331  1
  Mo  Mo193  1  0.10402541  0.69280764  0.62953595  1
  Mo  Mo194  1  0.00281110  -0.00162647  0.74515913  1
  Mo  Mo195  1  0.69879660  0.29991571  0.13164748  1
  Mo  Mo196  1  0.00923640  0.39477727  -0.00010493  1
  Mo  Mo197  1  0.80567751  0.60515345  0.50098148  1
  Mo  Mo198  1  0.48898912  0.29246728  0.13339486  1
  Mo  Mo199  1  0.69028023  0.70737733  0.86763330  1
