# generated using pymatgen
data_HfZrTaTiMo
_symmetry_space_group_name_H-M   'P 1'
_cell_length_a   15.21995730
_cell_length_b   15.21509154
_cell_length_c   16.83780911
_cell_angle_alpha   89.95604692
_cell_angle_beta   89.94722930
_cell_angle_gamma   90.04574126
_symmetry_Int_Tables_number   1
_chemical_formula_structural   HfZrTaTiMo
_chemical_formula_sum   'Hf40 Zr40 Ta40 Ti40 Mo40'
_cell_volume   3899.17865749
_cell_formula_units_Z   40
loop_
 _symmetry_equiv_pos_site_id
 _symmetry_equiv_pos_as_xyz
  1  'x, y, z'
loop_
 _atom_site_type_symbol
 _atom_site_label
 _atom_site_symmetry_multiplicity
 _atom_site_fract_x
 _atom_site_fract_y
 _atom_site_fract_z
 _atom_site_occupancy
  Hf  Hf0  1  -0.00519925  0.19768554  0.25760380  1
  Hf  Hf1  1  0.20025203  0.21486141  0.75818367  1
  Hf  Hf2  1  0.20108082  0.42344144  0.23862238  1
  Hf  Hf3  1  0.60970420  0.59334411  0.24415155  1
  Hf  Hf4  1  0.58656038  0.38336090  -0.00241337  1
  Hf  Hf5  1  0.30815821  0.90736110  0.63781511  1
  Hf  Hf6  1  0.09942237  0.89496678  0.85416099  1
  Hf  Hf7  1  0.80250220  0.40548521  0.50941962  1
  Hf  Hf8  1  0.59663745  0.81135146  0.00640730  1
  Hf  Hf9  1  0.89832051  0.10342233  0.12356843  1
  Hf  Hf10  1  0.59170401  0.60964170  0.75223954  1
  Hf  Hf11  1  0.01140230  0.82633006  0.26671027  1
  Hf  Hf12  1  0.59284811  0.39599465  0.24167055  1
  Hf  Hf13  1  0.70296250  0.50123744  0.37847056  1
  Hf  Hf14  1  -0.00292262  0.38642489  0.75250785  1
  Hf  Hf15  1  0.40372911  0.57822436  0.24193660  1
  Hf  Hf16  1  0.48673486  0.90259769  0.13839599  1
  Hf  Hf17  1  0.71173884  0.70178030  0.11573358  1
  Hf  Hf18  1  -0.00299798  0.39677482  0.49792103  1
  Hf  Hf19  1  -0.00332791  0.40460740  0.23840909  1
  Hf  Hf20  1  0.11743689  0.69696378  0.37108355  1
  Hf  Hf21  1  0.50393100  0.68987335  0.11682050  1
  Hf  Hf22  1  0.79540910  -0.00217971  -0.00172060  1
  Hf  Hf23  1  0.69214125  0.10458308  0.12940207  1
  Hf  Hf24  1  0.31567353  0.71160835  0.36134273  1
  Hf  Hf25  1  0.50040350  0.10330012  0.86064608  1
  Hf  Hf26  1  0.80247289  0.61003892  0.76199208  1
  Hf  Hf27  1  0.21230295  0.80413405  0.50438766  1
  Hf  Hf28  1  0.70268763  0.52318358  0.62705441  1
  Hf  Hf29  1  0.69116146  0.70873397  0.88279358  1
  Hf  Hf30  1  0.09844385  0.07960310  0.13378854  1
  Hf  Hf31  1  0.01108125  0.60322223  0.25095795  1
  Hf  Hf32  1  0.58879117  0.20348551  0.50909189  1
  Hf  Hf33  1  0.48987576  0.08067897  0.63523687  1
  Hf  Hf34  1  0.89385088  0.09559742  0.85751463  1
  Hf  Hf35  1  0.90377909  0.69136502  0.62127083  1
  Hf  Hf36  1  0.69412156  0.30486929  0.38021135  1
  Hf  Hf37  1  0.91280467  0.90690876  0.63095537  1
  Hf  Hf38  1  0.39928367  0.20951846  -0.00050402  1
  Hf  Hf39  1  0.50513374  0.68337821  0.37831095  1
  Zr  Zr40  1  0.30158513  0.50156898  0.87358792  1
  Zr  Zr41  1  0.80552189  0.61214970  -0.01113688  1
  Zr  Zr42  1  0.30902219  0.31327361  0.36420424  1
  Zr  Zr43  1  0.90359690  0.28917878  0.88815402  1
  Zr  Zr44  1  0.49996754  0.88309805  0.36339878  1
  Zr  Zr45  1  0.29839365  0.51306472  0.38277092  1
  Zr  Zr46  1  0.30134018  0.08763449  0.85895238  1
  Zr  Zr47  1  0.69914586  0.70496525  0.37893755  1
  Zr  Zr48  1  0.80436161  0.80014234  0.25559137  1
  Zr  Zr49  1  -0.00091699  0.19238827  0.49400343  1
  Zr  Zr50  1  0.41617001  0.78667619  0.73674272  1
  Zr  Zr51  1  0.08835327  0.10068843  0.86390229  1
  Zr  Zr52  1  0.09703504  0.50347766  0.62512746  1
  Zr  Zr53  1  0.39472997  0.18613372  0.48865230  1
  Zr  Zr54  1  0.39843894  -0.00419121  0.00133331  1
  Zr  Zr55  1  0.29891224  0.09906952  0.13494535  1
  Zr  Zr56  1  0.70297046  0.90665970  0.86716972  1
  Zr  Zr57  1  0.49890636  0.89983706  0.86998746  1
  Zr  Zr58  1  0.22217929  0.40165263  0.01654164  1
  Zr  Zr59  1  0.10824593  0.28187951  0.12783075  1
  Zr  Zr60  1  0.79975450  0.21889659  0.73176010  1
  Zr  Zr61  1  0.40850072  0.38678587  0.50820986  1
  Zr  Zr62  1  0.69289846  0.10397120  0.86516261  1
  Zr  Zr63  1  0.79192130  0.40002748  0.00398900  1
  Zr  Zr64  1  0.10793018  0.72565681  0.12815383  1
  Zr  Zr65  1  0.59348716  0.20943709  0.73129442  1
  Zr  Zr66  1  0.80172130  0.00677955  0.50759301  1
  Zr  Zr67  1  0.19062867  0.00476783  0.49433533  1
  Zr  Zr68  1  0.39384872  -0.00938079  0.48526946  1
  Zr  Zr69  1  0.91172419  0.90230264  0.12322578  1
  Zr  Zr70  1  0.00702545  0.81350468  0.49134773  1
  Zr  Zr71  1  0.01028782  0.40376434  0.01943640  1
  Zr  Zr72  1  0.79537478  0.20631080  0.51623508  1
  Zr  Zr73  1  0.19760218  -0.02110394  -0.00374999  1
  Zr  Zr74  1  0.29976335  0.50242544  0.62172685  1
  Zr  Zr75  1  0.89035143  0.51492087  0.12469522  1
  Zr  Zr76  1  0.09882228  0.09127756  0.63892268  1
  Zr  Zr77  1  0.90449616  0.49803761  0.88159149  1
  Zr  Zr78  1  0.79452075  0.79985161  0.50634624  1
  Zr  Zr79  1  0.01516858  0.60280897  0.75988315  1
  Ta  Ta80  1  0.49844087  0.10118489  0.13532777  1
  Ta  Ta81  1  0.68746969  0.50036003  0.87821041  1
  Ta  Ta82  1  0.30295890  0.70253742  0.14238916  1
  Ta  Ta83  1  0.59934896  0.19640637  0.26043222  1
  Ta  Ta84  1  0.20835648  0.77173209  0.73781408  1
  Ta  Ta85  1  0.49535936  0.49846855  0.87941290  1
  Ta  Ta86  1  0.69852934  0.90663793  0.12961813  1
  Ta  Ta87  1  0.09847996  0.29549282  0.62391335  1
  Ta  Ta88  1  0.20501780  0.19174014  0.26640617  1
  Ta  Ta89  1  0.37750448  0.79424235  0.00635809  1
  Ta  Ta90  1  0.00504032  0.59634817  0.48774897  1
  Ta  Ta91  1  0.90751728  0.10578995  0.63993185  1
  Ta  Ta92  1  0.89209557  0.30536408  0.36709747  1
  Ta  Ta93  1  0.01464886  0.61380243  0.00000837  1
  Ta  Ta94  1  0.40800914  0.78916563  0.50998442  1
  Ta  Ta95  1  0.12533213  0.70101421  0.88062286  1
  Ta  Ta96  1  0.19760048  0.19411281  -0.00686109  1
  Ta  Ta97  1  0.79922188  0.80146010  0.73982955  1
  Ta  Ta98  1  0.19226103  0.39647412  0.49588681  1
  Ta  Ta99  1  0.19885983  0.20498961  0.48882514  1
  Ta  Ta100  1  0.59582396  -0.00193343  0.49513473  1
  Ta  Ta101  1  0.10545840  0.30540856  0.88853290  1
  Ta  Ta102  1  0.29563599  0.10383282  0.63956505  1
  Ta  Ta103  1  0.50255134  0.48176318  0.38333943  1
  Ta  Ta104  1  0.10762761  0.50170802  0.88487521  1
  Ta  Ta105  1  0.80014881  0.00166671  0.25595132  1
  Ta  Ta106  1  0.29679030  0.87547407  0.85923045  1
  Ta  Ta107  1  0.48725744  0.69334597  0.88912526  1
  Ta  Ta108  1  0.89143032  0.29071961  0.12126502  1
  Ta  Ta109  1  0.78663777  0.19836317  -0.00181158  1
  Ta  Ta110  1  0.41140445  0.19293535  0.26606595  1
  Ta  Ta111  1  0.09968312  0.30861202  0.36679489  1
  Ta  Ta112  1  0.39470951  0.58980590  0.00828001  1
  Ta  Ta113  1  0.90395572  0.49939819  0.36876063  1
  Ta  Ta114  1  0.89211051  0.09744466  0.37391862  1
  Ta  Ta115  1  0.78898398  0.40776809  0.75127211  1
  Ta  Ta116  1  0.50585473  0.49271749  0.62327429  1
  Ta  Ta117  1  0.39466766  0.59800378  0.74548013  1
  Ta  Ta118  1  0.19817167  0.40492705  0.75476687  1
  Ta  Ta119  1  0.68924643  0.30213205  0.87241769  1
  Ti  Ti120  1  0.67978761  0.32680911  0.62196865  1
  Ti  Ti121  1  0.68481411  0.90149735  0.62037349  1
  Ti  Ti122  1  0.27962774  0.89426167  0.14182747  1
  Ti  Ti123  1  0.10736281  0.69613724  0.61864419  1
  Ti  Ti124  1  0.10502118  0.89805817  0.64041650  1
  Ti  Ti125  1  0.78519908  0.00164797  0.73104511  1
  Ti  Ti126  1  0.50142875  0.28452388  0.12744072  1
  Ti  Ti127  1  0.48508275  0.30137360  0.86782734  1
  Ti  Ti128  1  0.20617022  0.60359207  0.50103542  1
  Ti  Ti129  1  0.59161016  0.40668223  0.75531458  1
  Ti  Ti130  1  0.90864242  0.70898258  0.12316482  1
  Ti  Ti131  1  0.31726164  0.30295231  0.14342070  1
  Ti  Ti132  1  0.80526489  0.60060066  0.25223611  1
  Ti  Ti133  1  0.81048434  0.59953906  0.49696085  1
  Ti  Ti134  1  0.81445635  0.80837367  -0.00279682  1
  Ti  Ti135  1  0.20906681  0.61111229  0.01215527  1
  Ti  Ti136  1  0.09367271  0.09088880  0.36898585  1
  Ti  Ti137  1  0.69622831  0.10001853  0.37572092  1
  Ti  Ti138  1  0.70264484  0.90505919  0.37812620  1
  Ti  Ti139  1  0.60816833  0.80221913  0.73846080  1
  Ti  Ti140  1  0.69517655  0.29427275  0.12329320  1
  Ti  Ti141  1  0.68621051  0.50500504  0.10848929  1
  Ti  Ti142  1  0.59822792  0.00255399  0.25767280  1
  Ti  Ti143  1  0.00080268  0.79167574  0.74562700  1
  Ti  Ti144  1  -0.00203284  0.00329652  -0.00860066  1
  Ti  Ti145  1  0.90111803  0.90137252  0.86059349  1
  Ti  Ti146  1  0.60424516  0.79753831  0.24126388  1
  Ti  Ti147  1  0.29511608  0.29456700  0.62290197  1
  Ti  Ti148  1  0.79378704  0.20518939  0.25194406  1
  Ti  Ti149  1  0.38072421  -0.00293510  0.26852858  1
  Ti  Ti150  1  0.01290961  0.81095929  -0.00652892  1
  Ti  Ti151  1  0.51164031  0.69365900  0.61267058  1
  Ti  Ti152  1  0.91429673  0.71361658  0.87593737  1
  Ti  Ti153  1  0.39594474  0.38846566  0.74422349  1
  Ti  Ti154  1  0.90242606  0.49781946  0.63195725  1
  Ti  Ti155  1  0.48783070  0.48024243  0.11234947  1
  Ti  Ti156  1  0.90286676  0.70063338  0.37789192  1
  Ti  Ti157  1  0.59543409  0.01248359  0.00630362  1
  Ti  Ti158  1  0.60140232  0.59859826  0.50340430  1
  Ti  Ti159  1  0.79505337  0.40221230  0.23981923  1
  Mo  Mo160  1  0.40094374  -0.00578828  0.75130320  1
  Mo  Mo161  1  0.40756325  0.79690894  0.23978505  1
  Mo  Mo162  1  0.60080750  -0.00953937  0.73785483  1
  Mo  Mo163  1  -0.01072210  0.00557389  0.25974175  1
  Mo  Mo164  1  0.29687057  0.30016425  0.87452658  1
  Mo  Mo165  1  0.50836618  0.09132604  0.36815349  1
  Mo  Mo166  1  0.69894312  0.70677666  0.62379514  1
  Mo  Mo167  1  0.90278078  0.30842180  0.62797038  1
  Mo  Mo168  1  0.20331019  0.79797968  -0.00158799  1
  Mo  Mo169  1  0.40880372  0.39147292  0.24818061  1
  Mo  Mo170  1  0.20416126  0.59666306  0.75081648  1
  Mo  Mo171  1  0.29240165  0.09877269  0.36823008  1
  Mo  Mo172  1  0.59731833  0.80536673  0.50360270  1
  Mo  Mo173  1  0.00217116  0.20570258  0.74722603  1
  Mo  Mo174  1  0.10417301  0.52060828  0.11642370  1
  Mo  Mo175  1  0.69381184  0.09213126  0.62530126  1
  Mo  Mo176  1  0.48805705  0.30331356  0.63408378  1
  Mo  Mo177  1  0.60201235  0.40620081  0.50442816  1
  Mo  Mo178  1  0.20800023  0.81174368  0.25798603  1
  Mo  Mo179  1  0.39323628  0.20773107  0.74567209  1
  Mo  Mo180  1  0.09882694  0.49810298  0.38034650  1
  Mo  Mo181  1  0.50870339  0.29714250  0.37282099  1
  Mo  Mo182  1  0.20272333  -0.01294558  0.74895996  1
  Mo  Mo183  1  0.30534560  0.69259649  0.61717682  1
  Mo  Mo184  1  0.19946398  0.60487631  0.24267920  1
  Mo  Mo185  1  0.41008087  0.59881407  0.50589973  1
  Mo  Mo186  1  0.89419790  0.91310487  0.37897551  1
  Mo  Mo187  1  0.30739719  0.69494746  0.87676600  1
  Mo  Mo188  1  0.59279430  0.59292412  -0.00545651  1
  Mo  Mo189  1  -0.00987820  -0.01013831  0.75073314  1
  Mo  Mo190  1  0.10134897  0.90594128  0.38221472  1
  Mo  Mo191  1  0.40065206  0.39348671  -0.00091599  1
  Mo  Mo192  1  0.29443303  0.89464717  0.36896502  1
  Mo  Mo193  1  0.50799964  0.89108069  0.61535012  1
  Mo  Mo194  1  0.00064342  0.19254271  0.00301932  1
  Mo  Mo195  1  0.18688306  -0.00955386  0.26544464  1
  Mo  Mo196  1  0.30593626  0.50685964  0.12397475  1
  Mo  Mo197  1  -0.00377470  0.00643794  0.49713514  1
  Mo  Mo198  1  0.09748346  0.90584143  0.12283199  1
  Mo  Mo199  1  0.59646878  0.19663888  0.00004400  1
