# generated using pymatgen
data_HfZrTaTiMo
_symmetry_space_group_name_H-M   'P 1'
_cell_length_a   15.20997898
_cell_length_b   15.21128086
_cell_length_c   16.86749316
_cell_angle_alpha   90.01703686
_cell_angle_beta   89.96418741
_cell_angle_gamma   90.04655086
_symmetry_Int_Tables_number   1
_chemical_formula_structural   HfZrTaTiMo
_chemical_formula_sum   'Hf40 Zr40 Ta40 Ti40 Mo40'
_cell_volume   3902.51601847
_cell_formula_units_Z   40
loop_
 _symmetry_equiv_pos_site_id
 _symmetry_equiv_pos_as_xyz
  1  'x, y, z'
loop_
 _atom_site_type_symbol
 _atom_site_label
 _atom_site_symmetry_multiplicity
 _atom_site_fract_x
 _atom_site_fract_y
 _atom_site_fract_z
 _atom_site_occupancy
  Hf  Hf0  1  0.49156574  0.29385434  0.37795727  1
  Hf  Hf1  1  0.70868000  0.49655754  0.64712884  1
  Hf  Hf2  1  0.40575468  0.41082088  -0.01278193  1
  Hf  Hf3  1  0.10550640  0.10682207  0.88460904  1
  Hf  Hf4  1  0.50127464  0.51218630  0.12409825  1
  Hf  Hf5  1  0.29711591  0.51528243  0.87336106  1
  Hf  Hf6  1  0.60180733  0.19551419  -0.01576976  1
  Hf  Hf7  1  0.08734327  0.50206196  0.37189626  1
  Hf  Hf8  1  0.58208512  0.80599250  0.72892495  1
  Hf  Hf9  1  0.60409609  -0.00946983  0.50975536  1
  Hf  Hf10  1  0.03123977  0.19387338  0.49298533  1
  Hf  Hf11  1  0.31556232  0.87487576  0.13958430  1
  Hf  Hf12  1  0.08541290  0.50940412  0.11285675  1
  Hf  Hf13  1  0.61652131  -0.00528975  0.00481066  1
  Hf  Hf14  1  0.48782775  0.88825503  0.39206311  1
  Hf  Hf15  1  0.88063451  0.69546615  0.63654417  1
  Hf  Hf16  1  0.89240360  0.10502762  0.13456137  1
  Hf  Hf17  1  0.49778884  0.09662109  0.62292135  1
  Hf  Hf18  1  0.48876426  0.69930304  0.87268222  1
  Hf  Hf19  1  -0.00796222  0.00820187  -0.00096328  1
  Hf  Hf20  1  0.70627054  0.10307352  0.36712755  1
  Hf  Hf21  1  0.29778627  0.71149691  0.38631150  1
  Hf  Hf22  1  0.50146972  0.09158604  0.37372769  1
  Hf  Hf23  1  0.09375116  0.49056062  0.88914692  1
  Hf  Hf24  1  0.19236689  0.82565904  0.50423851  1
  Hf  Hf25  1  0.60346477  0.39970942  -0.01597426  1
  Hf  Hf26  1  0.28983590  0.12445374  0.63054522  1
  Hf  Hf27  1  0.08565357  0.70789394  0.39036858  1
  Hf  Hf28  1  0.69620762  0.68721861  0.37610998  1
  Hf  Hf29  1  0.39283779  0.59464536  0.50768993  1
  Hf  Hf30  1  0.09372744  0.92299842  0.62830025  1
  Hf  Hf31  1  0.50179382  0.49259029  0.62341308  1
  Hf  Hf32  1  -0.00882710  0.59106296  0.51086973  1
  Hf  Hf33  1  0.20607693  -0.00474391  0.00576036  1
  Hf  Hf34  1  0.10160857  0.69328042  0.87507175  1
  Hf  Hf35  1  0.80548629  0.19745688  0.74001831  1
  Hf  Hf36  1  -0.00110783  0.77948868  0.25108138  1
  Hf  Hf37  1  0.01918969  0.21553145  0.75573589  1
  Hf  Hf38  1  0.48480141  0.29684936  0.61970060  1
  Hf  Hf39  1  0.69280035  0.89288632  0.37669778  1
  Zr  Zr40  1  0.80406666  0.39174614  -0.00535513  1
  Zr  Zr41  1  0.09306610  0.70817503  0.61866406  1
  Zr  Zr42  1  0.57142053  0.79209654  0.24382991  1
  Zr  Zr43  1  0.89532933  0.68699433  0.11404898  1
  Zr  Zr44  1  0.81235494  -0.01195309  0.50063568  1
  Zr  Zr45  1  0.00005557  0.79814725  -0.00671967  1
  Zr  Zr46  1  0.61079649  0.59319078  0.50742107  1
  Zr  Zr47  1  0.90027904  0.50066434  0.87788780  1
  Zr  Zr48  1  0.00659700  0.58800116  0.74333109  1
  Zr  Zr49  1  0.90951211  0.09873438  0.37091298  1
  Zr  Zr50  1  0.40174846  0.61885189  0.24849544  1
  Zr  Zr51  1  0.70152323  0.89793264  0.13188986  1
  Zr  Zr52  1  0.28696310  0.48088281  0.63063162  1
  Zr  Zr53  1  -0.00711984  0.80720027  0.75837167  1
  Zr  Zr54  1  0.80560620  0.19769974  0.50886725  1
  Zr  Zr55  1  0.58821722  0.38878811  0.76278354  1
  Zr  Zr56  1  0.89326577  0.10444282  0.86990446  1
  Zr  Zr57  1  0.40447194  0.00030018  0.00483396  1
  Zr  Zr58  1  0.31618491  0.29233068  0.11686141  1
  Zr  Zr59  1  0.20284669  0.00887790  0.75599642  1
  Zr  Zr60  1  0.10883641  0.90057758  0.13938820  1
  Zr  Zr61  1  0.29030344  0.91612617  0.36184298  1
  Zr  Zr62  1  0.39587230  0.21339765  0.77036817  1
  Zr  Zr63  1  0.92538984  0.08537646  0.62610103  1
  Zr  Zr64  1  0.59586414  0.60174501  -0.00548775  1
  Zr  Zr65  1  0.11684609  0.30898471  0.35982164  1
  Zr  Zr66  1  0.09895487  0.11075413  0.13538791  1
  Zr  Zr67  1  0.79612910  0.78884957  0.25592199  1
  Zr  Zr68  1  0.70501694  0.29040981  0.12900466  1
  Zr  Zr69  1  0.40221723  0.60738863  0.73412997  1
  Zr  Zr70  1  0.18817622  0.60825057  0.25106204  1
  Zr  Zr71  1  0.41643914  0.00210877  0.75395570  1
  Zr  Zr72  1  0.50033632  0.11164566  0.12986349  1
  Zr  Zr73  1  0.69642229  0.70651709  0.85692807  1
  Zr  Zr74  1  0.60865289  0.20339617  0.50184921  1
  Zr  Zr75  1  0.89852433  0.90083662  0.12239857  1
  Zr  Zr76  1  0.39379642  0.40056572  0.25008558  1
  Zr  Zr77  1  0.50764205  0.89669334  0.87839583  1
  Zr  Zr78  1  0.60584150  0.40954524  0.25421209  1
  Zr  Zr79  1  0.92064274  0.30439727  0.61449072  1
  Ta  Ta80  1  0.20221168  0.80284736  0.74463606  1
  Ta  Ta81  1  0.38913436  0.80488978  0.72879497  1
  Ta  Ta82  1  0.10713117  0.89807949  0.87605876  1
  Ta  Ta83  1  0.71573546  0.28908189  0.86677520  1
  Ta  Ta84  1  0.49741467  0.70220584  0.39791035  1
  Ta  Ta85  1  0.10553026  0.70264929  0.11849993  1
  Ta  Ta86  1  -0.00435317  0.21286311  0.25450878  1
  Ta  Ta87  1  0.12693955  0.29787006  0.62421388  1
  Ta  Ta88  1  0.69877640  0.50547642  0.85509124  1
  Ta  Ta89  1  0.79980430  0.58576565  0.25138726  1
  Ta  Ta90  1  0.22865090  0.21361773  0.48778343  1
  Ta  Ta91  1  0.11968068  0.09723673  0.35299636  1
  Ta  Ta92  1  0.49662840  0.50473572  0.38239038  1
  Ta  Ta93  1  0.31164441  0.11889305  0.35652447  1
  Ta  Ta94  1  0.70263479  0.09121523  0.63551419  1
  Ta  Ta95  1  0.19424726  0.59388852  0.50480937  1
  Ta  Ta96  1  0.29578996  0.71094500  0.86649427  1
  Ta  Ta97  1  0.77955617  0.80278361  -0.00348478  1
  Ta  Ta98  1  0.88506936  0.90019091  0.87952075  1
  Ta  Ta99  1  0.90121019  0.49006128  0.62982149  1
  Ta  Ta100  1  0.60057544  -0.00364637  0.24735443  1
  Ta  Ta101  1  -0.00389018  0.41373014  0.24254945  1
  Ta  Ta102  1  0.19279871  0.38231860  0.76580297  1
  Ta  Ta103  1  0.21396543  0.79608325  -0.00173956  1
  Ta  Ta104  1  0.68769052  0.68973011  0.12418149  1
  Ta  Ta105  1  0.10603196  0.30958923  0.13133047  1
  Ta  Ta106  1  0.38297817  0.01078920  0.50058804  1
  Ta  Ta107  1  0.19985615  0.39491272  -0.00029951  1
  Ta  Ta108  1  0.90891464  0.30951361  0.38206033  1
  Ta  Ta109  1  0.59644184  0.18540621  0.76039539  1
  Ta  Ta110  1  0.20597196  0.20034165  0.00389546  1
  Ta  Ta111  1  0.90775419  0.29957048  0.12580159  1
  Ta  Ta112  1  0.79459413  0.78368292  0.49914337  1
  Ta  Ta113  1  0.80995885  0.39493687  0.24922027  1
  Ta  Ta114  1  0.29102309  0.50276966  0.12079811  1
  Ta  Ta115  1  0.80207187  0.18582480  -0.00416340  1
  Ta  Ta116  1  0.71235084  0.30514958  0.37082675  1
  Ta  Ta117  1  0.28945622  0.49447504  0.37559167  1
  Ta  Ta118  1  0.79367401  0.40417146  0.50048711  1
  Ta  Ta119  1  0.89004269  0.50053266  0.37737258  1
  Ti  Ti120  1  0.70076605  0.89883892  0.86440300  1
  Ti  Ti121  1  0.01422638  -0.01214098  0.48548797  1
  Ti  Ti122  1  0.41332273  -0.00921096  0.24428853  1
  Ti  Ti123  1  0.38018087  0.38603321  0.49171004  1
  Ti  Ti124  1  0.29362173  0.70880299  0.61445899  1
  Ti  Ti125  1  0.00034917  0.21954838  -0.00199673  1
  Ti  Ti126  1  0.30403498  0.10011875  0.87917797  1
  Ti  Ti127  1  0.20030794  0.60572372  0.00195422  1
  Ti  Ti128  1  0.00063501  0.00252657  0.76308717  1
  Ti  Ti129  1  0.79306690  0.60159653  -0.00659822  1
  Ti  Ti130  1  0.80272274  -0.01539424  0.74223704  1
  Ti  Ti131  1  0.18724118  0.40254079  0.49993912  1
  Ti  Ti132  1  0.60323359  0.39974271  0.49371043  1
  Ti  Ti133  1  -0.00107513  -0.00321294  0.25392262  1
  Ti  Ti134  1  0.30173679  0.91601237  0.62317674  1
  Ti  Ti135  1  0.10153203  0.90211724  0.35910262  1
  Ti  Ti136  1  0.70438636  0.50007149  0.12333757  1
  Ti  Ti137  1  0.40670920  0.20586233  -0.02109707  1
  Ti  Ti138  1  0.69919924  0.08287461  0.86171085  1
  Ti  Ti139  1  0.90090754  0.88688592  0.62156633  1
  Ti  Ti140  1  0.30038803  0.09366917  0.14244256  1
  Ti  Ti141  1  0.88872264  0.70073884  0.87086857  1
  Ti  Ti142  1  0.70556249  0.88885130  0.62583671  1
  Ti  Ti143  1  0.60279483  0.20306613  0.25340711  1
  Ti  Ti144  1  0.19466551  0.02707763  0.49704003  1
  Ti  Ti145  1  0.89404871  0.49861129  0.11518874  1
  Ti  Ti146  1  0.38886505  0.61833035  0.00632324  1
  Ti  Ti147  1  0.39323131  0.40148749  0.77022418  1
  Ti  Ti148  1  0.79809719  0.59026263  0.50078564  1
  Ti  Ti149  1  0.50796187  0.30530925  0.12296729  1
  Ti  Ti150  1  0.59912628  0.59872574  0.25475968  1
  Ti  Ti151  1  0.90638145  0.88031519  0.37957451  1
  Ti  Ti152  1  0.69218507  0.69279219  0.63978531  1
  Ti  Ti153  1  0.21789219  0.21649885  0.24540942  1
  Ti  Ti154  1  0.19967426  0.60027365  0.73971317  1
  Ti  Ti155  1  0.82021871  0.39155134  0.75766929  1
  Ti  Ti156  1  0.80337561  -0.00462540  0.25910830  1
  Ti  Ti157  1  0.70624028  0.10037386  0.13733197  1
  Ti  Ti158  1  0.30464869  0.89407275  0.87277798  1
  Ti  Ti159  1  0.69593340  0.30019338  0.63151788  1
  Mo  Mo160  1  0.60147584  0.79257952  0.51798274  1
  Mo  Mo161  1  0.20490382  0.20644831  0.76443530  1
  Mo  Mo162  1  0.89390167  0.69047119  0.38292396  1
  Mo  Mo163  1  0.20126182  0.41008774  0.23555586  1
  Mo  Mo164  1  0.09910519  0.29997031  0.89173700  1
  Mo  Mo165  1  -0.00082546  0.39788921  0.49712902  1
  Mo  Mo166  1  -0.01094843  0.60429438  -0.00525567  1
  Mo  Mo167  1  0.50442434  0.29911305  0.87658535  1
  Mo  Mo168  1  0.79557517  0.80683021  0.74813495  1
  Mo  Mo169  1  -0.01784965  0.80950448  0.49988815  1
  Mo  Mo170  1  0.39152036  0.80673795  0.51914175  1
  Mo  Mo171  1  0.49088934  0.90164494  0.60906310  1
  Mo  Mo172  1  0.90509355  0.29982230  0.87703703  1
  Mo  Mo173  1  0.59555907  0.79643902  0.00870802  1
  Mo  Mo174  1  0.59335172  0.59801359  0.74603532  1
  Mo  Mo175  1  0.39886448  0.19563004  0.49599800  1
  Mo  Mo176  1  0.10406053  0.11160562  0.62063433  1
  Mo  Mo177  1  0.39641599  0.79539622  0.25939744  1
  Mo  Mo178  1  0.20557649  0.00634065  0.24405604  1
  Mo  Mo179  1  0.29065716  0.69219408  0.12229221  1
  Mo  Mo180  1  0.49829138  0.50962754  0.87095611  1
  Mo  Mo181  1  0.30297818  0.31031170  0.36715923  1
  Mo  Mo182  1  0.50385668  0.90073762  0.12178336  1
  Mo  Mo183  1  0.79584496  0.00088559  -0.00574445  1
  Mo  Mo184  1  0.49656008  0.70351405  0.60895909  1
  Mo  Mo185  1  0.09357419  0.48226001  0.62544909  1
  Mo  Mo186  1  0.48648630  0.71797785  0.11064604  1
  Mo  Mo187  1  -0.01861240  0.59475320  0.25042567  1
  Mo  Mo188  1  0.00795790  0.39566296  0.74987728  1
  Mo  Mo189  1  0.41228779  0.19802127  0.24496670  1
  Mo  Mo190  1  -0.00004304  0.39582298  0.01311112  1
  Mo  Mo191  1  0.50851698  0.09559347  0.87570093  1
  Mo  Mo192  1  0.80405758  0.20631437  0.25539579  1
  Mo  Mo193  1  0.19755109  0.79299272  0.25493090  1
  Mo  Mo194  1  0.39592184  0.79740444  -0.00404877  1
  Mo  Mo195  1  0.30394592  0.30737512  0.62837409  1
  Mo  Mo196  1  0.61274761  -0.00318327  0.73858267  1
  Mo  Mo197  1  0.69960234  0.49320935  0.37396406  1
  Mo  Mo198  1  0.29374538  0.30152393  0.89142048  1
  Mo  Mo199  1  0.80119424  0.59636197  0.75267799  1
